REMARK  17 active torsions:
REMARK  status: ('A' for Active; 'I' for Inactive)
REMARK    1  A    between atoms: C2_2  and  C3_3 
REMARK    2  A    between atoms: C3_3  and  O1_4 
REMARK    3  A    between atoms: O1_4  and  C4_5 
REMARK    4  A    between atoms: C4_5  and  C5_6 
REMARK    5  A    between atoms: C6_7  and  O2_8 
REMARK    6  A    between atoms: C9_12  and  C10_13 
REMARK    7  A    between atoms: C10_13  and  O3_14 
REMARK    8  A    between atoms: C15_19  and  O4_20 
REMARK    9  A    between atoms: O4_20  and  C16_21 
REMARK   10  A    between atoms: C18_24  and  O6_25 
REMARK   11  A    between atoms: O6_25  and  C19_26 
REMARK   12  A    between atoms: C22_30  and  O8_32 
REMARK   13  A    between atoms: C26_36  and  C27_37 
REMARK   14  A    between atoms: C27_37  and  O10_39 
REMARK   15  A    between atoms: O10_39  and  C28_40 
REMARK   16  A    between atoms: C28_40  and  C29_41 
REMARK   17  A    between atoms: C29_41  and  C31_43 
ROOT
HETATM    1  C5  UNL     1      -2.471   0.579   0.639  1.00  0.00     0.069 C 
HETATM    2  C6  UNL     1      -1.162   1.206   0.569  1.00  0.00     0.132 C 
HETATM    3  C7  UNL     1       0.021   0.702  -0.032  1.00  0.00     0.035 C 
HETATM    4  C8  UNL     1       0.813  -0.469   0.339  1.00  0.00     0.013 C 
HETATM    5  C9  UNL     1       0.143  -1.752   0.715  1.00  0.00     0.016 C 
HETATM    6  C12 UNL     1      -1.213  -1.937   0.216  1.00  0.00     0.021 C 
HETATM    7  C13 UNL     1      -1.778  -1.253  -0.935  1.00  0.00     0.011 C 
HETATM    8  C14 UNL     1      -2.538  -2.341  -1.744  1.00  0.00     0.020 C 
HETATM    9  C15 UNL     1      -2.894  -0.337  -0.466  1.00  0.00     0.151 C 
HETATM   10  C18 UNL     1      -0.995  -0.530  -1.978  1.00  0.00     0.155 C 
HETATM   11  C21 UNL     1       0.145   0.334  -1.464  1.00  0.00     0.036 C 
HETATM   12  C22 UNL     1       0.448   1.479  -2.360  1.00  0.00     0.066 C 
HETATM   13  C23 UNL     1       0.703   2.833  -1.768  1.00  0.00     0.047 C 
HETATM   14  C24 UNL     1       1.637   1.208  -3.266  1.00  0.00     0.043 C 
HETATM   15  C25 UNL     1       2.819   1.135  -2.369  1.00  0.00     0.044 C 
HETATM   16  C26 UNL     1       2.706   0.068  -1.301  1.00  0.00     0.005 C 
HETATM   17  C33 UNL     1       1.367  -0.513  -1.090  1.00  0.00     0.003 C 
HETATM   18  C34 UNL     1       1.394  -1.910  -1.685  1.00  0.00     0.021 C 
ENDROOT
BRANCH  16  19
HETATM   19  C27 UNL     1       3.508   0.445  -0.099  1.00  0.00     0.286 C 
HETATM   20  O9  UNL     1       3.821   1.656   0.000  1.00  0.00    -0.260 OA
BRANCH  19  21
HETATM   21  O10 UNL     1       3.928  -0.387   0.889  1.00  0.00    -0.314 OA
BRANCH  21  22
HETATM   22  C28 UNL     1       4.672  -0.215   2.026  1.00  0.00     0.212 C 
BRANCH  22  23
HETATM   23  C29 UNL     1       6.107   0.047   1.814  1.00  0.00    -0.066 C 
HETATM   24  C30 UNL     1       7.001  -0.824   2.345  1.00  0.00     0.016 C 
BRANCH  23  25
HETATM   25  C31 UNL     1       6.671   1.205   1.094  1.00  0.00     0.031 C 
HETATM   26  C32 UNL     1       8.187   1.277   1.238  1.00  0.00     0.010 C 
ENDBRANCH  23  25
ENDBRANCH  22  23
ENDBRANCH  21  22
ENDBRANCH  19  21
ENDBRANCH  16  19
BRANCH  12  27
HETATM   27  O8  UNL     1      -0.593   1.817  -3.249  1.00  0.00    -0.389 OA
ATOM     28  H8  UNL     1      -0.399   2.549  -3.822  1.00  0.00     0.210 HD
ENDBRANCH  12  27
BRANCH   5  29
HETATM   29  C10 UNL     1       0.261  -1.920   2.217  1.00  0.00     0.172 C 
BRANCH  29  30
HETATM   30  O3  UNL     1      -0.186  -2.967   2.854  1.00  0.00    -0.396 OA
HETATM   31  C11 UNL     1      -1.384  -3.485   2.995  1.00  0.00     0.201 C 
ENDBRANCH  29  30
ENDBRANCH   5  29
BRANCH  10  32
HETATM   32  O6  UNL     1      -0.649  -1.351  -3.061  1.00  0.00    -0.315 OA
BRANCH  32  33
HETATM   33  C19 UNL     1      -1.086  -1.436  -4.324  1.00  0.00     0.255 C 
HETATM   34  C20 UNL     1      -0.453  -2.465  -5.244  1.00  0.00     0.126 C 
HETATM   35  O7  UNL     1      -1.987  -0.689  -4.725  1.00  0.00    -0.266 OA
ENDBRANCH  32  33
ENDBRANCH  10  32
BRANCH   2  36
HETATM   36  O2  UNL     1      -0.796   1.652   1.856  1.00  0.00    -0.395 OA
ATOM     37  H2  UNL     1       0.060   2.062   1.810  1.00  0.00     0.210 HD
ENDBRANCH   2  36
BRANCH   1  38
HETATM   38  C4  UNL     1      -3.623   1.597   0.684  1.00  0.00     0.177 C 
BRANCH  38  39
HETATM   39  O1  UNL     1      -3.507   2.425   1.799  1.00  0.00    -0.387 OA
BRANCH  39  40
HETATM   40  C3  UNL     1      -4.543   3.357   1.851  1.00  0.00     0.194 C 
BRANCH  40  41
HETATM   41  C2  UNL     1      -4.461   4.249   3.009  1.00  0.00    -0.011 C 
HETATM   42  C1  UNL     1      -5.427   4.307   3.907  1.00  0.00     0.009 C 
ENDBRANCH  40  41
ENDBRANCH  39  40
ENDBRANCH  38  39
ENDBRANCH   1  38
BRANCH   9  43
HETATM   43  O4  UNL     1      -3.910  -1.194   0.028  1.00  0.00    -0.315 OA
BRANCH  43  44
HETATM   44  C16 UNL     1      -5.169  -1.306  -0.449  1.00  0.00     0.255 C 
HETATM   45  C17 UNL     1      -6.117  -2.252   0.174  1.00  0.00     0.126 C 
HETATM   46  O5  UNL     1      -5.539  -0.612  -1.417  1.00  0.00    -0.266 OA
ENDBRANCH  43  44
ENDBRANCH   9  43
TORSDOF 17
