REMARK  15 active torsions:
REMARK  status: ('A' for Active; 'I' for Inactive)
REMARK    1  A    between atoms: C2_3  and  C3_4 
REMARK    2  A    between atoms: C3_4  and  N2_5 
REMARK       I    between atoms: N2_5  and  C4_7 
REMARK       I    between atoms: C4_7  and  N4_11 
REMARK    3  A    between atoms: N4_11  and  C5_12 
REMARK    4  A    between atoms: N4_11  and  C7_16 
REMARK    5  A    between atoms: C5_12  and  C6_13 
REMARK    6  A    between atoms: C6_13  and  O1_14 
REMARK    7  A    between atoms: C7_16  and  C8_17 
REMARK    8  A    between atoms: C8_17  and  C9_18 
REMARK    9  A    between atoms: C9_18  and  C10_19 
REMARK   10  A    between atoms: C10_19  and  C11_20 
REMARK   11  A    between atoms: C11_20  and  C12_21 
REMARK   12  A    between atoms: C12_21  and  N5_22 
REMARK       I    between atoms: N5_22  and  C13_24 
REMARK   13  A    between atoms: C15_31  and  N9_32 
REMARK   14  A    between atoms: N9_32  and  C16_33 
REMARK   15  A    between atoms: C16_33  and  O3_34 
ROOT
HETATM    1  N2  UNL     1       2.349   0.161  -0.116  1.00  0.00    -0.198 N 
ATOM      2  H2  UNL     1       2.063  -0.517  -0.822  1.00  0.00     0.183 HD
HETATM    3  C4  UNL     1       1.702   1.438  -0.181  1.00  0.00     0.681 C 
HETATM    4  N3  UNL     1       2.313   2.430  -0.570  1.00  0.00    -0.234 N 
ATOM      5  H31 UNL     1       1.852   3.339  -0.616  1.00  0.00     0.174 HD
ATOM      6  H32 UNL     1       3.281   2.417  -0.891  1.00  0.00     0.174 HD
HETATM    7  N4  UNL     1       0.268   1.457   0.294  1.00  0.00    -0.175 N 
ENDROOT
BRANCH   1   8
HETATM    8  C3  UNL     1       3.322  -0.278   0.790  1.00  0.00     0.154 C 
BRANCH   8   9
HETATM    9  C2  UNL     1       4.708   0.177   0.655  1.00  0.00     0.124 C 
HETATM   10  N1  UNL     1       5.635  -0.567  -0.117  1.00  0.00    -0.331 N 
HETATM   11  C1  UNL     1       5.612  -1.916  -0.633  1.00  0.00     0.155 C 
HETATM   12  C15 UNL     1       6.803   0.304  -0.334  1.00  0.00     0.360 C 
HETATM   13  C14 UNL     1       6.672   1.200   0.840  1.00  0.00     0.279 C 
HETATM   14  N8  UNL     1       5.273   1.181   1.199  1.00  0.00    -0.308 N 
HETATM   15  O2  UNL     1       7.593   1.844   1.408  1.00  0.00    -0.267 OA
ATOM     16  H8  UNL     1       4.809   1.866   1.796  1.00  0.00     0.170 HD
BRANCH  12  17
HETATM   17  N9  UNL     1       7.988  -0.610  -0.118  1.00  0.00    -0.401 NA
BRANCH  17  18
HETATM   18  C16 UNL     1       8.919  -1.328   0.050  1.00  0.00     0.312 C 
BRANCH  18  19
HETATM   19  O3  UNL     1       9.629  -2.102  -0.746  1.00  0.00    -0.346 OA
ATOM     20  H3  UNL     1      10.374  -2.676  -0.612  1.00  0.00     0.219 HD
ENDBRANCH  18  19
ENDBRANCH  17  18
ENDBRANCH  12  17
ENDBRANCH   8   9
ENDBRANCH   1   8
BRANCH   7  21
HETATM   21  C5  UNL     1      -0.324   2.732   0.235  1.00  0.00     0.113 C 
BRANCH  21  22
HETATM   22  C6  UNL     1      -1.189   3.083  -0.933  1.00  0.00     0.209 C 
BRANCH  22  23
HETATM   23  O1  UNL     1      -1.645   4.416  -0.682  1.00  0.00    -0.396 OA
ATOM     24  H1  UNL     1      -2.195   4.639  -1.424  1.00  0.00     0.209 HD
ENDBRANCH  22  23
ENDBRANCH  21  22
ENDBRANCH   7  21
BRANCH   7  25
HETATM   25  C7  UNL     1      -0.208   0.206   0.682  1.00  0.00     0.087 C 
BRANCH  25  26
HETATM   26  C8  UNL     1      -1.211  -0.650   0.089  1.00  0.00     0.046 C 
BRANCH  26  27
HETATM   27  C9  UNL     1      -2.632  -0.275   0.228  1.00  0.00     0.005 C 
BRANCH  27  28
HETATM   28  C10 UNL     1      -3.510  -1.358  -0.458  1.00  0.00     0.005 C 
BRANCH  28  29
HETATM   29  C11 UNL     1      -4.948  -0.953  -0.156  1.00  0.00     0.044 C 
BRANCH  29  30
HETATM   30  C12 UNL     1      -5.885  -1.973  -0.777  1.00  0.00     0.063 C 
BRANCH  30  31
HETATM   31  N5  UNL     1      -7.208  -1.735  -0.536  1.00  0.00    -0.347 N 
HETATM   32  C13 UNL     1      -8.046  -1.031   0.019  1.00  0.00     0.200 C 
HETATM   33  N6  UNL     1      -7.775   0.125   0.848  1.00  0.00    -0.067 NA
HETATM   34  N7  UNL     1      -9.435  -1.371  -0.136  1.00  0.00    -0.067 NA
ATOM     35  H5  UNL     1      -7.726  -2.458  -1.035  1.00  0.00     0.167 HD
ENDBRANCH  30  31
ENDBRANCH  29  30
ENDBRANCH  28  29
ENDBRANCH  27  28
ENDBRANCH  26  27
ENDBRANCH  25  26
ENDBRANCH   7  25
TORSDOF 15
