REMARK  7 active torsions:
REMARK  status: ('A' for Active; 'I' for Inactive)
REMARK    1  A    between atoms: S1_2  and  C2_3 
REMARK    2  A    between atoms: C3_5  and  C4_6 
REMARK    3  A    between atoms: C6_10  and  C7_11 
REMARK    4  A    between atoms: C7_11  and  O1_12 
REMARK    5  A    between atoms: C7_11  and  N1_14 
REMARK    6  A    between atoms: N1_14  and  O2_16 
REMARK    7  A    between atoms: C8_18  and  N2_19 
ROOT
HETATM    1  C2  UNL     1       1.440  -0.608   1.013  1.00  0.00     0.075 A 
HETATM    2  S2  UNL     1       0.174  -1.718   0.943  1.00  0.00    -0.080 SA
HETATM    3  C3  UNL     1      -1.034  -0.708   0.215  1.00  0.00     0.051 A 
HETATM    4  C6  UNL     1      -0.388   0.479   0.055  1.00  0.00     0.069 A 
HETATM    5  C8  UNL     1       0.916   0.531   0.475  1.00  0.00     0.142 A 
ENDROOT
BRANCH   4   6
HETATM    6  C7  UNL     1      -1.087   1.668  -0.521  1.00  0.00     0.174 C 
BRANCH   6   7
HETATM    7  O1  UNL     1      -2.374   1.671  -0.918  1.00  0.00    -0.344 OA
ATOM      8  H1  UNL     1      -2.818   2.427  -1.284  1.00  0.00     0.219 HD
ENDBRANCH   6   7
BRANCH   6   9
HETATM    9  N1  UNL     1      -0.424   2.797  -0.662  1.00  0.00    -0.247 N 
ATOM     10  H1  UNL     1       0.554   2.836  -0.376  1.00  0.00     0.196 HD
BRANCH   9  11
HETATM   11  O2  UNL     1      -1.010   3.921  -1.182  1.00  0.00    -0.288 OA
ATOM     12  H2  UNL     1      -0.532   4.735  -1.284  1.00  0.00     0.244 HD
ENDBRANCH   9  11
ENDBRANCH   6   9
ENDBRANCH   4   6
BRANCH   3  13
HETATM   13  C4  UNL     1      -2.425  -1.173  -0.126  1.00  0.00     0.191 C 
HETATM   14  C5  UNL     1      -2.525  -2.655   0.342  1.00  0.00     0.071 C 
HETATM   15  F1  UNL     1      -3.414  -0.468   0.465  1.00  0.00    -0.225 F 
HETATM   16 BR1  UNL     1      -2.631  -1.176  -2.050  1.00  0.00    -0.043 Br
ENDBRANCH   3  13
BRANCH   5  17
HETATM   17  N2  UNL     1       1.768   1.718   0.353  1.00  0.00    -0.113 N 
HETATM   18  O3  UNL     1       1.928   2.438   1.345  1.00  0.00    -0.532 OA
HETATM   19  O4  UNL     1       2.385   2.059  -0.813  1.00  0.00    -0.532 OA
ENDBRANCH   5  17
BRANCH   1  20
HETATM   20  S1  UNL     1       3.136  -0.830   1.635  1.00  0.00    -0.125 SA
HETATM   21  C1  UNL     1       4.204  -1.384   0.276  1.00  0.00     0.096 C 
ENDBRANCH   1  20
TORSDOF 7
