REMARK  5 active torsions:
REMARK  status: ('A' for Active; 'I' for Inactive)
REMARK    1  A    between atoms: C2_2  and  O1_3 
REMARK    2  A    between atoms: O1_3  and  C3_4 
REMARK       I    between atoms: C3_4  and  N1_6 
REMARK    3  A    between atoms: N2_9  and  O4_10 
REMARK    4  A    between atoms: C10_20  and  N5_21 
REMARK    5  A    between atoms: N6_26  and  N7_27 
ROOT
HETATM    1  C3  UNL     1       2.671   0.712   0.272  1.00  0.00     0.377 C 
HETATM    2  O2  UNL     1       2.458   1.768   0.908  1.00  0.00    -0.237 OA
HETATM    3  N1  UNL     1       1.573  -0.118  -0.151  1.00  0.00    -0.189 N 
HETATM    4  C4  UNL     1       1.633  -1.270  -0.834  1.00  0.00     0.363 A 
HETATM    5  O3  UNL     1       2.707  -1.801  -1.213  1.00  0.00    -0.243 OA
HETATM    6  N2  UNL     1       0.405  -1.755  -1.045  1.00  0.00    -0.166 N 
HETATM    7  C5  UNL     1      -0.443  -0.874  -0.474  1.00  0.00     0.145 A 
HETATM    8  C6  UNL     1      -1.793  -0.598  -0.229  1.00  0.00     0.137 A 
HETATM    9  C7  UNL     1      -1.860   0.587   0.474  1.00  0.00     0.142 A 
HETATM   10  N3  UNL     1      -0.600   1.003   0.643  1.00  0.00    -0.324 N 
ATOM     11  H3  UNL     1      -0.337   1.859   1.132  1.00  0.00     0.169 HD
HETATM   12  C8  UNL     1       0.276   0.148   0.085  1.00  0.00     0.155 A 
HETATM   13  N4  UNL     1      -3.079   1.046   0.819  1.00  0.00    -0.317 N 
HETATM   14  C9  UNL     1      -3.172   2.285   1.556  1.00  0.00     0.159 C 
HETATM   15  C10 UNL     1      -4.217   0.371   0.490  1.00  0.00     0.174 A 
HETATM   16  C11 UNL     1      -4.114  -0.810  -0.212  1.00  0.00     0.310 A 
HETATM   17  O5  UNL     1      -5.155  -1.441  -0.522  1.00  0.00    -0.262 OA
HETATM   18  N6  UNL     1      -2.918  -1.271  -0.558  1.00  0.00    -0.218 N 
ENDROOT
BRANCH   1  19
HETATM   19  O1  UNL     1       3.966   0.356  -0.017  1.00  0.00    -0.304 OA
BRANCH  19  20
HETATM   20  C2  UNL     1       5.094   1.121   0.366  1.00  0.00     0.176 C 
HETATM   21  C1  UNL     1       6.344   0.408  -0.131  1.00  0.00     0.034 C 
ENDBRANCH  19  20
ENDBRANCH   1  19
BRANCH   6  22
HETATM   22  O4  UNL     1       0.061  -2.930  -1.717  1.00  0.00    -0.278 OA
ATOM     23  H4  UNL     1      -0.812  -3.275  -1.867  1.00  0.00     0.245 HD
ENDBRANCH   6  22
BRANCH  18  24
HETATM   24  N7  UNL     1      -2.884  -2.484  -1.275  1.00  0.00    -0.335 N 
ATOM     25  H72 UNL     1      -1.965  -2.838  -1.541  1.00  0.00     0.177 HD
ATOM     26  H71 UNL     1      -3.733  -2.992  -1.523  1.00  0.00     0.177 HD
ENDBRANCH  18  24
BRANCH  15  27
HETATM   27  N5  UNL     1      -5.332   0.885   0.862  1.00  0.00    -0.381 N 
ATOM     28  H52 UNL     1      -5.408   1.759   1.382  1.00  0.00     0.157 HD
ATOM     29  H51 UNL     1      -6.183   0.380   0.616  1.00  0.00     0.157 HD
ENDBRANCH  15  27
TORSDOF 5
