REMARK  7 active torsions:
REMARK  status: ('A' for Active; 'I' for Inactive)
REMARK    1  A    between atoms: C2_2  and  C3_4 
REMARK    2  A    between atoms: N2_7  and  N3_9 
REMARK    3  A    between atoms: N3_9  and  C5_11 
REMARK    4  A    between atoms: C6_16  and  C7_17 
REMARK    5  A    between atoms: N6_18  and  N7_20 
REMARK    6  A    between atoms: N7_20  and  C8_22 
REMARK    7  A    between atoms: C13_33  and  O2_34 
ROOT
HETATM    1  C3  UNL     1      -5.681  -0.806  -0.576  1.00  0.00     0.174 C 
HETATM    2  C4  UNL     1      -6.485  -0.611  -1.792  1.00  0.00     0.123 C 
HETATM    3  N1  UNL     1      -7.122  -0.442  -2.741  1.00  0.00    -0.190 NA
HETATM    4  N2  UNL     1      -4.505  -1.231  -0.669  1.00  0.00    -0.286 N 
ATOM      5  H2  UNL     1      -4.189  -1.415  -1.621  1.00  0.00     0.188 HD
ENDROOT
BRANCH   1   6
HETATM    6  C2  UNL     1      -6.338  -0.482   0.662  1.00  0.00     0.184 C 
HETATM    7  C1  UNL     1      -5.765  -0.582   2.017  1.00  0.00     0.099 C 
HETATM    8  O1  UNL     1      -7.544  -0.061   0.595  1.00  0.00    -0.290 OA
ENDBRANCH   1   6
BRANCH   4   9
HETATM    9  N3  UNL     1      -3.594  -1.483   0.287  1.00  0.00    -0.281 N 
ATOM     10  H3  UNL     1      -3.882  -2.148   1.005  1.00  0.00     0.188 HD
BRANCH   9  11
HETATM   11  C5  UNL     1      -2.285  -0.951   0.436  1.00  0.00     0.163 A 
HETATM   12  N4  UNL     1      -1.500  -1.303   1.486  1.00  0.00    -0.282 N 
HETATM   13  N5  UNL     1      -0.290  -0.846   1.670  1.00  0.00    -0.297 N 
ATOM     14  H4  UNL     1      -1.876  -1.961   2.169  1.00  0.00     0.188 HD
HETATM   15  C6  UNL     1       0.272   0.019   0.820  1.00  0.00     0.077 A 
ATOM     16  H5  UNL     1       0.240  -1.158   2.484  1.00  0.00     0.187 HD
HETATM   17  C11 UNL     1      -0.484   0.408  -0.265  1.00  0.00     0.028 A 
HETATM   18  C12 UNL     1      -0.193   1.262  -1.290  1.00  0.00     0.072 A 
HETATM   19  C14 UNL     1      -1.783  -0.066  -0.486  1.00  0.00     0.094 A 
HETATM   20  C13 UNL     1      -1.291   1.298  -2.106  1.00  0.00     0.141 A 
HETATM   21  N11 UNL     1      -2.261   0.493  -1.624  1.00  0.00    -0.333 N 
ATOM     22  H11 UNL     1      -3.180   0.335  -2.038  1.00  0.00     0.168 HD
BRANCH  15  23
HETATM   23  C7  UNL     1       1.627   0.535   1.019  1.00  0.00     0.139 C 
HETATM   24  N6  UNL     1       2.292   0.138   2.050  1.00  0.00    -0.295 N 
ATOM     25  H6  UNL     1       1.887  -0.521   2.715  1.00  0.00     0.186 HD
BRANCH  24  26
HETATM   26  N7  UNL     1       3.576   0.635   2.228  1.00  0.00    -0.131 N 
ATOM     27  H7  UNL     1       3.826   1.146   3.075  1.00  0.00     0.205 HD
BRANCH  26  28
HETATM   28  C8  UNL     1       4.539   0.414   1.196  1.00  0.00     0.707 C 
HETATM   29  N8  UNL     1       5.298   1.344   0.773  1.00  0.00    -0.222 N 
HETATM   30  C9  UNL     1       6.265   1.161  -0.251  1.00  0.00     0.159 C 
ATOM     31  H8  UNL     1       5.207   2.270   1.192  1.00  0.00     0.177 HD
HETATM   32  C10 UNL     1       6.618  -0.246  -0.563  1.00  0.00     0.160 C 
HETATM   33  N9  UNL     1       5.573  -1.194  -0.352  1.00  0.00    -0.321 N 
HETATM   34  N10 UNL     1       4.660  -0.875   0.617  1.00  0.00    -0.135 N 
ATOM     35  H9  UNL     1       5.510  -2.058  -0.891  1.00  0.00     0.180 HD
ATOM     36  H10 UNL     1       4.029  -1.608   0.942  1.00  0.00     0.205 HD
ENDBRANCH  26  28
ENDBRANCH  24  26
ENDBRANCH  15  23
BRANCH  20  37
HETATM   37  O2  UNL     1      -1.396   2.058  -3.273  1.00  0.00    -0.346 OA
ATOM     38  H2  UNL     1      -2.158   2.083  -3.839  1.00  0.00     0.219 HD
ENDBRANCH  20  37
ENDBRANCH   9  11
ENDBRANCH   4   9
TORSDOF 7
