REMARK  9 active torsions:
REMARK  status: ('A' for Active; 'I' for Inactive)
REMARK    1  A    between atoms: C2_2  and  N1_3 
REMARK    2  A    between atoms: N1_3  and  C3_5 
REMARK    3  A    between atoms: N2_8  and  C6_9 
REMARK    4  A    between atoms: C13_24  and  N7_25 
REMARK    5  A    between atoms: N7_25  and  C14_27 
REMARK    6  A    between atoms: N8_30  and  C17_31 
REMARK    7  A    between atoms: C19_33  and  N9_34 
REMARK    8  A    between atoms: C20_38  and  C21_39 
REMARK    9  A    between atoms: C21_39  and  O1_40 
ROOT
HETATM    1  C6  UNL     1       1.657  -0.518  -0.207  1.00  0.00     0.120 A 
HETATM    2  N3  UNL     1       1.540  -1.871  -0.470  1.00  0.00    -0.338 N 
ATOM      3  H3  UNL     1       2.395  -2.419  -0.568  1.00  0.00     0.168 HD
HETATM    4  C7  UNL     1       0.380  -2.494  -0.601  1.00  0.00     0.183 A 
HETATM    5  N4  UNL     1      -0.732  -1.800  -0.477  1.00  0.00    -0.337 N 
ATOM      6  H4  UNL     1      -1.620  -2.291  -0.581  1.00  0.00     0.168 HD
HETATM    7  C8  UNL     1      -0.764  -0.479  -0.221  1.00  0.00     0.128 A 
HETATM    8  C9  UNL     1       0.475   0.162  -0.085  1.00  0.00     0.080 A 
HETATM    9  C10 UNL     1       0.471   1.494   0.195  1.00  0.00     0.068 A 
HETATM   10  N5  UNL     1       1.544   2.146   0.363  1.00  0.00    -0.397 N 
ATOM     11  H51 UNL     1       1.541   3.144   0.573  1.00  0.00     0.156 HD
ATOM     12  H52 UNL     1       2.449   1.685   0.270  1.00  0.00     0.156 HD
HETATM   13  C11 UNL     1      -0.779   2.130   0.323  1.00  0.00     0.115 A 
HETATM   14  C12 UNL     1      -0.699   3.522   0.705  1.00  0.00     0.105 C 
HETATM   15  N6  UNL     1      -0.609   4.637   1.045  1.00  0.00    -0.191 NA
HETATM   16  C13 UNL     1      -1.979   1.497   0.182  1.00  0.00     0.131 A 
HETATM   17  N8  UNL     1      -1.942   0.156  -0.096  1.00  0.00    -0.289 N 
ENDROOT
BRANCH  16  18
HETATM   18  N7  UNL     1      -3.215   2.175   0.235  1.00  0.00    -0.370 N 
ATOM     19  H7  UNL     1      -4.024   1.556   0.284  1.00  0.00     0.161 HD
BRANCH  18  20
HETATM   20  C14 UNL     1      -3.543   3.547   0.233  1.00  0.00     0.083 A 
HETATM   21  C15 UNL     1      -3.516   4.385  -0.992  1.00  0.00     0.027 A 
HETATM   22  C16 UNL     1      -4.835   3.875  -0.574  1.00  0.00     0.027 A 
ENDBRANCH  18  20
ENDBRANCH  16  18
BRANCH  17  23
HETATM   23  C17 UNL     1      -3.153  -0.610  -0.264  1.00  0.00     0.233 C 
HETATM   24  C18 UNL     1      -3.745  -1.134   1.018  1.00  0.00     0.089 C 
HETATM   25  C19 UNL     1      -4.509  -2.352   0.548  1.00  0.00     0.218 C 
HETATM   26  C20 UNL     1      -3.965  -2.605  -0.805  1.00  0.00     0.178 C 
HETATM   27  O2  UNL     1      -2.884  -1.768  -1.026  1.00  0.00    -0.357 OA
BRANCH  25  28
HETATM   28  N9  UNL     1      -5.953  -2.065   0.505  1.00  0.00    -0.072 N 
ATOM     29  H93 UNL     1      -6.299  -1.721   1.401  1.00  0.00     0.274 HD
ATOM     30  H92 UNL     1      -6.161  -1.243  -0.063  1.00  0.00     0.274 HD
ATOM     31  H91 UNL     1      -6.468  -2.886   0.188  1.00  0.00     0.274 HD
ENDBRANCH  25  28
BRANCH  26  32
HETATM   32  C21 UNL     1      -3.699  -4.057  -1.009  1.00  0.00     0.198 C 
BRANCH  32  33
HETATM   33  O1  UNL     1      -4.787  -4.863  -0.780  1.00  0.00    -0.398 OA
ATOM     34  H1  UNL     1      -4.617  -5.789  -0.910  1.00  0.00     0.209 HD
ENDBRANCH  32  33
ENDBRANCH  26  32
ENDBRANCH  17  23
BRANCH   1  35
HETATM   35  N2  UNL     1       2.967   0.013  -0.156  1.00  0.00    -0.364 N 
HETATM   36  C5  UNL     1       3.680   0.592  -1.258  1.00  0.00     0.126 C 
HETATM   37  C4  UNL     1       4.958   1.179  -0.741  1.00  0.00     0.046 C 
HETATM   38  C3  UNL     1       5.046   0.812   0.706  1.00  0.00     0.096 C 
HETATM   39  C22 UNL     1       3.826   0.013   0.991  1.00  0.00     0.149 C 
BRANCH  38  40
HETATM   40  N1  UNL     1       6.295   0.203   1.064  1.00  0.00    -0.416 N 
ATOM     41  H1  UNL     1       6.927   0.633   1.739  1.00  0.00     0.153 HD
BRANCH  40  42
HETATM   42  C2  UNL     1       6.605  -1.029   0.429  1.00  0.00     0.110 C 
HETATM   43  C1  UNL     1       7.983  -1.474   0.946  1.00  0.00     0.026 C 
ENDBRANCH  40  42
ENDBRANCH  38  40
ENDBRANCH   1  35
TORSDOF 9
