REMARK  6 active torsions:
REMARK  status: ('A' for Active; 'I' for Inactive)
REMARK    1  A    between atoms: C3_5  and  C4_6 
REMARK    2  A    between atoms: C7_9  and  C8_10 
REMARK    3  A    between atoms: C8_10  and  N2_11 
REMARK    4  A    between atoms: C13_18  and  N4_19 
REMARK       I    between atoms: N4_19  and  C14_21 
REMARK       I    between atoms: C14_21  and  N6_27 
REMARK    5  A    between atoms: N5_22  and  C15_24 
REMARK    6  A    between atoms: N6_27  and  C18_29 
ROOT
HETATM    1  C1  UNL     1      -0.128  -3.761   1.751  1.00  0.00     0.089 C 
HETATM    2  C2  UNL     1      -0.085  -2.409   1.126  1.00  0.00     0.095 A 
HETATM    3  N1  UNL     1       1.084  -1.899   0.702  1.00  0.00    -0.331 N 
ATOM      4  H1  UNL     1       1.942  -2.440   0.807  1.00  0.00     0.168 HD
HETATM    5  C3  UNL     1       1.127  -0.667   0.134  1.00  0.00     0.132 A 
HETATM    6  N3  UNL     1       0.013   0.031  -0.001  1.00  0.00    -0.175 N 
ATOM      7  H3  UNL     1       0.057   0.956  -0.429  1.00  0.00     0.186 HD
HETATM    8  C13 UNL     1      -1.196  -0.449   0.415  1.00  0.00     0.699 A 
HETATM    9  N7  UNL     1      -1.185  -1.661   0.965  1.00  0.00    -0.180 N 
ATOM     10  H7  UNL     1      -2.073  -2.046   1.285  1.00  0.00     0.185 HD
ENDROOT
BRANCH   8  11
HETATM   11  N4  UNL     1      -2.189   0.305   0.234  1.00  0.00    -0.022 N 
HETATM   12  C14 UNL     1      -3.533   0.166   0.517  1.00  0.00     0.689 C 
HETATM   13  N5  UNL     1      -4.201   1.273   0.775  1.00  0.00    -0.222 N 
HETATM   14  N6  UNL     1      -4.311  -1.014   0.569  1.00  0.00    -0.218 N 
ATOM     15  H5  UNL     1      -5.196   1.205   0.990  1.00  0.00     0.178 HD
ATOM     16  H6  UNL     1      -4.387  -1.492   1.467  1.00  0.00     0.178 HD
ATOM     17  H4  UNL     1      -1.953   1.193  -0.209  1.00  0.00     0.203 HD
BRANCH  13  18
HETATM   18  C15 UNL     1      -3.584   2.575   0.766  1.00  0.00     0.091 C 
HETATM   19  C16 UNL     1      -4.313   3.534  -0.169  1.00  0.00     0.032 C 
HETATM   20  C17 UNL     1      -3.679   3.159   2.162  1.00  0.00     0.032 C 
ENDBRANCH  13  18
BRANCH  14  21
HETATM   21  C18 UNL     1      -4.998  -1.584  -0.547  1.00  0.00     0.036 C 
HETATM   22  C19 UNL     1      -4.075  -1.956  -1.695  1.00  0.00     0.038 C 
HETATM   23  C20 UNL     1      -5.686  -2.860  -0.112  1.00  0.00     0.038 C 
HETATM   24  C21 UNL     1      -6.088  -0.645  -1.021  1.00  0.00     0.038 C 
ENDBRANCH  14  21
ENDBRANCH   8  11
BRANCH   5  25
HETATM   25  C4  UNL     1       2.442  -0.188  -0.297  1.00  0.00     0.009 A 
HETATM   26  C5  UNL     1       3.582  -0.941  -0.144  1.00  0.00     0.016 A 
HETATM   27  C6  UNL     1       4.833  -0.509  -0.540  1.00  0.00     0.010 A 
HETATM   28  C7  UNL     1       4.992   0.732  -1.122  1.00  0.00    -0.030 A 
HETATM   29  C11 UNL     1       3.844   1.491  -1.276  1.00  0.00     0.010 A 
HETATM   30  C12 UNL     1       2.595   1.062  -0.882  1.00  0.00     0.016 A 
BRANCH  28  31
HETATM   31  C8  UNL     1       6.307   1.273  -1.570  1.00  0.00     0.309 C 
BRANCH  31  32
HETATM   32  N2  UNL     1       7.437   0.596  -1.016  1.00  0.00     0.084 N 
HETATM   33  C9  UNL     1       7.439   0.714   0.430  1.00  0.00     0.309 C 
HETATM   34  C10 UNL     1       8.628   1.274  -1.498  1.00  0.00     0.309 C 
ENDBRANCH  31  32
ENDBRANCH  28  31
ENDBRANCH   5  25
TORSDOF 6
