REMARK  4 active torsions:
REMARK  status: ('A' for Active; 'I' for Inactive)
REMARK    1  A    between atoms: C4_4  and  C5_5 
REMARK    2  A    between atoms: C14_15  and  N2_16 
REMARK    3  A    between atoms: C16_22  and  N5_23 
REMARK       I    between atoms: N5_23  and  C17_25 
REMARK    4  A    between atoms: C17_25  and  C18_27 
ROOT
HETATM    1  C5  UNL     1       3.457   0.460  -0.884  1.00  0.00    -0.026 A 
HETATM    2  C6  UNL     1       3.372   1.068  -2.119  1.00  0.00     0.014 A 
HETATM    3  C7  UNL     1       4.431   1.791  -2.629  1.00  0.00     0.023 A 
HETATM    4  C8  UNL     1       5.619   1.942  -1.938  1.00  0.00     0.044 A 
HETATM    5  C9  UNL     1       6.715   2.702  -2.491  1.00  0.00     0.099 C 
HETATM    6  N1  UNL     1       7.610   3.300  -2.929  1.00  0.00    -0.191 NA
HETATM    7  C10 UNL     1       5.707   1.335  -0.702  1.00  0.00     0.023 A 
HETATM    8  C11 UNL     1       4.646   0.613  -0.195  1.00  0.00     0.014 A 
ENDROOT
BRANCH   1   9
HETATM    9  C4  UNL     1       2.356  -0.318  -0.307  1.00  0.00    -0.025 A 
HETATM   10  C3  UNL     1       1.483  -1.030  -1.100  1.00  0.00     0.021 A 
HETATM   11  C2  UNL     1       0.457  -1.754  -0.539  1.00  0.00    -0.032 A 
HETATM   12  C1  UNL     1      -0.501  -2.531  -1.362  1.00  0.00     0.050 C 
HETATM   13  C14 UNL     1       0.292  -1.770   0.849  1.00  0.00     0.066 A 
HETATM   14  C13 UNL     1       1.162  -1.059   1.655  1.00  0.00     0.033 A 
HETATM   15  C12 UNL     1       2.162  -0.358   1.058  1.00  0.00     0.014 A 
BRANCH  13  16
HETATM   16  N2  UNL     1      -0.780  -2.527   1.395  1.00  0.00    -0.224 N 
HETATM   17  N3  UNL     1      -0.644  -3.731   1.883  1.00  0.00    -0.234 N 
HETATM   18  N4  UNL     1      -1.809  -4.160   2.307  1.00  0.00    -0.293 N 
ATOM     19  H3  UNL     1       0.230  -4.255   1.927  1.00  0.00     0.209 HD
HETATM   20  C15 UNL     1      -2.724  -3.180   2.076  1.00  0.00     0.159 A 
ATOM     21  H4  UNL     1      -1.996  -5.067   2.734  1.00  0.00     0.187 HD
HETATM   22  C16 UNL     1      -2.078  -2.123   1.490  1.00  0.00     0.148 A 
BRANCH  22  23
HETATM   23  N5  UNL     1      -2.467  -0.980   1.080  1.00  0.00    -0.306 N 
HETATM   24  C17 UNL     1      -3.790  -0.521   1.156  1.00  0.00     0.257 C 
HETATM   25  O1  UNL     1      -4.792  -1.201   1.499  1.00  0.00    -0.267 OA
ATOM     26  H5  UNL     1      -1.770  -0.359   0.670  1.00  0.00     0.170 HD
BRANCH  24  27
HETATM   27  C18 UNL     1      -4.054   0.891   0.804  1.00  0.00     0.032 A 
HETATM   28  C19 UNL     1      -3.022   1.713   0.415  1.00  0.00     0.017 A 
HETATM   29  C20 UNL     1      -3.277   3.048   0.084  1.00  0.00     0.001 A 
HETATM   30  C21 UNL     1      -4.556   3.542   0.146  1.00  0.00     0.000 A 
HETATM   31  C22 UNL     1      -5.593   2.727   0.535  1.00  0.00     0.001 A 
HETATM   32  C23 UNL     1      -5.320   1.428   0.853  1.00  0.00     0.017 A 
ENDBRANCH  24  27
ENDBRANCH  22  23
ENDBRANCH  13  16
ENDBRANCH   1   9
TORSDOF 4
