REMARK  1 active torsions:
REMARK  status: ('A' for Active; 'I' for Inactive)
REMARK    1  A    between atoms: C1_4  and  N2_5 
ROOT
HETATM    1  N2  UNL     1      -0.794   0.207   0.002  1.00  0.00    -0.362 N 
HETATM    2  C2  UNL     1      -0.262  -1.075  -0.440  1.00  0.00     0.141 C 
HETATM    3  C3  UNL     1       1.228  -0.984  -0.278  1.00  0.00     0.080 C 
HETATM    4  C4  UNL     1       1.331  -0.100   0.944  1.00  0.00     0.054 C 
HETATM    5  C5  UNL     1       0.210   0.917   0.783  1.00  0.00     0.160 C 
HETATM    6  S1  UNL     1       0.784   2.413  -0.058  1.00  0.00    -0.060 SA
HETATM    7  S2  UNL     1       2.416   1.781  -1.310  1.00  0.00    -0.022 SA
HETATM    8  S3  UNL     1       2.068  -0.306  -1.709  1.00  0.00    -0.079 SA
ENDROOT
BRANCH   1   9
HETATM    9  C1  UNL     1      -2.089   0.717  -0.270  1.00  0.00     0.172 C 
HETATM   10  N1  UNL     1      -3.138  -0.018  -0.406  1.00  0.00    -0.395 N 
ATOM     11  H12 UNL     1      -3.012  -1.026  -0.309  1.00  0.00     0.156 HD
ATOM     12  H11 UNL     1      -4.069   0.349  -0.602  1.00  0.00     0.156 HD
ENDBRANCH   1   9
TORSDOF 1
