REMARK  14 active torsions:
REMARK  status: ('A' for Active; 'I' for Inactive)
REMARK    1  A    between atoms: N1_1  and  N2_4 
REMARK       I    between atoms: N2_4  and  C1_6 
REMARK    2  A    between atoms: C1_6  and  C2_8 
REMARK    3  A    between atoms: C3_9  and  C4_10 
REMARK    4  A    between atoms: C4_10  and  N3_11 
REMARK    5  A    between atoms: C4_10  and  C5_15 
REMARK    6  A    between atoms: C5_15  and  C6_17 
REMARK    7  A    between atoms: C6_17  and  O3_18 
REMARK    8  A    between atoms: C7_22  and  C8_23 
REMARK    9  A    between atoms: C9_28  and  N7_29 
REMARK   10  A    between atoms: N7_29  and  C10_30 
REMARK   11  A    between atoms: N7_29  and  N8_34 
REMARK   12  A    between atoms: C10_30  and  C11_31 
REMARK   13  A    between atoms: C11_31  and  O5_32 
REMARK   14  A    between atoms: N8_34  and  N9_35 
ROOT
HETATM    1  C2  UNL     1      -0.174  -0.123   0.422  1.00  0.00     0.104 A 
HETATM    2  C3  UNL     1      -1.382  -0.605  -0.018  1.00  0.00     0.068 A 
HETATM    3  N4  UNL     1      -1.514  -1.140  -1.279  1.00  0.00    -0.339 N 
ATOM      4  H4  UNL     1      -2.423  -1.492  -1.579  1.00  0.00     0.167 HD
HETATM    5  C7  UNL     1      -0.483  -1.207  -2.113  1.00  0.00     0.173 A 
HETATM    6  N6  UNL     1       0.701  -0.739  -1.701  1.00  0.00    -0.323 N 
ATOM      7  H6  UNL     1       1.496  -0.788  -2.338  1.00  0.00     0.169 HD
HETATM    8  C9  UNL     1       0.883  -0.210  -0.486  1.00  0.00     0.140 A 
ENDROOT
BRANCH   2   9
HETATM    9  C4  UNL     1      -2.615  -0.538   0.787  1.00  0.00     0.305 C 
BRANCH   9  10
HETATM   10  N3  UNL     1      -3.002  -1.905   1.153  1.00  0.00    -0.063 N 
ATOM     11  H33 UNL     1      -3.095  -2.517   0.342  1.00  0.00     0.275 HD
ATOM     12  H32 UNL     1      -2.253  -2.412   1.624  1.00  0.00     0.275 HD
ATOM     13  H31 UNL     1      -3.855  -1.859   1.710  1.00  0.00     0.275 HD
ENDBRANCH   9  10
BRANCH   9  14
HETATM   14  C5  UNL     1      -3.712  -0.002  -0.137  1.00  0.00     0.186 C 
HETATM   15  O2  UNL     1      -4.633  -0.716  -0.417  1.00  0.00    -0.293 OA
BRANCH  14  16
HETATM   16  C6  UNL     1      -3.618   1.377  -0.665  1.00  0.00     0.245 C 
BRANCH  16  17
HETATM   17  O3  UNL     1      -2.476   1.978  -0.188  1.00  0.00    -0.394 OA
ATOM     18  H3  UNL     1      -2.416   2.863  -0.527  1.00  0.00     0.209 HD
ENDBRANCH  16  17
ENDBRANCH  14  16
ENDBRANCH   9  14
ENDBRANCH   2   9
BRANCH   1  19
HETATM   19  C1  UNL     1       0.094   0.361   1.763  1.00  0.00     0.275 C 
HETATM   20  N2  UNL     1      -0.443  -0.203   2.942  1.00  0.00    -0.272 N 
ATOM     21  H2  UNL     1      -1.063  -1.011   2.887  1.00  0.00     0.189 HD
HETATM   22  O1  UNL     1       0.864   1.356   1.977  1.00  0.00    -0.266 OA
BRANCH  20  23
HETATM   23  N1  UNL     1      -0.112   0.367   4.218  1.00  0.00    -0.342 N 
ATOM     24  H12 UNL     1       0.509   1.175   4.256  1.00  0.00     0.176 HD
ATOM     25  H11 UNL     1      -0.500  -0.040   5.069  1.00  0.00     0.176 HD
ENDBRANCH  20  23
ENDBRANCH   1  19
BRANCH   8  26
HETATM   26  N7  UNL     1       2.159   0.320  -0.117  1.00  0.00    -0.258 N 
BRANCH  26  27
HETATM   27  C10 UNL     1       2.459   1.647  -0.572  1.00  0.00     0.174 C 
BRANCH  27  28
HETATM   28  C11 UNL     1       3.741   2.230  -0.055  1.00  0.00     0.185 C 
BRANCH  28  29
HETATM   29  O5  UNL     1       4.852   1.490  -0.418  1.00  0.00    -0.399 OA
ATOM     30  H5  UNL     1       5.664   1.859  -0.091  1.00  0.00     0.209 HD
ENDBRANCH  28  29
ENDBRANCH  27  28
ENDBRANCH  26  27
BRANCH  26  31
HETATM   31  N8  UNL     1       3.062  -0.417   0.618  1.00  0.00    -0.026 NA
BRANCH  31  32
HETATM   32  N9  UNL     1       2.540  -1.620   1.121  1.00  0.00    -0.328 N 
ATOM     33  H92 UNL     1       1.577  -1.908   0.949  1.00  0.00     0.174 HD
ATOM     34  H91 UNL     1       3.208  -2.166   1.665  1.00  0.00     0.174 HD
ENDBRANCH  31  32
ENDBRANCH  26  31
ENDBRANCH   8  26
BRANCH   5  35
HETATM   35  C8  UNL     1      -0.665  -1.785  -3.448  1.00  0.00     0.298 C 
HETATM   36  N5  UNL     1       0.447  -1.844  -4.313  1.00  0.00    -0.054 NA
HETATM   37  O4  UNL     1      -1.811  -2.197  -3.744  1.00  0.00    -0.268 OA
ENDBRANCH   5  35
TORSDOF 14
