REMARK  14 active torsions:
REMARK  status: ('A' for Active; 'I' for Inactive)
REMARK    1  A    between atoms: C2_7  and  C3_8 
REMARK    2  A    between atoms: C3_8  and  N3_9 
REMARK    3  A    between atoms: N3_9  and  O1_10 
REMARK    4  A    between atoms: N3_9  and  C4_12 
REMARK    5  A    between atoms: C4_12  and  C5_13 
REMARK       I    between atoms: C5_13  and  N4_15 
REMARK    6  A    between atoms: N4_15  and  O3_17 
REMARK    7  A    between atoms: O3_17  and  C6_18 
REMARK    8  A    between atoms: C7_22  and  N6_23 
REMARK    9  A    between atoms: C8_28  and  C9_29 
REMARK   10  A    between atoms: C9_29  and  N7_30 
REMARK   11  A    between atoms: C10_34  and  N8_35 
REMARK   12  A    between atoms: N8_35  and  C11_37 
REMARK   13  A    between atoms: C11_37  and  C12_38 
REMARK   14  A    between atoms: C12_38  and  O5_39 
ROOT
HETATM    1  N1  UNL     1      -1.980   0.291   3.861  1.00  0.00    -0.234 N 
ATOM      2  H11 UNL     1      -2.715  -0.053   4.479  1.00  0.00     0.174 HD
ATOM      3  H12 UNL     1      -1.144   0.715   4.264  1.00  0.00     0.174 HD
HETATM    4  C1  UNL     1      -2.142   0.172   2.594  1.00  0.00     0.677 A 
HETATM    5  N2  UNL     1      -1.152   0.635   1.761  1.00  0.00    -0.194 N 
ATOM      6  H2  UNL     1      -0.314   1.060   2.158  1.00  0.00     0.184 HD
HETATM    7  C2  UNL     1      -1.278   0.533   0.434  1.00  0.00     0.053 A 
HETATM    8  C8  UNL     1      -2.436  -0.055  -0.103  1.00  0.00     0.036 A 
HETATM    9  C10 UNL     1      -3.406  -0.507   0.753  1.00  0.00     0.127 A 
HETATM   10  N9  UNL     1      -3.241  -0.386   2.064  1.00  0.00    -0.177 N 
ATOM     11  H9  UNL     1      -3.972  -0.728   2.688  1.00  0.00     0.186 HD
ENDROOT
BRANCH   7  12
HETATM   12  C3  UNL     1      -0.224   1.006  -0.468  1.00  0.00     0.179 C 
BRANCH  12  13
HETATM   13  N3  UNL     1       0.875   1.611   0.197  1.00  0.00    -0.185 NA
BRANCH  13  14
HETATM   14  O1  UNL     1       0.561   2.754   0.852  1.00  0.00    -0.312 OA
ATOM     15  H1  UNL     1       1.296   3.159   1.297  1.00  0.00     0.237 HD
ENDBRANCH  13  14
BRANCH  13  16
HETATM   16  C4  UNL     1       2.073   1.707  -0.559  1.00  0.00     0.225 C 
BRANCH  16  17
HETATM   17  C5  UNL     1       2.715   0.401  -0.794  1.00  0.00     0.256 C 
HETATM   18  O2  UNL     1       2.314  -0.706  -0.392  1.00  0.00    -0.270 OA
HETATM   19  N4  UNL     1       3.921   0.404  -1.561  1.00  0.00    -0.229 N 
ATOM     20  H4  UNL     1       4.285   1.291  -1.909  1.00  0.00     0.197 HD
BRANCH  19  21
HETATM   21  O3  UNL     1       4.593  -0.735  -1.838  1.00  0.00    -0.215 OA
BRANCH  21  22
HETATM   22  C6  UNL     1       5.742  -0.758  -1.059  1.00  0.00     0.500 C 
HETATM   23  N5  UNL     1       5.993  -2.097  -0.545  1.00  0.00     0.029 N 
HETATM   24  C7  UNL     1       7.383  -1.846  -0.950  1.00  0.00     0.530 C 
ATOM     25  H52 UNL     1       5.743  -2.372   0.405  1.00  0.00     0.288 HD
ATOM     26  H51 UNL     1       5.470  -2.912  -0.866  1.00  0.00     0.288 HD
HETATM   27  O4  UNL     1       6.912  -0.843  -1.834  1.00  0.00    -0.282 OA
BRANCH  24  28
HETATM   28  N6  UNL     1       8.079  -1.180   0.134  1.00  0.00    -0.027 N 
ATOM     29  H63 UNL     1       7.603  -0.330   0.436  1.00  0.00     0.279 HD
ATOM     30  H62 UNL     1       8.018  -1.698   1.011  1.00  0.00     0.279 HD
ATOM     31  H61 UNL     1       9.044  -1.006  -0.147  1.00  0.00     0.279 HD
ENDBRANCH  24  28
ENDBRANCH  21  22
ENDBRANCH  19  21
ENDBRANCH  16  17
ENDBRANCH  13  16
ENDBRANCH  12  13
ENDBRANCH   7  12
BRANCH   8  32
HETATM   32  C9  UNL     1      -2.513  -0.134  -1.572  1.00  0.00     0.274 C 
BRANCH  32  33
HETATM   33  N7  UNL     1      -3.689  -0.731  -2.083  1.00  0.00    -0.075 N 
ATOM     34  H73 UNL     1      -3.818  -1.657  -1.675  1.00  0.00     0.274 HD
ATOM     35  H72 UNL     1      -4.513  -0.256  -1.714  1.00  0.00     0.274 HD
ATOM     36  H71 UNL     1      -3.742  -0.786  -3.100  1.00  0.00     0.274 HD
ENDBRANCH  32  33
ENDBRANCH   8  32
BRANCH   9  37
HETATM   37  N8  UNL     1      -4.449  -1.039   0.203  1.00  0.00    -0.373 N 
ATOM     38  H8  UNL     1      -4.475  -1.083  -0.816  1.00  0.00     0.161 HD
BRANCH  37  39
HETATM   39  C11 UNL     1      -5.567  -1.569   0.917  1.00  0.00     0.147 C 
BRANCH  39  40
HETATM   40  C12 UNL     1      -6.579  -0.485   1.258  1.00  0.00     0.183 C 
BRANCH  40  41
HETATM   41  O5  UNL     1      -7.032   0.088   0.067  1.00  0.00    -0.399 OA
ATOM     42  H5  UNL     1      -7.664   0.765   0.280  1.00  0.00     0.209 HD
ENDBRANCH  40  41
ENDBRANCH  39  40
ENDBRANCH  37  39
ENDBRANCH   9  37
TORSDOF 14
