REMARK  10 active torsions:
REMARK  status: ('A' for Active; 'I' for Inactive)
REMARK    1  A    between atoms: N1_1  and  S1_4 
REMARK    2  A    between atoms: S1_4  and  O3_7 
REMARK    3  A    between atoms: O3_7  and  C1_8 
REMARK    4  A    between atoms: C1_8  and  C2_9 
REMARK    5  A    between atoms: C2_9  and  O4_10 
REMARK    6  A    between atoms: O4_10  and  N2_11 
REMARK    7  A    between atoms: N2_11  and  N3_13 
REMARK    8  A    between atoms: C5_20  and  C6_21 
REMARK    9  A    between atoms: C6_21  and  C7_22 
REMARK   10  A    between atoms: C10_25  and  O7_26 
ROOT
HETATM    1  N3  UNL     1      -0.754  -0.970   0.680  1.00  0.00    -0.147 N 
HETATM    2  C3  UNL     1      -0.699  -1.476  -0.669  1.00  0.00     0.353 A 
HETATM    3  O5  UNL     1      -1.802  -1.922  -1.102  1.00  0.00    -0.244 OA
HETATM    4  N4  UNL     1       0.469  -1.478  -1.445  1.00  0.00    -0.273 N 
ATOM      5  H4  UNL     1       0.437  -1.850  -2.394  1.00  0.00     0.173 HD
HETATM    6  C4  UNL     1       1.722  -0.962  -0.925  1.00  0.00     0.265 A 
HETATM    7  O6  UNL     1       2.710  -1.001  -1.662  1.00  0.00    -0.267 OA
HETATM    8  C5  UNL     1       1.716  -0.445   0.418  1.00  0.00     0.103 A 
HETATM    9  C13 UNL     1       0.456  -0.457   1.214  1.00  0.00     0.287 A 
HETATM   10  O8  UNL     1       0.503   0.011   2.402  1.00  0.00    -0.265 OA
ENDROOT
BRANCH   1  11
HETATM   11  N2  UNL     1      -1.878  -1.001   1.438  1.00  0.00    -0.194 N 
ATOM     12  H2  UNL     1      -1.877  -1.662   2.215  1.00  0.00     0.216 HD
BRANCH  11  13
HETATM   13  O4  UNL     1      -2.914  -0.318   1.299  1.00  0.00    -0.262 OA
BRANCH  13  14
HETATM   14  C2  UNL     1      -3.096   0.768   0.527  1.00  0.00     0.230 C 
BRANCH  14  15
HETATM   15  C1  UNL     1      -4.567   1.215   0.746  1.00  0.00     0.220 C 
BRANCH  15  16
HETATM   16  O3  UNL     1      -5.427   0.185   0.373  1.00  0.00    -0.258 OA
BRANCH  16  17
HETATM   17  S1  UNL     1      -7.034   0.546   0.576  1.00  0.00     0.355 S 
HETATM   18  O1  UNL     1      -7.303   1.993   0.842  1.00  0.00    -0.176 OA
HETATM   19  O2  UNL     1      -7.664  -0.239   1.718  1.00  0.00    -0.176 OA
BRANCH  17  20
HETATM   20  N1  UNL     1      -7.868   0.105  -0.871  1.00  0.00    -0.306 N 
ATOM     21  H12 UNL     1      -8.440   0.733  -1.435  1.00  0.00     0.171 HD
ATOM     22  H11 UNL     1      -7.685  -0.882  -1.052  1.00  0.00     0.171 HD
ENDBRANCH  17  20
ENDBRANCH  16  17
ENDBRANCH  15  16
ENDBRANCH  14  15
ENDBRANCH  13  14
ENDBRANCH  11  13
ENDBRANCH   1  11
BRANCH   8  23
HETATM   23  C6  UNL     1       2.795   0.050   0.969  1.00  0.00     0.034 C 
BRANCH  23  24
HETATM   24  C7  UNL     1       4.088   0.153   0.348  1.00  0.00    -0.035 A 
HETATM   25  C8  UNL     1       4.370   1.060  -0.672  1.00  0.00     0.014 A 
HETATM   26  C9  UNL     1       5.639   1.073  -1.188  1.00  0.00     0.037 A 
HETATM   27  C10 UNL     1       6.679   0.246  -0.774  1.00  0.00     0.065 A 
HETATM   28  C11 UNL     1       6.366  -0.640   0.235  1.00  0.00     0.037 A 
HETATM   29  C12 UNL     1       5.117  -0.702   0.795  1.00  0.00     0.014 A 
BRANCH  27  30
HETATM   30  O7  UNL     1       7.937   0.340  -1.368  1.00  0.00    -0.361 OA
ATOM     31  H7  UNL     1       8.647  -0.225  -1.085  1.00  0.00     0.217 HD
ENDBRANCH  27  30
ENDBRANCH  23  24
ENDBRANCH   8  23
TORSDOF 10
