REMARK  3 active torsions:
REMARK  status: ('A' for Active; 'I' for Inactive)
REMARK       I    between atoms: C2_4  and  N2_5 
REMARK       I    between atoms: C2_4  and  N7_25 
REMARK       I    between atoms: C3_7  and  N4_9 
REMARK    1  A    between atoms: N5_12  and  C6_13 
REMARK    2  A    between atoms: C6_13  and  N6_15 
REMARK       I    between atoms: N6_15  and  C7_17 
REMARK    3  A    between atoms: C7_17  and  C8_19 
ROOT
HETATM    1  C1  UNL     1      -4.520   2.030  -0.448  1.00  0.00     0.165 C 
HETATM    2  N1  UNL     1      -5.053   0.710  -0.296  1.00  0.00    -0.231 N 
ATOM      3  H1  UNL     1      -6.057   0.620  -0.140  1.00  0.00     0.177 HD
HETATM    4  C2  UNL     1      -4.355  -0.373  -0.342  1.00  0.00     0.675 C 
HETATM    5  N2  UNL     1      -2.963  -0.423  -0.548  1.00  0.00    -0.164 N 
ATOM      6  H2  UNL     1      -2.640  -0.735  -1.464  1.00  0.00     0.187 HD
HETATM    7  C3  UNL     1      -2.070  -0.113   0.309  1.00  0.00     0.205 C 
HETATM    8  N3  UNL     1      -2.475   0.326   1.600  1.00  0.00    -0.063 NA
HETATM    9  N4  UNL     1      -0.705  -0.222  -0.067  1.00  0.00    -0.352 N 
HETATM   10  C4  UNL     1      -0.316  -0.328  -1.441  1.00  0.00     0.145 C 
HETATM   11  C5  UNL     1       0.789   0.650  -1.821  1.00  0.00     0.145 C 
HETATM   12  N5  UNL     1       1.762   0.635  -0.719  1.00  0.00    -0.355 N 
HETATM   13  C10 UNL     1       1.247   0.955   0.573  1.00  0.00     0.145 C 
HETATM   14  C11 UNL     1       0.338  -0.227   0.958  1.00  0.00     0.145 C 
HETATM   15  N7  UNL     1      -5.053  -1.601  -0.170  1.00  0.00    -0.231 N 
ATOM     16  H7  UNL     1      -5.666  -1.955  -0.904  1.00  0.00     0.177 HD
HETATM   17  C12 UNL     1      -4.880  -2.339   1.061  1.00  0.00     0.165 C 
ENDROOT
BRANCH  12  18
HETATM   18  C6  UNL     1       3.113   0.321  -0.950  1.00  0.00     0.176 C 
HETATM   19  S1  UNL     1       3.624  -0.031  -2.493  1.00  0.00    -0.041 SA
BRANCH  18  20
HETATM   20  N6  UNL     1       4.047   0.300   0.093  1.00  0.00    -0.300 N 
HETATM   21  C7  UNL     1       5.406  -0.012  -0.143  1.00  0.00     0.249 C 
HETATM   22  O1  UNL     1       5.795  -0.274  -1.290  1.00  0.00    -0.268 OA
ATOM     23  H6  UNL     1       3.741   0.514   1.042  1.00  0.00     0.171 HD
BRANCH  21  24
HETATM   24  C8  UNL     1       6.390  -0.035   0.945  1.00  0.00     0.110 C 
HETATM   25  C9  UNL     1       7.651  -0.322   0.743  1.00  0.00     0.108 C 
HETATM   26 CL1  UNL     1       8.750  -0.325   2.103  1.00  0.00    -0.071 Cl
HETATM   27 CL2  UNL     1       8.294  -0.705  -0.838  1.00  0.00    -0.071 Cl
ENDBRANCH  21  24
ENDBRANCH  18  20
ENDBRANCH  12  18
TORSDOF 3
