REMARK  6 active torsions:
REMARK  status: ('A' for Active; 'I' for Inactive)
REMARK    1  A    between atoms: O1_1  and  C1_3 
REMARK    2  A    between atoms: C1_3  and  C2_4 
REMARK    3  A    between atoms: C1_3  and  C10_13 
REMARK    4  A    between atoms: C2_4  and  O2_5 
REMARK    5  A    between atoms: O2_5  and  C3_6 
REMARK    6  A    between atoms: C3_6  and  C4_7 
ROOT
HETATM    1  C2  UNL     1       0.728  -1.180   0.577  1.00  0.00     0.199 C 
ENDROOT
BRANCH   1   2
HETATM    2  C1  UNL     1       1.794  -0.264   1.061  1.00  0.00     0.146 C 
BRANCH   2   3
HETATM    3  O1  UNL     1       2.930  -1.067   1.454  1.00  0.00    -0.393 OA
ATOM      4  H1  UNL     1       3.611  -0.482   1.763  1.00  0.00     0.210 HD
ENDBRANCH   2   3
BRANCH   2   5
HETATM    5  C10 UNL     1       2.389   0.673   0.059  1.00  0.00     0.016 C 
HETATM    6  C11 UNL     1       2.995  -0.054  -1.148  1.00  0.00     0.007 C 
HETATM    7  C12 UNL     1       4.375  -0.465  -0.752  1.00  0.00     0.000 C 
HETATM    8  C13 UNL     1       4.789   0.443   0.358  1.00  0.00     0.000 C 
HETATM    9  C14 UNL     1       3.618   1.298   0.744  1.00  0.00     0.007 C 
ENDBRANCH   2   5
ENDBRANCH   1   2
BRANCH   1  10
HETATM   10  O2  UNL     1      -0.442  -0.660   0.262  1.00  0.00    -0.388 OA
BRANCH  10  11
HETATM   11  C3  UNL     1      -0.696   0.274  -0.653  1.00  0.00     0.172 C 
BRANCH  11  12
HETATM   12  C4  UNL     1      -2.250   0.424  -0.692  1.00  0.00     0.009 C 
HETATM   13  C5  UNL     1      -2.653   0.842   0.707  1.00  0.00     0.007 C 
HETATM   14  C6  UNL     1      -4.169   1.069   0.669  1.00  0.00     0.000 C 
HETATM   15  C7  UNL     1      -4.851  -0.222   0.313  1.00  0.00     0.000 C 
HETATM   16  C8  UNL     1      -4.360  -0.732  -1.018  1.00  0.00     0.000 C 
HETATM   17  C9  UNL     1      -2.864  -0.946  -0.934  1.00  0.00     0.007 C 
ENDBRANCH  11  12
ENDBRANCH  10  11
ENDBRANCH   1  10
TORSDOF 6
