REMARK  2 active torsions:
REMARK  status: ('A' for Active; 'I' for Inactive)
REMARK    1  A    between atoms: C1_2  and  N1_3 
REMARK    2  A    between atoms: N1_3  and  C2_5 
ROOT
HETATM    1  C2  UNL     1       1.151   0.162  -0.295  1.00  0.00     0.033 C 
HETATM    2  C3  UNL     1       0.245   0.751  -1.374  1.00  0.00     0.035 C 
HETATM    3  C4  UNL     1      -1.164   0.947  -0.954  1.00  0.00    -0.012 C 
HETATM    4  C5  UNL     1      -2.057  -0.235  -1.170  1.00  0.00     0.005 C 
HETATM    5  C6  UNL     1      -1.813  -1.421  -0.363  1.00  0.00     0.005 C 
HETATM    6  C7  UNL     1      -0.639  -1.405   0.564  1.00  0.00    -0.012 C 
HETATM    7  C8  UNL     1      -0.786  -0.468   1.723  1.00  0.00     0.009 C 
HETATM    8  C9  UNL     1      -0.378   0.937   1.423  1.00  0.00    -0.012 C 
HETATM    9  C10 UNL     1      -1.329   1.518   0.435  1.00  0.00     0.009 C 
HETATM   10  C11 UNL     1       1.052   1.017   0.928  1.00  0.00     0.035 C 
HETATM   11  C12 UNL     1       0.684  -1.254  -0.116  1.00  0.00     0.035 C 
ENDROOT
BRANCH   1  12
HETATM   12  N1  UNL     1       2.486   0.177  -0.794  1.00  0.00    -0.359 N 
ATOM     13  H1  UNL     1       2.660   0.543  -1.730  1.00  0.00     0.162 HD
BRANCH  12  14
HETATM   14  C1  UNL     1       3.570  -0.297  -0.036  1.00  0.00     0.349 C 
HETATM   15  O1  UNL     1       3.487  -0.773   1.134  1.00  0.00    -0.284 OA
ENDBRANCH  12  14
ENDBRANCH   1  12
TORSDOF 2
