REMARK  2 active torsions:
REMARK  status: ('A' for Active; 'I' for Inactive)
REMARK    1  A    between atoms: C2_2  and  C3_3 
REMARK    2  A    between atoms: C2_2  and  C4_6 
ROOT
HETATM    1  C4  UNL     1      -0.120   0.038   0.475  1.00  0.00    -0.001 C 
HETATM    2  C5  UNL     1       0.535  -1.315   0.467  1.00  0.00     0.005 C 
HETATM    3  C6  UNL     1       2.018  -1.163   0.820  1.00  0.00     0.000 C 
HETATM    4  C7  UNL     1       2.736  -0.253  -0.100  1.00  0.00     0.000 C 
HETATM    5  C8  UNL     1       1.866   0.546  -0.999  1.00  0.00     0.000 C 
HETATM    6  C9  UNL     1       0.604   1.051  -0.386  1.00  0.00     0.005 C 
ENDROOT
BRANCH   1   7
HETATM    7  C2  UNL     1      -1.539   0.038   0.079  1.00  0.00     0.087 C 
HETATM    8  C1  UNL     1      -2.061   1.460   0.134  1.00  0.00     0.021 C 
BRANCH   7   9
HETATM    9  C3  UNL     1      -2.452  -0.804   0.842  1.00  0.00     0.177 C 
HETATM   10  O1  UNL     1      -2.219  -1.489   1.839  1.00  0.00    -0.648 OA
HETATM   11  O2  UNL     1      -3.785  -0.851   0.392  1.00  0.00    -0.648 OA
ENDBRANCH   7   9
ENDBRANCH   1   7
TORSDOF 2
