REMARK  3 active torsions:
REMARK  status: ('A' for Active; 'I' for Inactive)
REMARK    1  A    between atoms: C2_2  and  O1_4 
REMARK    2  A    between atoms: O1_4  and  C4_5 
REMARK    3  A    between atoms: C4_5  and  C6_7 
ROOT
HETATM    1  C4  UNL     1       0.071   0.819  -0.423  1.00  0.00     0.154 C 
HETATM    2  C5  UNL     1       0.108   2.332  -0.382  1.00  0.00     0.042 C 
ENDROOT
BRANCH   1   3
HETATM    3  O1  UNL     1       1.022   0.330   0.434  1.00  0.00    -0.379 OA
BRANCH   3   4
HETATM    4  C2  UNL     1       1.992  -0.438  -0.184  1.00  0.00     0.114 C 
HETATM    5  C1  UNL     1       3.388   0.093   0.025  1.00  0.00     0.039 C 
HETATM    6  C3  UNL     1       1.902  -1.836   0.393  1.00  0.00     0.039 C 
ENDBRANCH   3   4
ENDBRANCH   1   3
BRANCH   1   7
HETATM    7  C6  UNL     1      -1.312   0.367  -0.012  1.00  0.00     0.109 A 
HETATM    8  C7  UNL     1      -1.733   0.627   1.404  1.00  0.00     0.051 C 
HETATM    9  O2  UNL     1      -2.332   0.893  -0.933  1.00  0.00    -0.367 OA
HETATM   10  C8  UNL     1      -2.061  -0.480  -0.856  1.00  0.00     0.155 A 
HETATM   11  C9  UNL     1      -3.138  -1.400  -0.323  1.00  0.00     0.042 C 
ENDBRANCH   1   7
TORSDOF 3
