REMARK  2 active torsions:
REMARK  status: ('A' for Active; 'I' for Inactive)
REMARK    1  A    between atoms: C2_2  and  C3_3 
REMARK    2  A    between atoms: C2_2  and  C7_7 
ROOT
HETATM    1  C1  UNL     1      -0.283  -1.867  -0.216  1.00  0.00     0.015 C 
HETATM    2  C2  UNL     1       0.025  -0.433  -0.524  1.00  0.00     0.041 C 
ENDROOT
BRANCH   2   3
HETATM    3  C3  UNL     1      -1.188   0.430  -0.393  1.00  0.00    -0.006 C 
HETATM    4  C4  UNL     1      -1.852   0.477   0.943  1.00  0.00     0.005 C 
HETATM    5  C5  UNL     1      -3.182   0.530   0.173  1.00  0.00     0.001 C 
HETATM    6  C6  UNL     1      -2.442  -0.289  -0.895  1.00  0.00     0.005 C 
ENDBRANCH   2   3
BRANCH   2   7
HETATM    7  C7  UNL     1       1.185   0.038   0.306  1.00  0.00     0.263 C 
HETATM    8  O1  UNL     1       1.509   1.358   0.058  1.00  0.00    -0.359 OA
HETATM    9  C8  UNL     1       2.888   1.471   0.183  1.00  0.00     0.197 C 
HETATM   10  C9  UNL     1       3.414   0.075   0.133  1.00  0.00     0.197 C 
HETATM   11  O2  UNL     1       2.292  -0.723  -0.044  1.00  0.00    -0.359 OA
ENDBRANCH   2   7
TORSDOF 2
