REMARK  10 active torsions:
REMARK  status: ('A' for Active; 'I' for Inactive)
REMARK    1  A    between atoms: C2_2  and  C3_3 
REMARK    2  A    between atoms: C3_3  and  C4_4 
REMARK    3  A    between atoms: C3_3  and  C8_10 
REMARK    4  A    between atoms: C4_4  and  C5_5 
REMARK    5  A    between atoms: C5_5  and  C6_6 
REMARK    6  A    between atoms: C6_6  and  O2_8 
REMARK    7  A    between atoms: C8_10  and  C9_12 
REMARK    8  A    between atoms: C9_12  and  C11_14 
REMARK    9  A    between atoms: C17_20  and  O4_21 
REMARK   10  A    between atoms: C18_23  and  O5_24 
ROOT
HETATM    1  C9  UNL     1      -0.266  -0.089  -0.115  1.00  0.00     0.058 C 
HETATM    2  C10 UNL     1      -0.286  -0.496  -1.539  1.00  0.00     0.018 C 
ENDROOT
BRANCH   1   3
HETATM    3  C8  UNL     1       0.387  -1.095   0.735  1.00  0.00     0.135 C 
HETATM    4  O3  UNL     1      -0.149  -1.658   1.668  1.00  0.00    -0.297 OA
BRANCH   3   5
HETATM    5  C3  UNL     1       1.804  -1.493   0.483  1.00  0.00     0.056 C 
BRANCH   5   6
HETATM    6  C2  UNL     1       2.228  -2.482   1.509  1.00  0.00     0.007 C 
HETATM    7  C1  UNL     1       3.535  -3.177   1.295  1.00  0.00     0.006 C 
ENDBRANCH   5   6
BRANCH   5   8
HETATM    8  C4  UNL     1       2.641  -0.307   0.248  1.00  0.00     0.022 C 
BRANCH   8   9
HETATM    9  C5  UNL     1       4.047  -0.472  -0.187  1.00  0.00     0.112 C 
BRANCH   9  10
HETATM   10  C6  UNL     1       4.639   0.905  -0.391  1.00  0.00     0.258 C 
HETATM   11  O1  UNL     1       4.991   1.636   0.562  1.00  0.00    -0.265 OA
BRANCH  10  12
HETATM   12  O2  UNL     1       4.795   1.369  -1.682  1.00  0.00    -0.326 OA
HETATM   13  C7  UNL     1       5.349   2.660  -1.880  1.00  0.00     0.213 C 
ENDBRANCH  10  12
ENDBRANCH   9  10
ENDBRANCH   8   9
ENDBRANCH   5   8
ENDBRANCH   3   5
ENDBRANCH   1   3
BRANCH   1  14
HETATM   14  C11 UNL     1      -1.598   0.328   0.447  1.00  0.00     0.033 C 
HETATM   15  C12 UNL     1      -2.637  -0.699   0.617  1.00  0.00     0.022 C 
HETATM   16  C13 UNL     1      -3.402  -0.321   1.905  1.00  0.00     0.009 C 
HETATM   17  C17 UNL     1      -3.782  -0.320  -0.351  1.00  0.00     0.133 C 
HETATM   18  C14 UNL     1      -3.866   1.090   1.496  1.00  0.00     0.015 C 
HETATM   19  C15 UNL     1      -3.720   1.173   0.006  1.00  0.00     0.009 C 
HETATM   20  C16 UNL     1      -4.684   2.010  -0.697  1.00  0.00     0.020 C 
HETATM   21  C18 UNL     1      -2.261   1.430  -0.311  1.00  0.00     0.134 C 
BRANCH  21  22
HETATM   22  O5  UNL     1      -1.990   1.496  -1.646  1.00  0.00    -0.394 OA
ATOM     23  H5  UNL     1      -2.412   2.197  -2.128  1.00  0.00     0.210 HD
ENDBRANCH  21  22
BRANCH  17  24
HETATM   24  O4  UNL     1      -4.954  -0.890   0.145  1.00  0.00    -0.394 OA
ATOM     25  H4  UNL     1      -5.657  -0.657  -0.450  1.00  0.00     0.210 HD
ENDBRANCH  17  24
ENDBRANCH   1  14
TORSDOF 10
