REMARK  2 active torsions:
REMARK  status: ('A' for Active; 'I' for Inactive)
REMARK    1  A    between atoms: C3_3  and  N1_4 
REMARK    2  A    between atoms: N1_4  and  C4_6 
ROOT
HETATM    1  C4  UNL     1       0.512  -0.190   0.407  1.00  0.00     0.102 C 
HETATM    2  C5  UNL     1       1.191   0.739  -0.546  1.00  0.00     0.028 C 
HETATM    3  C6  UNL     1       2.657   0.877  -0.388  1.00  0.00     0.029 C 
HETATM    4  C7  UNL     1       3.368  -0.325   0.137  1.00  0.00     0.232 C 
HETATM    5  N2  UNL     1       2.694  -0.908   1.273  1.00  0.00    -0.073 N 
ATOM      6  H21 UNL     1       2.644  -0.279   2.075  1.00  0.00     0.277 HD
ATOM      7  H22 UNL     1       3.233  -1.649   1.721  1.00  0.00     0.277 HD
HETATM    8  C8  UNL     1       1.391  -1.350   0.814  1.00  0.00     0.256 C 
ENDROOT
BRANCH   1   9
HETATM    9  N1  UNL     1      -0.685  -0.657  -0.167  1.00  0.00    -0.411 N 
ATOM     10  H1  UNL     1      -0.822  -1.648  -0.363  1.00  0.00     0.154 HD
BRANCH   9  11
HETATM   11  C3  UNL     1      -1.691   0.290  -0.463  1.00  0.00     0.077 C 
HETATM   12  C2  UNL     1      -2.930  -0.324  -1.076  1.00  0.00     0.025 C 
HETATM   13  C1  UNL     1      -3.751   0.613  -0.222  1.00  0.00     0.004 C 
HETATM   14  C9  UNL     1      -2.528   0.817   0.643  1.00  0.00     0.025 C 
ENDBRANCH   9  11
ENDBRANCH   1   9
TORSDOF 2
