REMARK  2 active torsions:
REMARK  status: ('A' for Active; 'I' for Inactive)
REMARK    1  A    between atoms: N1_2  and  N2_4 
REMARK    2  A    between atoms: C9_13  and  N3_14 
ROOT
HETATM    1  N2  UNL     1       1.972   0.550  -0.222  1.00  0.00    -0.311 N 
ATOM      2  H2  UNL     1       2.071   1.529   0.046  1.00  0.00     0.186 HD
HETATM    3  C2  UNL     1       0.786   0.122  -0.443  1.00  0.00     0.034 C 
HETATM    4  C3  UNL     1       0.618  -1.298  -0.836  1.00  0.00     0.056 C 
HETATM    5  C4  UNL     1      -0.554  -1.935  -0.099  1.00  0.00     0.007 C 
HETATM    6  C5  UNL     1      -1.738  -1.034  -0.279  1.00  0.00     0.011 C 
HETATM    7  C6  UNL     1      -1.559   0.316   0.354  1.00  0.00    -0.014 C 
HETATM    8  C7  UNL     1      -2.799   1.137   0.028  1.00  0.00     0.017 C 
HETATM    9  C8  UNL     1      -1.296   0.259   1.824  1.00  0.00     0.017 C 
HETATM   10  C9  UNL     1      -0.377   1.019  -0.310  1.00  0.00     0.238 C 
ENDROOT
BRANCH   1  11
HETATM   11  N1  UNL     1       3.123  -0.195  -0.315  1.00  0.00    -0.341 N 
HETATM   12  C1  UNL     1       4.175   0.029   0.660  1.00  0.00     0.167 C 
ATOM     13  H1  UNL     1       3.236  -0.890  -1.053  1.00  0.00     0.179 HD
ENDBRANCH   1  11
BRANCH  10  14
HETATM   14  N3  UNL     1      -0.795   1.559  -1.604  1.00  0.00    -0.069 N 
ATOM     15  H33 UNL     1      -0.021   2.022  -2.081  1.00  0.00     0.275 HD
ATOM     16  H32 UNL     1      -0.975   0.814  -2.277  1.00  0.00     0.275 HD
ATOM     17  H31 UNL     1      -1.599   2.179  -1.512  1.00  0.00     0.275 HD
ENDBRANCH  10  14
TORSDOF 2
