REMARK  9 active torsions:
REMARK  status: ('A' for Active; 'I' for Inactive)
REMARK    1  A    between atoms: N1_1  and  O1_4 
REMARK    2  A    between atoms: O1_4  and  N2_5 
REMARK    3  A    between atoms: N2_5  and  C1_7 
REMARK    4  A    between atoms: C2_10  and  N4_11 
REMARK    5  A    between atoms: N4_11  and  N5_13 
REMARK    6  A    between atoms: N5_13  and  O2_15 
REMARK    7  A    between atoms: C3_19  and  N7_20 
REMARK       I    between atoms: N7_20  and  C4_22 
REMARK       I    between atoms: C4_22  and  N8_23 
REMARK       I    between atoms: C4_22  and  N9_27 
REMARK    8  A    between atoms: N11_34  and  N12_36 
REMARK    9  A    between atoms: C6_38  and  C7_39 
ROOT
HETATM    1  C1  UNL     1      -0.415  -2.512   0.085  1.00  0.00     0.189 C 
HETATM    2  N3  UNL     1      -1.674  -2.932   0.386  1.00  0.00    -0.169 N 
ATOM      3  H3  UNL     1      -1.767  -3.925   0.601  1.00  0.00     0.186 HD
HETATM    4  C2  UNL     1      -2.811  -2.218   0.439  1.00  0.00     0.714 C 
HETATM    5  N6  UNL     1      -3.020  -0.884   0.306  1.00  0.00    -0.021 N 
ATOM      6  H6  UNL     1      -3.982  -0.563   0.411  1.00  0.00     0.203 HD
HETATM    7  C3  UNL     1      -2.099   0.060   0.051  1.00  0.00     0.697 C 
HETATM    8  N10 UNL     1      -0.788  -0.117  -0.135  1.00  0.00    -0.171 N 
ATOM      9  H10 UNL     1      -0.291   0.730  -0.411  1.00  0.00     0.186 HD
HETATM   10  C5  UNL     1       0.001  -1.205  -0.026  1.00  0.00     0.182 C 
HETATM   11  N11 UNL     1       1.275  -1.050  -0.019  1.00  0.00    -0.282 N 
ATOM     12  H11 UNL     1       1.848  -1.890   0.066  1.00  0.00     0.188 HD
ENDROOT
BRANCH   7  13
HETATM   13  N7  UNL     1      -2.584   1.249  -0.010  1.00  0.00    -0.173 N 
HETATM   14  C4  UNL     1      -1.854   2.448  -0.264  1.00  0.00     0.494 C 
HETATM   15  N8  UNL     1      -1.087   2.785   0.921  1.00  0.00    -0.032 N 
HETATM   16  N9  UNL     1      -2.830   3.494  -0.568  1.00  0.00    -0.032 N 
ATOM     17  H83 UNL     1      -1.668   2.851   1.756  1.00  0.00     0.278 HD
ATOM     18  H82 UNL     1      -0.486   2.020   1.228  1.00  0.00     0.278 HD
ATOM     19  H81 UNL     1      -0.565   3.642   0.739  1.00  0.00     0.278 HD
ATOM     20  H93 UNL     1      -3.461   3.242  -1.329  1.00  0.00     0.278 HD
ATOM     21  H92 UNL     1      -3.537   3.604   0.159  1.00  0.00     0.278 HD
ATOM     22  H91 UNL     1      -2.308   4.351  -0.750  1.00  0.00     0.278 HD
ATOM     23  H7  UNL     1      -3.589   1.344   0.138  1.00  0.00     0.181 HD
ENDBRANCH   7  13
BRANCH   4  24
HETATM   24  N4  UNL     1      -3.874  -2.891   0.646  1.00  0.00    -0.112 N 
ATOM     25  H4  UNL     1      -4.765  -2.396   0.694  1.00  0.00     0.207 HD
BRANCH  24  26
HETATM   26  N5  UNL     1      -3.869  -4.277   0.810  1.00  0.00    -0.196 N 
ATOM     27  H5  UNL     1      -3.587  -4.896   0.050  1.00  0.00     0.216 HD
BRANCH  26  28
HETATM   28  O2  UNL     1      -4.225  -4.740   1.929  1.00  0.00    -0.274 OA
ATOM     29  H2  UNL     1      -4.222  -5.683   2.041  1.00  0.00     0.246 HD
ENDBRANCH  26  28
ENDBRANCH  24  26
ENDBRANCH   4  24
BRANCH   1  30
HETATM   30  N2  UNL     1       0.468  -3.430  -0.115  1.00  0.00    -0.222 N 
ATOM     31  H2  UNL     1       1.426  -3.166  -0.344  1.00  0.00     0.198 HD
BRANCH  30  32
HETATM   32  O1  UNL     1       0.137  -4.751  -0.024  1.00  0.00    -0.162 OA
BRANCH  32  33
HETATM   33  N1  UNL     1       1.123  -5.713  -0.054  1.00  0.00    -0.286 N 
ATOM     34  H12 UNL     1       2.096  -5.421  -0.145  1.00  0.00     0.186 HD
ATOM     35  H11 UNL     1       0.876  -6.700   0.014  1.00  0.00     0.186 HD
ENDBRANCH  32  33
ENDBRANCH  30  32
ENDBRANCH   1  30
BRANCH  11  36
HETATM   36  N12 UNL     1       1.932   0.155  -0.117  1.00  0.00    -0.309 N 
HETATM   37  C6  UNL     1       3.083   0.332  -0.632  1.00  0.00     0.126 C 
ATOM     38  H12 UNL     1       1.456   0.977   0.255  1.00  0.00     0.186 HD
BRANCH  37  39
HETATM   39  C7  UNL     1       3.710   1.671  -0.692  1.00  0.00     0.021 A 
HETATM   40  C8  UNL     1       3.208   2.861  -0.242  1.00  0.00     0.021 A 
HETATM   41  C9  UNL     1       3.967   3.951  -0.409  1.00  0.00     0.008 A 
HETATM   42  C10 UNL     1       5.182   3.787  -1.015  1.00  0.00     0.050 A 
HETATM   43  S1  UNL     1       5.225   2.110  -1.333  1.00  0.00    -0.101 SA
ENDBRANCH  37  39
ENDBRANCH  11  36
TORSDOF 9
