REMARK  2 active torsions:
REMARK  status: ('A' for Active; 'I' for Inactive)
REMARK       I    between atoms: C2_4  and  N3_6 
REMARK    1  A    between atoms: C5_9  and  O1_11 
REMARK    2  A    between atoms: O1_11  and  N4_12 
ROOT
HETATM    1  C1  UNL     1       3.097   1.476  -0.305  1.00  0.00     0.148 C 
HETATM    2  N1  UNL     1       3.386   0.105   0.078  1.00  0.00    -0.369 N 
ATOM      3  H1  UNL     1       4.361  -0.174   0.187  1.00  0.00     0.161 HD
HETATM    4  C2  UNL     1       2.483  -0.760   0.283  1.00  0.00     0.185 C 
HETATM    5  N2  UNL     1       2.895  -2.077   0.656  1.00  0.00    -0.064 NA
HETATM    6  N3  UNL     1       1.085  -0.508   0.168  1.00  0.00    -0.356 N 
HETATM    7  C3  UNL     1       0.259  -1.343  -0.693  1.00  0.00     0.128 C 
HETATM    8  C4  UNL     1      -0.850  -0.529  -1.310  1.00  0.00     0.060 C 
HETATM    9  C5  UNL     1      -1.702   0.176  -0.289  1.00  0.00     0.087 C 
HETATM   10  C6  UNL     1      -3.051  -0.538  -0.274  1.00  0.00     0.049 C 
HETATM   11  C7  UNL     1      -1.034   0.113   1.056  1.00  0.00     0.060 C 
HETATM   12  C8  UNL     1       0.413   0.561   0.875  1.00  0.00     0.128 C 
ENDROOT
BRANCH   9  13
HETATM   13  O1  UNL     1      -1.889   1.480  -0.731  1.00  0.00    -0.276 OA
BRANCH  13  14
HETATM   14  N4  UNL     1      -2.640   2.169   0.131  1.00  0.00    -0.310 N 
ATOM     15  H42 UNL     1      -3.018   1.777   0.993  1.00  0.00     0.184 HD
ATOM     16  H41 UNL     1      -2.777   3.126  -0.193  1.00  0.00     0.184 HD
ENDBRANCH  13  14
ENDBRANCH   9  13
TORSDOF 2
