REMARK  12 active torsions:
REMARK  status: ('A' for Active; 'I' for Inactive)
REMARK    1  A    between atoms: N1_2  and  C2_3 
REMARK    2  A    between atoms: N1_2  and  C4_9 
REMARK    3  A    between atoms: C2_3  and  C3_4 
REMARK    4  A    between atoms: C3_4  and  N2_5 
REMARK    5  A    between atoms: C4_9  and  C5_10 
REMARK    6  A    between atoms: C5_10  and  C6_11 
REMARK    7  A    between atoms: C6_11  and  C7_12 
REMARK    8  A    between atoms: C8_13  and  C9_14 
REMARK    9  A    between atoms: C9_14  and  C10_15 
REMARK   10  A    between atoms: C10_15  and  C11_16 
REMARK   11  A    between atoms: C13_28  and  N7_29 
REMARK   12  A    between atoms: N7_29  and  N8_31 
ROOT
HETATM    1  C7  UNL     1      -0.480  -0.185   0.592  1.00  0.00     0.053 A 
HETATM    2  C8  UNL     1      -1.577   0.012  -0.137  1.00  0.00     0.070 A 
HETATM    3  N6  UNL     1      -2.417  -1.124  -0.300  1.00  0.00    -0.188 N 
ATOM      4  H6  UNL     1      -3.262  -0.992  -0.856  1.00  0.00     0.184 HD
HETATM    5  C13 UNL     1      -2.226  -2.277   0.171  1.00  0.00     0.711 A 
HETATM    6  N9  UNL     1      -1.090  -2.554   0.951  1.00  0.00    -0.131 N 
ATOM      7  H9  UNL     1      -0.920  -3.481   1.342  1.00  0.00     0.205 HD
HETATM    8  N10 UNL     1      -0.199  -1.485   1.165  1.00  0.00    -0.288 N 
ATOM      9  H10 UNL     1       0.643  -1.626   1.723  1.00  0.00     0.187 HD
ENDROOT
BRANCH   2  10
HETATM   10  C9  UNL     1      -1.830   1.325  -0.685  1.00  0.00     0.013 C 
BRANCH  10  11
HETATM   11  C10 UNL     1      -2.976   2.136  -0.285  1.00  0.00     0.115 C 
BRANCH  11  12
HETATM   12  C11 UNL     1      -4.323   1.640  -0.553  1.00  0.00     0.145 A 
HETATM   13  N3  UNL     1      -4.753   0.560  -1.164  1.00  0.00    -0.280 N 
HETATM   14  N4  UNL     1      -6.073   0.574  -1.142  1.00  0.00    -0.263 N 
ATOM     15  H3  UNL     1      -4.169  -0.164  -1.583  1.00  0.00     0.189 HD
HETATM   16  C12 UNL     1      -6.476   1.679  -0.507  1.00  0.00     0.238 A 
ATOM     17  H4  UNL     1      -6.683  -0.139  -1.542  1.00  0.00     0.190 HD
HETATM   18  N5  UNL     1      -7.708   1.991  -0.315  1.00  0.00    -0.364 N 
HETATM   19  O1  UNL     1      -5.394   2.315  -0.156  1.00  0.00    -0.264 OA
ATOM     20  H52 UNL     1      -8.555   1.493  -0.590  1.00  0.00     0.159 HD
ATOM     21  H51 UNL     1      -8.016   2.834   0.170  1.00  0.00     0.159 HD
ENDBRANCH  11  12
ENDBRANCH  10  11
ENDBRANCH   2  10
BRANCH   1  22
HETATM   22  C6  UNL     1       0.439   0.898   0.832  1.00  0.00     0.062 C 
BRANCH  22  23
HETATM   23  C5  UNL     1       1.761   0.889   0.103  1.00  0.00     0.036 C 
BRANCH  23  24
HETATM   24  C4  UNL     1       2.624  -0.285   0.325  1.00  0.00     0.272 C 
BRANCH  24  25
HETATM   25  N1  UNL     1       3.850  -0.164  -0.457  1.00  0.00     0.085 N 
HETATM   26  C1  UNL     1       4.640  -1.369  -0.216  1.00  0.00     0.309 C 
BRANCH  25  27
HETATM   27  C2  UNL     1       4.564   1.027  -0.235  1.00  0.00     0.299 C 
BRANCH  27  28
HETATM   28  C3  UNL     1       5.699   1.272  -1.207  1.00  0.00     0.259 C 
BRANCH  28  29
HETATM   29  N2  UNL     1       6.668   0.210  -1.128  1.00  0.00    -0.078 N 
ATOM     30  H23 UNL     1       7.007   0.076  -0.175  1.00  0.00     0.274 HD
ATOM     31  H22 UNL     1       6.240  -0.705  -1.268  1.00  0.00     0.274 HD
ATOM     32  H21 UNL     1       7.433   0.375  -1.783  1.00  0.00     0.274 HD
ENDBRANCH  28  29
ENDBRANCH  27  28
ENDBRANCH  25  27
ENDBRANCH  24  25
ENDBRANCH  23  24
ENDBRANCH  22  23
ENDBRANCH   1  22
BRANCH   5  33
HETATM   33  N7  UNL     1      -3.139  -3.344  -0.058  1.00  0.00    -0.137 N 
ATOM     34  H7  UNL     1      -3.140  -3.784  -0.978  1.00  0.00     0.205 HD
BRANCH  33  35
HETATM   35  N8  UNL     1      -4.025  -3.821   0.891  1.00  0.00    -0.331 N 
ATOM     36  H82 UNL     1      -4.010  -3.369   1.805  1.00  0.00     0.177 HD
ATOM     37  H81 UNL     1      -4.680  -4.586   0.727  1.00  0.00     0.177 HD
ENDBRANCH  33  35
ENDBRANCH   5  33
TORSDOF 12
