REMARK  9 active torsions:
REMARK  status: ('A' for Active; 'I' for Inactive)
REMARK    1  A    between atoms: O1_2  and  C2_3 
REMARK    2  A    between atoms: C2_3  and  C3_5 
REMARK    3  A    between atoms: C4_6  and  S1_7 
REMARK    4  A    between atoms: C7_15  and  N3_16 
REMARK    5  A    between atoms: C8_19  and  S2_20 
REMARK    6  A    between atoms: S2_20  and  C9_21 
REMARK    7  A    between atoms: C9_21  and  C10_22 
REMARK    8  A    between atoms: N4_23  and  N5_25 
REMARK    9  A    between atoms: N6_28  and  N7_30 
ROOT
HETATM    1  C3  UNL     1      -1.110  -0.232   0.086  1.00  0.00     0.092 A 
HETATM    2  C4  UNL     1      -1.969  -0.983   0.874  1.00  0.00     0.088 A 
HETATM    3  N1  UNL     1      -1.677  -2.260   1.103  1.00  0.00    -0.334 N 
ATOM      4  H1  UNL     1      -2.297  -2.828   1.680  1.00  0.00     0.168 HD
HETATM    5  C6  UNL     1      -0.565  -2.806   0.575  1.00  0.00     0.134 A 
HETATM    6  N2  UNL     1      -0.338  -4.052   0.837  1.00  0.00    -0.383 N 
ATOM      7  H21 UNL     1       0.504  -4.466   0.437  1.00  0.00     0.157 HD
ATOM      8  H22 UNL     1      -0.986  -4.582   1.419  1.00  0.00     0.157 HD
HETATM    9  C7  UNL     1       0.312  -2.089  -0.213  1.00  0.00     0.164 A 
HETATM   10  C8  UNL     1       0.034  -0.764  -0.467  1.00  0.00     0.063 A 
ENDROOT
BRANCH  10  11
HETATM   11  S2  UNL     1       1.164   0.166  -1.487  1.00  0.00    -0.066 SA
BRANCH  11  12
HETATM   12  C9  UNL     1       2.432   0.960  -0.508  1.00  0.00     0.106 C 
HETATM   13  N6  UNL     1       3.301   1.651  -1.175  1.00  0.00    -0.299 N 
ATOM     14  H6  UNL     1       4.039   2.118  -0.648  1.00  0.00     0.187 HD
BRANCH  12  15
HETATM   15  C10 UNL     1       2.490   0.844   0.923  1.00  0.00     0.145 C 
HETATM   16  N4  UNL     1       3.405   1.420   1.605  1.00  0.00    -0.316 N 
ATOM     17  H4  UNL     1       3.388   1.297   2.617  1.00  0.00     0.185 HD
BRANCH  16  18
HETATM   18  N5  UNL     1       4.419   2.200   1.069  1.00  0.00    -0.345 N 
ATOM     19  H52 UNL     1       4.420   2.312   0.055  1.00  0.00     0.176 HD
ATOM     20  H51 UNL     1       5.149   2.660   1.613  1.00  0.00     0.176 HD
ENDBRANCH  16  18
ENDBRANCH  12  15
BRANCH  13  21
HETATM   21  N7  UNL     1       3.302   1.803  -2.551  1.00  0.00    -0.344 N 
ATOM     22  H72 UNL     1       2.557   1.330  -3.062  1.00  0.00     0.176 HD
ATOM     23  H71 UNL     1       3.986   2.347  -3.076  1.00  0.00     0.176 HD
ENDBRANCH  13  21
ENDBRANCH  11  12
ENDBRANCH  10  11
BRANCH   1  24
HETATM   24  C2  UNL     1      -1.391   1.169  -0.188  1.00  0.00     0.297 C 
HETATM   25  O2  UNL     1      -0.953   2.065   0.573  1.00  0.00    -0.259 OA
BRANCH  24  26
HETATM   26  O1  UNL     1      -2.135   1.504  -1.283  1.00  0.00    -0.322 OA
HETATM   27  C1  UNL     1      -2.467   2.831  -1.644  1.00  0.00     0.213 C 
ENDBRANCH  24  26
ENDBRANCH   1  24
BRANCH   9  28
HETATM   28  N3  UNL     1       1.479  -2.740  -0.741  1.00  0.00    -0.110 N 
HETATM   29  O3  UNL     1       2.461  -3.033  -0.037  1.00  0.00    -0.532 OA
HETATM   30  O4  UNL     1       1.533  -3.063  -2.086  1.00  0.00    -0.532 OA
ENDBRANCH   9  28
BRANCH   2  31
HETATM   31  S1  UNL     1      -3.416  -0.150   1.519  1.00  0.00    -0.116 SA
HETATM   32  C5  UNL     1      -4.438  -1.229   2.516  1.00  0.00     0.097 C 
ENDBRANCH   2  31
TORSDOF 9
