REMARK  7 active torsions:
REMARK  status: ('A' for Active; 'I' for Inactive)
REMARK    1  A    between atoms: N1_2  and  C3_4 
REMARK    2  A    between atoms: C3_4  and  C4_5 
REMARK    3  A    between atoms: C6_7  and  O1_8 
REMARK    4  A    between atoms: C7_10  and  O2_11 
REMARK    5  A    between atoms: C8_13  and  N2_14 
REMARK       I    between atoms: N2_14  and  C9_16 
REMARK    6  A    between atoms: C9_16  and  O4_18 
REMARK    7  A    between atoms: O4_18  and  C10_19 
ROOT
HETATM    1  N2  UNL     1       0.950   0.034  -0.824  1.00  0.00    -0.329 N 
ATOM      2  H2  UNL     1       0.900   0.503  -1.728  1.00  0.00     0.165 HD
HETATM    3  C9  UNL     1      -0.254  -0.122  -0.122  1.00  0.00     0.361 C 
HETATM    4  O3  UNL     1      -0.213  -0.702   0.989  1.00  0.00    -0.238 OA
ENDROOT
BRANCH   1   5
HETATM    5  C8  UNL     1       2.236  -0.401  -0.394  1.00  0.00     0.122 C 
HETATM    6  C7  UNL     1       2.771  -1.384  -1.407  1.00  0.00     0.173 C 
HETATM    7  C6  UNL     1       4.090  -0.939  -1.993  1.00  0.00     0.172 C 
HETATM    8  C5  UNL     1       5.015  -0.494  -0.901  1.00  0.00     0.011 C 
HETATM    9  C4  UNL     1       4.550   0.412  -0.060  1.00  0.00    -0.062 C 
HETATM   10  C21 UNL     1       3.125   0.848  -0.357  1.00  0.00     0.063 C 
BRANCH   6  11
HETATM   11  O2  UNL     1       3.007  -2.632  -0.801  1.00  0.00    -0.391 OA
ATOM     12  H2  UNL     1       2.177  -2.912  -0.432  1.00  0.00     0.210 HD
ENDBRANCH   6  11
BRANCH   7  13
HETATM   13  O1  UNL     1       4.729  -1.981  -2.664  1.00  0.00    -0.389 OA
ATOM     14  H1  UNL     1       4.143  -2.263  -3.356  1.00  0.00     0.210 HD
ENDBRANCH   7  13
BRANCH   9  15
HETATM   15  C3  UNL     1       5.275   0.998   1.082  1.00  0.00     0.150 C 
BRANCH  15  16
HETATM   16  N1  UNL     1       6.600   0.508   1.174  1.00  0.00    -0.417 N 
HETATM   17  C1  UNL     1       7.517   0.943   0.171  1.00  0.00     0.142 C 
HETATM   18  C2  UNL     1       7.148   0.528   2.506  1.00  0.00     0.142 C 
ENDBRANCH  15  16
ENDBRANCH   9  15
ENDBRANCH   1   5
BRANCH   3  19
HETATM   19  O4  UNL     1      -1.484   0.314  -0.560  1.00  0.00    -0.298 OA
BRANCH  19  20
HETATM   20  C10 UNL     1      -2.708   0.142   0.173  1.00  0.00     0.138 C 
HETATM   21  C11 UNL     1      -3.236   1.453   0.664  1.00  0.00     0.033 C 
HETATM   22  C12 UNL     1      -4.297   2.109  -0.100  1.00  0.00     0.007 C 
HETATM   23  C13 UNL     1      -5.186   1.257  -0.932  1.00  0.00    -0.010 C 
HETATM   24  C14 UNL     1      -6.671   1.389  -0.555  1.00  0.00     0.005 C 
HETATM   25  C20 UNL     1      -4.970  -0.180  -0.860  1.00  0.00     0.000 C 
HETATM   26  C15 UNL     1      -7.079   0.008  -0.012  1.00  0.00     0.005 C 
HETATM   27  C16 UNL     1      -5.778  -0.531   0.404  1.00  0.00    -0.010 C 
HETATM   28  C17 UNL     1      -5.555  -1.995   0.390  1.00  0.00     0.005 C 
HETATM   29  C18 UNL     1      -4.023  -2.017   0.216  1.00  0.00     0.008 C 
HETATM   30  C19 UNL     1      -3.675  -0.736  -0.521  1.00  0.00     0.020 C 
ENDBRANCH  19  20
ENDBRANCH   3  19
TORSDOF 7
