REMARK  12 active torsions:
REMARK  status: ('A' for Active; 'I' for Inactive)
REMARK    1  A    between atoms: C2_2  and  N1_3 
REMARK    2  A    between atoms: C4_5  and  C5_6 
REMARK    3  A    between atoms: C5_6  and  C6_7 
REMARK    4  A    between atoms: N2_13  and  C9_14 
REMARK    5  A    between atoms: C9_14  and  C10_15 
REMARK    6  A    between atoms: N4_26  and  C18_28 
REMARK    7  A    between atoms: C18_28  and  C19_29 
REMARK    8  A    between atoms: C18_28  and  C20_32 
REMARK    9  A    between atoms: C19_29  and  O1_30 
REMARK   10  A    between atoms: C20_32  and  C21_33 
REMARK   11  A    between atoms: C21_33  and  C22_34 
REMARK   12  A    between atoms: C22_34  and  N5_35 
ROOT
HETATM    1  N1  UNL     1      -2.345   1.856   0.236  1.00  0.00    -0.366 N 
HETATM    2  C3  UNL     1      -1.410   3.034   0.159  1.00  0.00     0.134 C 
HETATM    3  C4  UNL     1      -0.180   2.470   0.768  1.00  0.00     0.051 C 
HETATM    4  C7  UNL     1      -0.244   1.087   0.190  1.00  0.00     0.020 A 
HETATM    5  C8  UNL     1      -1.539   0.723  -0.060  1.00  0.00     0.116 A 
HETATM    6  N2  UNL     1      -1.894  -0.480  -0.576  1.00  0.00    -0.317 N 
HETATM    7  C13 UNL     1      -0.894  -1.393  -0.878  1.00  0.00     0.129 A 
HETATM    8  N3  UNL     1      -1.086  -2.571  -1.403  1.00  0.00    -0.339 N 
ATOM      9  H3  UNL     1      -2.039  -2.875  -1.602  1.00  0.00     0.168 HD
HETATM   10  C14 UNL     1      -0.095  -3.372  -1.681  1.00  0.00     0.049 A 
HETATM   11  C15 UNL     1      -0.101  -4.753  -2.280  1.00  0.00     0.076 C 
HETATM   12  S1  UNL     1       1.242  -2.445  -1.184  1.00  0.00    -0.071 SA
HETATM   13  C16 UNL     1       0.414  -1.043  -0.635  1.00  0.00     0.078 A 
HETATM   14  C17 UNL     1       0.778   0.203  -0.095  1.00  0.00     0.060 A 
HETATM   15  N4  UNL     1       1.975   0.460   0.103  1.00  0.00    -0.381 N 
ATOM     16  H4  UNL     1       2.095   1.394   0.495  1.00  0.00     0.160 HD
ENDROOT
BRANCH  15  17
HETATM   17  C18 UNL     1       3.215  -0.188  -0.067  1.00  0.00     0.105 C 
BRANCH  17  18
HETATM   18  C19 UNL     1       3.644  -0.963   1.174  1.00  0.00     0.189 C 
BRANCH  18  19
HETATM   19  O1  UNL     1       3.762  -0.045   2.241  1.00  0.00    -0.399 OA
ATOM     20  H1  UNL     1       4.029  -0.528   3.014  1.00  0.00     0.209 HD
ENDBRANCH  18  19
ENDBRANCH  17  18
BRANCH  17  21
HETATM   21  C20 UNL     1       4.259   0.918  -0.330  1.00  0.00     0.029 C 
BRANCH  21  22
HETATM   22  C21 UNL     1       5.643   0.367  -0.525  1.00  0.00     0.029 C 
BRANCH  22  23
HETATM   23  C22 UNL     1       5.721  -0.571  -1.689  1.00  0.00     0.230 C 
BRANCH  23  24
HETATM   24  N5  UNL     1       7.066  -1.088  -1.884  1.00  0.00    -0.079 N 
ATOM     25  H53 UNL     1       7.744  -0.331  -1.973  1.00  0.00     0.274 HD
ATOM     26  H52 UNL     1       7.422  -1.524  -1.033  1.00  0.00     0.274 HD
ATOM     27  H51 UNL     1       7.119  -1.727  -2.677  1.00  0.00     0.274 HD
ENDBRANCH  23  24
ENDBRANCH  22  23
ENDBRANCH  21  22
ENDBRANCH  17  21
ENDBRANCH  15  17
BRANCH   3  28
HETATM   28  C5  UNL     1      -0.043   2.442   2.233  1.00  0.00     0.128 C 
BRANCH  28  29
HETATM   29  C6  UNL     1      -0.056   3.789   2.874  1.00  0.00     0.388 C 
HETATM   30  F1  UNL     1      -1.171   4.525   2.716  1.00  0.00    -0.171 F 
HETATM   31  F2  UNL     1       1.032   4.563   2.430  1.00  0.00    -0.171 F 
HETATM   32  F3  UNL     1       0.196   3.648   4.249  1.00  0.00    -0.171 F 
ENDBRANCH  28  29
ENDBRANCH   3  28
BRANCH   1  33
HETATM   33  C2  UNL     1      -3.699   2.030   0.535  1.00  0.00     0.120 C 
HETATM   34  C1  UNL     1      -4.477   2.796  -0.566  1.00  0.00     0.026 C 
ENDBRANCH   1  33
BRANCH   6  35
HETATM   35  C9  UNL     1      -3.261  -0.796  -0.748  1.00  0.00     0.136 C 
BRANCH  35  36
HETATM   36  C10 UNL     1      -3.969  -1.515   0.366  1.00  0.00    -0.004 C 
HETATM   37  C11 UNL     1      -5.432  -1.736  -0.010  1.00  0.00     0.011 C 
HETATM   38  C12 UNL     1      -3.437  -2.885   0.711  1.00  0.00     0.011 C 
ENDBRANCH  35  36
ENDBRANCH   6  35
TORSDOF 12
