REMARK  2 active torsions:
REMARK  status: ('A' for Active; 'I' for Inactive)
REMARK    1  A    between atoms: C4_9  and  N3_10 
REMARK    2  A    between atoms: N3_10  and  C5_12 
ROOT
HETATM    1  N3  UNL     1       0.381   0.291  -0.332  1.00  0.00    -0.374 N 
ATOM      2  H3  UNL     1       0.278   0.983   0.411  1.00  0.00     0.160 HD
ENDROOT
BRANCH   1   3
HETATM    3  C4  UNL     1       1.593   0.037  -0.487  1.00  0.00     0.112 A 
HETATM    4  C3  UNL     1       2.190  -0.828  -1.372  1.00  0.00     0.149 A 
HETATM    5  N2  UNL     1       3.496  -1.050  -1.483  1.00  0.00    -0.287 N 
HETATM    6  S1  UNL     1       1.178  -1.669  -2.389  1.00  0.00    -0.056 SA
HETATM    7  N1  UNL     1       4.482  -0.527  -0.814  1.00  0.00    -0.297 N 
ATOM      8  H2  UNL     1       3.764  -1.729  -2.196  1.00  0.00     0.188 HD
HETATM    9  C2  UNL     1       4.375   0.375   0.158  1.00  0.00     0.064 A 
ATOM     10  H1  UNL     1       5.423  -0.837  -1.057  1.00  0.00     0.187 HD
HETATM   11  C1  UNL     1       5.574   0.927   0.880  1.00  0.00     0.078 C 
HETATM   12  S2  UNL     1       2.779   0.836   0.502  1.00  0.00    -0.055 SA
ENDBRANCH   1   3
BRANCH   1  13
HETATM   13  C5  UNL     1      -0.866  -0.038  -0.815  1.00  0.00     0.115 C 
HETATM   14  C6  UNL     1      -1.503  -1.274  -0.211  1.00  0.00     0.009 C 
HETATM   15  C7  UNL     1      -2.555  -1.815  -1.153  1.00  0.00     0.012 C 
HETATM   16  C8  UNL     1      -2.238  -0.917   1.079  1.00  0.00     0.038 C 
HETATM   17  C9  UNL     1      -3.181   0.233   0.874  1.00  0.00     0.122 C 
HETATM   18  C10 UNL     1      -2.622   1.409   1.673  1.00  0.00     0.034 C 
HETATM   19  O1  UNL     1      -3.100   0.699  -0.458  1.00  0.00    -0.379 OA
HETATM   20  C11 UNL     1      -1.463   1.817   0.779  1.00  0.00     0.036 C 
HETATM   21  C12 UNL     1      -1.795   1.178  -0.534  1.00  0.00     0.145 C 
ENDBRANCH   1  13
TORSDOF 2
