REMARK  2 active torsions:
REMARK  status: ('A' for Active; 'I' for Inactive)
REMARK    1  A    between atoms: C7_7  and  N1_8 
REMARK    2  A    between atoms: N1_8  and  C8_10 
ROOT
HETATM    1  N1  UNL     1       0.639  -0.734  -0.973  1.00  0.00    -0.190 N 
ATOM      2  H1  UNL     1       0.759  -1.089  -1.922  1.00  0.00     0.184 HD
ENDROOT
BRANCH   1   3
HETATM    3  C7  UNL     1      -0.671  -0.570  -0.416  1.00  0.00     0.055 A 
HETATM    4  C2  UNL     1      -1.337   0.632  -0.518  1.00  0.00    -0.035 A 
HETATM    5  C1  UNL     1      -0.671   1.754  -1.216  1.00  0.00     0.050 C 
HETATM    6  C3  UNL     1      -2.595   0.781   0.019  1.00  0.00     0.009 A 
HETATM    7  C4  UNL     1      -3.170  -0.307   0.663  1.00  0.00     0.001 A 
HETATM    8  C5  UNL     1      -2.508  -1.506   0.766  1.00  0.00     0.002 A 
HETATM    9  C6  UNL     1      -1.252  -1.626   0.219  1.00  0.00     0.030 A 
ENDBRANCH   1   3
BRANCH   1  10
HETATM   10  C8  UNL     1       1.671  -0.422  -0.247  1.00  0.00     0.698 A 
HETATM   11  N2  UNL     1       1.633   0.051   1.005  1.00  0.00    -0.185 N 
HETATM   12  C9  UNL     1       2.906   0.238   1.378  1.00  0.00     0.215 A 
ATOM     13  H2  UNL     1       0.800   0.233   1.564  1.00  0.00     0.185 HD
HETATM   14  N3  UNL     1       3.729  -0.112   0.378  1.00  0.00    -0.281 N 
HETATM   15  N4  UNL     1       2.957  -0.514  -0.611  1.00  0.00    -0.131 N 
ATOM     16  H3  UNL     1       4.748  -0.074   0.382  1.00  0.00     0.188 HD
ATOM     17  H4  UNL     1       3.288  -0.845  -1.517  1.00  0.00     0.205 HD
ENDBRANCH   1  10
TORSDOF 2
