REMARK  3 active torsions:
REMARK  status: ('A' for Active; 'I' for Inactive)
REMARK       I    between atoms: C1_2  and  N1_3 
REMARK    1  A    between atoms: C1_2  and  C14_21 
REMARK    2  A    between atoms: N1_3  and  N2_5 
REMARK       I    between atoms: N2_5  and  C2_7 
REMARK    3  A    between atoms: C2_7  and  C3_9 
ROOT
HETATM    1  N2  UNL     1       1.769   0.721  -0.477  1.00  0.00    -0.267 N 
ATOM      2  H2  UNL     1       1.471   1.669  -0.247  1.00  0.00     0.190 HD
HETATM    3  C2  UNL     1       0.860  -0.349  -0.541  1.00  0.00     0.244 C 
HETATM    4  O2  UNL     1       1.213  -1.533  -0.827  1.00  0.00    -0.271 OA
ENDROOT
BRANCH   3   5
HETATM    5  C3  UNL     1      -0.587  -0.079  -0.261  1.00  0.00     0.045 C 
HETATM    6  C4  UNL     1      -1.289  -1.402  -0.205  1.00  0.00     0.024 C 
HETATM    7  C5  UNL     1      -2.724  -1.352   0.184  1.00  0.00    -0.012 C 
HETATM    8  C6  UNL     1      -3.638  -1.183  -0.983  1.00  0.00     0.005 C 
HETATM    9  C11 UNL     1      -3.029  -0.410   1.307  1.00  0.00     0.030 C 
HETATM   10  C7  UNL     1      -3.511   0.051  -1.764  1.00  0.00     0.005 C 
HETATM   11  C8  UNL     1      -2.551   1.088  -1.285  1.00  0.00    -0.012 C 
HETATM   12  C9  UNL     1      -2.885   1.651   0.058  1.00  0.00     0.030 C 
HETATM   13  C13 UNL     1      -1.098   0.743  -1.419  1.00  0.00     0.024 C 
HETATM   14  C10 UNL     1      -2.275   0.902   1.198  1.00  0.00     0.039 C 
HETATM   15 CL1  UNL     1      -2.576   1.779   2.702  1.00  0.00    -0.119 Cl
HETATM   16  C12 UNL     1      -0.809   0.616   1.052  1.00  0.00     0.044 C 
ENDBRANCH   3   5
BRANCH   1  17
HETATM   17  N1  UNL     1       3.124   0.406  -0.750  1.00  0.00    -0.261 N 
HETATM   18  C1  UNL     1       3.968   0.222   0.379  1.00  0.00     0.295 C 
HETATM   19  O1  UNL     1       3.465   0.357   1.542  1.00  0.00    -0.264 OA
ATOM     20  H1  UNL     1       3.474   0.316  -1.704  1.00  0.00     0.190 HD
BRANCH  18  21
HETATM   21  C14 UNL     1       5.364  -0.112   0.193  1.00  0.00     0.169 A 
HETATM   22  C15 UNL     1       6.264  -0.461   1.201  1.00  0.00     0.064 A 
HETATM   23  C16 UNL     1       7.506  -0.706   0.626  1.00  0.00     0.117 A 
HETATM   24  N3  UNL     1       7.288  -0.494  -0.698  1.00  0.00    -0.272 N 
HETATM   25  O3  UNL     1       6.046  -0.153  -0.910  1.00  0.00    -0.233 OA
ATOM     26  H3  UNL     1       7.997  -0.588  -1.426  1.00  0.00     0.194 HD
ENDBRANCH  18  21
ENDBRANCH   1  17
TORSDOF 3
