REMARK  4 active torsions:
REMARK  status: ('A' for Active; 'I' for Inactive)
REMARK    1  A    between atoms: C2_2  and  C3_3 
REMARK    2  A    between atoms: C2_2  and  C11_15 
REMARK    3  A    between atoms: C14_18  and  C15_19 
REMARK    4  A    between atoms: C15_19  and  O2_22 
ROOT
HETATM    1  C1  UNL     1      -1.292   1.962  -0.537  1.00  0.00     0.020 C 
HETATM    2  C2  UNL     1      -1.084   0.990   0.302  1.00  0.00    -0.048 C 
ENDROOT
BRANCH   2   3
HETATM    3  C3  UNL     1      -2.148   0.148   0.790  1.00  0.00     0.006 A 
HETATM    4  C4  UNL     1      -1.930  -0.475   2.027  1.00  0.00     0.038 A 
HETATM    5  C5  UNL     1      -2.862  -1.324   2.590  1.00  0.00     0.035 A 
HETATM    6 CL1  UNL     1      -2.527  -2.075   4.149  1.00  0.00    -0.084 Cl
HETATM    7  C6  UNL     1      -4.050  -1.589   1.944  1.00  0.00     0.035 A 
HETATM    8  C7  UNL     1      -4.298  -1.000   0.733  1.00  0.00    -0.004 A 
HETATM    9  C8  UNL     1      -3.338  -0.150   0.195  1.00  0.00     0.095 A 
HETATM   10  C10 UNL     1      -5.534  -1.228  -0.018  1.00  0.00     0.162 C 
HETATM   11  O1  UNL     1      -3.651   0.409  -1.035  1.00  0.00    -0.305 OA
HETATM   12  C9  UNL     1      -4.550  -0.149  -1.936  1.00  0.00     0.229 C 
HETATM   13  N1  UNL     1      -5.359  -1.202  -1.444  1.00  0.00    -0.376 N 
ATOM     14  H1  UNL     1      -5.788  -1.894  -2.059  1.00  0.00     0.161 HD
ENDBRANCH   2   3
BRANCH   2  15
HETATM   15  C11 UNL     1       0.334   0.778   0.731  1.00  0.00     0.043 C 
HETATM   16  C12 UNL     1       0.841  -0.598   0.473  1.00  0.00     0.014 C 
HETATM   17  C13 UNL     1       2.139  -0.621  -0.297  1.00  0.00     0.036 C 
HETATM   18  C14 UNL     1       3.148   0.345   0.218  1.00  0.00     0.155 C 
HETATM   19  O3  UNL     1       2.588   1.545   0.548  1.00  0.00    -0.382 OA
HETATM   20  C18 UNL     1       1.291   1.746   0.080  1.00  0.00     0.177 C 
BRANCH  18  21
HETATM   21  C15 UNL     1       4.333   0.479  -0.709  1.00  0.00     0.076 C 
HETATM   22  C16 UNL     1       4.854  -0.899  -1.045  1.00  0.00     0.048 C 
HETATM   23  C17 UNL     1       5.443   1.265  -0.090  1.00  0.00     0.048 C 
BRANCH  21  24
HETATM   24  O2  UNL     1       3.985   1.092  -1.911  1.00  0.00    -0.388 OA
ATOM     25  H2  UNL     1       4.730   1.176  -2.494  1.00  0.00     0.210 HD
ENDBRANCH  21  24
ENDBRANCH  18  21
ENDBRANCH   2  15
TORSDOF 4
