REMARK  11 active torsions:
REMARK  status: ('A' for Active; 'I' for Inactive)
REMARK    1  A    between atoms: C2_2  and  C3_3 
REMARK    2  A    between atoms: C3_3  and  C4_4 
REMARK    3  A    between atoms: C4_4  and  C5_5 
REMARK    4  A    between atoms: C5_5  and  C6_6 
REMARK    5  A    between atoms: C6_6  and  C7_7 
REMARK    6  A    between atoms: C7_7  and  C8_8 
REMARK    7  A    between atoms: C8_8  and  C9_9 
REMARK    8  A    between atoms: C9_9  and  C10_10 
REMARK    9  A    between atoms: C10_10  and  C11_11 
REMARK   10  A    between atoms: C10_10  and  C22_32 
REMARK   11  A    between atoms: C11_11  and  N1_12 
ROOT
HETATM    1  N1  UNL     1       1.315  -0.529  -0.274  1.00  0.00    -0.327 N 
HETATM    2  C12 UNL     1       1.512  -1.132  -1.608  1.00  0.00     0.359 C 
HETATM    3  N2  UNL     1       2.578  -0.376  -2.234  1.00  0.00    -0.059 N 
ATOM      4  H21 UNL     1       2.443   0.629  -2.129  1.00  0.00     0.279 HD
ATOM      5  H22 UNL     1       2.534  -0.429  -3.252  1.00  0.00     0.279 HD
HETATM    6  C13 UNL     1       3.861  -0.801  -1.729  1.00  0.00     0.240 C 
HETATM    7  C14 UNL     1       4.324  -0.000  -0.555  1.00  0.00     0.029 C 
HETATM    8  C15 UNL     1       5.812  -0.001  -0.474  1.00  0.00     0.053 C 
HETATM    9  C16 UNL     1       6.375  -1.304  -0.073  1.00  0.00     0.036 A 
HETATM   10  C17 UNL     1       5.658  -2.150   0.710  1.00  0.00     0.038 A 
HETATM   11  N3  UNL     1       6.394  -3.250   0.923  1.00  0.00    -0.301 N 
ATOM     12  H3  UNL     1       6.110  -4.058   1.477  1.00  0.00     0.186 HD
HETATM   13  N4  UNL     1       7.551  -3.111   0.294  1.00  0.00    -0.266 N 
ATOM     14  H4  UNL     1       8.307  -3.796   0.284  1.00  0.00     0.190 HD
HETATM   15  C18 UNL     1       7.567  -1.915  -0.331  1.00  0.00     0.268 A 
HETATM   16  O1  UNL     1       8.517  -1.465  -1.021  1.00  0.00    -0.266 OA
HETATM   17  C19 UNL     1       4.322  -1.821   1.183  1.00  0.00     0.074 C 
HETATM   18  C20 UNL     1       3.777  -0.505   0.757  1.00  0.00     0.089 C 
HETATM   19  C21 UNL     1       2.294  -0.575   0.745  1.00  0.00     0.226 C 
HETATM   20  O2  UNL     1       1.777  -0.708   1.915  1.00  0.00    -0.273 OA
ENDROOT
BRANCH   1  21
HETATM   21  C11 UNL     1       0.059   0.143  -0.060  1.00  0.00     0.141 C 
BRANCH  21  22
HETATM   22  C10 UNL     1      -0.096   1.520  -0.511  1.00  0.00     0.093 C 
BRANCH  22  23
HETATM   23  C9  UNL     1      -1.516   1.986  -0.186  1.00  0.00     0.015 C 
BRANCH  23  24
HETATM   24  C8  UNL     1      -1.840   1.947   1.268  1.00  0.00     0.001 C 
BRANCH  24  25
HETATM   25  C7  UNL     1      -3.263   2.436   1.447  1.00  0.00     0.000 C 
BRANCH  25  26
HETATM   26  C6  UNL     1      -4.263   1.565   0.688  1.00  0.00     0.000 C 
BRANCH  26  27
HETATM   27  C5  UNL     1      -4.224   0.142   1.159  1.00  0.00     0.000 C 
BRANCH  27  28
HETATM   28  C4  UNL     1      -5.215  -0.671   0.375  1.00  0.00     0.000 C 
BRANCH  28  29
HETATM   29  C3  UNL     1      -6.611  -0.177   0.531  1.00  0.00    -0.000 C 
BRANCH  29  30
HETATM   30  C2  UNL     1      -7.596  -1.033  -0.268  1.00  0.00    -0.005 C 
HETATM   31  C1  UNL     1      -7.258  -1.008  -1.739  1.00  0.00     0.005 C 
ENDBRANCH  29  30
ENDBRANCH  28  29
ENDBRANCH  27  28
ENDBRANCH  26  27
ENDBRANCH  25  26
ENDBRANCH  24  25
ENDBRANCH  23  24
ENDBRANCH  22  23
BRANCH  22  32
HETATM   32  C22 UNL     1       0.886   2.530  -0.124  1.00  0.00     0.236 C 
HETATM   33  N5  UNL     1       1.001   3.730  -0.930  1.00  0.00    -0.062 NA
HETATM   34  O3  UNL     1       1.617   2.384   0.875  1.00  0.00    -0.276 OA
ENDBRANCH  22  32
ENDBRANCH  21  22
ENDBRANCH   1  21
TORSDOF 11
