REMARK  15 active torsions:
REMARK  status: ('A' for Active; 'I' for Inactive)
REMARK    1  A    between atoms: N1_2  and  C3_4 
REMARK    2  A    between atoms: C3_4  and  C4_5 
REMARK    3  A    between atoms: C3_4  and  C5_11 
REMARK    4  A    between atoms: N3_7  and  O1_9 
REMARK    5  A    between atoms: N6_16  and  C6_17 
REMARK    6  A    between atoms: C7_23  and  N9_24 
REMARK    7  A    between atoms: C8_27  and  C9_28 
REMARK    8  A    between atoms: C11_35  and  C12_36 
REMARK    9  A    between atoms: N13_38  and  C14_39 
REMARK   10  A    between atoms: C16_42  and  O4_43 
REMARK   11  A    between atoms: C16_42  and  C17_45 
REMARK   12  A    between atoms: C17_45  and  O5_46 
REMARK   13  A    between atoms: C17_45  and  C18_48 
REMARK   14  A    between atoms: C18_48  and  O6_49 
REMARK   15  A    between atoms: C19_51  and  O7_52 
ROOT
HETATM    1  C9  UNL     1      -2.384   1.877   0.903  1.00  0.00     0.095 A 
HETATM    2  N10 UNL     1      -3.229   2.385   1.852  1.00  0.00    -0.296 N 
ATOM      3  H10 UNL     1      -4.220   2.567   1.695  1.00  0.00     0.187 HD
HETATM    4  N11 UNL     1      -2.618   2.607   2.976  1.00  0.00    -0.286 N 
ATOM      5  H11 UNL     1      -3.036   2.982   3.827  1.00  0.00     0.188 HD
HETATM    6  C10 UNL     1      -1.352   2.256   2.813  1.00  0.00     0.145 A 
HETATM    7  N12 UNL     1      -0.313   2.322   3.772  1.00  0.00    -0.080 NA
HETATM    8  C11 UNL     1      -1.153   1.790   1.524  1.00  0.00     0.066 A 
ENDROOT
BRANCH   1   9
HETATM    9  C8  UNL     1      -2.694   1.521  -0.455  1.00  0.00     0.116 A 
HETATM   10  C5  UNL     1      -2.756   0.329  -1.076  1.00  0.00     0.099 A 
HETATM   11  N4  UNL     1      -3.060   0.602  -2.403  1.00  0.00    -0.285 N 
HETATM   12  N5  UNL     1      -3.173   1.889  -2.556  1.00  0.00    -0.234 N 
ATOM     13  H4  UNL     1      -3.176  -0.094  -3.139  1.00  0.00     0.188 HD
HETATM   14  N6  UNL     1      -2.958   2.481  -1.394  1.00  0.00    -0.216 N 
ATOM     15  H5  UNL     1      -3.392   2.364  -3.431  1.00  0.00     0.209 HD
BRANCH  10  16
HETATM   16  C3  UNL     1      -2.595  -1.019  -0.527  1.00  0.00     0.341 C 
BRANCH  16  17
HETATM   17  N1  UNL     1      -2.687  -1.114   0.913  1.00  0.00     0.097 N 
HETATM   18  C1  UNL     1      -2.164  -2.411   1.381  1.00  0.00     0.310 C 
HETATM   19  C2  UNL     1      -4.107  -1.161   1.317  1.00  0.00     0.310 C 
ENDBRANCH  16  17
BRANCH  16  20
HETATM   20  C4  UNL     1      -3.531  -2.019  -1.101  1.00  0.00     0.152 C 
HETATM   21  N2  UNL     1      -3.282  -3.393  -0.904  1.00  0.00    -0.083 NA
HETATM   22  N3  UNL     1      -4.574  -1.675  -1.779  1.00  0.00    -0.257 N 
ATOM     23  H3  UNL     1      -4.770  -0.686  -1.931  1.00  0.00     0.195 HD
BRANCH  22  24
HETATM   24  O1  UNL     1      -5.420  -2.616  -2.297  1.00  0.00    -0.289 OA
ATOM     25  H1  UNL     1      -6.188  -2.363  -2.796  1.00  0.00     0.244 HD
ENDBRANCH  22  24
ENDBRANCH  16  20
ENDBRANCH  10  16
BRANCH  14  26
HETATM   26  C6  UNL     1      -3.003   3.889  -1.205  1.00  0.00     0.196 A 
HETATM   27  N7  UNL     1      -1.968   4.752  -1.172  1.00  0.00    -0.220 N 
HETATM   28  O2  UNL     1      -2.452   5.940  -0.979  1.00  0.00    -0.153 OA
ATOM     29  H7  UNL     1      -0.982   4.514  -1.279  1.00  0.00     0.198 HD
HETATM   30  N8  UNL     1      -3.743   5.939  -0.880  1.00  0.00    -0.222 N 
HETATM   31  C7  UNL     1      -4.129   4.658  -1.018  1.00  0.00     0.169 A 
ATOM     32  H8  UNL     1      -4.346   6.747  -0.728  1.00  0.00     0.198 HD
BRANCH  31  33
HETATM   33  N9  UNL     1      -5.351   4.278  -0.973  1.00  0.00    -0.381 N 
ATOM     34  H92 UNL     1      -5.644   3.307  -1.078  1.00  0.00     0.157 HD
ATOM     35  H91 UNL     1      -6.185   4.848  -0.834  1.00  0.00     0.157 HD
ENDBRANCH  31  33
ENDBRANCH  14  26
ENDBRANCH   1   9
BRANCH   8  36
HETATM   36  C12 UNL     1       0.123   1.325   0.964  1.00  0.00     0.082 A 
HETATM   37  C13 UNL     1       0.927   0.280   1.372  1.00  0.00     0.144 A 
HETATM   38  N13 UNL     1       2.010   0.196   0.580  1.00  0.00    -0.277 N 
HETATM   39  N14 UNL     1       1.884   1.163  -0.297  1.00  0.00    -0.240 N 
HETATM   40  N15 UNL     1       0.770   1.854  -0.096  1.00  0.00    -0.284 N 
ATOM     41  H14 UNL     1       2.557   1.359  -1.039  1.00  0.00     0.208 HD
ATOM     42  H15 UNL     1       0.455   2.651  -0.649  1.00  0.00     0.188 HD
BRANCH  38  43
HETATM   43  C14 UNL     1       3.067  -0.786   0.723  1.00  0.00     0.167 C 
HETATM   44  C15 UNL     1       4.282  -0.239   1.387  1.00  0.00     0.201 C 
HETATM   45  O3  UNL     1       5.345  -0.377   0.504  1.00  0.00    -0.349 OA
HETATM   46  C16 UNL     1       5.050  -1.477  -0.294  1.00  0.00     0.219 C 
HETATM   47  C19 UNL     1       3.595  -1.238  -0.617  1.00  0.00     0.210 C 
BRANCH  46  48
HETATM   48  O4  UNL     1       5.146  -2.687   0.378  1.00  0.00    -0.361 OA
ATOM     49  H4  UNL     1       4.944  -3.438  -0.167  1.00  0.00     0.213 HD
ENDBRANCH  46  48
BRANCH  46  50
HETATM   50  C17 UNL     1       5.912  -1.507  -1.527  1.00  0.00     0.206 C 
BRANCH  50  51
HETATM   51  O5  UNL     1       5.565  -2.632  -2.273  1.00  0.00    -0.388 OA
ATOM     52  H5  UNL     1       6.109  -2.651  -3.051  1.00  0.00     0.210 HD
ENDBRANCH  50  51
BRANCH  50  53
HETATM   53  C18 UNL     1       7.350  -1.679  -1.088  1.00  0.00     0.201 C 
BRANCH  53  54
HETATM   54  O6  UNL     1       8.208  -1.795  -2.185  1.00  0.00    -0.398 OA
ATOM     55  H6  UNL     1       9.111  -1.903  -1.909  1.00  0.00     0.209 HD
ENDBRANCH  53  54
ENDBRANCH  50  53
ENDBRANCH  46  50
BRANCH  47  56
HETATM   56  O7  UNL     1       2.946  -2.384  -1.069  1.00  0.00    -0.388 OA
ATOM     57  H7  UNL     1       3.278  -2.668  -1.912  1.00  0.00     0.210 HD
ENDBRANCH  47  56
ENDBRANCH  38  43
ENDBRANCH   8  36
TORSDOF 15
