REMARK  17 active torsions:
REMARK  status: ('A' for Active; 'I' for Inactive)
REMARK    1  A    between atoms: N1_1  and  N2_4 
REMARK    2  A    between atoms: N2_4  and  C1_6 
REMARK    3  A    between atoms: C3_12  and  C4_13 
REMARK    4  A    between atoms: C7_21  and  C8_22 
REMARK    5  A    between atoms: C8_22  and  N8_23 
REMARK    6  A    between atoms: C10_26  and  O2_27 
REMARK    7  A    between atoms: C11_29  and  C12_30 
REMARK    8  A    between atoms: C12_30  and  O3_31 
REMARK    9  A    between atoms: C12_30  and  O4_33 
REMARK   10  A    between atoms: O4_33  and  C13_34 
REMARK   11  A    between atoms: C13_34  and  N9_35 
REMARK   12  A    between atoms: C16_42  and  C17_43 
REMARK   13  A    between atoms: C17_43  and  O6_44 
REMARK   14  A    between atoms: C17_43  and  O7_46 
REMARK   15  A    between atoms: C18_48  and  C19_49 
REMARK   16  A    between atoms: C19_49  and  O8_50 
REMARK   17  A    between atoms: C19_49  and  O9_52 
ROOT
HETATM    1  N8  UNL     1      -0.001  -0.630   0.150  1.00  0.00    -0.362 N 
ATOM      2  H8  UNL     1       0.684  -1.377   0.033  1.00  0.00     0.165 HD
HETATM    3  C9  UNL     1      -1.207  -0.997   0.291  1.00  0.00     0.082 A 
HETATM    4  C10 UNL     1      -2.250  -0.089   0.460  1.00  0.00     0.128 A 
HETATM    5  C11 UNL     1      -3.512  -0.594   0.607  1.00  0.00     0.143 A 
HETATM    6  O5  UNL     1      -3.727  -1.869   0.589  1.00  0.00    -0.305 OA
HETATM    7  C16 UNL     1      -2.777  -2.774   0.433  1.00  0.00     0.121 A 
HETATM    8  C18 UNL     1      -1.492  -2.393   0.277  1.00  0.00     0.060 A 
ENDROOT
BRANCH   1   9
HETATM    9  C8  UNL     1       0.504   0.676   0.135  1.00  0.00     0.101 C 
BRANCH   9  10
HETATM   10  C7  UNL     1       2.014   0.692   0.009  1.00  0.00    -0.001 A 
HETATM   11  C6  UNL     1       2.774   1.836  -0.037  1.00  0.00     0.066 A 
HETATM   12  C5  UNL     1       4.097   1.465  -0.153  1.00  0.00     0.169 A 
HETATM   13  N7  UNL     1       5.249   2.191  -0.237  1.00  0.00    -0.066 N 
HETATM   14  N12 UNL     1       4.125   0.118  -0.176  1.00  0.00    -0.138 N 
HETATM   15  C2  UNL     1       6.413   1.529  -0.345  1.00  0.00     0.721 A 
HETATM   16  N6  UNL     1       5.472   3.494  -0.236  1.00  0.00    -0.258 N 
HETATM   17  N3  UNL     1       6.432   0.188  -0.367  1.00  0.00    -0.018 N 
HETATM   18  N4  UNL     1       7.369   2.501  -0.410  1.00  0.00    -0.168 N 
HETATM   19  C1  UNL     1       5.310  -0.545  -0.285  1.00  0.00     0.719 A 
ATOM     20  H3  UNL     1       7.329  -0.291  -0.449  1.00  0.00     0.203 HD
HETATM   21  C3  UNL     1       6.791   3.712  -0.343  1.00  0.00     0.202 A 
ATOM     22  H4  UNL     1       8.371   2.333  -0.496  1.00  0.00     0.186 HD
ATOM     23  H6  UNL     1       4.756   4.217  -0.165  1.00  0.00     0.190 HD
HETATM   24  C20 UNL     1       2.872  -0.364  -0.079  1.00  0.00     0.130 A 
BRANCH  19  25
HETATM   25  N2  UNL     1       5.311  -1.823  -0.305  1.00  0.00    -0.138 N 
ATOM     26  H2  UNL     1       4.436  -2.344  -0.241  1.00  0.00     0.205 HD
BRANCH  25  27
HETATM   27  N1  UNL     1       6.535  -2.496  -0.417  1.00  0.00    -0.331 N 
ATOM     28  H12 UNL     1       7.401  -1.961  -0.480  1.00  0.00     0.177 HD
ATOM     29  H11 UNL     1       6.536  -3.516  -0.433  1.00  0.00     0.177 HD
ENDBRANCH  25  27
ENDBRANCH  19  25
BRANCH  21  30
HETATM   30  C4  UNL     1       7.456   5.025  -0.378  1.00  0.00     0.300 C 
HETATM   31  N5  UNL     1       8.852   5.155  -0.493  1.00  0.00    -0.054 NA
HETATM   32  O1  UNL     1       6.761   6.062  -0.304  1.00  0.00    -0.268 OA
ENDBRANCH  21  30
ENDBRANCH   9  10
ENDBRANCH   1   9
BRANCH   4  33
HETATM   33  O2  UNL     1      -1.960   1.253   0.465  1.00  0.00    -0.356 OA
ATOM     34  H2  UNL     1      -2.671   1.872   0.580  1.00  0.00     0.218 HD
ENDBRANCH   4  33
BRANCH   8  35
HETATM   35  C19 UNL     1      -0.346  -3.287   0.069  1.00  0.00     0.293 C 
BRANCH  35  36
HETATM   36  O8  UNL     1      -0.521  -4.278  -0.885  1.00  0.00    -0.367 OA
ATOM     37  H8  UNL     1       0.220  -4.856  -1.020  1.00  0.00     0.213 HD
ENDBRANCH  35  36
BRANCH  35  38
HETATM   38  O9  UNL     1       0.200  -3.791   1.260  1.00  0.00    -0.367 OA
ATOM     39  H9  UNL     1       0.941  -4.369   1.125  1.00  0.00     0.213 HD
ENDBRANCH  35  38
ENDBRANCH   8  35
BRANCH   5  40
HETATM   40  C12 UNL     1      -4.670   0.312   0.798  1.00  0.00     0.325 C 
BRANCH  40  41
HETATM   41  O3  UNL     1      -4.351   1.226   1.800  1.00  0.00    -0.365 OA
ATOM     42  H3  UNL     1      -5.093   1.807   1.922  1.00  0.00     0.213 HD
ENDBRANCH  40  41
BRANCH  40  43
HETATM   43  O4  UNL     1      -5.800  -0.349   1.206  1.00  0.00    -0.308 OA
BRANCH  43  44
HETATM   44  C13 UNL     1      -6.910  -0.231   0.422  1.00  0.00     0.252 C 
BRANCH  44  45
HETATM   45  N9  UNL     1      -7.418   1.100   0.262  1.00  0.00    -0.239 N 
HETATM   46  C14 UNL     1      -7.138   2.016  -0.667  1.00  0.00     0.134 A 
HETATM   47  C15 UNL     1      -7.871   3.176  -0.422  1.00  0.00     0.123 A 
HETATM   48  N10 UNL     1      -8.585   2.898   0.680  1.00  0.00    -0.293 N 
HETATM   49  N11 UNL     1      -8.315   1.668   1.084  1.00  0.00    -0.015 NA
ATOM     50  H10 UNL     1      -9.236   3.537   1.136  1.00  0.00     0.183 HD
ENDBRANCH  44  45
ENDBRANCH  43  44
ENDBRANCH  40  43
ENDBRANCH   5  40
BRANCH   7  51
HETATM   51  C17 UNL     1      -3.240  -4.175   0.456  1.00  0.00     0.313 C 
BRANCH  51  52
HETATM   52  O6  UNL     1      -4.244  -4.258   1.496  1.00  0.00    -0.365 OA
ATOM     53  H6  UNL     1      -4.542  -5.160   1.511  1.00  0.00     0.213 HD
ENDBRANCH  51  52
BRANCH  51  54
HETATM   54  O7  UNL     1      -2.305  -5.099   0.914  1.00  0.00    -0.365 OA
ATOM     55  H7  UNL     1      -2.603  -6.001   0.929  1.00  0.00     0.213 HD
ENDBRANCH  51  54
ENDBRANCH   7  51
TORSDOF 17
