REMARK  19 active torsions:
REMARK  status: ('A' for Active; 'I' for Inactive)
REMARK    1  A    between atoms: N1_1  and  N2_4 
REMARK    2  A    between atoms: N2_4  and  N3_5 
REMARK    3  A    between atoms: N3_5  and  N4_7 
REMARK    4  A    between atoms: N4_7  and  C1_9 
REMARK    5  A    between atoms: C2_10  and  O1_11 
REMARK    6  A    between atoms: C6_16  and  C7_17 
REMARK    7  A    between atoms: C7_17  and  O2_18 
REMARK    8  A    between atoms: C7_17  and  O3_20 
REMARK    9  A    between atoms: C9_24  and  C10_25 
REMARK   10  A    between atoms: C10_25  and  O5_26 
REMARK   11  A    between atoms: C16_36  and  C17_37 
REMARK   12  A    between atoms: C17_37  and  O9_38 
REMARK   13  A    between atoms: C17_37  and  C18_40 
REMARK   14  A    between atoms: C18_40  and  O10_41 
REMARK   15  A    between atoms: C18_40  and  C19_43 
REMARK   16  A    between atoms: C19_43  and  O11_44 
REMARK   17  A    between atoms: C19_43  and  C20_46 
REMARK   18  A    between atoms: C20_46  and  O12_47 
REMARK   19  A    between atoms: C21_49  and  O13_50 
ROOT
HETATM    1  C1  UNL     1      -1.940   2.798   0.676  1.00  0.00     0.120 A 
HETATM    2  C2  UNL     1      -0.588   2.358   0.876  1.00  0.00     0.132 A 
HETATM    3  C3  UNL     1      -0.252   1.026   0.797  1.00  0.00     0.121 A 
HETATM    4  C4  UNL     1       1.059   0.464   0.977  1.00  0.00     0.005 C 
HETATM    5  C5  UNL     1       1.248  -0.822   0.502  1.00  0.00     0.029 C 
HETATM    6  C6  UNL     1       2.438  -1.441   0.117  1.00  0.00     0.032 C 
HETATM    7  C8  UNL     1       3.723  -0.941   0.206  1.00  0.00     0.105 A 
HETATM    8  O4  UNL     1       4.561  -1.766  -0.345  1.00  0.00    -0.311 OA
HETATM    9  C9  UNL     1       5.845  -1.484  -0.371  1.00  0.00     0.081 A 
HETATM   10  C11 UNL     1       6.370  -0.329   0.170  1.00  0.00     0.090 A 
HETATM   11  C12 UNL     1       5.496   0.562   0.761  1.00  0.00     0.191 A 
HETATM   12  O6  UNL     1       5.883   1.633   1.276  1.00  0.00    -0.287 OA
HETATM   13  C13 UNL     1       4.151   0.253   0.781  1.00  0.00     0.099 A 
HETATM   14  C14 UNL     1       3.394   1.231   1.404  1.00  0.00     0.189 C 
HETATM   15  O7  UNL     1       4.038   2.233   1.754  1.00  0.00    -0.287 OA
HETATM   16  C15 UNL     1       2.022   1.160   1.648  1.00  0.00     0.070 C 
HETATM   17  O8  UNL     1      -1.257   0.167   0.519  1.00  0.00    -0.306 OA
HETATM   18  C16 UNL     1      -2.479   0.502   0.331  1.00  0.00     0.120 A 
HETATM   19  C21 UNL     1      -2.875   1.850   0.403  1.00  0.00     0.129 A 
ENDROOT
BRANCH   2  20
HETATM   20  O1  UNL     1       0.286   3.338   1.130  1.00  0.00    -0.356 OA
ATOM     21  H1  UNL     1       1.181   3.047   1.262  1.00  0.00     0.218 HD
ENDBRANCH   2  20
BRANCH   1  22
HETATM   22  N4  UNL     1      -2.106   4.047   0.778  1.00  0.00    -0.282 N 
ATOM     23  H4  UNL     1      -1.233   4.531   0.988  1.00  0.00     0.188 HD
BRANCH  22  24
HETATM   24  N3  UNL     1      -3.137   4.895   0.680  1.00  0.00    -0.226 N 
ATOM     25  H3  UNL     1      -3.792   4.959   1.459  1.00  0.00     0.205 HD
BRANCH  24  26
HETATM   26  N2  UNL     1      -3.354   5.697  -0.446  1.00  0.00    -0.014 NA
BRANCH  26  27
HETATM   27  N1  UNL     1      -3.311   7.063  -0.144  1.00  0.00    -0.327 N 
ATOM     28  H12 UNL     1      -3.140   7.418   0.797  1.00  0.00     0.174 HD
ATOM     29  H11 UNL     1      -3.469   7.648  -0.965  1.00  0.00     0.174 HD
ENDBRANCH  26  27
ENDBRANCH  24  26
ENDBRANCH  22  24
ENDBRANCH   1  22
BRANCH  18  30
HETATM   30  C17 UNL     1      -3.575  -0.466   0.026  1.00  0.00     0.209 C 
BRANCH  30  31
HETATM   31  O9  UNL     1      -4.572  -0.414   0.997  1.00  0.00    -0.386 OA
ATOM     32  H9  UNL     1      -5.269  -1.030   0.803  1.00  0.00     0.210 HD
ENDBRANCH  30  31
BRANCH  30  33
HETATM   33  C18 UNL     1      -3.011  -1.859  -0.111  1.00  0.00     0.184 C 
BRANCH  33  34
HETATM   34  O10 UNL     1      -2.030  -1.943  -1.076  1.00  0.00    -0.390 OA
ATOM     35  H10 UNL     1      -1.675  -2.820  -1.162  1.00  0.00     0.210 HD
ENDBRANCH  33  34
BRANCH  33  36
HETATM   36  C19 UNL     1      -4.052  -2.924  -0.208  1.00  0.00     0.173 C 
BRANCH  36  37
HETATM   37  O11 UNL     1      -3.364  -4.154  -0.063  1.00  0.00    -0.391 OA
ATOM     38  H11 UNL     1      -4.027  -4.832  -0.125  1.00  0.00     0.210 HD
ENDBRANCH  36  37
BRANCH  36  39
HETATM   39  C20 UNL     1      -4.761  -3.005  -1.519  1.00  0.00     0.198 C 
BRANCH  39  40
HETATM   40  O12 UNL     1      -5.503  -1.905  -1.865  1.00  0.00    -0.398 OA
ATOM     41  H12 UNL     1      -5.954  -1.957  -2.699  1.00  0.00     0.209 HD
ENDBRANCH  39  40
ENDBRANCH  36  39
ENDBRANCH  33  36
ENDBRANCH  30  33
ENDBRANCH  18  30
BRANCH  19  42
HETATM   42  O13 UNL     1      -4.185   2.185   0.200  1.00  0.00    -0.356 OA
ATOM     43  H13 UNL     1      -4.839   1.522   0.009  1.00  0.00     0.218 HD
ENDBRANCH  19  42
BRANCH   6  44
HETATM   44  C7  UNL     1       2.316  -2.795  -0.459  1.00  0.00     0.291 C 
BRANCH  44  45
HETATM   45  O2  UNL     1       3.097  -2.950  -1.606  1.00  0.00    -0.367 OA
ATOM     46  H2  UNL     1       3.019  -3.821  -1.977  1.00  0.00     0.213 HD
ENDBRANCH  44  45
BRANCH  44  47
HETATM   47  O3  UNL     1       2.670  -3.777   0.466  1.00  0.00    -0.367 OA
ATOM     48  H3  UNL     1       2.592  -4.648   0.095  1.00  0.00     0.213 HD
ENDBRANCH  44  47
ENDBRANCH   6  44
BRANCH   9  49
HETATM   49  C10 UNL     1       6.745  -2.484  -1.023  1.00  0.00     0.229 C 
BRANCH  49  50
HETATM   50  O5  UNL     1       8.065  -2.089  -0.979  1.00  0.00    -0.394 OA
ATOM     51  H5  UNL     1       8.637  -2.724  -1.393  1.00  0.00     0.209 HD
ENDBRANCH  49  50
ENDBRANCH   9  49
TORSDOF 19
