REMARK  16 active torsions:
REMARK  status: ('A' for Active; 'I' for Inactive)
REMARK    1  A    between atoms: C2_2  and  C3_3 
REMARK    2  A    between atoms: C3_3  and  C4_4 
REMARK    3  A    between atoms: C4_4  and  C5_5 
REMARK    4  A    between atoms: C5_5  and  C6_6 
REMARK    5  A    between atoms: C6_6  and  N1_7 
REMARK       I    between atoms: N1_7  and  C7_9 
REMARK    6  A    between atoms: C7_9  and  C8_11 
REMARK    7  A    between atoms: C8_11  and  C9_12 
REMARK    8  A    between atoms: C8_11  and  O2_24 
REMARK    9  A    between atoms: C9_12  and  C10_13 
REMARK   10  A    between atoms: O2_24  and  C17_25 
REMARK       I    between atoms: C17_25  and  N4_27 
REMARK   11  A    between atoms: N5_30  and  C20_31 
REMARK   12  A    between atoms: C20_31  and  C23_34 
REMARK   13  A    between atoms: C23_34  and  C24_36 
REMARK   14  A    between atoms: C24_36  and  O5_37 
REMARK   15  A    between atoms: O5_37  and  C25_38 
REMARK   16  A    between atoms: C25_38  and  C26_40 
ROOT
HETATM    1  C8  UNL     1      -2.493  -0.583   1.550  1.00  0.00     0.227 C 
ENDROOT
BRANCH   1   2
HETATM    2  C7  UNL     1      -3.168   0.716   1.874  1.00  0.00     0.247 C 
HETATM    3  N1  UNL     1      -4.543   0.782   2.225  1.00  0.00    -0.359 N 
ATOM      4  H1  UNL     1      -5.069  -0.092   2.251  1.00  0.00     0.162 HD
HETATM    5  O1  UNL     1      -2.518   1.789   1.840  1.00  0.00    -0.271 OA
BRANCH   3   6
HETATM    6  C6  UNL     1      -5.237   1.982   2.543  1.00  0.00     0.122 C 
BRANCH   6   7
HETATM    7  C5  UNL     1      -5.266   3.012   1.438  1.00  0.00     0.020 C 
BRANCH   7   8
HETATM    8  C4  UNL     1      -5.939   2.485   0.196  1.00  0.00     0.002 C 
BRANCH   8   9
HETATM    9  C3  UNL     1      -5.938   3.561  -0.869  1.00  0.00    -0.000 C 
BRANCH   9  10
HETATM   10  C2  UNL     1      -6.607   3.052  -2.111  1.00  0.00    -0.005 C 
HETATM   11  C1  UNL     1      -6.606   4.129  -3.178  1.00  0.00     0.005 C 
ENDBRANCH   9  10
ENDBRANCH   8   9
ENDBRANCH   7   8
ENDBRANCH   6   7
ENDBRANCH   3   6
ENDBRANCH   1   2
BRANCH   1  12
HETATM   12  C9  UNL     1      -3.098  -1.096   0.263  1.00  0.00     0.067 C 
BRANCH  12  13
HETATM   13  C10 UNL     1      -2.507  -2.407  -0.168  1.00  0.00     0.089 C 
HETATM   14  C11 UNL     1      -2.718  -3.499   0.856  1.00  0.00     0.027 C 
HETATM   15  C12 UNL     1      -4.211  -3.776   0.980  1.00  0.00     0.022 C 
HETATM   16  C13 UNL     1      -4.465  -5.094   0.291  1.00  0.00     0.121 C 
HETATM   17  N2  UNL     1      -4.185  -5.015  -1.113  1.00  0.00    -0.371 N 
HETATM   18  C14 UNL     1      -3.637  -4.108  -1.795  1.00  0.00     0.138 C 
ATOM     19  H2  UNL     1      -4.479  -5.831  -1.650  1.00  0.00     0.161 HD
HETATM   20  S1  UNL     1      -3.399  -4.248  -3.560  1.00  0.00    -0.093 SA
HETATM   21  N3  UNL     1      -3.096  -2.845  -1.431  1.00  0.00    -0.356 N 
HETATM   22  C15 UNL     1      -2.560  -2.618  -3.760  1.00  0.00     0.102 C 
HETATM   23  C16 UNL     1      -3.191  -1.925  -2.542  1.00  0.00     0.136 C 
ENDBRANCH  12  13
ENDBRANCH   1  12
BRANCH   1  24
HETATM   24  O2  UNL     1      -1.132  -0.301   1.257  1.00  0.00    -0.289 OA
BRANCH  24  25
HETATM   25  C17 UNL     1      -0.049  -0.820   1.906  1.00  0.00     0.363 C 
HETATM   26  O3  UNL     1      -0.223  -1.613   2.842  1.00  0.00    -0.238 OA
HETATM   27  N4  UNL     1       1.271  -0.428   1.483  1.00  0.00    -0.322 N 
HETATM   28  C18 UNL     1       2.427  -0.963   2.161  1.00  0.00     0.172 C 
HETATM   29  C29 UNL     1       1.431   0.500   0.388  1.00  0.00     0.148 C 
HETATM   30  C19 UNL     1       3.447  -1.353   1.112  1.00  0.00     0.079 C 
HETATM   31  N5  UNL     1       3.659  -0.239   0.278  1.00  0.00    -0.375 N 
HETATM   32  C28 UNL     1       2.570   0.055  -0.556  1.00  0.00     0.143 C 
BRANCH  31  33
HETATM   33  C20 UNL     1       4.957   0.189  -0.015  1.00  0.00     0.087 C 
HETATM   34  C21 UNL     1       4.972   1.386  -0.954  1.00  0.00     0.046 C 
HETATM   35  C22 UNL     1       5.620   0.634   1.300  1.00  0.00     0.046 C 
BRANCH  33  36
HETATM   36  C23 UNL     1       5.834  -0.848  -0.613  1.00  0.00     0.178 C 
HETATM   37  O4  UNL     1       5.349  -1.901  -0.975  1.00  0.00    -0.293 OA
BRANCH  36  38
HETATM   38  C24 UNL     1       7.283  -0.659  -0.789  1.00  0.00     0.259 C 
BRANCH  38  39
HETATM   39  O5  UNL     1       7.792   0.540  -0.313  1.00  0.00    -0.314 OA
BRANCH  39  40
HETATM   40  C25 UNL     1       9.130   0.842  -0.406  1.00  0.00     0.258 C 
HETATM   41  O6  UNL     1       9.939   0.037  -0.929  1.00  0.00    -0.265 OA
BRANCH  40  42
HETATM   42  C26 UNL     1       9.588   2.146   0.130  1.00  0.00     0.106 C 
HETATM   43  C27 UNL     1      11.083   2.240  -0.078  1.00  0.00     0.015 C 
ENDBRANCH  40  42
ENDBRANCH  39  40
ENDBRANCH  38  39
ENDBRANCH  36  38
ENDBRANCH  33  36
ENDBRANCH  31  33
ENDBRANCH  24  25
ENDBRANCH   1  24
TORSDOF 16
