REMARK  16 active torsions:
REMARK  status: ('A' for Active; 'I' for Inactive)
REMARK    1  A    between atoms: C2_2  and  C3_3 
REMARK    2  A    between atoms: C3_3  and  C4_4 
REMARK    3  A    between atoms: C4_4  and  C5_5 
REMARK    4  A    between atoms: C5_5  and  O1_6 
REMARK    5  A    between atoms: O1_6  and  C6_7 
REMARK       I    between atoms: C6_7  and  N1_9 
REMARK       I    between atoms: N2_12  and  C9_13 
REMARK    6  A    between atoms: C9_13  and  C10_15 
REMARK    7  A    between atoms: C10_15  and  C11_16 
REMARK    8  A    between atoms: C10_15  and  N4_27 
REMARK    9  A    between atoms: C11_16  and  C12_17 
REMARK   10  A    between atoms: C12_17  and  N3_20 
REMARK       I    between atoms: N3_20  and  C15_22 
REMARK   11  A    between atoms: C15_22  and  C16_24 
REMARK       I    between atoms: N4_27  and  C19_29 
REMARK   12  A    between atoms: C19_29  and  C20_31 
REMARK   13  A    between atoms: C20_31  and  O6_32 
REMARK   14  A    between atoms: O6_32  and  C21_33 
REMARK   15  A    between atoms: C21_33  and  C22_35 
REMARK   16  A    between atoms: C23_36  and  C24_37 
ROOT
HETATM    1  C10 UNL     1       0.879  -0.176  -0.754  1.00  0.00     0.179 C 
ENDROOT
BRANCH   1   2
HETATM    2  C9  UNL     1       0.019   0.648   0.171  1.00  0.00     0.242 C 
HETATM    3  N2  UNL     1      -1.295   0.274   0.522  1.00  0.00    -0.347 N 
HETATM    4  C8  UNL     1      -1.989   1.179   1.457  1.00  0.00     0.146 C 
HETATM    5  C27 UNL     1      -2.022  -0.862   0.047  1.00  0.00     0.146 C 
HETATM    6  C7  UNL     1      -2.934   0.340   2.279  1.00  0.00     0.148 C 
HETATM    7  N1  UNL     1      -3.945  -0.170   1.343  1.00  0.00    -0.325 N 
HETATM    8  C6  UNL     1      -5.262  -0.322   1.812  1.00  0.00     0.362 C 
HETATM    9  C28 UNL     1      -3.523  -0.498  -0.031  1.00  0.00     0.148 C 
HETATM   10  O2  UNL     1      -5.618  -0.049   2.976  1.00  0.00    -0.238 OA
HETATM   11  O3  UNL     1       0.532   1.706   0.622  1.00  0.00    -0.271 OA
BRANCH   8  12
HETATM   12  O1  UNL     1      -6.205  -0.804   0.920  1.00  0.00    -0.304 OA
BRANCH  12  13
HETATM   13  C5  UNL     1      -7.548  -1.017   1.209  1.00  0.00     0.180 C 
BRANCH  13  14
HETATM   14  C4  UNL     1      -8.300   0.204   1.577  1.00  0.00     0.027 C 
BRANCH  14  15
HETATM   15  C3  UNL     1      -8.405   1.273   0.553  1.00  0.00     0.002 C 
BRANCH  15  16
HETATM   16  C2  UNL     1      -7.137   1.863   0.046  1.00  0.00    -0.004 C 
HETATM   17  C1  UNL     1      -7.568   2.947  -0.968  1.00  0.00     0.005 C 
ENDBRANCH  15  16
ENDBRANCH  14  15
ENDBRANCH  13  14
ENDBRANCH  12  13
ENDBRANCH   8  12
ENDBRANCH   1   2
BRANCH   1  18
HETATM   18  C11 UNL     1       1.247  -1.408   0.020  1.00  0.00     0.065 C 
BRANCH  18  19
HETATM   19  C12 UNL     1       2.079  -2.423  -0.675  1.00  0.00     0.028 C 
HETATM   20  C13 UNL     1       3.428  -1.953  -1.127  1.00  0.00     0.038 C 
HETATM   21  C14 UNL     1       1.355  -2.966  -1.919  1.00  0.00     0.038 C 
BRANCH  19  22
HETATM   22  N3  UNL     1       2.277  -3.550   0.246  1.00  0.00    -0.352 N 
HETATM   23  C15 UNL     1       1.261  -4.377   0.737  1.00  0.00     0.222 C 
HETATM   24  O4  UNL     1       0.059  -4.246   0.435  1.00  0.00    -0.273 OA
ATOM     25  H3  UNL     1       3.230  -3.745   0.552  1.00  0.00     0.163 HD
BRANCH  23  26
HETATM   26  C16 UNL     1       1.617  -5.479   1.672  1.00  0.00     0.078 A 
HETATM   27  C17 UNL     1       2.932  -6.138   1.465  1.00  0.00     0.015 A 
HETATM   28  C18 UNL     1       2.740  -5.252   2.649  1.00  0.00     0.015 A 
ENDBRANCH  23  26
ENDBRANCH  19  22
ENDBRANCH  18  19
ENDBRANCH   1  18
BRANCH   1  29
HETATM   29  N4  UNL     1       2.047   0.646  -1.026  1.00  0.00    -0.346 N 
HETATM   30  C19 UNL     1       2.297   1.127  -2.325  1.00  0.00     0.242 C 
HETATM   31  O5  UNL     1       1.495   0.834  -3.250  1.00  0.00    -0.271 OA
ATOM     32  H4  UNL     1       2.691   0.876  -0.269  1.00  0.00     0.163 HD
BRANCH  30  33
HETATM   33  C20 UNL     1       3.497   1.975  -2.619  1.00  0.00     0.281 C 
BRANCH  33  34
HETATM   34  O6  UNL     1       4.194   2.148  -1.420  1.00  0.00    -0.309 OA
BRANCH  34  35
HETATM   35  C21 UNL     1       5.395   2.923  -1.409  1.00  0.00     0.283 C 
HETATM   36  O7  UNL     1       5.681   3.371  -2.534  1.00  0.00    -0.260 OA
BRANCH  35  37
HETATM   37  C22 UNL     1       6.122   3.108  -0.179  1.00  0.00     0.083 C 
HETATM   38  C23 UNL     1       7.199   3.746   0.072  1.00  0.00     0.026 C 
BRANCH  38  39
HETATM   39  C24 UNL     1       8.069   4.506  -0.781  1.00  0.00     0.021 A 
HETATM   40  C25 UNL     1       9.246   5.173  -0.371  1.00  0.00     0.106 A 
HETATM   41  N5  UNL     1       9.900   5.803  -1.272  1.00  0.00    -0.368 N 
HETATM   42  C26 UNL     1       9.503   5.833  -2.524  1.00  0.00     0.138 A 
ATOM     43  H5  UNL     1      10.754   6.296  -1.011  1.00  0.00     0.165 HD
HETATM   44  S1  UNL     1       8.091   4.902  -2.450  1.00  0.00    -0.084 SA
ENDBRANCH  38  39
ENDBRANCH  35  37
ENDBRANCH  34  35
ENDBRANCH  33  34
ENDBRANCH  30  33
ENDBRANCH   1  29
TORSDOF 16
