REMARK  13 active torsions:
REMARK  status: ('A' for Active; 'I' for Inactive)
REMARK    1  A    between atoms: C2_3  and  C3_4 
REMARK    2  A    between atoms: C3_4  and  N2_5 
REMARK    3  A    between atoms: N3_8  and  C6_9 
REMARK    4  A    between atoms: C6_9  and  C7_10 
REMARK    5  A    between atoms: C7_10  and  N4_11 
REMARK       I    between atoms: N4_11  and  C8_12 
REMARK       I    between atoms: C8_12  and  N5_14 
REMARK    6  A    between atoms: N5_14  and  C9_16 
REMARK    7  A    between atoms: C9_16  and  C10_17 
REMARK    8  A    between atoms: C10_17  and  C11_18 
REMARK    9  A    between atoms: C11_18  and  O2_19 
REMARK   10  A    between atoms: O2_19  and  C12_20 
REMARK   11  A    between atoms: C12_20  and  C13_21 
REMARK   12  A    between atoms: C13_21  and  C14_22 
REMARK   13  A    between atoms: C14_22  and  N6_23 
ROOT
HETATM    1  C1  UNL     1      11.539   0.058  -0.448  1.00  0.00     0.158 C 
HETATM    2  N1  UNL     1      10.207  -0.225  -0.919  1.00  0.00    -0.329 N 
HETATM    3  C2  UNL     1       9.126  -0.637  -0.238  1.00  0.00     0.057 A 
HETATM    4  C29 UNL     1       8.097  -0.780  -1.144  1.00  0.00     0.117 A 
HETATM    5  N7  UNL     1       8.554  -0.448  -2.389  1.00  0.00    -0.342 N 
ATOM      6  H7  UNL     1       8.027  -0.455  -3.262  1.00  0.00     0.167 HD
HETATM    7  C30 UNL     1       9.837  -0.113  -2.222  1.00  0.00     0.190 A 
HETATM    8  C31 UNL     1      10.657   0.302  -3.319  1.00  0.00     0.137 C 
HETATM    9  N8  UNL     1      11.306   0.627  -4.237  1.00  0.00    -0.188 NA
ENDROOT
BRANCH   3  10
HETATM   10  C3  UNL     1       9.079  -0.884   1.206  1.00  0.00     0.331 C 
BRANCH  10  11
HETATM   11  N2  UNL     1       7.756  -0.807   1.750  1.00  0.00     0.097 N 
HETATM   12  C4  UNL     1       7.140   0.485   1.556  1.00  0.00     0.292 C 
HETATM   13  C5  UNL     1       5.616   0.197   1.601  1.00  0.00     0.147 C 
HETATM   14  N3  UNL     1       5.340  -0.583   2.748  1.00  0.00    -0.404 N 
HETATM   15  C27 UNL     1       6.411  -0.612   3.722  1.00  0.00     0.147 C 
HETATM   16  C28 UNL     1       7.678  -1.208   3.135  1.00  0.00     0.292 C 
BRANCH  14  17
HETATM   17  C6  UNL     1       4.690  -1.828   2.603  1.00  0.00     0.176 C 
BRANCH  17  18
HETATM   18  C7  UNL     1       3.276  -1.839   2.210  1.00  0.00     0.180 C 
BRANCH  18  19
HETATM   19  N4  UNL     1       2.852  -1.342   0.993  1.00  0.00    -0.367 NA
HETATM   20  C8  UNL     1       2.431  -0.847  -0.220  1.00  0.00     0.393 C 
HETATM   21  O1  UNL     1       2.646  -1.274  -1.381  1.00  0.00    -0.230 OA
HETATM   22  N5  UNL     1       1.604   0.351  -0.064  1.00  0.00    -0.331 N 
ATOM     23  H5  UNL     1       1.541   0.818   0.841  1.00  0.00     0.165 HD
BRANCH  22  24
HETATM   24  C9  UNL     1       0.877   0.868  -1.203  1.00  0.00     0.127 C 
BRANCH  24  25
HETATM   25  C10 UNL     1      -0.095  -0.306  -1.550  1.00  0.00     0.046 C 
BRANCH  25  26
HETATM   26  C11 UNL     1      -1.192   0.260  -2.356  1.00  0.00     0.176 C 
BRANCH  26  27
HETATM   27  O2  UNL     1      -2.210  -0.526  -2.760  1.00  0.00    -0.363 OA
BRANCH  27  28
HETATM   28  C12 UNL     1      -2.787  -1.413  -1.926  1.00  0.00     0.136 C 
BRANCH  28  29
HETATM   29  C13 UNL     1      -3.047  -1.117  -0.519  1.00  0.00     0.041 C 
BRANCH  29  30
HETATM   30  C14 UNL     1      -3.805   0.063  -0.100  1.00  0.00     0.090 C 
BRANCH  30  31
HETATM   31  N6  UNL     1      -5.128   0.150  -0.537  1.00  0.00    -0.362 N 
HETATM   32  C15 UNL     1      -6.210   0.120   0.137  1.00  0.00     0.092 C 
HETATM   33  C16 UNL     1      -6.295  -0.038   1.603  1.00  0.00     0.177 C 
HETATM   34  C20 UNL     1      -7.503   0.359  -0.519  1.00  0.00     0.043 C 
HETATM   35  O3  UNL     1      -5.528   0.369   2.417  1.00  0.00    -0.291 OA
HETATM   36  C17 UNL     1      -7.584  -0.839   1.947  1.00  0.00     0.089 C 
HETATM   37  C18 UNL     1      -8.633   0.276   1.694  1.00  0.00     0.043 C 
HETATM   38  C19 UNL     1      -8.626   0.432   0.193  1.00  0.00    -0.063 C 
HETATM   39  C26 UNL     1      -9.880   0.662  -0.555  1.00  0.00     0.044 C 
HETATM   40  C23 UNL     1      -9.688   1.722  -1.608  1.00  0.00    -0.037 C 
HETATM   41  C22 UNL     1      -8.621   1.361  -2.626  1.00  0.00     0.093 C 
HETATM   42  C24 UNL     1     -11.017   1.945  -2.289  1.00  0.00     0.015 C 
HETATM   43  C25 UNL     1      -9.300   2.993  -0.834  1.00  0.00     0.015 C 
HETATM   44  C21 UNL     1      -7.576   0.544  -1.962  1.00  0.00     0.162 C 
HETATM   45  O4  UNL     1      -6.683  -0.048  -2.662  1.00  0.00    -0.292 OA
ATOM     46  H6  UNL     1      -5.247   0.253  -1.545  1.00  0.00     0.165 HD
ENDBRANCH  30  31
ENDBRANCH  29  30
ENDBRANCH  28  29
ENDBRANCH  27  28
ENDBRANCH  26  27
ENDBRANCH  25  26
ENDBRANCH  24  25
ENDBRANCH  22  24
ENDBRANCH  18  19
ENDBRANCH  17  18
ENDBRANCH  14  17
ENDBRANCH  10  11
ENDBRANCH   3  10
TORSDOF 13
