REMARK  3 active torsions:
REMARK  status: ('A' for Active; 'I' for Inactive)
REMARK    1  A    between atoms: C3_4  and  O1_5 
REMARK    2  A    between atoms: C4_7  and  O2_8 
REMARK    3  A    between atoms: C4_7  and  O3_10 
ROOT
HETATM    1  C1  UNL     1      -1.380   2.388   0.099  1.00  0.00     0.310 C 
HETATM    2  N1  UNL     1      -0.633   1.187  -0.313  1.00  0.00     0.094 N 
HETATM    3  C2  UNL     1       0.725   1.529  -0.420  1.00  0.00     0.309 C 
HETATM    4  C3  UNL     1       1.689   0.584   0.237  1.00  0.00     0.209 C 
HETATM    5  C4  UNL     1       1.181  -0.820  -0.121  1.00  0.00     0.195 C 
HETATM    6  C5  UNL     1      -0.061  -0.967   0.746  1.00  0.00     0.110 C 
HETATM    7  C6  UNL     1      -0.797  -2.245   0.457  1.00  0.00     0.180 C 
HETATM    8  O4  UNL     1      -2.091  -1.928   0.163  1.00  0.00    -0.388 OA
HETATM    9  C7  UNL     1      -2.187  -0.612  -0.181  1.00  0.00     0.204 C 
HETATM   10  C8  UNL     1      -1.021   0.118   0.499  1.00  0.00     0.257 C 
ENDROOT
BRANCH   5  11
HETATM   11  O2  UNL     1       2.116  -1.789   0.096  1.00  0.00    -0.363 OA
ATOM     12  H2  UNL     1       1.802  -2.658  -0.126  1.00  0.00     0.213 HD
ENDBRANCH   5  11
BRANCH   5  13
HETATM   13  O3  UNL     1       0.723  -0.766  -1.445  1.00  0.00    -0.363 OA
ATOM     14  H3  UNL     1       0.409  -1.635  -1.667  1.00  0.00     0.213 HD
ENDBRANCH   5  13
BRANCH   4  15
HETATM   15  O1  UNL     1       2.984   0.785  -0.168  1.00  0.00    -0.388 OA
ATOM     16  H1  UNL     1       3.594   0.187   0.248  1.00  0.00     0.210 HD
ENDBRANCH   4  15
TORSDOF 3
