REMARK  4 active torsions:
REMARK  status: ('A' for Active; 'I' for Inactive)
REMARK    1  A    between atoms: C1_2  and  C2_4 
REMARK    2  A    between atoms: S1_9  and  N1_10 
REMARK    3  A    between atoms: N1_10  and  C5_12 
REMARK    4  A    between atoms: C7_14  and  N2_15 
ROOT
HETATM    1  N1  UNL     1       0.192   0.259  -1.082  1.00  0.00    -0.329 N 
ATOM      2  H1  UNL     1       0.174   0.649  -2.024  1.00  0.00     0.174 HD
ENDROOT
BRANCH   1   3
HETATM    3  S1  UNL     1      -1.190   0.093  -0.264  1.00  0.00    -0.010 SA
HETATM    4  C2  UNL     1      -2.926   0.517  -0.776  1.00  0.00     0.192 C 
HETATM    5  C3  UNL     1      -3.568  -0.736  -0.158  1.00  0.00     0.207 C 
HETATM    6  O3  UNL     1      -2.974  -0.980   1.074  1.00  0.00    -0.310 OA
HETATM    7  C4  UNL     1      -1.598  -1.119   1.021  1.00  0.00     0.332 C 
HETATM    8  O4  UNL     1      -0.785  -1.844   1.643  1.00  0.00    -0.251 OA
BRANCH   4   9
HETATM    9  C1  UNL     1      -3.354   1.739  -0.089  1.00  0.00     0.190 C 
HETATM   10  O1  UNL     1      -2.472   2.468   0.455  1.00  0.00    -0.647 OA
HETATM   11  O2  UNL     1      -4.657   2.170   0.017  1.00  0.00    -0.647 OA
ENDBRANCH   4   9
ENDBRANCH   1   3
BRANCH   1  12
HETATM   12  C5  UNL     1       1.416  -0.124  -0.517  1.00  0.00     0.062 A 
HETATM   13  C6  UNL     1       2.157   0.750   0.243  1.00  0.00     0.067 A 
HETATM   14  C7  UNL     1       3.351   0.304   0.767  1.00  0.00     0.105 A 
HETATM   15  C8  UNL     1       3.814  -0.980   0.550  1.00  0.00     0.038 A 
HETATM   16  C9  UNL     1       3.044  -1.843  -0.222  1.00  0.00     0.029 A 
HETATM   17  C10 UNL     1       1.846  -1.427  -0.759  1.00  0.00     0.061 A 
HETATM   18 CL1  UNL     1       0.878  -2.531  -1.737  1.00  0.00    -0.082 Cl
BRANCH  14  19
HETATM   19  N2  UNL     1       4.140   1.202   1.563  1.00  0.00    -0.116 N 
HETATM   20  O5  UNL     1       5.224   0.823   2.049  1.00  0.00    -0.532 OA
HETATM   21  O6  UNL     1       3.750   2.480   1.820  1.00  0.00    -0.532 OA
ENDBRANCH  14  19
ENDBRANCH   1  12
TORSDOF 4
