REMARK  5 active torsions:
REMARK  status: ('A' for Active; 'I' for Inactive)
REMARK    1  A    between atoms: C2_3  and  N3_6 
REMARK    2  A    between atoms: N3_6  and  N4_8 
REMARK    3  A    between atoms: N4_8  and  C4_10 
REMARK    4  A    between atoms: C6_13  and  N5_14 
REMARK    5  A    between atoms: N7_19  and  C7_20 
ROOT
HETATM    1  N1  UNL     1       3.289  -1.066   2.835  1.00  0.00    -0.189 NA
HETATM    2  C1  UNL     1       3.666  -1.241   1.754  1.00  0.00     0.130 C 
HETATM    3  C2  UNL     1       4.114  -1.456   0.408  1.00  0.00     0.209 C 
HETATM    4  C3  UNL     1       5.460  -1.836   0.084  1.00  0.00     0.130 C 
HETATM    5  N2  UNL     1       6.545  -2.161  -0.189  1.00  0.00    -0.189 NA
ENDROOT
BRANCH   3   6
HETATM    6  N3  UNL     1       3.246  -1.294  -0.552  1.00  0.00    -0.280 N 
ATOM      7  H3  UNL     1       3.542  -1.441  -1.517  1.00  0.00     0.188 HD
BRANCH   6   8
HETATM    8  N4  UNL     1       1.935  -0.928  -0.301  1.00  0.00    -0.281 N 
ATOM      9  H4  UNL     1       1.310  -1.626   0.102  1.00  0.00     0.188 HD
BRANCH   8  10
HETATM   10  C4  UNL     1       1.462   0.236  -0.545  1.00  0.00     0.163 A 
HETATM   11  C5  UNL     1       2.080   1.346  -1.079  1.00  0.00     0.132 A 
HETATM   12 CL1  UNL     1       3.753   1.440  -1.580  1.00  0.00    -0.076 Cl
HETATM   13  C6  UNL     1       1.151   2.357  -1.144  1.00  0.00     0.214 A 
HETATM   14  N6  UNL     1       0.002   1.845  -0.655  1.00  0.00    -0.275 N 
HETATM   15  N7  UNL     1       0.175   0.581  -0.295  1.00  0.00    -0.267 N 
ATOM     16  H6  UNL     1      -0.876   2.358  -0.574  1.00  0.00     0.189 HD
BRANCH  13  17
HETATM   17  N5  UNL     1       1.405   3.659  -1.637  1.00  0.00    -0.095 N 
HETATM   18  O1  UNL     1       2.535   3.945  -2.048  1.00  0.00    -0.530 OA
HETATM   19  O2  UNL     1       0.386   4.611  -1.659  1.00  0.00    -0.530 OA
ENDBRANCH  13  17
BRANCH  15  20
HETATM   20  C7  UNL     1      -0.850  -0.286   0.275  1.00  0.00     0.110 C 
HETATM   21  C8  UNL     1      -1.751   0.408   1.226  1.00  0.00     0.027 C 
HETATM   22  C9  UNL     1      -3.171  -0.017   1.226  1.00  0.00     0.002 C 
HETATM   23  C10 UNL     1      -3.478  -1.366   0.700  1.00  0.00     0.000 C 
HETATM   24  C11 UNL     1      -2.511  -1.921  -0.286  1.00  0.00     0.002 C 
HETATM   25  C12 UNL     1      -1.665  -0.825  -0.899  1.00  0.00     0.027 C 
ENDBRANCH  15  20
ENDBRANCH   8  10
ENDBRANCH   6   8
ENDBRANCH   3   6
TORSDOF 5
