REMARK  6 active torsions:
REMARK  status: ('A' for Active; 'I' for Inactive)
REMARK    1  A    between atoms: C4_4  and  C5_5 
REMARK    2  A    between atoms: C9_10  and  S1_11 
REMARK    3  A    between atoms: S1_11  and  N1_14 
REMARK    4  A    between atoms: N1_14  and  C10_16 
REMARK    5  A    between atoms: C15_24  and  O5_25 
REMARK    6  A    between atoms: O5_25  and  C16_26 
ROOT
HETATM    1  C1  UNL     1      -6.199  -0.058   2.041  1.00  0.00     0.043 C 
HETATM    2  C2  UNL     1      -5.046  -0.258   1.437  1.00  0.00     0.024 A 
HETATM    3  C3  UNL     1      -4.820  -1.377   0.550  1.00  0.00     0.044 A 
HETATM    4  C4  UNL     1      -3.658  -1.616  -0.085  1.00  0.00     0.024 A 
HETATM    5  C7  UNL     1      -2.577  -0.687   0.142  1.00  0.00     0.006 A 
HETATM    6  C8  UNL     1      -1.340  -0.854  -0.473  1.00  0.00     0.042 A 
HETATM    7  C9  UNL     1      -0.315   0.031  -0.255  1.00  0.00     0.114 A 
HETATM    8  C15 UNL     1      -0.515   1.097   0.583  1.00  0.00     0.094 A 
HETATM    9  C18 UNL     1      -1.706   1.321   1.220  1.00  0.00     0.068 A 
HETATM   10  C19 UNL     1      -2.739   0.421   0.995  1.00  0.00     0.046 A 
HETATM   11  N3  UNL     1      -3.980   0.643   1.650  1.00  0.00    -0.356 N 
ATOM     12  H3  UNL     1      -4.100   1.445   2.268  1.00  0.00     0.166 HD
ENDROOT
BRANCH   7  13
HETATM   13  S1  UNL     1       1.241  -0.230  -1.057  1.00  0.00     0.267 S 
HETATM   14  O2  UNL     1       1.091  -1.475  -1.901  1.00  0.00    -0.200 OA
HETATM   15  O3  UNL     1       1.420   0.908  -2.031  1.00  0.00    -0.200 OA
BRANCH  13  16
HETATM   16  N1  UNL     1       2.471  -0.448   0.039  1.00  0.00    -0.258 N 
ATOM     17  H1  UNL     1       2.112  -0.599   0.982  1.00  0.00     0.181 HD
BRANCH  16  18
HETATM   18  C10 UNL     1       3.720  -0.475   0.011  1.00  0.00     0.187 A 
HETATM   19  O4  UNL     1       4.440  -0.681   1.110  1.00  0.00    -0.218 OA
HETATM   20  N2  UNL     1       5.685  -0.668   0.850  1.00  0.00    -0.263 N 
HETATM   21  C11 UNL     1       5.921  -0.452  -0.453  1.00  0.00     0.039 A 
ATOM     22  H2  UNL     1       6.416  -0.805   1.548  1.00  0.00     0.194 HD
HETATM   23  C12 UNL     1       7.197  -0.357  -1.208  1.00  0.00     0.071 C 
HETATM   24  C13 UNL     1       4.628  -0.327  -0.999  1.00  0.00     0.016 A 
HETATM   25  C14 UNL     1       4.387  -0.078  -2.426  1.00  0.00     0.055 C 
ENDBRANCH  16  18
ENDBRANCH  13  16
ENDBRANCH   7  13
BRANCH   8  26
HETATM   26  O5  UNL     1       0.535   1.961   0.776  1.00  0.00    -0.350 OA
BRANCH  26  27
HETATM   27  C16 UNL     1       0.571   3.098   1.559  1.00  0.00     0.171 C 
HETATM   28  C17 UNL     1      -0.422   4.138   1.112  1.00  0.00     0.034 C 
ENDBRANCH  26  27
ENDBRANCH   8  26
BRANCH   4  29
HETATM   29  C5  UNL     1      -3.556  -2.770  -0.947  1.00  0.00     0.156 C 
HETATM   30  C6  UNL     1      -4.757  -3.679  -1.115  1.00  0.00     0.097 C 
HETATM   31  O1  UNL     1      -2.546  -3.081  -1.573  1.00  0.00    -0.293 OA
ENDBRANCH   4  29
TORSDOF 6
