REMARK  6 active torsions:
REMARK  status: ('A' for Active; 'I' for Inactive)
REMARK    1  A    between atoms: C2_2  and  C3_3 
REMARK       I    between atoms: C3_3  and  N1_5 
REMARK    2  A    between atoms: N1_5  and  C5_7 
REMARK    3  A    between atoms: C5_7  and  C6_8 
REMARK    4  A    between atoms: C9_14  and  N4_15 
REMARK    5  A    between atoms: N4_15  and  C10_17 
REMARK    6  A    between atoms: C15_22  and  O2_23 
ROOT
HETATM    1  C6  UNL     1       2.890  -1.033  -0.500  1.00  0.00     0.057 C 
HETATM    2  C7  UNL     1       4.110  -1.454  -1.346  1.00  0.00     0.041 C 
HETATM    3  C8  UNL     1       2.359   0.196  -1.127  1.00  0.00     0.183 C 
HETATM    4  N2  UNL     1       0.965   0.474  -0.815  1.00  0.00    -0.261 N 
HETATM    5  N3  UNL     1       0.272   1.539  -0.552  1.00  0.00    -0.128 N 
ATOM      6  H3  UNL     1       0.637   2.490  -0.511  1.00  0.00     0.206 HD
HETATM    7  C9  UNL     1      -1.017   1.179  -0.341  1.00  0.00     0.699 A 
HETATM    8  N5  UNL     1      -1.095  -0.154  -0.485  1.00  0.00    -0.175 N 
ATOM      9  H5  UNL     1      -1.931  -0.730  -0.389  1.00  0.00     0.185 HD
HETATM   10  C18 UNL     1       0.132  -0.575  -0.777  1.00  0.00     0.142 A 
HETATM   11  C19 UNL     1       0.684  -1.905  -1.050  1.00  0.00     0.080 C 
HETATM   12  C20 UNL     1       0.576  -2.229  -2.543  1.00  0.00     0.046 C 
HETATM   13  C21 UNL     1      -0.244  -2.923  -0.366  1.00  0.00     0.046 C 
HETATM   14  N6  UNL     1       1.988  -2.163  -0.567  1.00  0.00    -0.395 N 
ATOM     15  H6  UNL     1       2.278  -3.098  -0.280  1.00  0.00     0.155 HD
ENDROOT
BRANCH   7  16
HETATM   16  N4  UNL     1      -1.974   1.974  -0.058  1.00  0.00    -0.190 N 
ATOM     17  H4  UNL     1      -1.803   2.976   0.028  1.00  0.00     0.184 HD
BRANCH  16  18
HETATM   18  C10 UNL     1      -3.277   1.451   0.136  1.00  0.00     0.052 A 
HETATM   19  C11 UNL     1      -3.531   0.417   1.013  1.00  0.00     0.037 A 
HETATM   20  C12 UNL     1      -4.798  -0.088   1.201  1.00  0.00    -0.057 A 
HETATM   21  C13 UNL     1      -5.100  -1.201   2.138  1.00  0.00     0.048 C 
HETATM   22  C14 UNL     1      -5.825   0.472   0.479  1.00  0.00     0.043 A 
HETATM   23  C15 UNL     1      -5.613   1.506  -0.406  1.00  0.00     0.070 A 
HETATM   24  C17 UNL     1      -4.335   1.994  -0.575  1.00  0.00     0.066 A 
BRANCH  23  25
HETATM   25  O2  UNL     1      -6.638   2.079  -1.139  1.00  0.00    -0.356 OA
HETATM   26  C16 UNL     1      -7.979   1.684  -1.066  1.00  0.00     0.210 C 
ENDBRANCH  23  25
ENDBRANCH  16  18
ENDBRANCH   7  16
BRANCH   1  27
HETATM   27  C5  UNL     1       3.272  -0.836   0.926  1.00  0.00     0.157 C 
BRANCH  27  28
HETATM   28  N1  UNL     1       4.263   0.158   1.211  1.00  0.00    -0.351 N 
HETATM   29  C3  UNL     1       4.015   1.490   1.573  1.00  0.00     0.242 C 
HETATM   30  O1  UNL     1       2.872   1.978   1.764  1.00  0.00    -0.268 OA
HETATM   31  C4  UNL     1       5.652  -0.259   1.079  1.00  0.00     0.153 C 
BRANCH  29  32
HETATM   32  C2  UNL     1       5.136   2.402   1.750  1.00  0.00     0.064 C 
HETATM   33  C1  UNL     1       4.955   3.661   2.089  1.00  0.00     0.017 C 
ENDBRANCH  29  32
ENDBRANCH  27  28
ENDBRANCH   1  27
TORSDOF 6
