REMARK  12 active torsions:
REMARK  status: ('A' for Active; 'I' for Inactive)
REMARK    1  A    between atoms: O1_2  and  C2_3 
REMARK    2  A    between atoms: C2_3  and  C3_5 
REMARK    3  A    between atoms: C4_6  and  C5_7 
REMARK    4  A    between atoms: C6_12  and  C7_13 
REMARK    5  A    between atoms: C7_13  and  C9_15 
REMARK    6  A    between atoms: C9_15  and  N3_20 
REMARK    7  A    between atoms: N2_16  and  O5_18 
REMARK    8  A    between atoms: N3_20  and  C11_22 
REMARK    9  A    between atoms: C11_22  and  C13_24 
REMARK   10  A    between atoms: C13_24  and  O6_25 
REMARK   11  A    between atoms: C13_24  and  C14_27 
REMARK   12  A    between atoms: C14_27  and  O7_30 
ROOT
HETATM    1  C9  UNL     1       0.008   0.213  -0.809  1.00  0.00     0.107 C 
HETATM    2  N2  UNL     1      -0.386   1.401  -0.449  1.00  0.00    -0.257 N 
ATOM      3  H2  UNL     1      -1.383   1.609  -0.394  1.00  0.00     0.195 HD
ENDROOT
BRANCH   1   4
HETATM    4  C7  UNL     1      -0.938  -0.853  -1.143  1.00  0.00     0.093 C 
HETATM    5  C8  UNL     1      -0.743  -1.250  -2.586  1.00  0.00     0.022 C 
BRANCH   4   6
HETATM    6  C6  UNL     1      -2.373  -0.415  -0.997  1.00  0.00     0.193 C 
HETATM    7  N1  UNL     1      -3.237  -1.519  -1.336  1.00  0.00    -0.361 N 
HETATM    8  C4  UNL     1      -4.501  -1.181  -0.678  1.00  0.00     0.140 C 
ATOM      9  H1  UNL     1      -3.019  -2.340  -1.900  1.00  0.00     0.162 HD
HETATM   10  C3  UNL     1      -4.256  -0.359   0.317  1.00  0.00     0.139 C 
HETATM   11  N4  UNL     1      -2.802  -0.147   0.333  1.00  0.00    -0.361 N 
ATOM     12  H4  UNL     1      -2.225   0.132   1.126  1.00  0.00     0.162 HD
BRANCH   8  13
HETATM   13  C5  UNL     1      -5.772  -1.724  -1.135  1.00  0.00     0.229 C 
HETATM   14  O3  UNL     1      -6.880  -1.485  -0.637  1.00  0.00    -0.643 OA
HETATM   15  O4  UNL     1      -5.798  -2.606  -2.244  1.00  0.00    -0.643 OA
ENDBRANCH   8  13
BRANCH  10  16
HETATM   16  C2  UNL     1      -5.156   0.270   1.271  1.00  0.00     0.311 C 
HETATM   17  O2  UNL     1      -6.366   0.101   1.273  1.00  0.00    -0.258 OA
BRANCH  16  18
HETATM   18  O1  UNL     1      -4.670   1.125   2.267  1.00  0.00    -0.321 OA
HETATM   19  C1  UNL     1      -5.520   1.748   3.205  1.00  0.00     0.213 C 
ENDBRANCH  16  18
ENDBRANCH  10  16
ENDBRANCH   4   6
ENDBRANCH   1   4
BRANCH   1  20
HETATM   20  N3  UNL     1       1.433   0.040  -0.849  1.00  0.00    -0.366 N 
HETATM   21  C10 UNL     1       2.075   0.501  -2.048  1.00  0.00     0.151 C 
BRANCH  20  22
HETATM   22  C11 UNL     1       2.049  -0.545   0.276  1.00  0.00     0.112 C 
HETATM   23  C12 UNL     1       1.651  -2.026   0.356  1.00  0.00     0.035 C 
BRANCH  22  24
HETATM   24  C13 UNL     1       3.514  -0.468   0.461  1.00  0.00     0.174 C 
BRANCH  24  25
HETATM   25  O6  UNL     1       4.303  -1.015  -0.535  1.00  0.00    -0.391 OA
ATOM     26  H6  UNL     1       5.244  -0.966  -0.416  1.00  0.00     0.210 HD
ENDBRANCH  24  25
BRANCH  24  27
HETATM   27  C14 UNL     1       4.033   0.841   1.011  1.00  0.00     0.078 C 
HETATM   28  C15 UNL     1       5.327   0.564   1.828  1.00  0.00     0.048 C 
HETATM   29  C16 UNL     1       4.418   1.856  -0.003  1.00  0.00     0.048 C 
BRANCH  27  30
HETATM   30  O7  UNL     1       3.164   1.359   1.980  1.00  0.00    -0.388 OA
ATOM     31  H7  UNL     1       3.490   2.182   2.326  1.00  0.00     0.210 HD
ENDBRANCH  27  30
ENDBRANCH  24  27
ENDBRANCH  22  24
ENDBRANCH  20  22
ENDBRANCH   1  20
BRANCH   2  32
HETATM   32  O5  UNL     1       0.513   2.355  -0.149  1.00  0.00    -0.288 OA
ATOM     33  H5  UNL     1       0.226   3.222   0.114  1.00  0.00     0.244 HD
ENDBRANCH   2  32
TORSDOF 12
