REMARK  8 active torsions:
REMARK  status: ('A' for Active; 'I' for Inactive)
REMARK    1  A    between atoms: N1_1  and  C1_4 
REMARK    2  A    between atoms: C3_9  and  C4_10 
REMARK       I    between atoms: C4_10  and  N3_12 
REMARK    3  A    between atoms: N3_12  and  C5_14 
REMARK    4  A    between atoms: C8_17  and  N4_18 
REMARK       I    between atoms: N4_18  and  C9_20 
REMARK       I    between atoms: C9_20  and  N5_22 
REMARK    5  A    between atoms: N5_22  and  C10_24 
REMARK    6  A    between atoms: C13_27  and  N6_28 
REMARK       I    between atoms: N6_28  and  C14_30 
REMARK    7  A    between atoms: C14_30  and  C15_32 
REMARK    8  A    between atoms: C18_35  and  N7_36 
ROOT
HETATM    1  N4  UNL     1      -3.427  -0.776  -1.933  1.00  0.00    -0.309 N 
ATOM      2  H4  UNL     1      -3.534  -1.190  -2.859  1.00  0.00     0.170 HD
HETATM    3  C9  UNL     1      -2.124  -0.580  -1.478  1.00  0.00     0.325 C 
HETATM    4  O3  UNL     1      -1.966  -0.081  -0.340  1.00  0.00    -0.247 OA
HETATM    5  N5  UNL     1      -0.987  -0.926  -2.263  1.00  0.00    -0.309 N 
ATOM      6  H5  UNL     1      -1.151  -1.322  -3.188  1.00  0.00     0.170 HD
ENDROOT
BRANCH   1   7
HETATM    7  C8  UNL     1      -4.606  -0.459  -1.241  1.00  0.00     0.036 A 
HETATM    8  C7  UNL     1      -4.711   0.422  -0.193  1.00  0.00     0.032 A 
HETATM    9  C6  UNL     1      -5.928   0.663   0.454  1.00  0.00     0.032 A 
HETATM   10  C5  UNL     1      -7.090   0.034   0.077  1.00  0.00     0.035 A 
HETATM   11  C25 UNL     1      -7.001  -0.844  -0.962  1.00  0.00     0.032 A 
HETATM   12  C24 UNL     1      -5.811  -1.095  -1.612  1.00  0.00     0.032 A 
BRANCH  10  13
HETATM   13  N3  UNL     1      -8.275   0.289   0.781  1.00  0.00    -0.323 N 
HETATM   14  C4  UNL     1      -9.535   0.296   0.177  1.00  0.00     0.262 C 
HETATM   15  O2  UNL     1      -9.582   0.056  -1.086  1.00  0.00    -0.267 OA
ATOM     16  H3  UNL     1      -8.215   0.478   1.781  1.00  0.00     0.169 HD
BRANCH  14  17
HETATM   17  C3  UNL     1     -10.809   0.538   0.796  1.00  0.00     0.101 A 
HETATM   18  C1  UNL     1     -11.099   1.191   1.955  1.00  0.00     0.137 A 
HETATM   19  N2  UNL     1     -12.458   1.089   2.114  1.00  0.00    -0.245 N 
HETATM   20  O1  UNL     1     -12.952   0.432   1.134  1.00  0.00    -0.247 OA
ATOM     21  H2  UNL     1     -12.991   1.477   2.892  1.00  0.00     0.196 HD
HETATM   22  C2  UNL     1     -12.031   0.069   0.305  1.00  0.00     0.188 A 
BRANCH  18  23
HETATM   23  N1  UNL     1     -10.401   1.825   2.803  1.00  0.00    -0.383 N 
ATOM     24  H12 UNL     1     -10.618   2.314   3.671  1.00  0.00     0.157 HD
ATOM     25  H11 UNL     1      -9.391   1.901   2.685  1.00  0.00     0.157 HD
ENDBRANCH  18  23
ENDBRANCH  14  17
ENDBRANCH  10  13
ENDBRANCH   1   7
BRANCH   5  26
HETATM   26  C10 UNL     1       0.349  -0.758  -1.848  1.00  0.00     0.036 A 
HETATM   27  C11 UNL     1       1.348  -0.674  -2.840  1.00  0.00     0.032 A 
HETATM   28  C12 UNL     1       2.675  -0.538  -2.537  1.00  0.00     0.032 A 
HETATM   29  C13 UNL     1       3.123  -0.473  -1.215  1.00  0.00     0.035 A 
HETATM   30  C22 UNL     1       2.164  -0.553  -0.246  1.00  0.00     0.032 A 
HETATM   31  C23 UNL     1       0.797  -0.694  -0.565  1.00  0.00     0.032 A 
BRANCH  29  32
HETATM   32  N6  UNL     1       4.519  -0.318  -0.985  1.00  0.00    -0.323 N 
HETATM   33  C14 UNL     1       5.212  -0.473   0.203  1.00  0.00     0.256 C 
HETATM   34  O4  UNL     1       4.666  -0.792   1.274  1.00  0.00    -0.267 OA
ATOM     35  H6  UNL     1       5.079  -0.060  -1.798  1.00  0.00     0.169 HD
BRANCH  33  36
HETATM   36  C15 UNL     1       6.664  -0.263   0.253  1.00  0.00     0.032 A 
HETATM   37  C16 UNL     1       7.420  -0.826   1.277  1.00  0.00     0.019 A 
HETATM   38  C17 UNL     1       8.782  -0.658   1.381  1.00  0.00     0.030 A 
HETATM   39  C18 UNL     1       9.471   0.102   0.438  1.00  0.00     0.034 A 
HETATM   40  C20 UNL     1       8.724   0.660  -0.576  1.00  0.00     0.030 A 
HETATM   41  C21 UNL     1       7.346   0.489  -0.679  1.00  0.00     0.019 A 
BRANCH  39  42
HETATM   42  N7  UNL     1      10.876   0.296   0.516  1.00  0.00    -0.333 N 
HETATM   43  C19 UNL     1      11.525   0.655   1.555  1.00  0.00     0.201 C 
HETATM   44  N8  UNL     1      10.839   0.895   2.765  1.00  0.00    -0.066 NA
HETATM   45  N9  UNL     1      12.931   0.813   1.491  1.00  0.00    -0.066 NA
ATOM     46  H7  UNL     1      11.415   0.134  -0.335  1.00  0.00     0.168 HD
ENDBRANCH  39  42
ENDBRANCH  33  36
ENDBRANCH  29  32
ENDBRANCH   5  26
TORSDOF 8
