REMARK  8 active torsions:
REMARK  status: ('A' for Active; 'I' for Inactive)
REMARK    1  A    between atoms: C3_3  and  C4_4 
REMARK    2  A    between atoms: C4_4  and  N1_5 
REMARK    3  A    between atoms: N2_8  and  C7_9 
REMARK    4  A    between atoms: C7_9  and  C8_10 
REMARK    5  A    between atoms: C8_10  and  C9_11 
REMARK    6  A    between atoms: C9_11  and  N3_12 
REMARK    7  A    between atoms: N3_12  and  C10_13 
REMARK    8  A    between atoms: C10_13  and  C11_14 
ROOT
HETATM    1  C1  UNL     1       8.195  -0.335  -2.068  1.00  0.00     0.112 C 
HETATM    2  C2  UNL     1       6.979   0.216  -1.426  1.00  0.00    -0.109 C 
HETATM    3  C3  UNL     1       5.978   0.679  -0.922  1.00  0.00    -0.077 C 
ENDROOT
BRANCH   3   4
HETATM    4  C4  UNL     1       4.801   1.270  -0.351  1.00  0.00     0.369 C 
BRANCH   4   5
HETATM    5  N1  UNL     1       3.568   0.600  -0.663  1.00  0.00     0.135 N 
HETATM    6  C5  UNL     1       2.529   1.600  -0.287  1.00  0.00     0.305 C 
HETATM    7  C6  UNL     1       1.162   1.046  -0.452  1.00  0.00     0.270 C 
HETATM    8  N2  UNL     1       0.777   0.110   0.573  1.00  0.00    -0.044 N 
HETATM    9  C16 UNL     1       1.666   0.233   1.751  1.00  0.00     0.245 C 
HETATM   10  C20 UNL     1       1.051  -1.225   0.065  1.00  0.00     0.407 C 
HETATM   11  C17 UNL     1       2.999  -0.379   1.537  1.00  0.00     0.099 C 
HETATM   12  C18 UNL     1       3.304  -0.603   0.097  1.00  0.00     0.261 C 
HETATM   13  C19 UNL     1       4.492  -1.535   0.038  1.00  0.00     0.081 C 
HETATM   14  O2  UNL     1       2.273  -1.281  -0.550  1.00  0.00    -0.324 OA
BRANCH   8  15
HETATM   15  C7  UNL     1      -0.534   0.279   1.063  1.00  0.00     0.241 C 
BRANCH  15  16
HETATM   16  C8  UNL     1      -1.671  -0.041   0.121  1.00  0.00     0.056 C 
BRANCH  16  17
HETATM   17  C9  UNL     1      -2.916   0.236   0.890  1.00  0.00     0.239 C 
BRANCH  17  18
HETATM   18  N3  UNL     1      -4.166   0.013   0.249  1.00  0.00    -0.059 N 
HETATM   19  C12 UNL     1      -4.399  -1.365  -0.059  1.00  0.00     0.238 C 
HETATM   20  C13 UNL     1      -4.915  -1.943   1.272  1.00  0.00     0.029 C 
HETATM   21  C14 UNL     1      -5.956  -0.867   1.577  1.00  0.00     0.029 C 
HETATM   22  C15 UNL     1      -5.178   0.374   1.284  1.00  0.00     0.238 C 
BRANCH  18  23
HETATM   23  C10 UNL     1      -4.445   0.913  -0.839  1.00  0.00     0.336 C 
BRANCH  23  24
HETATM   24  C11 UNL     1      -4.130   0.418  -2.187  1.00  0.00     0.257 C 
HETATM   25  N4  UNL     1      -4.371   1.190  -3.361  1.00  0.00    -0.061 NA
HETATM   26  O1  UNL     1      -3.622  -0.735  -2.416  1.00  0.00    -0.275 OA
ENDBRANCH  23  24
ENDBRANCH  18  23
ENDBRANCH  17  18
ENDBRANCH  16  17
ENDBRANCH  15  16
ENDBRANCH   8  15
ENDBRANCH   4   5
ENDBRANCH   3   4
TORSDOF 8
