REMARK  0 active torsions:
REMARK  status: ('A' for Active; 'I' for Inactive)
ROOT
HETATM    1  C1  UNL     1       5.121   1.219  -0.186  1.00  0.00     0.090 C 
HETATM    2  C2  UNL     1       3.861   0.424  -0.248  1.00  0.00     0.094 A 
HETATM    3  N1  UNL     1       3.714  -0.834  -0.692  1.00  0.00    -0.327 N 
ATOM      4  H1  UNL     1       4.459  -1.428  -1.054  1.00  0.00     0.169 HD
HETATM    5  C3  UNL     1       2.406  -1.183  -0.578  1.00  0.00     0.169 A 
HETATM    6  C4  UNL     1       1.706  -2.335  -0.878  1.00  0.00     0.147 A 
HETATM    7  S1  UNL     1       2.482  -3.633  -1.510  1.00  0.00    -0.056 SA
HETATM    8  N2  UNL     1       0.380  -2.370  -0.643  1.00  0.00    -0.344 N 
ATOM      9  H2  UNL     1      -0.150  -3.214  -0.860  1.00  0.00     0.167 HD
HETATM   10  C5  UNL     1      -0.256  -1.293  -0.121  1.00  0.00     0.060 A 
HETATM   11  C6  UNL     1       0.474  -0.161   0.167  1.00  0.00     0.149 A 
HETATM   12  N3  UNL     1       1.807  -0.096  -0.058  1.00  0.00    -0.217 N 
HETATM   13  N4  UNL     1       2.664   0.873   0.144  1.00  0.00    -0.279 N 
ATOM     14  H4  UNL     1       2.458   1.795   0.528  1.00  0.00     0.189 HD
HETATM   15  N5  UNL     1      -0.232   0.943   0.712  1.00  0.00    -0.365 N 
ATOM     16  H5  UNL     1       0.278   1.582   1.321  1.00  0.00     0.162 HD
HETATM   17  C7  UNL     1      -1.621   1.218   0.460  1.00  0.00     0.025 C 
HETATM   18  C8  UNL     1      -1.825   2.393  -0.474  1.00  0.00     0.038 C 
HETATM   19  C9  UNL     1      -2.217   1.634   1.809  1.00  0.00     0.038 C 
HETATM   20  C10 UNL     1      -2.357   0.044  -0.121  1.00  0.00     0.040 C 
HETATM   21  C11 UNL     1      -1.692  -1.275   0.157  1.00  0.00     0.038 C 
HETATM   22  C12 UNL     1      -2.442  -2.382  -0.529  1.00  0.00     0.016 C 
ENDROOT
TORSDOF 0
