REMARK  4 active torsions:
REMARK  status: ('A' for Active; 'I' for Inactive)
REMARK    1  A    between atoms: C4_8  and  C5_9 
REMARK    2  A    between atoms: C5_9  and  C6_10 
REMARK    3  A    between atoms: C6_10  and  C7_11 
REMARK    4  A    between atoms: C7_11  and  N3_12 
ROOT
HETATM    1  C1  UNL     1       6.126  -0.607  -1.146  1.00  0.00     0.069 C 
HETATM    2  C2  UNL     1       4.758  -0.346  -0.651  1.00  0.00     0.017 A 
HETATM    3  N1  UNL     1       3.952   0.525  -1.296  1.00  0.00    -0.344 N 
ATOM      4  H1  UNL     1       4.298   1.001  -2.129  1.00  0.00     0.167 HD
HETATM    5  C3  UNL     1       2.692   0.782  -0.862  1.00  0.00     0.138 A 
HETATM    6  N2  UNL     1       1.705   1.564  -1.280  1.00  0.00    -0.330 N 
ATOM      7  H2  UNL     1       1.735   2.175  -2.096  1.00  0.00     0.168 HD
HETATM    8  C4  UNL     1       0.636   1.414  -0.432  1.00  0.00     0.083 A 
HETATM    9  N4  UNL     1       0.978   0.539   0.503  1.00  0.00    -0.340 N 
ATOM     10  H4  UNL     1       0.386   0.226   1.273  1.00  0.00     0.167 HD
HETATM   11  C12 UNL     1       2.236   0.134   0.264  1.00  0.00     0.129 A 
HETATM   12  C13 UNL     1       3.053  -0.768   0.942  1.00  0.00     0.210 A 
HETATM   13  O2  UNL     1       2.616  -1.345   1.963  1.00  0.00    -0.285 OA
HETATM   14  C14 UNL     1       4.329  -1.008   0.476  1.00  0.00     0.013 A 
HETATM   15  C15 UNL     1       5.238  -1.951   1.152  1.00  0.00     0.054 C 
ENDROOT
BRANCH   8  16
HETATM   16  C5  UNL     1      -0.580   2.206  -0.667  1.00  0.00     0.078 C 
BRANCH  16  17
HETATM   17  C6  UNL     1      -1.766   1.845   0.168  1.00  0.00     0.038 C 
BRANCH  17  18
HETATM   18  C7  UNL     1      -2.220   0.470  -0.139  1.00  0.00     0.273 C 
BRANCH  18  19
HETATM   19  N3  UNL     1      -3.355   0.022   0.626  1.00  0.00     0.092 N 
HETATM   20  C8  UNL     1      -3.656  -1.331   0.195  1.00  0.00     0.298 C 
HETATM   21  C9  UNL     1      -5.143  -1.599   0.166  1.00  0.00     0.198 C 
HETATM   22  O1  UNL     1      -5.832  -0.754  -0.676  1.00  0.00    -0.388 OA
HETATM   23  C10 UNL     1      -5.190   0.484  -0.842  1.00  0.00     0.198 C 
HETATM   24  C11 UNL     1      -4.526   0.823   0.455  1.00  0.00     0.298 C 
ENDBRANCH  18  19
ENDBRANCH  17  18
ENDBRANCH  16  17
ENDBRANCH   8  16
TORSDOF 4
