REMARK  5 active torsions:
REMARK  status: ('A' for Active; 'I' for Inactive)
REMARK    1  A    between atoms: S1_2  and  C2_3 
REMARK    2  A    between atoms: C4_8  and  C5_9 
REMARK    3  A    between atoms: C5_9  and  N2_10 
REMARK       I    between atoms: N2_10  and  C6_12 
REMARK    4  A    between atoms: C6_12  and  C7_14 
REMARK    5  A    between atoms: C7_14  and  C8_15 
ROOT
HETATM    1  N2  UNL     1       1.268   0.442   0.476  1.00  0.00    -0.355 N 
ATOM      2  H2  UNL     1       1.766  -0.442   0.579  1.00  0.00     0.162 HD
HETATM    3  C6  UNL     1      -0.173   0.520   0.523  1.00  0.00     0.218 C 
HETATM    4  O1  UNL     1      -0.676   1.691   0.499  1.00  0.00    -0.274 OA
ENDROOT
BRANCH   1   5
HETATM    5  C5  UNL     1       1.961   1.691   0.275  1.00  0.00     0.191 C 
BRANCH   5   6
HETATM    6  C4  UNL     1       3.403   1.517  -0.075  1.00  0.00     0.112 A 
HETATM    7  C3  UNL     1       3.808   1.668  -1.451  1.00  0.00     0.137 A 
HETATM    8  N1  UNL     1       5.104   1.478  -1.401  1.00  0.00    -0.319 N 
HETATM    9 CL1  UNL     1       2.730   1.998  -2.760  1.00  0.00    -0.062 Cl
HETATM   10  C2  UNL     1       5.544   1.228  -0.138  1.00  0.00     0.188 A 
ATOM     11  H1  UNL     1       5.714   1.514  -2.217  1.00  0.00     0.169 HD
HETATM   12  O2  UNL     1       4.414   1.268   0.602  1.00  0.00    -0.287 OA
BRANCH  10  13
HETATM   13  S1  UNL     1       7.188   0.937   0.449  1.00  0.00    -0.091 SA
HETATM   14  C1  UNL     1       7.611  -0.793   0.526  1.00  0.00     0.099 C 
ENDBRANCH  10  13
ENDBRANCH   5   6
ENDBRANCH   1   5
BRANCH   3  15
HETATM   15  C7  UNL     1      -1.040  -0.631   0.558  1.00  0.00     0.113 C 
BRANCH  15  16
HETATM   16  C8  UNL     1      -2.480  -0.427   0.603  1.00  0.00     0.067 C 
HETATM   17  C9  UNL     1      -3.140   0.386  -0.492  1.00  0.00     0.011 C 
HETATM   18  C10 UNL     1      -4.582   0.573  -0.123  1.00  0.00     0.001 C 
HETATM   19  C11 UNL     1      -5.294  -0.689   0.188  1.00  0.00     0.006 C 
HETATM   20  C12 UNL     1      -4.470  -1.759   0.868  1.00  0.00     0.079 C 
HETATM   21  C13 UNL     1      -3.079  -1.862   0.314  1.00  0.00     0.247 C 
HETATM   22  F1  UNL     1      -3.139  -1.996  -1.076  1.00  0.00    -0.206 F 
HETATM   23  F2  UNL     1      -2.350  -2.815   0.936  1.00  0.00    -0.206 F 
ENDBRANCH  15  16
ENDBRANCH   3  15
TORSDOF 5
