REMARK  7 active torsions:
REMARK  status: ('A' for Active; 'I' for Inactive)
REMARK    1  A    between atoms: C3_5  and  C4_6 
REMARK    2  A    between atoms: C4_6  and  S1_7 
REMARK    3  A    between atoms: C4_6  and  C15_25 
REMARK    4  A    between atoms: S1_7  and  C5_8 
REMARK    5  A    between atoms: C6_13  and  C7_14 
REMARK    6  A    between atoms: C7_14  and  C8_15 
REMARK    7  A    between atoms: C8_15  and  C9_16 
ROOT
HETATM    1  C4  UNL     1      -2.996   0.315   0.036  1.00  0.00     0.147 C 
ENDROOT
BRANCH   1   2
HETATM    2  C3  UNL     1      -4.347   0.670   0.548  1.00  0.00     0.052 A 
HETATM    3  N1  UNL     1      -4.859   1.944   0.623  1.00  0.00    -0.347 N 
HETATM    4  C2  UNL     1      -6.091   1.910   1.132  1.00  0.00     0.077 A 
ATOM      5  H1  UNL     1      -4.369   2.790   0.332  1.00  0.00     0.167 HD
HETATM    6  C1  UNL     1      -6.937   3.108   1.352  1.00  0.00     0.089 C 
HETATM    7  N6  UNL     1      -6.429   0.656   1.403  1.00  0.00    -0.348 N 
HETATM    8  C19 UNL     1      -5.357  -0.107   1.045  1.00  0.00     0.030 A 
ATOM      9  H6  UNL     1      -7.311   0.329   1.798  1.00  0.00     0.167 HD
HETATM   10  C20 UNL     1      -5.368  -1.572   1.213  1.00  0.00     0.070 C 
ENDBRANCH   1   2
BRANCH   1  11
HETATM   11  S1  UNL     1      -2.011  -0.485   1.300  1.00  0.00    -0.069 SA
BRANCH  11  12
HETATM   12  C5  UNL     1      -0.246  -0.412   0.977  1.00  0.00     0.204 A 
HETATM   13  N2  UNL     1       0.496   0.626   1.431  1.00  0.00    -0.272 N 
HETATM   14  N3  UNL     1       1.721   0.403   1.048  1.00  0.00    -0.281 N 
ATOM     15  H2  UNL     1       0.161   1.426   1.968  1.00  0.00     0.189 HD
HETATM   16  C6  UNL     1       1.797  -0.739   0.365  1.00  0.00     0.142 A 
ATOM     17  H3  UNL     1       2.512   1.017   1.244  1.00  0.00     0.189 HD
HETATM   18  O3  UNL     1       0.552  -1.201   0.351  1.00  0.00    -0.272 OA
BRANCH  16  19
HETATM   19  C7  UNL     1       2.993  -1.341  -0.233  1.00  0.00     0.106 C 
BRANCH  19  20
HETATM   20  C8  UNL     1       4.244  -0.553  -0.103  1.00  0.00     0.055 C 
HETATM   21  C10 UNL     1       4.698  -0.253   1.280  1.00  0.00     0.021 C 
HETATM   22  C11 UNL     1       6.152   0.230   1.156  1.00  0.00     0.001 C 
HETATM   23  C12 UNL     1       6.126   1.564   0.474  1.00  0.00     0.000 C 
HETATM   24  C13 UNL     1       5.342   1.620  -0.786  1.00  0.00     0.001 C 
HETATM   25  C14 UNL     1       4.155   0.736  -0.890  1.00  0.00     0.021 C 
BRANCH  20  26
HETATM   26  C9  UNL     1       5.330  -1.384  -0.746  1.00  0.00     0.182 C 
HETATM   27  O1  UNL     1       5.963  -0.930  -1.700  1.00  0.00    -0.647 OA
HETATM   28  O2  UNL     1       5.571  -2.630  -0.232  1.00  0.00    -0.647 OA
ENDBRANCH  20  26
ENDBRANCH  19  20
ENDBRANCH  16  19
ENDBRANCH  11  12
ENDBRANCH   1  11
BRANCH   1  29
HETATM   29  C15 UNL     1      -3.030  -0.388  -1.261  1.00  0.00     0.045 A 
HETATM   30  C16 UNL     1      -3.379   0.308  -2.424  1.00  0.00     0.129 A 
HETATM   31 CL1  UNL     1      -3.754   2.036  -2.366  1.00  0.00    -0.062 Cl
HETATM   32  N4  UNL     1      -3.434  -0.291  -3.623  1.00  0.00    -0.287 N 
HETATM   33  N5  UNL     1      -3.160  -1.572  -3.767  1.00  0.00    -0.272 N 
ATOM     34  H4  UNL     1      -3.694   0.258  -4.442  1.00  0.00     0.188 HD
HETATM   35  C17 UNL     1      -2.822  -2.274  -2.689  1.00  0.00     0.242 A 
ATOM     36  H5  UNL     1      -3.206  -2.015  -4.685  1.00  0.00     0.189 HD
HETATM   37  F1  UNL     1      -2.542  -3.591  -2.856  1.00  0.00    -0.181 F 
HETATM   38  C18 UNL     1      -2.747  -1.712  -1.418  1.00  0.00     0.184 A 
HETATM   39  F2  UNL     1      -2.386  -2.532  -0.420  1.00  0.00    -0.200 F 
ENDBRANCH   1  29
TORSDOF 7
