REMARK  3 active torsions:
REMARK  status: ('A' for Active; 'I' for Inactive)
REMARK    1  A    between atoms: C5_16  and  C6_17 
REMARK    2  A    between atoms: C6_17  and  O3_18 
REMARK    3  A    between atoms: O3_18  and  C7_19 
ROOT
HETATM    1  O1  UNL     1       5.905  -0.702   1.509  1.00  0.00    -0.260 OA
HETATM    2  C1  UNL     1       4.773  -0.681   0.963  1.00  0.00     0.292 A 
HETATM    3  N1  UNL     1       4.035   0.419   0.815  1.00  0.00    -0.284 N 
ATOM      4  H1  UNL     1       4.442   1.282   1.175  1.00  0.00     0.172 HD
HETATM    5  C2  UNL     1       2.826   0.531   0.252  1.00  0.00     0.259 A 
HETATM    6  O2  UNL     1       2.388   1.722   0.262  1.00  0.00    -0.267 OA
HETATM    7  C3  UNL     1       2.037  -0.427  -0.311  1.00  0.00     0.071 A 
HETATM    8  C4  UNL     1       2.479  -1.732  -0.355  1.00  0.00     0.109 A 
HETATM    9  S1  UNL     1       4.032  -2.068   0.336  1.00  0.00    -0.009 SA
HETATM   10  N2  UNL     1       1.812  -2.766  -1.127  1.00  0.00    -0.279 N 
ATOM     11  H2  UNL     1       2.161  -3.724  -1.117  1.00  0.00     0.189 HD
HETATM   12  N3  UNL     1       0.800  -2.465  -1.806  1.00  0.00    -0.245 N 
ATOM     13  H3  UNL     1       0.309  -3.178  -2.346  1.00  0.00     0.208 HD
HETATM   14  N4  UNL     1       0.359  -1.154  -1.813  1.00  0.00    -0.310 N 
ATOM     15  H4  UNL     1      -0.177  -0.817  -2.613  1.00  0.00     0.182 HD
HETATM   16  C5  UNL     1       0.632  -0.256  -0.731  1.00  0.00     0.166 C 
ENDROOT
BRANCH  16  17
HETATM   17  C6  UNL     1       0.124   1.110  -0.938  1.00  0.00     0.210 C 
BRANCH  17  18
HETATM   18  O3  UNL     1      -1.244   1.227  -1.195  1.00  0.00    -0.320 OA
BRANCH  18  19
HETATM   19  C7  UNL     1      -2.264   0.832  -0.385  1.00  0.00     0.215 C 
HETATM   20  N5  UNL     1      -2.068   0.685   0.856  1.00  0.00    -0.355 N 
HETATM   21  C8  UNL     1      -3.246   0.265   1.564  1.00  0.00     0.143 C 
ATOM     22  H5  UNL     1      -1.168   0.848   1.307  1.00  0.00     0.163 HD
HETATM   23  C9  UNL     1      -4.377   0.436   0.566  1.00  0.00     0.143 C 
HETATM   24  N6  UNL     1      -3.622   0.526  -0.691  1.00  0.00    -0.355 N 
ATOM     25  H6  UNL     1      -4.006   0.392  -1.627  1.00  0.00     0.163 HD
ENDBRANCH  18  19
ENDBRANCH  17  18
ENDBRANCH  16  17
TORSDOF 3
