REMARK  4 active torsions:
REMARK  status: ('A' for Active; 'I' for Inactive)
REMARK    1  A    between atoms: C4_5  and  O2_7 
REMARK    2  A    between atoms: C8_12  and  N1_13 
REMARK    3  A    between atoms: N1_13  and  C9_15 
REMARK    4  A    between atoms: C10_18  and  O4_19 
ROOT
HETATM    1  N1  UNL     1       0.735  -0.476   1.191  1.00  0.00    -0.336 N 
ATOM      2  H1  UNL     1       0.722  -0.913   2.113  1.00  0.00     0.168 HD
ENDROOT
BRANCH   1   3
HETATM    3  C8  UNL     1      -0.506  -0.182   0.600  1.00  0.00     0.051 C 
HETATM    4  C2  UNL     1      -1.568  -1.201   0.510  1.00  0.00     0.031 C 
HETATM    5  C1  UNL     1      -1.329  -2.411   1.000  1.00  0.00     0.030 C 
HETATM    6  C3  UNL     1      -2.856  -0.899  -0.103  1.00  0.00     0.202 C 
HETATM    7  O1  UNL     1      -3.544  -1.842  -0.571  1.00  0.00    -0.288 OA
HETATM    8  C4  UNL     1      -3.270   0.524  -0.129  1.00  0.00     0.183 C 
HETATM    9  C5  UNL     1      -4.462   0.766  -1.015  1.00  0.00     0.063 C 
HETATM   10  C6  UNL     1      -2.086   1.324  -0.522  1.00  0.00     0.193 C 
HETATM   11  O3  UNL     1      -2.179   2.271  -1.374  1.00  0.00    -0.289 OA
HETATM   12  C7  UNL     1      -0.808   1.002   0.093  1.00  0.00     0.084 C 
BRANCH   8  13
HETATM   13  O2  UNL     1      -3.604   0.898   1.171  1.00  0.00    -0.374 OA
ATOM     14  H2  UNL     1      -3.869   1.810   1.154  1.00  0.00     0.211 HD
ENDBRANCH   8  13
ENDBRANCH   1   3
BRANCH   1  15
HETATM   15  C9  UNL     1       1.872  -0.243   0.672  1.00  0.00     0.155 A 
HETATM   16  N2  UNL     1       2.999  -0.551   1.296  1.00  0.00    -0.302 N 
HETATM   17  C10 UNL     1       4.242  -0.359   0.859  1.00  0.00     0.225 A 
ATOM     18  H2  UNL     1       2.904  -0.984   2.215  1.00  0.00     0.171 HD
HETATM   19  N3  UNL     1       4.613   0.181  -0.289  1.00  0.00    -0.303 N 
HETATM   20  C11 UNL     1       3.785   0.640  -1.240  1.00  0.00     0.148 A 
ATOM     21  H3  UNL     1       5.615   0.255  -0.467  1.00  0.00     0.171 HD
HETATM   22  N4  UNL     1       4.239   1.153  -2.335  1.00  0.00    -0.379 N 
HETATM   23  S1  UNL     1       2.129   0.485  -0.871  1.00  0.00    -0.018 SA
ATOM     24  H42 UNL     1       5.230   1.246  -2.556  1.00  0.00     0.158 HD
ATOM     25  H41 UNL     1       3.610   1.502  -3.058  1.00  0.00     0.158 HD
BRANCH  17  26
HETATM   26  O4  UNL     1       5.264  -0.784   1.734  1.00  0.00    -0.332 OA
ATOM     27  H4  UNL     1       6.151  -0.647   1.422  1.00  0.00     0.221 HD
ENDBRANCH  17  26
ENDBRANCH   1  15
TORSDOF 4
