REMARK  8 active torsions:
REMARK  status: ('A' for Active; 'I' for Inactive)
REMARK    1  A    between atoms: C2_2  and  C3_3 
REMARK    2  A    between atoms: C3_3  and  C4_4 
REMARK    3  A    between atoms: C4_4  and  C5_5 
REMARK    4  A    between atoms: C6_8  and  N2_9 
REMARK    5  A    between atoms: C13_17  and  N3_18 
REMARK    6  A    between atoms: N3_18  and  C14_20 
REMARK    7  A    between atoms: C16_22  and  N4_23 
REMARK    8  A    between atoms: C17_29  and  O1_30 
ROOT
HETATM    1  C5  UNL     1       2.049  -0.032  -0.943  1.00  0.00     0.062 A 
HETATM    2  N1  UNL     1       0.790  -0.510  -0.922  1.00  0.00    -0.339 N 
ATOM      3  H1  UNL     1       0.620  -1.438  -1.310  1.00  0.00     0.167 HD
HETATM    4  C6  UNL     1      -0.254   0.168  -0.418  1.00  0.00     0.149 A 
HETATM    5  C13 UNL     1      -0.046   1.420   0.112  1.00  0.00     0.148 A 
HETATM    6  N5  UNL     1       1.241   1.910   0.090  1.00  0.00    -0.319 N 
ATOM      7  H5  UNL     1       1.419   2.837   0.477  1.00  0.00     0.169 HD
HETATM    8  C17 UNL     1       2.261   1.222  -0.416  1.00  0.00     0.164 A 
ENDROOT
BRANCH   5   9
HETATM    9  N3  UNL     1      -0.895   2.135   0.630  1.00  0.00    -0.366 N 
ATOM     10  H3  UNL     1      -0.399   2.981   0.909  1.00  0.00     0.161 HD
BRANCH   9  11
HETATM   11  C14 UNL     1      -2.191   2.336   1.011  1.00  0.00     0.115 A 
HETATM   12  C15 UNL     1      -3.101   3.408   0.401  1.00  0.00     0.062 A 
HETATM   13  C16 UNL     1      -2.655   3.506   1.811  1.00  0.00     0.208 A 
BRANCH  13  14
HETATM   14  N4  UNL     1      -1.764   4.626   2.064  1.00  0.00    -0.073 N 
ATOM     15  H43 UNL     1      -0.910   4.266   2.490  1.00  0.00     0.274 HD
ATOM     16  H42 UNL     1      -1.418   4.968   1.168  1.00  0.00     0.274 HD
ATOM     17  H41 UNL     1      -2.081   5.426   2.611  1.00  0.00     0.274 HD
ENDBRANCH  13  14
ENDBRANCH   9  11
ENDBRANCH   5   9
BRANCH   4  18
HETATM   18  N2  UNL     1      -1.566  -0.420  -0.480  1.00  0.00    -0.360 N 
HETATM   19  C7  UNL     1      -2.475   0.115  -1.478  1.00  0.00     0.128 C 
HETATM   20  C8  UNL     1      -2.680  -1.059  -2.446  1.00  0.00     0.057 C 
HETATM   21  C9  UNL     1      -3.404  -2.112  -1.690  1.00  0.00     0.173 C 
HETATM   22  F1  UNL     1      -3.564  -3.214  -2.527  1.00  0.00    -0.249 F 
HETATM   23  C10 UNL     1      -2.806  -2.542  -0.392  1.00  0.00     0.062 C 
HETATM   24  C11 UNL     1      -2.043  -1.479   0.336  1.00  0.00     0.084 C 
HETATM   25  C12 UNL     1      -0.947  -2.129   1.146  1.00  0.00     0.032 C 
ENDBRANCH   4  18
BRANCH   8  26
HETATM   26  O1  UNL     1       3.564   1.743  -0.434  1.00  0.00    -0.345 OA
ATOM     27  H1  UNL     1       3.710   2.608  -0.070  1.00  0.00     0.219 HD
ENDBRANCH   8  26
BRANCH   1  28
HETATM   28  C4  UNL     1       3.162  -0.843  -1.479  1.00  0.00     0.062 C 
BRANCH  28  29
HETATM   29  C3  UNL     1       3.925  -1.655  -0.518  1.00  0.00     0.006 C 
BRANCH  29  30
HETATM   30  C2  UNL     1       4.625  -0.955   0.598  1.00  0.00    -0.004 C 
HETATM   31  C1  UNL     1       5.351  -1.993   1.472  1.00  0.00     0.005 C 
ENDBRANCH  29  30
ENDBRANCH  28  29
ENDBRANCH   1  28
TORSDOF 8
