REMARK  3 active torsions:
REMARK  status: ('A' for Active; 'I' for Inactive)
REMARK    1  A    between atoms: C2_2  and  N1_5 
REMARK    2  A    between atoms: C6_10  and  N3_11 
REMARK    3  A    between atoms: N3_11  and  C7_13 
ROOT
HETATM    1  N1  UNL     1       2.516   0.205  -0.018  1.00  0.00    -0.244 N 
HETATM    2  N2  UNL     1       1.806  -0.002   1.090  1.00  0.00    -0.268 N 
ATOM      3  H2  UNL     1       2.251  -0.483   1.871  1.00  0.00     0.189 HD
HETATM    4  C5  UNL     1       0.536   0.393   1.223  1.00  0.00     0.233 A 
HETATM    5  F1  UNL     1      -0.106   0.152   2.389  1.00  0.00    -0.182 F 
HETATM    6  C6  UNL     1      -0.125   1.045   0.217  1.00  0.00     0.131 A 
HETATM    7  C13 UNL     1       0.594   1.274  -0.949  1.00  0.00     0.216 A 
HETATM    8  F2  UNL     1       0.044   1.908  -2.008  1.00  0.00    -0.198 F 
HETATM    9  C14 UNL     1       1.889   0.843  -1.018  1.00  0.00     0.304 A 
HETATM   10  O1  UNL     1       2.532   1.049  -2.066  1.00  0.00    -0.263 OA
ENDROOT
BRANCH   6  11
HETATM   11  N3  UNL     1      -1.456   1.490   0.247  1.00  0.00    -0.379 N 
ATOM     12  H3  UNL     1      -1.680   2.404   0.641  1.00  0.00     0.160 HD
BRANCH  11  13
HETATM   13  C7  UNL     1      -2.507   0.653  -0.280  1.00  0.00     0.082 C 
HETATM   14  C8  UNL     1      -3.865   1.281  -0.152  1.00  0.00     0.025 C 
HETATM   15  C9  UNL     1      -5.012   0.370  -0.181  1.00  0.00     0.002 C 
HETATM   16  C10 UNL     1      -4.778  -1.078  -0.056  1.00  0.00     0.000 C 
HETATM   17  C11 UNL     1      -3.424  -1.563  -0.452  1.00  0.00     0.002 C 
HETATM   18  C12 UNL     1      -2.404  -0.709   0.320  1.00  0.00     0.025 C 
ENDBRANCH  11  13
ENDBRANCH   6  11
BRANCH   1  19
HETATM   19  C2  UNL     1       3.854  -0.259  -0.045  1.00  0.00     0.046 C 
HETATM   20  C1  UNL     1       4.825   0.737   0.604  1.00  0.00     0.040 C 
HETATM   21  C3  UNL     1       4.407  -0.580  -1.400  1.00  0.00     0.040 C 
HETATM   22  C4  UNL     1       3.934  -1.523   0.789  1.00  0.00     0.040 C 
ENDBRANCH   1  19
TORSDOF 3
