REMARK  4 active torsions:
REMARK  status: ('A' for Active; 'I' for Inactive)
REMARK    1  A    between atoms: O1_1  and  C1_3 
REMARK    2  A    between atoms: C6_8  and  C7_9 
REMARK    3  A    between atoms: N1_14  and  C11_15 
REMARK    4  A    between atoms: C14_22  and  C15_23 
ROOT
HETATM    1  C11 UNL     1       0.749   1.349   0.974  1.00  0.00     0.119 A 
HETATM    2  N2  UNL     1       0.426   2.602   1.473  1.00  0.00    -0.338 N 
ATOM      3  H2  UNL     1      -0.540   2.777   1.749  1.00  0.00     0.168 HD
HETATM    4  C12 UNL     1       1.306   3.585   1.610  1.00  0.00     0.181 A 
HETATM    5  N3  UNL     1       2.588   3.390   1.256  1.00  0.00    -0.361 N 
ATOM      6  H3  UNL     1       3.259   4.150   1.365  1.00  0.00     0.166 HD
HETATM    7  C13 UNL     1       2.995   2.227   0.768  1.00  0.00     0.104 A 
HETATM    8  C14 UNL     1       2.040   1.181   0.625  1.00  0.00     0.034 A 
ENDROOT
BRANCH   1   9
HETATM    9  N1  UNL     1      -0.252   0.390   0.956  1.00  0.00    -0.327 N 
HETATM   10  C7  UNL     1      -1.707   0.684   0.929  1.00  0.00     0.210 C 
HETATM   11  F1  UNL     1      -1.970   2.003   1.201  1.00  0.00    -0.213 F 
HETATM   12  C8  UNL     1      -2.180  -0.131   2.119  1.00  0.00     0.074 C 
HETATM   13  C9  UNL     1      -1.354  -1.386   2.050  1.00  0.00     0.025 C 
HETATM   14  C10 UNL     1      -0.240  -1.036   1.046  1.00  0.00     0.128 C 
BRANCH  10  15
HETATM   15  C6  UNL     1      -2.346   0.307  -0.331  1.00  0.00     0.035 A 
HETATM   16  C1  UNL     1      -1.979   0.862  -1.557  1.00  0.00     0.077 A 
HETATM   17  C2  UNL     1      -2.560   0.503  -2.752  1.00  0.00     0.037 A 
HETATM   18  C3  UNL     1      -3.550  -0.448  -2.738  1.00  0.00     0.003 A 
HETATM   19  C4  UNL     1      -3.936  -1.015  -1.542  1.00  0.00     0.001 A 
HETATM   20  C5  UNL     1      -3.351  -0.653  -0.344  1.00  0.00     0.015 A 
BRANCH  16  21
HETATM   21  O1  UNL     1      -0.988   1.822  -1.610  1.00  0.00    -0.360 OA
ATOM     22  H1  UNL     1      -0.587   2.070  -0.785  1.00  0.00     0.217 HD
ENDBRANCH  16  21
ENDBRANCH  10  15
ENDBRANCH   1   9
BRANCH   8  23
HETATM   23  C15 UNL     1       2.522  -0.046   0.033  1.00  0.00    -0.021 A 
HETATM   24  C16 UNL     1       3.537  -0.740   0.648  1.00  0.00     0.015 A 
HETATM   25  C17 UNL     1       4.063  -1.898   0.052  1.00  0.00     0.043 A 
HETATM   26  C18 UNL     1       3.555  -2.328  -1.145  1.00  0.00     0.116 A 
HETATM   27  F2  UNL     1       4.042  -3.450  -1.754  1.00  0.00    -0.206 F 
HETATM   28  C19 UNL     1       2.557  -1.658  -1.764  1.00  0.00     0.043 A 
HETATM   29  C20 UNL     1       2.044  -0.503  -1.156  1.00  0.00     0.015 A 
ENDBRANCH   8  23
TORSDOF 4
