REMARK  1 active torsions:
REMARK  status: ('A' for Active; 'I' for Inactive)
REMARK    1  A    between atoms: N1_5  and  N2_7 
ROOT
HETATM    1  C1  UNL     1      -1.545  -2.204   0.028  1.00  0.00     0.040 C 
HETATM    2  C2  UNL     1      -0.961  -0.926  -0.527  1.00  0.00     0.187 C 
HETATM    3  C3  UNL     1       0.531  -1.085  -0.598  1.00  0.00     0.087 C 
HETATM    4  C4  UNL     1       1.249   0.170  -0.265  1.00  0.00     0.023 C 
HETATM    5  N1  UNL     1       2.489   0.087   0.026  1.00  0.00    -0.294 N 
ATOM      6  H1  UNL     1       2.972   0.956   0.253  1.00  0.00     0.188 HD
HETATM    7  C5  UNL     1       0.613   1.496  -0.252  1.00  0.00     0.135 C 
HETATM    8 BR1  UNL     1       1.075   2.420  -1.908  1.00  0.00    -0.083 Br
HETATM    9  C6  UNL     1      -0.882   1.437  -0.098  1.00  0.00     0.202 C 
HETATM   10  C7  UNL     1      -1.271   2.457   0.955  1.00  0.00     0.041 C 
HETATM   11  N4  UNL     1      -1.381   0.162   0.302  1.00  0.00    -0.066 N 
ATOM     12  H41 UNL     1      -1.144  -0.022   1.277  1.00  0.00     0.278 HD
ATOM     13  H42 UNL     1      -2.398   0.184   0.370  1.00  0.00     0.278 HD
ENDROOT
BRANCH   5  14
HETATM   14  N2  UNL     1       3.234  -1.072   0.061  1.00  0.00    -0.249 N 
HETATM   15  N3  UNL     1       3.278  -1.886   1.033  1.00  0.00    -0.331 N 
ATOM     16  H32 UNL     1       2.710  -1.649   1.846  1.00  0.00     0.178 HD
ATOM     17  H31 UNL     1       3.829  -2.744   1.059  1.00  0.00     0.178 HD
ATOM     18  H2  UNL     1       3.796  -1.293  -0.761  1.00  0.00     0.207 HD
ENDBRANCH   5  14
TORSDOF 1
