REMARK  6 active torsions:
REMARK  status: ('A' for Active; 'I' for Inactive)
REMARK    1  A    between atoms: N1_1  and  C1_5 
REMARK    2  A    between atoms: C3_7  and  N2_8 
REMARK    3  A    between atoms: C3_7  and  C4_12 
REMARK    4  A    between atoms: C8_16  and  C9_17 
REMARK    5  A    between atoms: C9_17  and  O1_18 
REMARK    6  A    between atoms: N3_20  and  O2_22 
ROOT
HETATM    1  C4  UNL     1      -0.345  -0.177   0.375  1.00  0.00    -0.011 A 
HETATM    2  C5  UNL     1      -0.485   0.801   1.313  1.00  0.00     0.010 A 
HETATM    3  C6  UNL     1       0.596   1.570   1.759  1.00  0.00     0.002 A 
HETATM    4  C7  UNL     1       1.813   1.274   1.190  1.00  0.00     0.016 A 
HETATM    5  C8  UNL     1       2.020   0.302   0.241  1.00  0.00     0.017 A 
HETATM    6  C10 UNL     1       0.914  -0.413  -0.149  1.00  0.00     0.026 A 
ENDROOT
BRANCH   1   7
HETATM    7  C3  UNL     1      -1.461  -0.989  -0.153  1.00  0.00     0.203 C 
HETATM    8  C2  UNL     1      -2.825  -0.632   0.385  1.00  0.00     0.099 C 
HETATM    9  C1  UNL     1      -3.027   0.508  -0.599  1.00  0.00     0.250 C 
HETATM   10  S1  UNL     1      -1.905  -0.284  -1.795  1.00  0.00    -0.093 SA
BRANCH   9  11
HETATM   11  N1  UNL     1      -4.366   0.639  -1.126  1.00  0.00    -0.066 N 
ATOM     12  H13 UNL     1      -4.666  -0.242  -1.544  1.00  0.00     0.275 HD
ATOM     13  H12 UNL     1      -5.038   0.713  -0.362  1.00  0.00     0.275 HD
ATOM     14  H11 UNL     1      -4.502   1.404  -1.787  1.00  0.00     0.275 HD
ENDBRANCH   9  11
BRANCH   7  15
HETATM   15  N2  UNL     1      -1.126  -2.374  -0.219  1.00  0.00    -0.057 N 
ATOM     16  H23 UNL     1      -1.248  -2.796   0.702  1.00  0.00     0.276 HD
ATOM     17  H22 UNL     1      -1.840  -2.870  -0.752  1.00  0.00     0.276 HD
ATOM     18  H21 UNL     1      -0.204  -2.615  -0.583  1.00  0.00     0.276 HD
ENDBRANCH   7  15
ENDBRANCH   1   7
BRANCH   5  19
HETATM   19  C9  UNL     1       3.319   0.030  -0.355  1.00  0.00     0.170 C 
HETATM   20  N3  UNL     1       4.307   0.783   0.029  1.00  0.00    -0.247 N 
ATOM     21  H3  UNL     1       4.127   1.514   0.717  1.00  0.00     0.196 HD
BRANCH  19  22
HETATM   22  O1  UNL     1       3.442  -0.992  -1.284  1.00  0.00    -0.344 OA
ATOM     23  H1  UNL     1       4.290  -1.170  -1.673  1.00  0.00     0.219 HD
ENDBRANCH  19  22
BRANCH  20  24
HETATM   24  O2  UNL     1       5.579   0.633  -0.454  1.00  0.00    -0.288 OA
ATOM     25  H2  UNL     1       6.301   1.183  -0.173  1.00  0.00     0.244 HD
ENDBRANCH  20  24
ENDBRANCH   5  19
TORSDOF 6
