REMARK  4 active torsions:
REMARK  status: ('A' for Active; 'I' for Inactive)
REMARK    1  A    between atoms: N3_4  and  N4_6 
REMARK    2  A    between atoms: C2_8  and  C3_9 
REMARK    3  A    between atoms: N5_15  and  N6_16 
REMARK    4  A    between atoms: C8_18  and  O1_20 
ROOT
HETATM    1  C3  UNL     1      -0.538   0.021  -0.203  1.00  0.00     0.073 A 
HETATM    2  C4  UNL     1      -0.261   1.361  -0.295  1.00  0.00     0.036 A 
HETATM    3  C5  UNL     1      -1.183   2.303  -0.774  1.00  0.00     0.046 A 
HETATM    4  C6  UNL     1      -2.432   1.899  -1.180  1.00  0.00     0.133 A 
HETATM    5  F1  UNL     1      -3.344   2.784  -1.647  1.00  0.00    -0.205 F 
HETATM    6  C7  UNL     1      -2.689   0.552  -1.080  1.00  0.00     0.159 A 
HETATM    7  N5  UNL     1      -1.790  -0.333  -0.617  1.00  0.00    -0.261 N 
ENDROOT
BRANCH   1   8
HETATM    8  C2  UNL     1       0.373  -0.998   0.283  1.00  0.00     0.138 C 
HETATM    9  N4  UNL     1       1.544  -0.896   0.703  1.00  0.00    -0.308 N 
ATOM     10  H4  UNL     1       1.949  -1.789   0.982  1.00  0.00     0.186 HD
BRANCH   9  11
HETATM   11  N3  UNL     1       2.396   0.154   0.868  1.00  0.00    -0.276 N 
HETATM   12  C1  UNL     1       3.661   0.110   0.691  1.00  0.00     0.215 C 
HETATM   13  N1  UNL     1       4.261  -1.103   0.293  1.00  0.00    -0.065 NA
HETATM   14  N2  UNL     1       4.460   1.255   0.887  1.00  0.00    -0.065 NA
ATOM     15  H3  UNL     1       1.993   1.046   1.155  1.00  0.00     0.189 HD
ENDBRANCH   9  11
ENDBRANCH   1   8
BRANCH   7  16
HETATM   16  N6  UNL     1      -2.109  -1.711  -0.536  1.00  0.00    -0.261 N 
HETATM   17  C8  UNL     1      -2.894  -2.158   0.391  1.00  0.00     0.244 C 
HETATM   18  N7  UNL     1      -3.461  -1.293   1.355  1.00  0.00    -0.055 NA
ATOM     19  H6  UNL     1      -1.715  -2.360  -1.217  1.00  0.00     0.190 HD
BRANCH  17  20
HETATM   20  O1  UNL     1      -3.154  -3.516   0.398  1.00  0.00    -0.334 OA
ATOM     21  H1  UNL     1      -3.730  -3.844   1.078  1.00  0.00     0.220 HD
ENDBRANCH  17  20
ENDBRANCH   7  16
TORSDOF 4
