REMARK  5 active torsions:
REMARK  status: ('A' for Active; 'I' for Inactive)
REMARK       I    between atoms: C2_2  and  N1_4 
REMARK    1  A    between atoms: N1_4  and  C3_6 
REMARK    2  A    between atoms: C3_6  and  C4_7 
REMARK    3  A    between atoms: C4_7  and  S1_8 
REMARK    4  A    between atoms: S1_8  and  C5_9 
REMARK    5  A    between atoms: C13_19  and  C14_20 
ROOT
HETATM    1  C5  UNL     1      -0.334   0.046  -0.059  1.00  0.00     0.056 C 
HETATM    2  C6  UNL     1      -0.251  -1.252  -0.889  1.00  0.00     0.045 C 
HETATM    3  C7  UNL     1      -1.060  -2.266  -0.179  1.00  0.00     0.020 C 
HETATM    4  C8  UNL     1      -1.438  -3.459  -1.031  1.00  0.00     0.037 C 
HETATM    5  C9  UNL     1      -0.146  -2.841   0.925  1.00  0.00     0.037 C 
HETATM    6  N2  UNL     1      -2.127  -1.655   0.481  1.00  0.00    -0.405 N 
ATOM      7  H2  UNL     1      -2.497  -2.021   1.358  1.00  0.00     0.154 HD
HETATM    8  C10 UNL     1      -2.690  -0.451  -0.158  1.00  0.00     0.024 C 
HETATM    9  C11 UNL     1      -3.893  -0.196   0.727  1.00  0.00     0.038 C 
HETATM   10  C12 UNL     1      -3.352  -0.805  -1.487  1.00  0.00     0.038 C 
HETATM   11  C13 UNL     1      -1.699   0.628  -0.315  1.00  0.00     0.034 C 
ENDROOT
BRANCH   1  12
HETATM   12  S1  UNL     1       1.085   0.965  -0.599  1.00  0.00    -0.162 SA
BRANCH  12  13
HETATM   13  C4  UNL     1       2.581   0.136  -0.079  1.00  0.00     0.094 C 
BRANCH  13  14
HETATM   14  C3  UNL     1       3.823   0.919  -0.512  1.00  0.00     0.132 C 
BRANCH  14  15
HETATM   15  N1  UNL     1       5.026   0.240  -0.088  1.00  0.00    -0.361 N 
HETATM   16  C2  UNL     1       6.308   0.768  -0.369  1.00  0.00     0.213 C 
HETATM   17  C1  UNL     1       7.537   0.076   0.063  1.00  0.00     0.117 C 
HETATM   18  O1  UNL     1       6.388   1.849  -1.002  1.00  0.00    -0.274 OA
ATOM     19  H1  UNL     1       4.949  -0.638   0.425  1.00  0.00     0.162 HD
ENDBRANCH  14  15
ENDBRANCH  13  14
ENDBRANCH  12  13
ENDBRANCH   1  12
BRANCH  11  20
HETATM   20  C14 UNL     1      -1.891   1.931   0.365  1.00  0.00    -0.044 C 
HETATM   21  C15 UNL     1      -1.732   1.890   1.852  1.00  0.00     0.015 C 
HETATM   22  C16 UNL     1      -0.906   2.944  -0.177  1.00  0.00     0.015 C 
HETATM   23  C17 UNL     1      -3.254   2.558   0.121  1.00  0.00     0.015 C 
ENDBRANCH  11  20
TORSDOF 5
