REMARK  7 active torsions:
REMARK  status: ('A' for Active; 'I' for Inactive)
REMARK    1  A    between atoms: N1_2  and  C3_4 
REMARK    2  A    between atoms: C4_7  and  N3_8 
REMARK    3  A    between atoms: N3_8  and  C5_10 
REMARK    4  A    between atoms: C5_10  and  C6_11 
REMARK    5  A    between atoms: C6_11  and  C7_12 
REMARK    6  A    between atoms: C7_12  and  C8_13 
REMARK    7  A    between atoms: C8_13  and  N4_14 
ROOT
HETATM    1  C3  UNL     1      -1.638  -0.461   1.134  1.00  0.00     0.126 A 
HETATM    2  N2  UNL     1      -0.451  -0.033   1.582  1.00  0.00    -0.176 N 
ATOM      3  H2  UNL     1      -0.201  -0.215   2.554  1.00  0.00     0.186 HD
HETATM    4  C4  UNL     1       0.443   0.640   0.789  1.00  0.00     0.679 A 
HETATM    5  N5  UNL     1       0.144   0.895  -0.493  1.00  0.00    -0.195 N 
ATOM      6  H5  UNL     1       0.809   1.395  -1.083  1.00  0.00     0.184 HD
HETATM    7  C9  UNL     1      -1.035   0.490  -0.999  1.00  0.00     0.036 A 
HETATM    8  C10 UNL     1      -1.942  -0.197  -0.182  1.00  0.00     0.009 A 
HETATM    9  C11 UNL     1      -3.201  -0.591  -0.817  1.00  0.00     0.044 C 
HETATM   10  C12 UNL     1      -3.810   0.582  -1.578  1.00  0.00     0.005 C 
HETATM   11  C13 UNL     1      -2.809   1.381  -2.342  1.00  0.00     0.006 C 
HETATM   12  C14 UNL     1      -1.442   0.731  -2.411  1.00  0.00     0.058 C 
ENDROOT
BRANCH   4  13
HETATM   13  N3  UNL     1       1.565   1.023   1.285  1.00  0.00    -0.226 N 
ATOM     14  H3  UNL     1       1.737   0.802   2.266  1.00  0.00     0.177 HD
BRANCH  13  15
HETATM   15  C5  UNL     1       2.595   1.731   0.589  1.00  0.00     0.138 C 
BRANCH  15  16
HETATM   16  C6  UNL     1       3.489   0.807  -0.211  1.00  0.00     0.022 C 
BRANCH  16  17
HETATM   17  C7  UNL     1       4.151  -0.186   0.751  1.00  0.00     0.029 C 
BRANCH  17  18
HETATM   18  C8  UNL     1       5.037  -1.090  -0.092  1.00  0.00     0.229 C 
BRANCH  18  19
HETATM   19  N4  UNL     1       6.008  -0.218  -0.740  1.00  0.00    -0.079 N 
ATOM     20  H43 UNL     1       5.581   0.541  -1.271  1.00  0.00     0.274 HD
ATOM     21  H42 UNL     1       6.529   0.365  -0.086  1.00  0.00     0.274 HD
ATOM     22  H41 UNL     1       6.602  -0.824  -1.305  1.00  0.00     0.274 HD
ENDBRANCH  18  19
ENDBRANCH  17  18
ENDBRANCH  16  17
ENDBRANCH  15  16
ENDBRANCH  13  15
ENDBRANCH   4  13
BRANCH   1  23
HETATM   23  N1  UNL     1      -2.544  -1.165   1.963  1.00  0.00    -0.375 N 
HETATM   24  C1  UNL     1      -2.983  -2.512   1.810  1.00  0.00     0.150 C 
HETATM   25  C2  UNL     1      -3.085  -0.411   3.105  1.00  0.00     0.150 C 
ENDBRANCH   1  23
TORSDOF 7
