REMARK  9 active torsions:
REMARK  status: ('A' for Active; 'I' for Inactive)
REMARK    1  A    between atoms: O1_2  and  C2_3 
REMARK    2  A    between atoms: C2_3  and  C3_4 
REMARK    3  A    between atoms: C3_4  and  O2_5 
REMARK    4  A    between atoms: O2_5  and  C4_6 
REMARK    5  A    between atoms: C6_8  and  O3_9 
REMARK    6  A    between atoms: C11_17  and  O5_18 
REMARK    7  A    between atoms: O5_18  and  C12_19 
REMARK    8  A    between atoms: C14_22  and  O7_23 
REMARK    9  A    between atoms: C19_29  and  O9_30 
ROOT
HETATM    1  C4  UNL     1       2.806   0.571   0.139  1.00  0.00     0.105 A 
HETATM    2  C5  UNL     1       3.004  -0.787   0.055  1.00  0.00     0.079 A 
HETATM    3  C6  UNL     1       1.944  -1.674  -0.098  1.00  0.00     0.103 A 
HETATM    4  C7  UNL     1       0.647  -1.207  -0.171  1.00  0.00     0.126 A 
HETATM    5  O4  UNL     1      -0.332  -2.068  -0.316  1.00  0.00    -0.306 OA
HETATM    6  C8  UNL     1      -1.580  -1.675  -0.390  1.00  0.00     0.094 A 
HETATM    7  C9  UNL     1      -2.610  -2.598  -0.546  1.00  0.00     0.060 A 
HETATM    8  C10 UNL     1      -3.907  -2.170  -0.623  1.00  0.00     0.050 A 
HETATM    9 BR1  UNL     1      -5.373  -3.383  -0.838  1.00  0.00    -0.048 Br
HETATM   10  C11 UNL     1      -4.179  -0.821  -0.544  1.00  0.00     0.131 A 
HETATM   11  C14 UNL     1      -3.187   0.148  -0.387  1.00  0.00     0.120 A 
HETATM   12  C16 UNL     1      -1.875  -0.308  -0.312  1.00  0.00     0.085 A 
HETATM   13  C17 UNL     1      -0.881   0.623  -0.161  1.00  0.00     0.203 A 
HETATM   14  O8  UNL     1      -1.033   1.854  -0.083  1.00  0.00    -0.286 OA
HETATM   15  C18 UNL     1       0.436   0.153  -0.087  1.00  0.00     0.088 A 
HETATM   16  C19 UNL     1       1.471   1.014   0.062  1.00  0.00     0.116 A 
ENDROOT
BRANCH   1  17
HETATM   17  O2  UNL     1       3.772   1.517   0.285  1.00  0.00    -0.346 OA
BRANCH  17  18
HETATM   18  C3  UNL     1       5.147   1.453   0.356  1.00  0.00     0.201 C 
BRANCH  18  19
HETATM   19  C2  UNL     1       5.782   0.945  -0.908  1.00  0.00     0.193 C 
BRANCH  19  20
HETATM   20  O1  UNL     1       7.151   0.891  -0.817  1.00  0.00    -0.394 OA
HETATM   21  C1  UNL     1       7.610   0.044   0.159  1.00  0.00     0.201 C 
ENDBRANCH  19  20
ENDBRANCH  18  19
ENDBRANCH  17  18
ENDBRANCH   1  17
BRANCH  16  22
HETATM   22  O9  UNL     1       1.187   2.378   0.140  1.00  0.00    -0.357 OA
ATOM     23  H9  UNL     1       0.287   2.677   0.088  1.00  0.00     0.217 HD
ENDBRANCH  16  22
BRANCH   3  24
HETATM   24  O3  UNL     1       2.264  -3.017  -0.172  1.00  0.00    -0.358 OA
ATOM     25  H3  UNL     1       1.540  -3.623  -0.277  1.00  0.00     0.217 HD
ENDBRANCH   3  24
BRANCH  11  26
HETATM   26  O7  UNL     1      -3.538   1.477  -0.316  1.00  0.00    -0.352 OA
HETATM   27  C15 UNL     1      -3.881   2.189   0.848  1.00  0.00     0.210 C 
ENDBRANCH  11  26
BRANCH  10  28
HETATM   28  O5  UNL     1      -5.491  -0.409  -0.624  1.00  0.00    -0.275 OA
BRANCH  28  29
HETATM   29  C12 UNL     1      -6.260  -0.457   0.553  1.00  0.00     0.260 C 
HETATM   30  C13 UNL     1      -7.693  -0.029   0.560  1.00  0.00     0.126 C 
HETATM   31  O6  UNL     1      -5.725  -0.870   1.624  1.00  0.00    -0.265 OA
ENDBRANCH  28  29
ENDBRANCH  10  28
TORSDOF 9
