REMARK  8 active torsions:
REMARK  status: ('A' for Active; 'I' for Inactive)
REMARK    1  A    between atoms: C2_2  and  C4_4 
REMARK    2  A    between atoms: C4_4  and  N1_5 
REMARK    3  A    between atoms: C4_4  and  C14_25 
REMARK    4  A    between atoms: N1_5  and  C5_7 
REMARK    5  A    between atoms: C5_7  and  C6_8 
REMARK    6  A    between atoms: C5_7  and  C7_11 
REMARK    7  A    between atoms: C6_8  and  O1_9 
REMARK    8  A    between atoms: C14_25  and  C15_27 
ROOT
HETATM    1  C5  UNL     1      -0.105   0.881  -0.119  1.00  0.00     0.150 C 
ENDROOT
BRANCH   1   2
HETATM    2  N1  UNL     1      -0.979  -0.266  -0.190  1.00  0.00    -0.404 N 
ATOM      3  H1  UNL     1      -0.644  -1.174  -0.513  1.00  0.00     0.154 HD
BRANCH   2   4
HETATM    4  C4  UNL     1      -2.351  -0.066   0.218  1.00  0.00     0.123 C 
BRANCH   4   5
HETATM    5  C2  UNL     1      -2.969  -1.433   0.166  1.00  0.00     0.003 C 
HETATM    6  C1  UNL     1      -2.985  -2.118  -1.150  1.00  0.00     0.011 C 
HETATM    7  C3  UNL     1      -4.216  -1.603   0.996  1.00  0.00     0.011 C 
ENDBRANCH   4   5
BRANCH   4   8
HETATM    8  C14 UNL     1      -2.919   1.008  -0.573  1.00  0.00     0.299 C 
HETATM    9  F6  UNL     1      -2.922   0.776  -1.956  1.00  0.00    -0.238 F 
BRANCH   8  10
HETATM   10  C15 UNL     1      -4.273   1.566  -0.240  1.00  0.00     0.419 C 
HETATM   11  F7  UNL     1      -4.347   2.094   1.022  1.00  0.00    -0.168 F 
HETATM   12  F8  UNL     1      -5.335   0.813  -0.629  1.00  0.00    -0.168 F 
HETATM   13  F9  UNL     1      -4.372   2.713  -1.070  1.00  0.00    -0.168 F 
ENDBRANCH   8  10
ENDBRANCH   4   8
ENDBRANCH   2   4
ENDBRANCH   1   2
BRANCH   1  14
HETATM   14  C6  UNL     1      -0.004   1.366   1.298  1.00  0.00     0.192 C 
BRANCH  14  15
HETATM   15  O1  UNL     1       0.777   2.476   1.504  1.00  0.00    -0.399 OA
ATOM     16  H1  UNL     1       0.841   2.783   2.401  1.00  0.00     0.209 HD
ENDBRANCH  14  15
ENDBRANCH   1  14
BRANCH   1  17
HETATM   17  C7  UNL     1       1.226   0.325  -0.598  1.00  0.00     0.207 C 
HETATM   18  F1  UNL     1       0.987  -0.165  -1.908  1.00  0.00    -0.230 F 
HETATM   19  C8  UNL     1       2.354   1.258  -0.698  1.00  0.00     0.087 C 
HETATM   20  C9  UNL     1       3.528   0.293  -0.856  1.00  0.00     0.170 C 
HETATM   21  N2  UNL     1       3.124  -0.895  -0.090  1.00  0.00    -0.332 N 
HETATM   22  C12 UNL     1       4.755   0.718  -0.131  1.00  0.00     0.329 C 
HETATM   23  C10 UNL     1       4.331  -1.671   0.040  1.00  0.00     0.212 C 
HETATM   24  C13 UNL     1       1.738  -0.789   0.200  1.00  0.00     0.263 C 
HETATM   25  C11 UNL     1       5.364  -0.601   0.332  1.00  0.00     0.325 C 
HETATM   26  F2  UNL     1       6.495  -0.920  -0.389  1.00  0.00    -0.198 F 
HETATM   27  F3  UNL     1       5.593  -0.614   1.689  1.00  0.00    -0.198 F 
HETATM   28  O2  UNL     1       1.122  -1.537   0.999  1.00  0.00    -0.270 OA
HETATM   29  F4  UNL     1       4.505   1.567   0.906  1.00  0.00    -0.197 F 
HETATM   30  F5  UNL     1       5.677   1.301  -1.005  1.00  0.00    -0.197 F 
ENDBRANCH   1  17
TORSDOF 8
