REMARK  9 active torsions:
REMARK  status: ('A' for Active; 'I' for Inactive)
REMARK    1  A    between atoms: C2_2  and  C3_4 
REMARK    2  A    between atoms: C2_2  and  C6_12 
REMARK    3  A    between atoms: C3_4  and  C4_6 
REMARK    4  A    between atoms: C4_6  and  C5_8 
REMARK    5  A    between atoms: C6_12  and  C7_15 
REMARK    6  A    between atoms: C7_15  and  N1_16 
REMARK    7  A    between atoms: C7_15  and  O1_20 
REMARK    8  A    between atoms: C7_15  and  C8_22 
REMARK    9  A    between atoms: C8_22  and  C9_24 
REMARK       I    between atoms: C9_24  and  N2_26 
ROOT
HETATM    1  C7  UNL     1      -0.205  -1.081   0.277  1.00  0.00     0.317 C 
ENDROOT
BRANCH   1   2
HETATM    2  C6  UNL     1      -1.558  -0.598   0.621  1.00  0.00     0.342 C 
HETATM    3  F6  UNL     1      -1.455  -0.000   1.872  1.00  0.00    -0.197 F 
HETATM    4  F7  UNL     1      -2.281  -1.825   0.831  1.00  0.00    -0.197 F 
BRANCH   2   5
HETATM    5  C2  UNL     1      -2.380   0.180  -0.290  1.00  0.00     0.207 C 
HETATM    6  C1  UNL     1      -2.403  -0.535  -1.688  1.00  0.00     0.065 C 
HETATM    7  F1  UNL     1      -2.033   1.476  -0.555  1.00  0.00    -0.231 F 
BRANCH   5   8
HETATM    8  C3  UNL     1      -3.849   0.236   0.081  1.00  0.00     0.077 C 
HETATM    9 CL1  UNL     1      -4.634  -1.331   0.239  1.00  0.00    -0.086 Cl
BRANCH   8  10
HETATM   10  C4  UNL     1      -4.302   1.170   1.107  1.00  0.00     0.321 C 
HETATM   11  F2  UNL     1      -3.847   1.078   2.377  1.00  0.00    -0.234 F 
BRANCH  10  12
HETATM   12  C5  UNL     1      -5.839   1.153   1.236  1.00  0.00     0.422 C 
HETATM   13  F3  UNL     1      -6.133   2.098   2.239  1.00  0.00    -0.168 F 
HETATM   14  F4  UNL     1      -6.455   1.569   0.099  1.00  0.00    -0.168 F 
HETATM   15  F5  UNL     1      -6.286  -0.083   1.660  1.00  0.00    -0.168 F 
ENDBRANCH  10  12
ENDBRANCH   8  10
ENDBRANCH   5   8
ENDBRANCH   2   5
ENDBRANCH   1   2
BRANCH   1  16
HETATM   16  N1  UNL     1      -0.187  -1.937  -0.898  1.00  0.00    -0.039 N 
ATOM     17  H13 UNL     1      -0.835  -2.717  -0.789  1.00  0.00     0.278 HD
ATOM     18  H12 UNL     1      -0.620  -1.470  -1.695  1.00  0.00     0.278 HD
ATOM     19  H11 UNL     1       0.747  -2.271  -1.136  1.00  0.00     0.278 HD
ENDBRANCH   1  16
BRANCH   1  20
HETATM   20  O1  UNL     1       0.077  -2.035   1.339  1.00  0.00    -0.359 OA
ATOM     21  H1  UNL     1       0.947  -2.346   1.118  1.00  0.00     0.212 HD
ENDBRANCH   1  20
BRANCH   1  22
HETATM   22  C8  UNL     1       0.946  -0.159   0.287  1.00  0.00     0.243 C 
HETATM   23 CL2  UNL     1       0.872   1.169  -0.872  1.00  0.00    -0.110 Cl
BRANCH  22  24
HETATM   24  C9  UNL     1       2.232  -0.895   0.033  1.00  0.00     0.243 C 
HETATM   25  O2  UNL     1       2.187  -2.140  -0.266  1.00  0.00    -0.272 OA
HETATM   26  N2  UNL     1       3.503  -0.323   0.097  1.00  0.00    -0.342 N 
HETATM   27  C10 UNL     1       4.754  -0.991  -0.166  1.00  0.00     0.169 C 
HETATM   28  C13 UNL     1       3.854   1.020   0.449  1.00  0.00     0.208 C 
HETATM   29  C11 UNL     1       5.435   0.017  -1.095  1.00  0.00     0.261 C 
HETATM   30  F8  UNL     1       6.796  -0.191  -1.147  1.00  0.00    -0.241 F 
HETATM   31  C12 UNL     1       5.054   1.321  -0.466  1.00  0.00     0.291 C 
HETATM   32  F9  UNL     1       6.116   1.749   0.340  1.00  0.00    -0.201 F 
HETATM   33  F10 UNL     1       4.742   2.228  -1.432  1.00  0.00    -0.201 F 
ENDBRANCH  22  24
ENDBRANCH   1  22
TORSDOF 9
