REMARK  8 active torsions:
REMARK  status: ('A' for Active; 'I' for Inactive)
REMARK    1  A    between atoms: C3_3  and  N1_4 
REMARK    2  A    between atoms: N1_4  and  C4_5 
REMARK    3  A    between atoms: N1_4  and  C7_12 
REMARK    4  A    between atoms: C4_5  and  C5_6 
REMARK    5  A    between atoms: C5_6  and  C6_7 
REMARK    6  A    between atoms: C6_7  and  N2_8 
REMARK    7  A    between atoms: C7_12  and  C8_13 
REMARK    8  A    between atoms: C8_13  and  C9_14 
ROOT
HETATM    1  C1  UNL     1       4.957  -3.007  -1.321  1.00  0.00     0.013 C 
HETATM    2  C2  UNL     1       4.167  -2.407  -0.634  1.00  0.00    -0.087 C 
HETATM    3  C3  UNL     1       3.209  -1.650   0.210  1.00  0.00     0.364 C 
ENDROOT
BRANCH   3   4
HETATM    4  N1  UNL     1       2.621  -0.627  -0.591  1.00  0.00     0.099 N 
BRANCH   4   5
HETATM    5  C4  UNL     1       3.595   0.375  -0.946  1.00  0.00     0.275 C 
BRANCH   5   6
HETATM    6  C5  UNL     1       4.056   1.187   0.234  1.00  0.00     0.057 C 
BRANCH   6   7
HETATM    7  C6  UNL     1       5.078   2.202  -0.272  1.00  0.00     0.231 C 
BRANCH   7   8
HETATM    8  N2  UNL     1       6.219   1.529  -0.877  1.00  0.00    -0.079 N 
ATOM      9  H23 UNL     1       6.641   0.854  -0.239  1.00  0.00     0.274 HD
ATOM     10  H22 UNL     1       5.930   0.885  -1.613  1.00  0.00     0.274 HD
ATOM     11  H21 UNL     1       6.902   2.207  -1.215  1.00  0.00     0.274 HD
ENDBRANCH   7   8
ENDBRANCH   6   7
ENDBRANCH   5   6
ENDBRANCH   4   5
BRANCH   4  12
HETATM   12  C7  UNL     1       1.378  -0.111  -0.124  1.00  0.00     0.275 C 
BRANCH  12  13
HETATM   13  C8  UNL     1       0.305  -1.141  -0.235  1.00  0.00     0.063 C 
BRANCH  13  14
HETATM   14  C9  UNL     1      -1.041  -0.680   0.239  1.00  0.00     0.188 C 
HETATM   15  C10 UNL     1      -1.071  -0.263   1.675  1.00  0.00     0.033 C 
HETATM   16  C11 UNL     1      -2.441   0.295   1.990  1.00  0.00     0.009 C 
HETATM   17  C12 UNL     1      -3.475  -0.122   0.966  1.00  0.00     0.016 C 
HETATM   18  C13 UNL     1      -4.774   0.591   1.274  1.00  0.00     0.007 C 
HETATM   19  C17 UNL     1      -3.065   0.256  -0.436  1.00  0.00     0.190 C 
HETATM   20  C14 UNL     1      -5.714   0.413   0.090  1.00  0.00     0.001 C 
HETATM   21  C15 UNL     1      -5.230   1.133  -1.138  1.00  0.00     0.002 C 
HETATM   22  C16 UNL     1      -3.768   1.518  -0.888  1.00  0.00     0.033 C 
HETATM   23  N3  UNL     1      -1.623   0.364  -0.562  1.00  0.00    -0.066 N 
ATOM     24  H32 UNL     1      -1.271   1.291  -0.324  1.00  0.00     0.278 HD
ATOM     25  H31 UNL     1      -1.306   0.346  -1.531  1.00  0.00     0.278 HD
ENDBRANCH  13  14
ENDBRANCH  12  13
ENDBRANCH   4  12
ENDBRANCH   3   4
TORSDOF 8
