REMARK  13 active torsions:
REMARK  status: ('A' for Active; 'I' for Inactive)
REMARK    1  A    between atoms: C2_2  and  C3_3 
REMARK    2  A    between atoms: C3_3  and  C4_4 
REMARK    3  A    between atoms: C4_4  and  N1_5 
REMARK    4  A    between atoms: N1_5  and  C5_7 
REMARK    5  A    between atoms: C8_12  and  C9_13 
REMARK    6  A    between atoms: C9_13  and  C10_14 
REMARK    7  A    between atoms: C10_14  and  N3_15 
REMARK    8  A    between atoms: C12_19  and  C13_20 
REMARK    9  A    between atoms: C13_20  and  N4_21 
REMARK   10  A    between atoms: C21_32  and  N6_33 
REMARK   11  A    between atoms: N6_33  and  C22_35 
REMARK   12  A    between atoms: C22_35  and  C23_36 
REMARK   13  A    between atoms: C23_36  and  N7_37 
ROOT
HETATM    1  C5  UNL     1       1.503   1.630   1.208  1.00  0.00     0.146 A 
HETATM    2  N2  UNL     1       0.217   1.929   1.420  1.00  0.00    -0.338 N 
ATOM      3  H2  UNL     1      -0.017   2.762   1.960  1.00  0.00     0.167 HD
HETATM    4  C6  UNL     1      -0.784   1.153   0.936  1.00  0.00     0.061 A 
HETATM    5  C7  UNL     1      -2.094   1.490   1.148  1.00  0.00     0.040 A 
HETATM    6  C8  UNL     1      -3.128   0.746   0.658  1.00  0.00    -0.043 A 
HETATM    7  C12 UNL     1      -2.903  -0.426  -0.104  1.00  0.00    -0.011 A 
HETATM    8  C18 UNL     1      -1.593  -0.776  -0.314  1.00  0.00    -0.021 A 
HETATM    9  C19 UNL     1      -1.107  -2.008  -0.934  1.00  0.00     0.052 C 
HETATM   10  C20 UNL     1      -0.544   0.018   0.203  1.00  0.00     0.067 A 
HETATM   11  N5  UNL     1       0.753  -0.278  -0.008  1.00  0.00    -0.337 N 
ATOM     12  H5  UNL     1       0.985  -1.112  -0.548  1.00  0.00     0.167 HD
HETATM   13  C21 UNL     1       1.770   0.497   0.474  1.00  0.00     0.146 A 
ENDROOT
BRANCH  13  14
HETATM   14  N6  UNL     1       3.004   0.203   0.263  1.00  0.00    -0.371 N 
ATOM     15  H6  UNL     1       3.705   0.831   0.655  1.00  0.00     0.161 HD
BRANCH  14  16
HETATM   16  C22 UNL     1       3.484  -0.937  -0.479  1.00  0.00     0.151 C 
BRANCH  16  17
HETATM   17  C23 UNL     1       4.903  -0.647  -0.923  1.00  0.00     0.292 C 
BRANCH  17  18
HETATM   18  N7  UNL     1       5.461  -1.754  -1.677  1.00  0.00     0.094 N 
HETATM   19  C24 UNL     1       6.808  -1.385  -2.079  1.00  0.00     0.298 C 
HETATM   20  C25 UNL     1       7.456  -2.496  -2.889  1.00  0.00     0.198 C 
HETATM   21  O1  UNL     1       6.684  -3.657  -2.879  1.00  0.00    -0.388 OA
HETATM   22  C26 UNL     1       6.377  -4.021  -1.580  1.00  0.00     0.198 C 
HETATM   23  C27 UNL     1       5.595  -2.942  -0.850  1.00  0.00     0.298 C 
ENDBRANCH  17  18
ENDBRANCH  16  17
ENDBRANCH  14  16
ENDBRANCH  13  14
BRANCH   1  24
HETATM   24  N1  UNL     1       2.454   2.379   1.679  1.00  0.00    -0.373 N 
ATOM     25  H1  UNL     1       3.433   2.147   1.514  1.00  0.00     0.161 HD
BRANCH  24  26
HETATM   26  C4  UNL     1       2.090   3.544   2.440  1.00  0.00     0.121 C 
BRANCH  26  27
HETATM   27  C3  UNL     1       3.293   4.405   2.772  1.00  0.00     0.019 C 
BRANCH  27  28
HETATM   28  C2  UNL     1       2.791   5.592   3.569  1.00  0.00    -0.003 C 
HETATM   29  C1  UNL     1       3.956   6.500   3.936  1.00  0.00     0.005 C 
ENDBRANCH  27  28
ENDBRANCH  26  27
ENDBRANCH  24  26
ENDBRANCH   1  24
BRANCH   7  30
HETATM   30  C13 UNL     1      -4.060  -1.114  -0.609  1.00  0.00     0.072 C 
BRANCH  30  31
HETATM   31  N4  UNL     1      -3.911  -2.212  -1.535  1.00  0.00    -0.290 NA
HETATM   32  C14 UNL     1      -5.172  -2.965  -1.587  1.00  0.00     0.105 C 
HETATM   33  C15 UNL     1      -5.125  -4.097  -2.584  1.00  0.00     0.088 C 
HETATM   34  S1  UNL     1      -5.429  -3.215  -4.185  1.00  0.00    -0.167 SA
HETATM   35  C16 UNL     1      -4.900  -1.506  -3.722  1.00  0.00     0.088 C 
HETATM   36  C17 UNL     1      -3.688  -1.682  -2.890  1.00  0.00     0.105 C 
ENDBRANCH  30  31
ENDBRANCH   7  30
BRANCH   6  37
HETATM   37  C9  UNL     1      -4.490   1.179   1.008  1.00  0.00     0.067 C 
BRANCH  37  38
HETATM   38  C10 UNL     1      -5.017   0.534   2.246  1.00  0.00     0.236 C 
BRANCH  38  39
HETATM   39  N3  UNL     1      -6.371   1.028   2.477  1.00  0.00    -0.079 N 
HETATM   40  C11 UNL     1      -7.284   0.548   1.457  1.00  0.00     0.267 C 
ATOM     41  H32 UNL     1      -6.700   0.797   3.414  1.00  0.00     0.276 HD
ATOM     42  H31 UNL     1      -6.392   2.045   2.551  1.00  0.00     0.276 HD
ENDBRANCH  38  39
ENDBRANCH  37  38
ENDBRANCH   6  37
TORSDOF 13
