REMARK  12 active torsions:
REMARK  status: ('A' for Active; 'I' for Inactive)
REMARK    1  A    between atoms: C3_3  and  C4_4 
REMARK    2  A    between atoms: C4_4  and  C5_5 
REMARK    3  A    between atoms: C5_5  and  C6_6 
REMARK    4  A    between atoms: C6_6  and  C7_7 
REMARK    5  A    between atoms: C7_7  and  C8_8 
REMARK    6  A    between atoms: C7_7  and  N1_17 
REMARK    7  A    between atoms: C8_8  and  C9_9 
REMARK    8  A    between atoms: C9_9  and  O1_10 
REMARK    9  A    between atoms: O1_10  and  C10_11 
REMARK   10  A    between atoms: C10_11  and  C11_12 
REMARK   11  A    between atoms: N1_17  and  C14_19 
REMARK   12  A    between atoms: N5_33  and  O4_35 
ROOT
HETATM    1  C1  UNL     1      -4.866  -5.496   0.644  1.00  0.00     0.012 C 
HETATM    2  C2  UNL     1      -4.891  -4.952  -0.419  1.00  0.00    -0.117 C 
HETATM    3  C3  UNL     1      -4.884  -4.288  -1.719  1.00  0.00     0.093 C 
ENDROOT
BRANCH   3   4
HETATM    4  C4  UNL     1      -3.466  -3.925  -2.076  1.00  0.00     0.012 C 
BRANCH   4   5
HETATM    5  C5  UNL     1      -2.852  -3.007  -1.059  1.00  0.00     0.003 C 
BRANCH   5   6
HETATM    6  C6  UNL     1      -3.646  -1.744  -0.973  1.00  0.00     0.025 C 
BRANCH   6   7
HETATM    7  C7  UNL     1      -3.042  -0.775   0.061  1.00  0.00     0.085 C 
BRANCH   7   8
HETATM    8  C8  UNL     1      -3.990   0.467   0.010  1.00  0.00     0.051 C 
BRANCH   8   9
HETATM    9  C9  UNL     1      -3.457   1.433   0.987  1.00  0.00     0.171 C 
BRANCH   9  10
HETATM   10  O1  UNL     1      -3.999   2.609   1.250  1.00  0.00    -0.369 OA
BRANCH  10  11
HETATM   11  C10 UNL     1      -4.196   3.614   0.375  1.00  0.00     0.148 A 
HETATM   12  C12 UNL     1      -4.092   5.052   0.884  1.00  0.00     0.053 A 
HETATM   13  C13 UNL     1      -3.036   4.495  -0.027  1.00  0.00     0.053 A 
BRANCH  11  14
HETATM   14  C11 UNL     1      -5.257   3.485  -0.651  1.00  0.00     0.209 C 
HETATM   15  O2  UNL     1      -5.334   4.398  -1.559  1.00  0.00    -0.646 OA
HETATM   16  O3  UNL     1      -6.179   2.482  -0.725  1.00  0.00    -0.646 OA
ENDBRANCH  11  14
ENDBRANCH  10  11
ENDBRANCH   9  10
ENDBRANCH   8   9
ENDBRANCH   7   8
BRANCH   7  17
HETATM   17  N1  UNL     1      -1.749  -0.319  -0.287  1.00  0.00    -0.370 N 
ATOM     18  H1  UNL     1      -1.688   0.236  -1.141  1.00  0.00     0.161 HD
BRANCH  17  19
HETATM   19  C14 UNL     1      -0.642  -0.514   0.335  1.00  0.00     0.123 A 
HETATM   20  N2  UNL     1      -0.502  -1.211   1.467  1.00  0.00    -0.351 N 
HETATM   21  C15 UNL     1       0.706  -1.347   2.028  1.00  0.00     0.100 A 
ATOM     22  H2  UNL     1      -1.317  -1.640   1.904  1.00  0.00     0.166 HD
HETATM   23  C16 UNL     1       1.875  -0.798   1.503  1.00  0.00    -0.006 A 
HETATM   24  C17 UNL     1       1.755  -0.086   0.353  1.00  0.00     0.013 A 
HETATM   25  C27 UNL     1       3.116  -1.052   2.269  1.00  0.00     0.209 C 
HETATM   26  C18 UNL     1       0.500   0.045  -0.212  1.00  0.00     0.100 A 
HETATM   27  C20 UNL     1       2.919   0.573  -0.359  1.00  0.00     0.101 C 
HETATM   28  C19 UNL     1       0.386   0.814  -1.444  1.00  0.00     0.104 C 
HETATM   29  N3  UNL     1       0.280   1.437  -2.417  1.00  0.00    -0.191 NA
HETATM   30  N4  UNL     1       3.555  -0.292  -1.267  1.00  0.00    -0.372 N 
HETATM   31  C21 UNL     1       4.943  -0.458  -1.286  1.00  0.00     0.119 C 
ATOM     32  H4  UNL     1       2.986  -0.815  -1.933  1.00  0.00     0.164 HD
HETATM   33  C22 UNL     1       5.773   0.501  -0.533  1.00  0.00     0.069 C 
HETATM   34  N5  UNL     1       5.636   1.747  -0.887  1.00  0.00    -0.266 N 
HETATM   35  C24 UNL     1       6.721   0.184   0.515  1.00  0.00     0.031 C 
ATOM     36  H5  UNL     1       4.975   1.929  -1.642  1.00  0.00     0.194 HD
HETATM   37  C25 UNL     1       6.590  -0.497   1.600  1.00  0.00     0.002 C 
HETATM   38  C26 UNL     1       5.432  -1.203   2.179  1.00  0.00     0.195 C 
HETATM   39  O5  UNL     1       4.274  -0.760   1.618  1.00  0.00    -0.383 OA
BRANCH  34  40
HETATM   40  O4  UNL     1       6.261   2.819  -0.377  1.00  0.00    -0.285 OA
HETATM   41  C23 UNL     1       7.492   3.359  -0.841  1.00  0.00     0.237 C 
ENDBRANCH  34  40
ENDBRANCH  17  19
ENDBRANCH   7  17
ENDBRANCH   6   7
ENDBRANCH   5   6
ENDBRANCH   4   5
ENDBRANCH   3   4
TORSDOF 12
