REMARK  1 active torsions:
REMARK  status: ('A' for Active; 'I' for Inactive)
REMARK    1  A    between atoms: C3_4  and  O1_5 
ROOT
HETATM    1  C1  UNL     1       2.409  -1.684  -0.126  1.00  0.00     0.023 C 
HETATM    2  C2  UNL     1       1.880  -0.553   0.745  1.00  0.00     0.084 C 
HETATM    3  S1  UNL     1       0.484  -1.053   1.745  1.00  0.00    -0.131 SA
HETATM    4  C3  UNL     1      -0.781  -1.957   0.895  1.00  0.00     0.182 C 
HETATM    5  C4  UNL     1      -1.818  -0.989   0.391  1.00  0.00     0.082 C 
HETATM    6  C5  UNL     1      -1.236   0.254  -0.195  1.00  0.00     0.090 C 
HETATM    7  C6  UNL     1      -2.361   1.073  -0.798  1.00  0.00     0.048 C 
HETATM    8  C7  UNL     1      -0.197  -0.135  -1.226  1.00  0.00     0.315 C 
HETATM    9  N1  UNL     1       0.858   0.762  -1.086  1.00  0.00     0.139 N 
HETATM   10  C8  UNL     1       1.735   0.700  -0.011  1.00  0.00     0.305 A 
HETATM   11  C9  UNL     1       0.582   1.514   0.111  1.00  0.00     0.291 A 
HETATM   12  C10 UNL     1       0.713   3.021  -0.088  1.00  0.00     0.084 C 
HETATM   13  O2  UNL     1      -0.556   1.054   0.680  1.00  0.00    -0.338 OA
ENDROOT
BRANCH   4  14
HETATM   14  O1  UNL     1      -1.451  -2.769   1.844  1.00  0.00    -0.385 OA
ATOM     15  H1  UNL     1      -2.129  -3.254   1.388  1.00  0.00     0.211 HD
ENDBRANCH   4  14
TORSDOF 1
