REMARK  1 active torsions:
REMARK  status: ('A' for Active; 'I' for Inactive)
REMARK    1  A    between atoms: C2_3  and  N2_4 
ROOT
HETATM    1  N1  UNL     1       3.223   2.017   0.489  1.00  0.00    -0.195 NA
HETATM    2  C1  UNL     1       2.798   0.965   0.171  1.00  0.00     0.089 C 
HETATM    3  C2  UNL     1       2.244  -0.363  -0.204  1.00  0.00     0.395 C 
ENDROOT
BRANCH   3   4
HETATM    4  N2  UNL     1       0.823  -0.256   0.024  1.00  0.00     0.102 N 
HETATM    5  C3  UNL     1       0.141  -1.547   0.011  1.00  0.00     0.275 C 
HETATM    6  C4  UNL     1      -1.006  -1.303   1.008  1.00  0.00     0.049 C 
HETATM    7  C5  UNL     1      -1.949  -0.272   0.427  1.00  0.00     0.115 C 
HETATM    8  N3  UNL     1      -1.548   1.088   0.671  1.00  0.00    -0.419 N 
HETATM    9  C6  UNL     1      -0.591   1.616  -0.272  1.00  0.00     0.144 C 
ATOM     10  H3  UNL     1      -1.912   1.637   1.450  1.00  0.00     0.153 HD
HETATM   11  C7  UNL     1       0.180   0.568  -0.990  1.00  0.00     0.292 C 
ENDBRANCH   3   4
TORSDOF 1
