REMARK  2 active torsions:
REMARK  status: ('A' for Active; 'I' for Inactive)
REMARK    1  A    between atoms: N1_2  and  C2_5 
REMARK    2  A    between atoms: C7_11  and  O2_12 
ROOT
HETATM    1  C2  UNL     1       0.700  -0.591  -0.165  1.00  0.00     0.245 C 
HETATM    2  C3  UNL     1      -0.237  -0.152  -1.267  1.00  0.00     0.155 C 
HETATM    3  C4  UNL     1      -1.084   1.035  -0.841  1.00  0.00     0.037 C 
HETATM    4  C5  UNL     1      -1.815   0.411   0.358  1.00  0.00     0.037 C 
HETATM    5  C6  UNL     1      -1.565  -1.051   0.126  1.00  0.00     0.153 C 
HETATM    6  O1  UNL     1      -1.247  -1.153  -1.251  1.00  0.00    -0.376 OA
HETATM    7  C7  UNL     1      -0.224  -1.410   0.711  1.00  0.00     0.180 C 
ENDROOT
BRANCH   1   8
HETATM    8  N1  UNL     1       1.285   0.520   0.531  1.00  0.00    -0.070 N 
HETATM    9  C1  UNL     1       2.123   1.352  -0.285  1.00  0.00     0.267 C 
ATOM     10  H12 UNL     1       1.795   0.197   1.353  1.00  0.00     0.277 HD
ATOM     11  H11 UNL     1       0.561   1.078   0.984  1.00  0.00     0.277 HD
ENDBRANCH   1   8
BRANCH   7  12
HETATM   12  O2  UNL     1      -0.094  -1.138   2.056  1.00  0.00    -0.391 OA
ATOM     13  H2  UNL     1      -0.674  -1.652   2.606  1.00  0.00     0.210 HD
ENDBRANCH   7  12
TORSDOF 2
