REMARK  2 active torsions:
REMARK  status: ('A' for Active; 'I' for Inactive)
REMARK    1  A    between atoms: C2_2  and  N1_3 
REMARK    2  A    between atoms: C5_6  and  O1_7 
ROOT
HETATM    1  N1  UNL     1      -0.662   0.151   0.392  1.00  0.00    -0.390 N 
HETATM    2  C3  UNL     1      -0.206  -0.538  -0.758  1.00  0.00     0.121 C 
HETATM    3  C4  UNL     1       1.275  -0.393  -1.001  1.00  0.00     0.053 C 
HETATM    4  C5  UNL     1       2.101  -0.599   0.247  1.00  0.00     0.146 C 
HETATM    5  C6  UNL     1       2.536   0.686   0.873  1.00  0.00     0.241 C 
HETATM    6  O2  UNL     1       1.445   1.356   1.445  1.00  0.00    -0.237 OA
HETATM    7  O3  UNL     1       0.825   1.967   0.450  1.00  0.00    -0.221 OA
HETATM    8  C7  UNL     1      -0.529   1.559   0.415  1.00  0.00     0.330 C 
ENDROOT
BRANCH   1   9
HETATM    9  C2  UNL     1      -1.803  -0.410   1.044  1.00  0.00     0.114 C 
HETATM   10  C1  UNL     1      -3.076  -0.301   0.237  1.00  0.00     0.026 C 
ENDBRANCH   1   9
BRANCH   4  11
HETATM   11  O1  UNL     1       1.269  -1.284   1.156  1.00  0.00    -0.393 OA
ATOM     12  H1  UNL     1       1.788  -1.414   1.941  1.00  0.00     0.210 HD
ENDBRANCH   4  11
TORSDOF 2
