REMARK  1 active torsions:
REMARK  status: ('A' for Active; 'I' for Inactive)
REMARK    1  A    between atoms: C2_2  and  N1_4 
ROOT
HETATM    1  N1  UNL     1      -0.610  -0.301   0.069  1.00  0.00    -0.388 N 
HETATM    2  C4  UNL     1       0.040   0.488  -0.902  1.00  0.00     0.058 C 
HETATM    3  C5  UNL     1       0.902   1.592  -0.309  1.00  0.00     0.046 C 
HETATM    4  C6  UNL     1       2.376   1.325  -0.527  1.00  0.00     0.032 C 
HETATM    5  C7  UNL     1       2.699  -0.050  -0.001  1.00  0.00     0.232 C 
HETATM    6  N2  UNL     1       1.816  -0.259   1.153  1.00  0.00    -0.074 N 
ATOM      7  H21 UNL     1       1.110   0.473   1.231  1.00  0.00     0.277 HD
ATOM      8  H22 UNL     1       2.298  -0.097   2.037  1.00  0.00     0.277 HD
HETATM    9  C8  UNL     1       1.224  -1.577   1.093  1.00  0.00     0.252 C 
HETATM   10  C9  UNL     1      -0.075  -1.591   0.338  1.00  0.00     0.149 C 
ENDROOT
BRANCH   1  11
HETATM   11  C2  UNL     1      -2.010  -0.228   0.173  1.00  0.00     0.075 C 
HETATM   12  C1  UNL     1      -2.789  -0.666  -1.035  1.00  0.00     0.032 C 
HETATM   13  C3  UNL     1      -2.441   1.151   0.637  1.00  0.00     0.032 C 
ENDBRANCH   1  11
TORSDOF 1
