REMARK  4 active torsions:
REMARK  status: ('A' for Active; 'I' for Inactive)
REMARK    1  A    between atoms: C4_9  and  C5_10 
REMARK    2  A    between atoms: C5_10  and  N4_11 
REMARK    3  A    between atoms: N4_11  and  O1_13 
REMARK    4  A    between atoms: C7_20  and  N7_21 
ROOT
HETATM    1  N1  UNL     1       2.530   1.621  -1.066  1.00  0.00    -0.080 NA
HETATM    2  C1  UNL     1       2.006   0.480  -0.383  1.00  0.00     0.145 A 
HETATM    3  N2  UNL     1       0.688   0.276  -0.228  1.00  0.00    -0.337 N 
ATOM      4  H2  UNL     1       0.034   0.958  -0.611  1.00  0.00     0.167 HD
HETATM    5  C2  UNL     1       0.204  -0.802   0.417  1.00  0.00     0.122 A 
HETATM    6  C3  UNL     1       1.045  -1.751   0.950  1.00  0.00     0.134 A 
HETATM    7  N3  UNL     1       2.370  -1.535   0.787  1.00  0.00    -0.337 N 
ATOM      8  H3  UNL     1       3.022  -2.219   1.169  1.00  0.00     0.167 HD
HETATM    9  C4  UNL     1       2.871  -0.465   0.147  1.00  0.00     0.092 A 
HETATM   10  N5  UNL     1       0.560  -2.752   1.549  1.00  0.00    -0.358 N 
ATOM     11  H5  UNL     1       1.236  -3.419   1.920  1.00  0.00     0.162 HD
HETATM   12  C6  UNL     1      -0.824  -3.070   1.774  1.00  0.00     0.246 A 
HETATM   13  N6  UNL     1      -1.695  -2.072   1.213  1.00  0.00    -0.358 N 
ATOM     14  H6  UNL     1      -2.708  -2.164   1.294  1.00  0.00     0.162 HD
HETATM   15  C7  UNL     1      -1.125  -0.958   0.545  1.00  0.00     0.131 A 
ENDROOT
BRANCH   9  16
HETATM   16  C5  UNL     1       4.307  -0.293   0.007  1.00  0.00     0.146 C 
BRANCH  16  17
HETATM   17  N4  UNL     1       4.748   0.747  -0.614  1.00  0.00    -0.278 N 
ATOM     18  H4  UNL     1       4.096   1.432  -0.997  1.00  0.00     0.193 HD
BRANCH  17  19
HETATM   19  O1  UNL     1       6.099   0.925  -0.755  1.00  0.00    -0.290 OA
ATOM     20  H1  UNL     1       6.424   1.691  -1.213  1.00  0.00     0.244 HD
ENDBRANCH  17  19
ENDBRANCH  16  17
ENDBRANCH   9  16
BRANCH  15  21
HETATM   21  N7  UNL     1      -1.933   0.058  -0.028  1.00  0.00    -0.366 N 
HETATM   22  C8  UNL     1      -2.110   1.375   0.536  1.00  0.00     0.124 C 
HETATM   23  C9  UNL     1      -2.771   2.194  -0.576  1.00  0.00     0.021 C 
HETATM   24  C10 UNL     1      -3.610   1.155  -1.280  1.00  0.00     0.021 C 
HETATM   25  C11 UNL     1      -2.689  -0.064  -1.240  1.00  0.00     0.124 C 
ENDBRANCH  15  21
TORSDOF 4
