REMARK  10 active torsions:
REMARK  status: ('A' for Active; 'I' for Inactive)
REMARK    1  A    between atoms: C2_2  and  C3_3 
REMARK    2  A    between atoms: C2_2  and  C12_21 
REMARK    3  A    between atoms: C3_3  and  O2_5 
REMARK    4  A    between atoms: O2_5  and  C4_6 
REMARK    5  A    between atoms: C4_6  and  C5_7 
REMARK       I    between atoms: C5_7  and  N1_9 
REMARK    6  A    between atoms: N1_9  and  C6_11 
REMARK    7  A    between atoms: C11_17  and  N2_18 
REMARK    8  A    between atoms: C12_21  and  O6_22 
REMARK    9  A    between atoms: C12_21  and  N3_24 
REMARK   10  A    between atoms: N3_24  and  C14_26 
ROOT
HETATM    1  O2  UNL     1      -0.355  -1.417  -0.168  1.00  0.00    -0.308 OA
ENDROOT
BRANCH   1   2
HETATM    2  C3  UNL     1       0.002  -0.080  -0.369  1.00  0.00     0.293 C 
HETATM    3  O1  UNL     1      -0.442   0.397  -1.484  1.00  0.00    -0.259 OA
BRANCH   2   4
HETATM    4  C2  UNL     1       0.780   0.718   0.551  1.00  0.00     0.064 C 
HETATM    5  C1  UNL     1       0.117   0.877   1.926  1.00  0.00     0.059 C 
BRANCH   4   6
HETATM    6  C12 UNL     1       2.213   0.520   0.690  1.00  0.00     0.154 C 
BRANCH   6   7
HETATM    7  O6  UNL     1       2.755   1.155   1.719  1.00  0.00    -0.345 OA
ATOM      8  H6  UNL     1       3.692   1.026   1.810  1.00  0.00     0.219 HD
ENDBRANCH   6   7
BRANCH   6   9
HETATM    9  N3  UNL     1       3.148  -0.201  -0.043  1.00  0.00    -0.332 N 
HETATM   10  C13 UNL     1       2.789  -1.108  -1.090  1.00  0.00     0.158 C 
BRANCH   9  11
HETATM   11  C14 UNL     1       4.554  -0.077   0.262  1.00  0.00     0.035 A 
HETATM   12  C15 UNL     1       5.081  -0.241   1.505  1.00  0.00     0.029 A 
HETATM   13  C16 UNL     1       6.420  -0.106   1.747  1.00  0.00     0.002 A 
HETATM   14  C17 UNL     1       7.276   0.204   0.718  1.00  0.00     0.000 A 
HETATM   15  C18 UNL     1       6.774   0.375  -0.545  1.00  0.00     0.002 A 
HETATM   16  C19 UNL     1       5.415   0.236  -0.782  1.00  0.00     0.029 A 
ENDBRANCH   9  11
ENDBRANCH   6   9
ENDBRANCH   4   6
ENDBRANCH   2   4
ENDBRANCH   1   2
BRANCH   1  17
HETATM   17  C4  UNL     1      -1.121  -2.135  -1.092  1.00  0.00     0.282 C 
BRANCH  17  18
HETATM   18  C5  UNL     1      -2.524  -1.612  -1.261  1.00  0.00     0.246 C 
HETATM   19  O3  UNL     1      -3.151  -2.114  -2.222  1.00  0.00    -0.271 OA
HETATM   20  N1  UNL     1      -3.088  -0.655  -0.426  1.00  0.00    -0.323 N 
ATOM     21  H1  UNL     1      -2.512  -0.313   0.343  1.00  0.00     0.169 HD
BRANCH  20  22
HETATM   22  C6  UNL     1      -4.385  -0.113  -0.546  1.00  0.00     0.068 A 
HETATM   23  C7  UNL     1      -5.081  -0.161  -1.729  1.00  0.00     0.033 A 
HETATM   24  C8  UNL     1      -6.322   0.474  -1.845  1.00  0.00     0.021 A 
HETATM   25  C9  UNL     1      -6.893   1.160  -0.815  1.00  0.00     0.013 A 
HETATM   26 BR1  UNL     1      -8.594   2.005  -1.062  1.00  0.00    -0.051 Br
HETATM   27  C10 UNL     1      -6.219   1.220   0.369  1.00  0.00     0.057 A 
HETATM   28  C11 UNL     1      -4.974   0.589   0.507  1.00  0.00     0.130 A 
BRANCH  28  29
HETATM   29  N2  UNL     1      -4.369   0.707   1.783  1.00  0.00    -0.113 N 
HETATM   30  O4  UNL     1      -4.604   1.757   2.467  1.00  0.00    -0.532 OA
HETATM   31  O5  UNL     1      -3.555  -0.231   2.314  1.00  0.00    -0.532 OA
ENDBRANCH  28  29
ENDBRANCH  20  22
ENDBRANCH  17  18
ENDBRANCH   1  17
TORSDOF 10
