REMARK  11 active torsions:
REMARK  status: ('A' for Active; 'I' for Inactive)
REMARK    1  A    between atoms: C2_2  and  O2_4 
REMARK    2  A    between atoms: O2_4  and  C3_5 
REMARK    3  A    between atoms: C3_5  and  C4_7 
REMARK    4  A    between atoms: C4_7  and  C5_8 
REMARK    5  A    between atoms: C5_8  and  C6_9 
REMARK    6  A    between atoms: C6_9  and  C7_10 
REMARK    7  A    between atoms: C7_10  and  C8_11 
REMARK    8  A    between atoms: C8_11  and  C9_12 
REMARK    9  A    between atoms: C9_12  and  C10_13 
REMARK   10  A    between atoms: C10_13  and  O4_14 
REMARK   11  A    between atoms: C10_13  and  C11_16 
ROOT
HETATM    1  C9  UNL     1      -1.278  -1.201   1.158  1.00  0.00     0.032 C 
ENDROOT
BRANCH   1   2
HETATM    2  C8  UNL     1      -0.197  -2.210   1.078  1.00  0.00     0.002 C 
BRANCH   2   3
HETATM    3  C7  UNL     1       1.065  -1.813   0.384  1.00  0.00     0.000 C 
BRANCH   3   4
HETATM    4  C6  UNL     1       1.654  -0.622   1.111  1.00  0.00     0.000 C 
BRANCH   4   5
HETATM    5  C5  UNL     1       2.924  -0.204   0.430  1.00  0.00     0.010 C 
BRANCH   5   6
HETATM    6  C4  UNL     1       4.005  -1.244   0.424  1.00  0.00     0.111 C 
BRANCH   6   7
HETATM    7  C3  UNL     1       5.167  -0.624  -0.306  1.00  0.00     0.266 C 
HETATM    8  O3  UNL     1       5.538  -1.062  -1.415  1.00  0.00    -0.265 OA
BRANCH   7   9
HETATM    9  O2  UNL     1       5.854   0.460   0.242  1.00  0.00    -0.245 OA
BRANCH   9  10
HETATM   10  C2  UNL     1       6.937   1.042  -0.446  1.00  0.00     0.262 C 
HETATM   11  C1  UNL     1       7.630   2.198   0.175  1.00  0.00     0.126 C 
HETATM   12  O1  UNL     1       7.252   0.547  -1.544  1.00  0.00    -0.265 OA
ENDBRANCH   9  10
ENDBRANCH   7   9
ENDBRANCH   6   7
ENDBRANCH   5   6
ENDBRANCH   4   5
ENDBRANCH   3   4
ENDBRANCH   2   3
ENDBRANCH   1   2
BRANCH   1  13
HETATM   13  C10 UNL     1      -1.806  -0.796  -0.159  1.00  0.00     0.127 C 
BRANCH  13  14
HETATM   14  O4  UNL     1      -0.853  -0.225  -0.961  1.00  0.00    -0.395 OA
ATOM     15  H4  UNL     1      -1.193   0.036  -1.809  1.00  0.00     0.210 HD
ENDBRANCH  13  14
BRANCH  13  16
HETATM   16  C11 UNL     1      -3.017   0.094  -0.084  1.00  0.00    -0.010 C 
HETATM   17  C12 UNL     1      -4.240  -0.479   0.602  1.00  0.00     0.017 C 
HETATM   18  C13 UNL     1      -5.345   0.172  -0.209  1.00  0.00    -0.013 C 
HETATM   19  C14 UNL     1      -5.225   1.659  -0.010  1.00  0.00     0.010 C 
HETATM   20  C18 UNL     1      -4.779   0.031  -1.614  1.00  0.00     0.010 C 
HETATM   21  C15 UNL     1      -3.828   1.939  -0.569  1.00  0.00    -0.008 C 
HETATM   22  C16 UNL     1      -2.777   1.497   0.444  1.00  0.00     0.017 C 
HETATM   23  C17 UNL     1      -3.451   0.720  -1.364  1.00  0.00     0.001 C 
ENDBRANCH  13  16
ENDBRANCH   1  13
TORSDOF 11
