REMARK  7 active torsions:
REMARK  status: ('A' for Active; 'I' for Inactive)
REMARK    1  A    between atoms: N2_8  and  C7_9 
REMARK    2  A    between atoms: N2_8  and  C10_13 
REMARK    3  A    between atoms: C7_9  and  C8_10 
REMARK    4  A    between atoms: C8_10  and  O1_11 
REMARK    5  A    between atoms: C10_13  and  C11_14 
REMARK    6  A    between atoms: C11_14  and  C12_15 
REMARK    7  A    between atoms: N5_28  and  O3_29 
ROOT
HETATM    1  C12 UNL     1       2.240   0.702   0.171  1.00  0.00     0.016 A 
HETATM    2  C13 UNL     1       2.948  -0.387   0.631  1.00  0.00     0.055 A 
HETATM    3  C14 UNL     1       4.286  -0.556   0.369  1.00  0.00     0.052 A 
HETATM    4  N3  UNL     1       5.160  -1.531   0.714  1.00  0.00    -0.339 N 
ATOM      5  H3  UNL     1       4.951  -2.362   1.267  1.00  0.00     0.167 HD
HETATM    6  C15 UNL     1       6.355  -1.200   0.192  1.00  0.00     0.145 A 
HETATM    7  C16 UNL     1       6.253  -0.013  -0.489  1.00  0.00     0.046 A 
HETATM    8  C17 UNL     1       4.940   0.379  -0.368  1.00  0.00     0.074 A 
HETATM    9  C18 UNL     1       4.232   1.477  -0.832  1.00  0.00     0.259 A 
HETATM   10  O2  UNL     1       4.874   2.321  -1.511  1.00  0.00    -0.267 OA
HETATM   11  N4  UNL     1       2.914   1.610  -0.555  1.00  0.00    -0.326 N 
ATOM     12  H4  UNL     1       2.416   2.427  -0.909  1.00  0.00     0.169 HD
HETATM   13  C19 UNL     1       7.541  -0.113  -0.779  1.00  0.00     0.141 A 
HETATM   14  N5  UNL     1       7.626  -1.349  -0.063  1.00  0.00    -0.217 N 
ENDROOT
BRANCH   1  15
HETATM   15  C11 UNL     1       0.793   0.835   0.485  1.00  0.00     0.085 C 
BRANCH  15  16
HETATM   16  C10 UNL     1      -0.072   0.197  -0.544  1.00  0.00     0.252 C 
BRANCH  16  17
HETATM   17  N2  UNL     1      -1.476   0.270  -0.336  1.00  0.00    -0.011 N 
HETATM   18  C2  UNL     1      -1.941  -0.539   0.735  1.00  0.00     0.296 C 
HETATM   19  C1  UNL     1      -1.926  -0.182   2.000  1.00  0.00     0.079 C 
HETATM   20  N1  UNL     1      -2.422  -1.777   0.243  1.00  0.00    -0.021 N 
HETATM   21  C3  UNL     1      -1.855  -2.911   0.946  1.00  0.00     0.281 C 
HETATM   22  C4  UNL     1      -3.859  -1.897   0.326  1.00  0.00     0.281 C 
HETATM   23  C5  UNL     1      -2.044  -1.821  -1.136  1.00  0.00     0.273 C 
HETATM   24  C6  UNL     1      -2.064  -0.361  -1.533  1.00  0.00     0.274 C 
BRANCH  17  25
HETATM   25  C7  UNL     1      -1.933   1.617  -0.305  1.00  0.00     0.272 C 
BRANCH  25  26
HETATM   26  C8  UNL     1      -3.378   1.829  -0.034  1.00  0.00     0.195 C 
BRANCH  26  27
HETATM   27  O1  UNL     1      -3.580   3.233  -0.053  1.00  0.00    -0.394 OA
HETATM   28  C9  UNL     1      -4.925   3.498   0.196  1.00  0.00     0.201 C 
ENDBRANCH  26  27
ENDBRANCH  25  26
ENDBRANCH  17  25
ENDBRANCH  16  17
ENDBRANCH  15  16
ENDBRANCH   1  15
BRANCH  14  29
HETATM   29  O3  UNL     1       8.592  -2.281   0.232  1.00  0.00    -0.281 OA
ATOM     30  H3  UNL     1       9.517  -2.389   0.046  1.00  0.00     0.245 HD
ENDBRANCH  14  29
TORSDOF 7
