REMARK  14 active torsions:
REMARK  status: ('A' for Active; 'I' for Inactive)
REMARK       I    between atoms: N2_3  and  C2_5 
REMARK    1  A    between atoms: N4_7  and  C3_9 
REMARK    2  A    between atoms: C3_9  and  C4_10 
REMARK    3  A    between atoms: C4_10  and  C5_11 
REMARK    4  A    between atoms: C5_11  and  C6_12 
REMARK    5  A    between atoms: C6_12  and  C7_13 
REMARK    6  A    between atoms: C6_12  and  N5_20 
REMARK    7  A    between atoms: C7_13  and  C8_14 
REMARK    8  A    between atoms: N5_20  and  S1_22 
REMARK    9  A    between atoms: S1_22  and  N6_25 
REMARK   10  A    between atoms: N6_25  and  C14_27 
REMARK   11  A    between atoms: C14_27  and  C15_28 
REMARK   12  A    between atoms: C18_31  and  C19_32 
REMARK   13  A    between atoms: C19_32  and  N7_33 
REMARK   14  A    between atoms: N7_33  and  C20_35 
ROOT
HETATM    1  N1  UNL     1      -8.923   0.242   3.462  1.00  0.00    -0.172 NA
HETATM    2  C1  UNL     1      -8.645   0.251   2.336  1.00  0.00     0.184 C 
HETATM    3  N2  UNL     1      -8.304   0.263   0.967  1.00  0.00    -0.268 N 
ATOM      4  H2  UNL     1      -8.642   1.025   0.379  1.00  0.00     0.180 HD
HETATM    5  C2  UNL     1      -7.506  -0.753   0.386  1.00  0.00     0.197 C 
HETATM    6  N3  UNL     1      -7.289  -1.933   1.142  1.00  0.00    -0.063 NA
HETATM    7  N4  UNL     1      -6.991  -0.641  -0.763  1.00  0.00    -0.364 N 
ATOM      8  H4  UNL     1      -7.179   0.229  -1.262  1.00  0.00     0.162 HD
ENDROOT
BRANCH   7   9
HETATM    9  C3  UNL     1      -6.178  -1.595  -1.437  1.00  0.00     0.122 C 
BRANCH   9  10
HETATM   10  C4  UNL     1      -4.701  -1.175  -1.513  1.00  0.00     0.022 C 
BRANCH  10  11
HETATM   11  C5  UNL     1      -4.165  -1.010  -0.141  1.00  0.00     0.028 C 
BRANCH  11  12
HETATM   12  C6  UNL     1      -2.736  -0.593  -0.017  1.00  0.00     0.099 C 
BRANCH  12  13
HETATM   13  C7  UNL     1      -2.332   0.699  -0.572  1.00  0.00     0.064 C 
BRANCH  13  14
HETATM   14  C8  UNL     1      -2.896   1.931  -0.096  1.00  0.00    -0.056 A 
HETATM   15  C9  UNL     1      -4.041   2.447  -0.651  1.00  0.00     0.007 A 
HETATM   16  C10 UNL     1      -4.604   3.634  -0.222  1.00  0.00     0.001 A 
HETATM   17  C11 UNL     1      -4.033   4.346   0.783  1.00  0.00     0.000 A 
HETATM   18  C12 UNL     1      -2.870   3.843   1.362  1.00  0.00     0.001 A 
HETATM   19  C13 UNL     1      -2.326   2.658   0.918  1.00  0.00     0.007 A 
ENDBRANCH  13  14
ENDBRANCH  12  13
BRANCH  12  20
HETATM   20  N5  UNL     1      -2.227  -0.827   1.316  1.00  0.00    -0.298 N 
ATOM     21  H5  UNL     1      -2.533  -0.278   2.119  1.00  0.00     0.174 HD
BRANCH  20  22
HETATM   22  S1  UNL     1      -1.088  -2.075   1.455  1.00  0.00     0.315 S 
HETATM   23  O1  UNL     1      -1.139  -2.739   2.827  1.00  0.00    -0.183 OA
HETATM   24  O2  UNL     1      -1.228  -3.121   0.377  1.00  0.00    -0.183 OA
BRANCH  22  25
HETATM   25  N6  UNL     1       0.498  -1.422   1.314  1.00  0.00    -0.299 N 
ATOM     26  H6  UNL     1       1.051  -1.019   2.070  1.00  0.00     0.174 HD
BRANCH  25  27
HETATM   27  C14 UNL     1       0.906  -1.547  -0.068  1.00  0.00     0.172 C 
BRANCH  27  28
HETATM   28  C15 UNL     1       2.276  -1.006  -0.285  1.00  0.00    -0.040 A 
HETATM   29  C16 UNL     1       2.449   0.315  -0.628  1.00  0.00     0.009 A 
HETATM   30  C17 UNL     1       3.694   0.880  -0.843  1.00  0.00     0.009 A 
HETATM   31  C18 UNL     1       4.829   0.106  -0.714  1.00  0.00    -0.041 A 
HETATM   32  C25 UNL     1       4.651  -1.216  -0.370  1.00  0.00     0.009 A 
HETATM   33  C26 UNL     1       3.409  -1.789  -0.153  1.00  0.00     0.009 A 
BRANCH  31  34
HETATM   34  C19 UNL     1       6.190   0.633  -0.924  1.00  0.00     0.159 C 
BRANCH  34  35
HETATM   35  N7  UNL     1       7.137  -0.422  -0.695  1.00  0.00    -0.372 N 
ATOM     36  H7  UNL     1       6.802  -1.385  -0.673  1.00  0.00     0.161 HD
BRANCH  35  37
HETATM   37  C20 UNL     1       8.390  -0.201  -0.517  1.00  0.00     0.101 A 
HETATM   38  C21 UNL     1       8.913   1.057  -0.534  1.00  0.00     0.050 A 
HETATM   39  C22 UNL     1      10.289   1.224  -0.330  1.00  0.00     0.029 A 
HETATM   40  C23 UNL     1      11.043   0.100  -0.122  1.00  0.00     0.049 A 
HETATM   41 CL1  UNL     1      12.771   0.196   0.142  1.00  0.00    -0.083 Cl
HETATM   42  C24 UNL     1      10.472  -1.167  -0.113  1.00  0.00     0.113 A 
HETATM   43  N8  UNL     1       9.155  -1.309  -0.310  1.00  0.00    -0.351 N 
ATOM     44  H8  UNL     1       8.730  -2.236  -0.305  1.00  0.00     0.166 HD
ENDBRANCH  35  37
ENDBRANCH  34  35
ENDBRANCH  31  34
ENDBRANCH  27  28
ENDBRANCH  25  27
ENDBRANCH  22  25
ENDBRANCH  20  22
ENDBRANCH  12  20
ENDBRANCH  11  12
ENDBRANCH  10  11
ENDBRANCH   9  10
ENDBRANCH   7   9
TORSDOF 14
