REMARK  16 active torsions:
REMARK  status: ('A' for Active; 'I' for Inactive)
REMARK    1  A    between atoms: C2_2  and  C4_5 
REMARK    2  A    between atoms: C4_5  and  N1_6 
REMARK    3  A    between atoms: C4_5  and  C9_20 
REMARK    4  A    between atoms: N1_6  and  C5_8 
REMARK    5  A    between atoms: C5_8  and  C6_9 
REMARK    6  A    between atoms: C6_9  and  C7_10 
REMARK    7  A    between atoms: C7_10  and  C8_11 
REMARK    8  A    between atoms: C8_11  and  N2_12 
REMARK    9  A    between atoms: N2_12  and  S1_14 
REMARK   10  A    between atoms: S1_14  and  N3_15 
REMARK   11  A    between atoms: C23_34  and  C24_35 
REMARK       I    between atoms: C24_35  and  N4_37 
REMARK   12  A    between atoms: N4_37  and  C25_39 
REMARK   13  A    between atoms: C25_39  and  C26_40 
REMARK   14  A    between atoms: C26_40  and  C27_41 
REMARK   15  A    between atoms: C27_41  and  C28_42 
REMARK   16  A    between atoms: C28_42  and  N5_43 
ROOT
HETATM    1  C9  UNL     1      -0.484  -1.225  -1.512  1.00  0.00     0.025 C 
HETATM    2  C10 UNL     1      -1.644  -1.665  -2.266  1.00  0.00     0.008 C 
HETATM    3  C11 UNL     1      -2.793  -0.975  -1.495  1.00  0.00     0.012 C 
HETATM    4  C12 UNL     1      -2.400  -1.360  -0.087  1.00  0.00    -0.017 C 
HETATM    5  C13 UNL     1      -2.501  -2.899   0.003  1.00  0.00    -0.004 C 
HETATM    6  C14 UNL     1      -2.314  -3.372   1.445  1.00  0.00     0.010 C 
HETATM    7  C15 UNL     1      -3.358  -2.823   2.365  1.00  0.00    -0.013 C 
HETATM    8  C16 UNL     1      -4.709  -3.288   1.908  1.00  0.00     0.009 C 
HETATM    9  C17 UNL     1      -4.881  -2.823   0.469  1.00  0.00    -0.013 C 
HETATM   10  C18 UNL     1      -3.833  -3.419  -0.433  1.00  0.00     0.010 C 
HETATM   11  C19 UNL     1      -4.762  -1.344   0.459  1.00  0.00     0.014 C 
HETATM   12  C20 UNL     1      -3.361  -0.845   0.887  1.00  0.00    -0.035 C 
HETATM   13  C21 UNL     1      -3.571   0.650   0.950  1.00  0.00     0.016 C 
HETATM   14  C22 UNL     1      -3.217  -1.313   2.300  1.00  0.00     0.014 C 
HETATM   15  C23 UNL     1      -0.985  -1.013  -0.063  1.00  0.00     0.093 C 
ENDROOT
BRANCH   1  16
HETATM   16  C4  UNL     1       0.800  -1.992  -1.541  1.00  0.00     0.120 C 
BRANCH  16  17
HETATM   17  C2  UNL     1       1.461  -2.195  -2.812  1.00  0.00     0.116 C 
HETATM   18  C1  UNL     1       2.111  -0.943  -3.388  1.00  0.00     0.053 C 
HETATM   19  C3  UNL     1       2.448  -3.305  -2.848  1.00  0.00     0.053 C 
HETATM   20  F1  UNL     1       0.567  -2.589  -3.844  1.00  0.00    -0.242 F 
ENDBRANCH  16  17
BRANCH  16  21
HETATM   21  N1  UNL     1       1.671  -1.483  -0.552  1.00  0.00    -0.413 N 
ATOM     22  H1  UNL     1       1.493  -0.534  -0.224  1.00  0.00     0.153 HD
BRANCH  21  23
HETATM   23  C5  UNL     1       2.740  -2.148   0.012  1.00  0.00     0.114 C 
BRANCH  23  24
HETATM   24  C6  UNL     1       3.408  -1.279   1.121  1.00  0.00     0.021 C 
BRANCH  24  25
HETATM   25  C7  UNL     1       3.959  -0.008   0.582  1.00  0.00     0.022 C 
BRANCH  25  26
HETATM   26  C8  UNL     1       4.597   0.748   1.754  1.00  0.00     0.133 C 
BRANCH  26  27
HETATM   27  N2  UNL     1       5.167   1.992   1.239  1.00  0.00    -0.303 N 
ATOM     28  H2  UNL     1       5.123   2.268   0.258  1.00  0.00     0.173 HD
BRANCH  27  29
HETATM   29  S1  UNL     1       5.912   2.933   2.449  1.00  0.00     0.312 S 
HETATM   30  O1  UNL     1       6.262   2.069   3.632  1.00  0.00    -0.183 OA
HETATM   31  O2  UNL     1       7.130   3.629   1.911  1.00  0.00    -0.183 OA
BRANCH  29  32
HETATM   32  N3  UNL     1       4.796   4.116   3.011  1.00  0.00    -0.312 N 
ATOM     33  H32 UNL     1       3.843   4.224   2.665  1.00  0.00     0.170 HD
ATOM     34  H31 UNL     1       5.242   4.679   3.735  1.00  0.00     0.170 HD
ENDBRANCH  29  32
ENDBRANCH  27  29
ENDBRANCH  26  27
ENDBRANCH  25  26
ENDBRANCH  24  25
ENDBRANCH  23  24
ENDBRANCH  21  23
ENDBRANCH  16  21
ENDBRANCH   1  16
BRANCH  15  35
HETATM   35  C24 UNL     1      -0.546   0.280   0.466  1.00  0.00     0.223 C 
HETATM   36  O3  UNL     1      -0.067   0.283   1.635  1.00  0.00    -0.273 OA
HETATM   37  N4  UNL     1      -0.592   1.524  -0.169  1.00  0.00    -0.361 N 
ATOM     38  H4  UNL     1      -0.967   1.587  -1.116  1.00  0.00     0.162 HD
BRANCH  37  39
HETATM   39  C25 UNL     1      -0.124   2.714   0.481  1.00  0.00     0.122 C 
BRANCH  39  40
HETATM   40  C26 UNL     1      -0.255   3.954  -0.345  1.00  0.00     0.021 C 
BRANCH  40  41
HETATM   41  C27 UNL     1       0.281   5.103   0.484  1.00  0.00     0.029 C 
BRANCH  41  42
HETATM   42  C28 UNL     1       0.196   6.417  -0.260  1.00  0.00     0.229 C 
BRANCH  42  43
HETATM   43  N5  UNL     1       0.953   6.390  -1.489  1.00  0.00    -0.079 N 
ATOM     44  H53 UNL     1       1.922   6.121  -1.321  1.00  0.00     0.274 HD
ATOM     45  H52 UNL     1       0.670   5.609  -2.082  1.00  0.00     0.274 HD
ATOM     46  H51 UNL     1       0.896   7.276  -1.991  1.00  0.00     0.274 HD
ENDBRANCH  42  43
ENDBRANCH  41  42
ENDBRANCH  40  41
ENDBRANCH  39  40
ENDBRANCH  37  39
ENDBRANCH  15  35
TORSDOF 16
