REMARK  13 active torsions:
REMARK  status: ('A' for Active; 'I' for Inactive)
REMARK    1  A    between atoms: C2_2  and  C3_3 
REMARK    2  A    between atoms: C3_3  and  C4_4 
REMARK    3  A    between atoms: C4_4  and  C5_5 
REMARK    4  A    between atoms: C5_5  and  C6_6 
REMARK    5  A    between atoms: C6_6  and  C7_7 
REMARK    6  A    between atoms: C7_7  and  C8_8 
REMARK    7  A    between atoms: C10_13  and  C11_14 
REMARK    8  A    between atoms: C14_23  and  C15_24 
REMARK    9  A    between atoms: C15_24  and  C16_25 
REMARK   10  A    between atoms: C16_25  and  C17_26 
REMARK   11  A    between atoms: C17_26  and  N4_27 
REMARK   12  A    between atoms: N7_32  and  S1_33 
REMARK   13  A    between atoms: S1_33  and  C19_36 
ROOT
HETATM    1  C8  UNL     1       0.166  -1.130   0.225  1.00  0.00     0.198 C 
HETATM    2  N1  UNL     1       0.346  -2.026  -0.891  1.00  0.00    -0.337 N 
ATOM      3  H1  UNL     1       0.449  -3.000  -0.605  1.00  0.00     0.164 HD
HETATM    4  C9  UNL     1       0.411  -1.855  -2.287  1.00  0.00     0.247 C 
HETATM    5  O1  UNL     1       0.976  -2.759  -2.946  1.00  0.00    -0.271 OA
HETATM    6  C10 UNL     1      -0.075  -0.777  -3.175  1.00  0.00     0.221 C 
HETATM    7  N3  UNL     1      -1.415  -0.341  -2.861  1.00  0.00    -0.341 N 
ATOM      8  H3  UNL     1      -1.903   0.055  -3.665  1.00  0.00     0.163 HD
HETATM    9  C13 UNL     1      -2.197  -0.341  -1.692  1.00  0.00     0.242 C 
HETATM   10  O2  UNL     1      -3.432  -0.305  -2.070  1.00  0.00    -0.271 OA
HETATM   11  C14 UNL     1      -2.151  -0.366  -0.251  1.00  0.00     0.190 C 
HETATM   12  N7  UNL     1      -1.098  -0.697   0.530  1.00  0.00    -0.271 N 
ENDROOT
BRANCH  12  13
HETATM   13  S1  UNL     1      -1.661  -1.458   2.006  1.00  0.00     0.263 S 
HETATM   14  O3  UNL     1      -3.034  -1.063   2.378  1.00  0.00    -0.200 OA
HETATM   15  O4  UNL     1      -0.737  -1.193   3.135  1.00  0.00    -0.200 OA
BRANCH  13  16
HETATM   16  C19 UNL     1      -1.724  -3.215   1.772  1.00  0.00     0.079 A 
HETATM   17  C20 UNL     1      -0.655  -4.013   2.114  1.00  0.00     0.027 A 
HETATM   18  C21 UNL     1      -0.771  -5.366   1.904  1.00  0.00     0.025 A 
HETATM   19  C22 UNL     1      -1.910  -5.930   1.370  1.00  0.00     0.034 A 
HETATM   20 CL1  UNL     1      -2.010  -7.678   1.119  1.00  0.00    -0.084 Cl
HETATM   21  C23 UNL     1      -2.978  -5.131   1.029  1.00  0.00     0.025 A 
HETATM   22  C24 UNL     1      -2.863  -3.779   1.238  1.00  0.00     0.027 A 
ENDBRANCH  13  16
ENDBRANCH  12  13
BRANCH   1  23
HETATM   23  C7  UNL     1       1.235  -0.016   0.135  1.00  0.00     0.048 C 
BRANCH  23  24
HETATM   24  C6  UNL     1       2.608  -0.570   0.178  1.00  0.00     0.004 C 
BRANCH  24  25
HETATM   25  C5  UNL     1       3.671   0.497   0.072  1.00  0.00     0.000 C 
BRANCH  25  26
HETATM   26  C4  UNL     1       3.595   1.485   1.193  1.00  0.00     0.000 C 
BRANCH  26  27
HETATM   27  C3  UNL     1       4.653   2.531   1.045  1.00  0.00    -0.000 C 
BRANCH  27  28
HETATM   28  C2  UNL     1       6.019   1.908   1.072  1.00  0.00    -0.005 C 
HETATM   29  C1  UNL     1       7.088   2.992   0.954  1.00  0.00     0.005 C 
ENDBRANCH  27  28
ENDBRANCH  26  27
ENDBRANCH  25  26
ENDBRANCH  24  25
ENDBRANCH  23  24
ENDBRANCH   1  23
BRANCH  11  30
HETATM   30  C15 UNL     1      -2.748   0.988   0.195  1.00  0.00     0.037 C 
BRANCH  30  31
HETATM   31  C16 UNL     1      -1.995   2.159  -0.325  1.00  0.00     0.022 C 
BRANCH  31  32
HETATM   32  C17 UNL     1      -2.684   3.409   0.178  1.00  0.00     0.122 C 
BRANCH  32  33
HETATM   33  N4  UNL     1      -2.724   3.487   1.607  1.00  0.00    -0.367 N 
HETATM   34  C18 UNL     1      -3.713   4.067   2.181  1.00  0.00     0.196 C 
HETATM   35  N5  UNL     1      -4.799   4.652   1.480  1.00  0.00    -0.067 NA
HETATM   36  N6  UNL     1      -3.711   4.122   3.606  1.00  0.00    -0.067 NA
ATOM     37  H4  UNL     1      -1.971   3.084   2.165  1.00  0.00     0.161 HD
ENDBRANCH  32  33
ENDBRANCH  31  32
ENDBRANCH  30  31
ENDBRANCH  11  30
BRANCH   6  38
HETATM   38  C11 UNL     1       0.023  -1.209  -4.621  1.00  0.00     0.008 C 
HETATM   39  C12 UNL     1      -0.711  -2.402  -5.110  1.00  0.00     0.065 C 
HETATM   40  N2  UNL     1       0.737  -0.556  -5.448  1.00  0.00    -0.404 N 
ATOM     41  H22 UNL     1       1.242   0.264  -5.112  1.00  0.00     0.155 HD
ATOM     42  H21 UNL     1       0.803  -0.847  -6.423  1.00  0.00     0.155 HD
ENDBRANCH   6  38
TORSDOF 13
