REMARK  3 active torsions:
REMARK  status: ('A' for Active; 'I' for Inactive)
REMARK    1  A    between atoms: C2_2  and  C3_3 
REMARK    2  A    between atoms: C2_2  and  N5_18 
REMARK    3  A    between atoms: C5_5  and  N1_6 
ROOT
HETATM    1  C3  UNL     1       1.580  -0.417  -0.206  1.00  0.00    -0.008 A 
HETATM    2  C4  UNL     1       2.186   0.791  -0.481  1.00  0.00     0.066 A 
HETATM    3  C5  UNL     1       3.284   1.244   0.212  1.00  0.00     0.175 A 
HETATM    4  N2  UNL     1       3.832   0.505   1.215  1.00  0.00    -0.323 N 
ATOM      5  H2  UNL     1       4.648   0.846   1.724  1.00  0.00     0.169 HD
HETATM    6  C6  UNL     1       3.280  -0.683   1.525  1.00  0.00     0.122 A 
HETATM    7  N3  UNL     1       3.865  -1.341   2.478  1.00  0.00    -0.384 N 
ATOM      8  H31 UNL     1       3.447  -2.241   2.713  1.00  0.00     0.157 HD
ATOM      9  H32 UNL     1       4.680  -1.005   2.990  1.00  0.00     0.157 HD
HETATM   10  C7  UNL     1       2.177  -1.138   0.832  1.00  0.00     0.096 A 
HETATM   11  C8  UNL     1       1.632  -2.411   1.170  1.00  0.00     0.104 C 
HETATM   12  N4  UNL     1       1.202  -3.446   1.426  1.00  0.00    -0.191 NA
ENDROOT
BRANCH   1  13
HETATM   13  C2  UNL     1       0.348  -0.877  -0.884  1.00  0.00     0.110 C 
HETATM   14  C1  UNL     1       0.260  -0.368  -2.305  1.00  0.00     0.037 C 
BRANCH  13  15
HETATM   15  N5  UNL     1      -0.858  -0.478  -0.148  1.00  0.00    -0.405 N 
HETATM   16  C9  UNL     1      -1.054   0.931  -0.080  1.00  0.00     0.117 C 
HETATM   17  C10 UNL     1      -2.519   1.270  -0.358  1.00  0.00     0.019 C 
HETATM   18  C11 UNL     1      -3.190   1.234   1.017  1.00  0.00     0.002 C 
HETATM   19  C12 UNL     1      -3.072  -0.178   1.554  1.00  0.00     0.002 C 
HETATM   20  C13 UNL     1      -3.136  -1.202   0.478  1.00  0.00     0.019 C 
HETATM   21  C14 UNL     1      -1.982  -1.290  -0.443  1.00  0.00     0.117 C 
ENDBRANCH  13  15
ENDBRANCH   1  13
BRANCH   3  22
HETATM   22  N1  UNL     1       3.865   2.508  -0.044  1.00  0.00    -0.098 N 
HETATM   23  O1  UNL     1       3.332   3.225  -0.889  1.00  0.00    -0.531 OA
HETATM   24  O2  UNL     1       4.989   2.940   0.650  1.00  0.00    -0.531 OA
ENDBRANCH   3  22
TORSDOF 3
