REMARK  11 active torsions:
REMARK  status: ('A' for Active; 'I' for Inactive)
REMARK    1  A    between atoms: C2_2  and  C3_3 
REMARK    2  A    between atoms: C3_3  and  C4_4 
REMARK    3  A    between atoms: C4_4  and  N1_5 
REMARK       I    between atoms: N1_5  and  C5_7 
REMARK       I    between atoms: C5_7  and  N2_9 
REMARK    4  A    between atoms: N2_9  and  C6_11 
REMARK    5  A    between atoms: C6_11  and  C7_12 
REMARK    6  A    between atoms: N3_14  and  C9_15 
REMARK    7  A    between atoms: C9_15  and  C10_16 
REMARK    8  A    between atoms: C10_16  and  C11_17 
REMARK    9  A    between atoms: C11_17  and  C12_18 
REMARK   10  A    between atoms: C12_18  and  C13_19 
REMARK   11  A    between atoms: C17_25  and  N5_26 
ROOT
HETATM    1  C10 UNL     1      -0.174   0.600   0.763  1.00  0.00     0.031 C 
ENDROOT
BRANCH   1   2
HETATM    2  C9  UNL     1      -0.612   1.671  -0.191  1.00  0.00     0.274 C 
BRANCH   2   3
HETATM    3  N3  UNL     1      -2.034   1.724  -0.298  1.00  0.00     0.106 N 
HETATM    4  C8  UNL     1      -2.551   0.559  -0.937  1.00  0.00     0.293 C 
HETATM    5  C7  UNL     1      -4.038   0.765  -1.319  1.00  0.00     0.144 C 
HETATM    6  C25 UNL     1      -4.525   2.013  -0.778  1.00  0.00     0.229 C 
HETATM    7  N7  UNL     1      -4.086   2.472   0.506  1.00  0.00    -0.335 N 
HETATM    8  O3  UNL     1      -5.348   2.743  -1.414  1.00  0.00    -0.273 OA
HETATM    9  C24 UNL     1      -2.725   2.117   0.892  1.00  0.00     0.397 C 
ATOM     10  H7  UNL     1      -4.693   3.018   1.118  1.00  0.00     0.164 HD
BRANCH   5  11
HETATM   11  C6  UNL     1      -4.704  -0.529  -1.051  1.00  0.00     0.081 C 
BRANCH  11  12
HETATM   12  N2  UNL     1      -6.077  -0.715  -1.295  1.00  0.00    -0.322 N 
HETATM   13  C5  UNL     1      -7.144  -0.128  -0.580  1.00  0.00     0.319 C 
HETATM   14  N1  UNL     1      -8.510  -0.371  -1.006  1.00  0.00    -0.343 N 
HETATM   15  O1  UNL     1      -6.932   0.593   0.406  1.00  0.00    -0.247 OA
ATOM     16  H1  UNL     1      -8.669  -0.961  -1.822  1.00  0.00     0.164 HD
ATOM     17  H2  UNL     1      -6.327  -1.336  -2.065  1.00  0.00     0.169 HD
BRANCH  14  18
HETATM   18  C4  UNL     1      -9.645   0.182  -0.330  1.00  0.00     0.124 C 
BRANCH  18  19
HETATM   19  C3  UNL     1      -9.758  -0.280   1.095  1.00  0.00     0.019 C 
BRANCH  19  20
HETATM   20  C2  UNL     1      -9.886  -1.806   1.043  1.00  0.00    -0.003 C 
HETATM   21  C1  UNL     1     -11.105  -2.215   0.262  1.00  0.00     0.005 C 
ENDBRANCH  19  20
ENDBRANCH  18  19
ENDBRANCH  14  18
ENDBRANCH  11  12
ENDBRANCH   5  11
ENDBRANCH   2   3
ENDBRANCH   1   2
BRANCH   1  22
HETATM   22  C11 UNL     1       1.336   0.542   0.892  1.00  0.00     0.008 C 
BRANCH  22  23
HETATM   23  C12 UNL     1       2.006   0.257  -0.417  1.00  0.00     0.057 C 
BRANCH  23  24
HETATM   24  C13 UNL     1       3.475   0.232  -0.203  1.00  0.00     0.012 C 
HETATM   25  C14 UNL     1       4.108  -0.943   0.119  1.00  0.00     0.027 C 
HETATM   26  C15 UNL     1       5.427  -1.297  -0.053  1.00  0.00     0.033 C 
HETATM   27  C16 UNL     1       6.563  -0.475  -0.201  1.00  0.00     0.057 A 
HETATM   28  N4  UNL     1       7.744  -1.000  -0.139  1.00  0.00    -0.335 N 
HETATM   29  C22 UNL     1       6.466   0.873  -0.411  1.00  0.00     0.103 A 
HETATM   30  C17 UNL     1       8.815  -0.238  -0.277  1.00  0.00     0.148 A 
ATOM     31  H4  UNL     1       7.848  -2.003   0.016  1.00  0.00     0.168 HD
HETATM   32  S1  UNL     1       8.132   1.310  -0.509  1.00  0.00    -0.046 SA
HETATM   33  C23 UNL     1       5.365   1.721  -0.526  1.00  0.00     0.265 C 
HETATM   34  O2  UNL     1       5.708   2.890  -0.828  1.00  0.00    -0.267 OA
HETATM   35  N6  UNL     1       4.060   1.450  -0.360  1.00  0.00    -0.326 N 
ATOM     36  H6  UNL     1       3.432   2.254  -0.351  1.00  0.00     0.169 HD
BRANCH  30  37
HETATM   37  N5  UNL     1      10.210  -0.582  -0.247  1.00  0.00    -0.361 N 
HETATM   38  C18 UNL     1      11.305   0.359  -0.415  1.00  0.00     0.125 C 
HETATM   39  C19 UNL     1      12.272  -0.117   0.649  1.00  0.00     0.021 C 
HETATM   40  C20 UNL     1      12.176  -1.630   0.497  1.00  0.00     0.021 C 
HETATM   41  C21 UNL     1      10.785  -1.871  -0.054  1.00  0.00     0.125 C 
ENDBRANCH  30  37
ENDBRANCH  23  24
ENDBRANCH  22  23
ENDBRANCH   1  22
TORSDOF 11
