REMARK  11 active torsions:
REMARK  status: ('A' for Active; 'I' for Inactive)
REMARK    1  A    between atoms: C2_2  and  C4_4 
REMARK    2  A    between atoms: C4_4  and  C5_5 
REMARK    3  A    between atoms: C5_5  and  N1_6 
REMARK    4  A    between atoms: C5_5  and  C17_29 
REMARK       I    between atoms: N1_6  and  C6_8 
REMARK    5  A    between atoms: C6_8  and  C7_10 
REMARK    6  A    between atoms: C7_10  and  N2_11 
REMARK       I    between atoms: N2_11  and  C8_13 
REMARK    7  A    between atoms: C8_13  and  C9_15 
REMARK    8  A    between atoms: C9_15  and  C10_16 
REMARK       I    between atoms: C17_29  and  N5_31 
REMARK    9  A    between atoms: N5_31  and  C18_33 
REMARK   10  A    between atoms: C18_33  and  C19_34 
REMARK   11  A    between atoms: C18_33  and  C20_37 
ROOT
HETATM    1  N1  UNL     1      -0.499  -1.105  -0.432  1.00  0.00    -0.344 N 
ATOM      2  H1  UNL     1      -0.154  -1.872   0.145  1.00  0.00     0.163 HD
HETATM    3  C6  UNL     1       0.416  -0.135  -0.914  1.00  0.00     0.275 C 
HETATM    4  O1  UNL     1       0.062   0.812  -1.633  1.00  0.00    -0.269 OA
ENDROOT
BRANCH   3   5
HETATM    5  C7  UNL     1       1.861  -0.250  -0.536  1.00  0.00     0.280 C 
HETATM    6  C14 UNL     1       1.985  -0.333   0.940  1.00  0.00     0.074 C 
HETATM    7  C15 UNL     1       2.402  -1.733   1.247  1.00  0.00     0.032 C 
HETATM    8  C16 UNL     1       2.551  -2.405  -0.083  1.00  0.00     0.236 C 
HETATM    9  N4  UNL     1       2.391  -1.430  -1.090  1.00  0.00    -0.039 N 
ATOM     10  H42 UNL     1       1.829  -1.773  -1.869  1.00  0.00     0.280 HD
ATOM     11  H41 UNL     1       3.259  -1.258  -1.598  1.00  0.00     0.280 HD
BRANCH   5  12
HETATM   12  N2  UNL     1       2.543   0.937  -1.068  1.00  0.00    -0.320 N 
HETATM   13  C8  UNL     1       3.908   1.211  -0.932  1.00  0.00     0.224 C 
HETATM   14  O2  UNL     1       4.631   0.389  -0.313  1.00  0.00    -0.273 OA
ATOM     15  H2  UNL     1       1.976   1.615  -1.577  1.00  0.00     0.165 HD
BRANCH  13  16
HETATM   16  C9  UNL     1       4.563   2.425  -1.478  1.00  0.00     0.142 C 
BRANCH  16  17
HETATM   17  C10 UNL     1       6.012   2.385  -1.125  1.00  0.00    -0.031 A 
HETATM   18  C11 UNL     1       7.043   1.846  -1.876  1.00  0.00     0.096 A 
HETATM   19  N3  UNL     1       8.206   2.002  -1.213  1.00  0.00    -0.360 N 
HETATM   20  C12 UNL     1       7.973   2.629  -0.047  1.00  0.00     0.080 A 
ATOM     21  H3  UNL     1       9.120   1.693  -1.544  1.00  0.00     0.166 HD
HETATM   22 BR1  UNL     1       9.311   3.083   1.264  1.00  0.00    -0.031 Br
HETATM   23  C13 UNL     1       6.617   2.872   0.021  1.00  0.00     0.046 A 
ENDBRANCH  16  17
ENDBRANCH  13  16
ENDBRANCH   5  12
ENDBRANCH   3   5
BRANCH   1  24
HETATM   24  C5  UNL     1      -1.896  -1.032  -0.736  1.00  0.00     0.177 C 
BRANCH  24  25
HETATM   25  C4  UNL     1      -2.640  -2.292  -0.928  1.00  0.00     0.038 C 
BRANCH  25  26
HETATM   26  C2  UNL     1      -2.190  -3.192  -2.031  1.00  0.00    -0.020 C 
HETATM   27  C1  UNL     1      -0.791  -3.699  -1.930  1.00  0.00     0.009 C 
HETATM   28  C3  UNL     1      -3.170  -4.355  -2.217  1.00  0.00     0.009 C 
ENDBRANCH  25  26
ENDBRANCH  24  25
BRANCH  24  29
HETATM   29  C17 UNL     1      -2.542  -0.180   0.348  1.00  0.00     0.241 C 
HETATM   30  O3  UNL     1      -1.817   0.302   1.238  1.00  0.00    -0.271 OA
HETATM   31  N5  UNL     1      -3.926   0.060   0.348  1.00  0.00    -0.346 N 
ATOM     32  H5  UNL     1      -4.513  -0.339  -0.385  1.00  0.00     0.163 HD
BRANCH  31  33
HETATM   33  C18 UNL     1      -4.520   0.875   1.390  1.00  0.00     0.177 C 
BRANCH  33  34
HETATM   34  C19 UNL     1      -4.104   0.262   2.677  1.00  0.00     0.254 C 
HETATM   35  N6  UNL     1      -4.049   0.976   3.880  1.00  0.00    -0.060 NA
HETATM   36  O4  UNL     1      -3.772  -0.979   2.701  1.00  0.00    -0.275 OA
ENDBRANCH  33  34
BRANCH  33  37
HETATM   37  C20 UNL     1      -4.086   2.303   1.327  1.00  0.00     0.009 C 
HETATM   38  C21 UNL     1      -4.766   3.122   2.376  1.00  0.00     0.012 C 
HETATM   39  C22 UNL     1      -4.355   2.917  -0.040  1.00  0.00     0.012 C 
ENDBRANCH  33  37
ENDBRANCH  31  33
ENDBRANCH  24  29
ENDBRANCH   1  24
TORSDOF 11
