REMARK  11 active torsions:
REMARK  status: ('A' for Active; 'I' for Inactive)
REMARK    1  A    between atoms: C2_2  and  N1_3 
REMARK    2  A    between atoms: N1_3  and  C3_4 
REMARK    3  A    between atoms: N1_3  and  C5_6 
REMARK    4  A    between atoms: C5_6  and  C6_7 
REMARK    5  A    between atoms: C6_7  and  O1_8 
REMARK    6  A    between atoms: O1_8  and  C7_9 
REMARK    7  A    between atoms: C7_9  and  C8_11 
REMARK    8  A    between atoms: C8_11  and  N2_12 
REMARK    9  A    between atoms: C12_24  and  N7_25 
REMARK   10  A    between atoms: N7_25  and  C13_27 
REMARK   11  A    between atoms: C13_27  and  O4_30 
ROOT
HETATM    1  N2  UNL     1       1.012   1.803  -1.766  1.00  0.00    -0.153 N 
HETATM    2  C9  UNL     1       0.846   1.624  -3.087  1.00  0.00     0.172 A 
HETATM    3  N3  UNL     1       0.292   1.965  -4.264  1.00  0.00    -0.282 N 
ATOM      4  H3  UNL     1      -0.364   2.681  -4.577  1.00  0.00     0.188 HD
HETATM    5  N4  UNL     1       0.955   0.982  -4.844  1.00  0.00    -0.291 N 
ATOM      6  H4  UNL     1       1.004   0.644  -5.805  1.00  0.00     0.187 HD
HETATM    7  C10 UNL     1       1.541   0.592  -3.701  1.00  0.00     0.165 A 
HETATM    8  C11 UNL     1       2.358  -0.190  -2.927  1.00  0.00     0.314 A 
HETATM    9  O3  UNL     1       2.995  -1.129  -3.466  1.00  0.00    -0.263 OA
HETATM   10  N5  UNL     1       2.501   0.025  -1.583  1.00  0.00    -0.030 N 
HETATM   11  N6  UNL     1       3.196  -0.558  -0.642  1.00  0.00    -0.107 N 
ATOM     12  H6  UNL     1       3.811  -1.358  -0.788  1.00  0.00     0.207 HD
HETATM   13  C12 UNL     1       2.991   0.036   0.535  1.00  0.00     0.710 A 
HETATM   14  N8  UNL     1       2.113   1.049   0.302  1.00  0.00    -0.019 N 
ATOM     15  H8  UNL     1       1.744   1.704   0.992  1.00  0.00     0.203 HD
HETATM   16  C16 UNL     1       1.827   1.023  -0.998  1.00  0.00     0.726 A 
ENDROOT
BRANCH   1  17
HETATM   17  C8  UNL     1       0.304   2.878  -1.072  1.00  0.00     0.260 C 
BRANCH  17  18
HETATM   18  C7  UNL     1      -1.017   2.319  -0.608  1.00  0.00     0.277 C 
HETATM   19  O2  UNL     1      -1.819   3.044   0.035  1.00  0.00    -0.263 OA
BRANCH  18  20
HETATM   20  O1  UNL     1      -1.375   1.016  -0.875  1.00  0.00    -0.318 OA
BRANCH  20  21
HETATM   21  C6  UNL     1      -2.560   0.382  -0.503  1.00  0.00     0.209 C 
BRANCH  21  22
HETATM   22  C5  UNL     1      -2.709   0.316   0.976  1.00  0.00     0.299 C 
BRANCH  22  23
HETATM   23  N1  UNL     1      -3.940  -0.348   1.384  1.00  0.00     0.089 N 
BRANCH  23  24
HETATM   24  C2  UNL     1      -5.101   0.440   1.028  1.00  0.00     0.268 C 
HETATM   25  C1  UNL     1      -4.956   1.813   1.631  1.00  0.00     0.037 C 
ENDBRANCH  23  24
BRANCH  23  26
HETATM   26  C3  UNL     1      -4.000  -1.699   0.866  1.00  0.00     0.268 C 
HETATM   27  C4  UNL     1      -2.792  -2.470   1.314  1.00  0.00     0.037 C 
ENDBRANCH  23  26
ENDBRANCH  22  23
ENDBRANCH  21  22
ENDBRANCH  20  21
ENDBRANCH  18  20
ENDBRANCH  17  18
ENDBRANCH   1  17
BRANCH  13  28
HETATM   28  N7  UNL     1       3.494  -0.249   1.668  1.00  0.00    -0.193 N 
ATOM     29  H7  UNL     1       3.194   0.345   2.441  1.00  0.00     0.181 HD
BRANCH  28  30
HETATM   30  C13 UNL     1       4.413  -1.275   2.011  1.00  0.00     0.140 C 
HETATM   31  C14 UNL     1       5.602  -1.420   1.122  1.00  0.00     0.071 C 
HETATM   32  C15 UNL     1       3.664  -2.612   1.995  1.00  0.00     0.071 C 
BRANCH  30  33
HETATM   33  O4  UNL     1       4.853  -1.096   3.344  1.00  0.00    -0.371 OA
ATOM     34  H4  UNL     1       5.468  -1.783   3.574  1.00  0.00     0.212 HD
ENDBRANCH  30  33
ENDBRANCH  28  30
ENDBRANCH  13  28
TORSDOF 11
