REMARK  15 active torsions:
REMARK  status: ('A' for Active; 'I' for Inactive)
REMARK    1  A    between atoms: C9_10  and  O2_11 
REMARK    2  A    between atoms: C9_10  and  C10_13 
REMARK    3  A    between atoms: C10_13  and  O3_14 
REMARK    4  A    between atoms: C12_17  and  O4_19 
REMARK    5  A    between atoms: C14_21  and  O5_22 
REMARK    6  A    between atoms: O5_22  and  C15_23 
REMARK    7  A    between atoms: C19_28  and  O7_29 
REMARK    8  A    between atoms: C21_31  and  C22_32 
REMARK    9  A    between atoms: C24_35  and  O8_36 
REMARK   10  A    between atoms: O8_36  and  C25_37 
REMARK   11  A    between atoms: C25_37  and  C26_39 
REMARK   12  A    between atoms: C26_39  and  O10_40 
REMARK   13  A    between atoms: O10_40  and  C27_41 
REMARK   14  A    between atoms: C29_43  and  O11_45 
REMARK   15  A    between atoms: C31_47  and  O12_48 
ROOT
HETATM    1  C1  UNL     1       1.425   0.658   4.183  1.00  0.00     0.036 C 
HETATM    2  C2  UNL     1       1.170   1.234   2.813  1.00  0.00    -0.018 C 
HETATM    3  C3  UNL     1       2.050   1.936   2.131  1.00  0.00     0.016 C 
HETATM    4  C4  UNL     1       3.361   2.149   2.786  1.00  0.00     0.165 C 
HETATM    5  O1  UNL     1       3.352   2.573   3.970  1.00  0.00    -0.292 OA
HETATM    6  C5  UNL     1       4.686   1.891   2.131  1.00  0.00     0.078 C 
HETATM    7  C6  UNL     1       5.202   3.308   1.749  1.00  0.00     0.022 C 
HETATM    8  C7  UNL     1       4.564   1.106   0.868  1.00  0.00    -0.016 C 
HETATM    9  C8  UNL     1       4.346  -0.133   0.556  1.00  0.00     0.009 C 
HETATM   10  C9  UNL     1       4.219  -0.927  -0.705  1.00  0.00     0.099 C 
HETATM   11  C11 UNL     1       2.846  -0.976  -1.229  1.00  0.00     0.084 C 
HETATM   12  C12 UNL     1       2.010   0.174  -1.546  1.00  0.00     0.086 C 
HETATM   13  C13 UNL     1       1.311  -0.134  -2.858  1.00  0.00     0.049 C 
HETATM   14  C14 UNL     1       0.892   0.444  -0.491  1.00  0.00     0.195 C 
HETATM   15  C29 UNL     1       0.749   1.840  -0.085  1.00  0.00     0.113 C 
HETATM   16  C30 UNL     1       0.630   2.832  -1.277  1.00  0.00     0.052 C 
HETATM   17  C31 UNL     1       1.719   2.487   0.823  1.00  0.00     0.191 C 
ENDROOT
BRANCH  14  18
HETATM   18  O5  UNL     1      -0.259  -0.012  -1.086  1.00  0.00    -0.347 OA
BRANCH  18  19
HETATM   19  C15 UNL     1      -0.909  -1.094  -0.599  1.00  0.00     0.295 C 
HETATM   20  O6  UNL     1      -0.577  -2.226  -1.457  1.00  0.00    -0.341 OA
HETATM   21  C16 UNL     1      -1.017  -3.362  -0.791  1.00  0.00     0.105 C 
HETATM   22  C17 UNL     1      -0.871  -4.568  -1.752  1.00  0.00     0.053 C 
HETATM   23  C18 UNL     1      -0.143  -3.705   0.387  1.00  0.00     0.053 C 
HETATM   24  C19 UNL     1      -2.454  -3.339  -0.420  1.00  0.00     0.086 C 
HETATM   25  C21 UNL     1      -3.116  -2.228  -0.408  1.00  0.00     0.004 C 
HETATM   26  C24 UNL     1      -2.382  -0.952  -0.721  1.00  0.00     0.220 C 
BRANCH  24  27
HETATM   27  O7  UNL     1      -3.103  -4.530  -0.078  1.00  0.00    -0.357 OA
HETATM   28  C20 UNL     1      -2.667  -5.394   0.940  1.00  0.00     0.209 C 
ENDBRANCH  24  27
BRANCH  25  29
HETATM   29  C22 UNL     1      -4.560  -2.081  -0.056  1.00  0.00     0.112 C 
HETATM   30  C23 UNL     1      -5.354  -3.354  -0.108  1.00  0.00     0.031 C 
HETATM   31 CL1  UNL     1      -4.691  -1.367   1.597  1.00  0.00    -0.120 Cl
ENDBRANCH  25  29
BRANCH  26  32
HETATM   32  O8  UNL     1      -2.994   0.077  -0.002  1.00  0.00    -0.305 OA
BRANCH  32  33
HETATM   33  C25 UNL     1      -3.737   1.052  -0.688  1.00  0.00     0.283 C 
HETATM   34  O9  UNL     1      -3.826   0.958  -1.940  1.00  0.00    -0.263 OA
BRANCH  33  35
HETATM   35  C26 UNL     1      -4.377   2.139   0.075  1.00  0.00     0.278 C 
BRANCH  35  36
HETATM   36  O10 UNL     1      -5.064   2.997  -0.780  1.00  0.00    -0.382 OA
BRANCH  36  37
HETATM   37  C27 UNL     1      -5.637   3.978   0.048  1.00  0.00     0.163 C 
HETATM   38  C28 UNL     1      -6.410   4.955  -0.806  1.00  0.00     0.033 C 
ENDBRANCH  36  37
ENDBRANCH  35  36
ENDBRANCH  33  35
ENDBRANCH  32  33
ENDBRANCH  26  32
ENDBRANCH  18  19
ENDBRANCH  14  18
BRANCH  12  39
HETATM   39  O4  UNL     1       2.606   1.384  -1.748  1.00  0.00    -0.387 OA
ATOM     40  H4  UNL     1       2.061   2.134  -1.955  1.00  0.00     0.210 HD
ENDBRANCH  12  39
BRANCH  15  41
HETATM   41  O11 UNL     1      -0.496   2.003   0.525  1.00  0.00    -0.385 OA
ATOM     42  H11 UNL     1      -0.589   2.911   0.789  1.00  0.00     0.210 HD
ENDBRANCH  15  41
BRANCH  17  43
HETATM   43  O12 UNL     1       1.097   3.749   1.119  1.00  0.00    -0.388 OA
ATOM     44  H12 UNL     1       0.881   4.108   0.266  1.00  0.00     0.210 HD
ENDBRANCH  17  43
BRANCH  10  45
HETATM   45  O2  UNL     1       4.446  -2.312  -0.277  1.00  0.00    -0.384 OA
ATOM     46  H2  UNL     1       4.365  -2.816  -1.078  1.00  0.00     0.211 HD
ENDBRANCH  10  45
BRANCH  10  47
HETATM   47  C10 UNL     1       5.378  -0.789  -1.615  1.00  0.00     0.206 C 
BRANCH  47  48
HETATM   48  O3  UNL     1       5.375  -1.707  -2.669  1.00  0.00    -0.398 OA
ATOM     49  H3  UNL     1       6.119  -1.618  -3.253  1.00  0.00     0.209 HD
ENDBRANCH  47  48
ENDBRANCH  10  47
TORSDOF 15
