REMARK  1 active torsions:
REMARK  status: ('A' for Active; 'I' for Inactive)
REMARK    1  A    between atoms: C1_2  and  N1_3 
ROOT
HETATM    1  N1  UNL     1      -1.540  -0.292   0.006  1.00  0.00    -0.223 N 
HETATM    2  C2  UNL     1      -1.913   1.000   0.010  1.00  0.00     0.335 A 
HETATM    3  O2  UNL     1      -3.106   1.426   0.016  1.00  0.00    -0.246 OA
HETATM    4  N2  UNL     1      -0.817   1.785   0.008  1.00  0.00    -0.302 N 
ATOM      5  H2  UNL     1      -0.817   2.805   0.011  1.00  0.00     0.171 HD
HETATM    6  C3  UNL     1       0.283   0.997   0.001  1.00  0.00     0.120 A 
HETATM    7  C4  UNL     1       1.641   1.201  -0.004  1.00  0.00     0.135 A 
HETATM    8  S1  UNL     1       2.181   2.739  -0.003  1.00  0.00    -0.058 SA
HETATM    9  N3  UNL     1       2.533   0.194  -0.010  1.00  0.00    -0.297 N 
ATOM     10  H3  UNL     1       3.536   0.380  -0.014  1.00  0.00     0.171 HD
HETATM   11  C5  UNL     1       2.060  -1.067  -0.011  1.00  0.00     0.327 A 
HETATM   12  O3  UNL     1       2.826  -2.068  -0.017  1.00  0.00    -0.247 OA
HETATM   13  N4  UNL     1       0.736  -1.295  -0.006  1.00  0.00    -0.292 N 
ATOM     14  H4  UNL     1       0.409  -2.261  -0.007  1.00  0.00     0.172 HD
HETATM   15  C6  UNL     1      -0.186  -0.302   0.000  1.00  0.00     0.152 A 
ENDROOT
BRANCH   1  16
HETATM   16  C1  UNL     1      -2.339  -1.457   0.006  1.00  0.00     0.365 C 
HETATM   17  O1  UNL     1      -3.585  -1.343   0.012  1.00  0.00    -0.283 OA
ENDBRANCH   1  16
TORSDOF 1
