REMARK  1 active torsions:
REMARK  status: ('A' for Active; 'I' for Inactive)
REMARK    1  A    between atoms: C1_2  and  C2_4 
ROOT
HETATM    1  C2  UNL     1       1.528   0.398   0.199  1.00  0.00     0.167 A 
HETATM    2  N2  UNL     1       0.459   1.208   0.251  1.00  0.00    -0.340 N 
ATOM      3  H2  UNL     1       0.599   2.215   0.335  1.00  0.00     0.166 HD
HETATM    4  C3  UNL     1      -0.794   0.718   0.194  1.00  0.00     0.146 A 
HETATM    5  C4  UNL     1      -1.906   1.535   0.246  1.00  0.00     0.280 A 
HETATM    6  O2  UNL     1      -1.797   2.782   0.351  1.00  0.00    -0.265 OA
HETATM    7  N3  UNL     1      -3.150   1.029   0.188  1.00  0.00    -0.273 N 
ATOM      8  H3  UNL     1      -3.971   1.633   0.227  1.00  0.00     0.173 HD
HETATM    9  C5  UNL     1      -3.269  -0.311   0.076  1.00  0.00     0.328 A 
HETATM   10  O3  UNL     1      -4.415  -0.843   0.016  1.00  0.00    -0.247 OA
HETATM   11  N4  UNL     1      -2.195  -1.126   0.023  1.00  0.00    -0.292 N 
ATOM     12  H4  UNL     1      -2.346  -2.131  -0.062  1.00  0.00     0.172 HD
HETATM   13  C6  UNL     1      -0.932  -0.663   0.078  1.00  0.00     0.145 A 
HETATM   14  N5  UNL     1       0.140  -1.480   0.025  1.00  0.00    -0.305 N 
ATOM     15  H5  UNL     1       0.001  -2.487  -0.060  1.00  0.00     0.170 HD
HETATM   16  C7  UNL     1       1.389  -0.986   0.083  1.00  0.00     0.279 A 
HETATM   17  O4  UNL     1       2.391  -1.739   0.034  1.00  0.00    -0.265 OA
ENDROOT
BRANCH   1  18
HETATM   18  C1  UNL     1       2.895   0.903   0.259  1.00  0.00     0.287 C 
HETATM   19  N1  UNL     1       4.027   0.050   0.204  1.00  0.00    -0.056 NA
HETATM   20  O1  UNL     1       3.029   2.168   0.366  1.00  0.00    -0.269 OA
ENDBRANCH   1  18
TORSDOF 1
