REMARK  5 active torsions:
REMARK  status: ('A' for Active; 'I' for Inactive)
REMARK       I    between atoms: C1_2  and  N1_3 
REMARK    1  A    between atoms: C1_2  and  C9_16 
REMARK    2  A    between atoms: N1_3  and  C2_5 
REMARK    3  A    between atoms: C2_5  and  C3_6 
REMARK    4  A    between atoms: C3_6  and  C4_7 
REMARK    5  A    between atoms: C4_7  and  N2_8 
ROOT
HETATM    1  C9  UNL     1       0.948  -1.346  -0.487  1.00  0.00     0.195 C 
HETATM    2  C10 UNL     1       0.632  -0.152  -1.398  1.00  0.00     0.266 C 
HETATM    3  N4  UNL     1       1.866   0.203  -2.072  1.00  0.00    -0.073 N 
ATOM      4  H41 UNL     1       1.835  -0.058  -3.057  1.00  0.00     0.277 HD
ATOM      5  H42 UNL     1       2.635  -0.394  -1.769  1.00  0.00     0.277 HD
HETATM    6  C11 UNL     1       2.201   1.611  -1.913  1.00  0.00     0.234 C 
HETATM    7  C12 UNL     1       3.652   1.811  -2.267  1.00  0.00     0.055 C 
HETATM    8  C13 UNL     1       4.385   2.696  -1.283  1.00  0.00     0.234 C 
HETATM    9  N5  UNL     1       4.520   2.068   0.007  1.00  0.00    -0.073 N 
ATOM     10  H51 UNL     1       3.628   1.680   0.314  1.00  0.00     0.277 HD
ATOM     11  H52 UNL     1       4.660   2.768   0.735  1.00  0.00     0.277 HD
HETATM   12  C14 UNL     1       5.554   1.068   0.057  1.00  0.00     0.259 C 
HETATM   13  C15 UNL     1       5.153  -0.138   0.882  1.00  0.00     0.259 C 
HETATM   14  N6  UNL     1       4.670  -1.194   0.015  1.00  0.00    -0.072 N 
ATOM     15  H61 UNL     1       5.427  -1.550  -0.569  1.00  0.00     0.277 HD
ATOM     16  H62 UNL     1       4.059  -0.811  -0.706  1.00  0.00     0.277 HD
HETATM   17  C16 UNL     1       4.023  -2.265   0.700  1.00  0.00     0.251 C 
HETATM   18  C17 UNL     1       2.616  -1.960   1.165  1.00  0.00     0.142 C 
HETATM   19  N7  UNL     1       2.055  -0.969   0.316  1.00  0.00    -0.406 N 
ATOM     20  H7  UNL     1       2.434  -0.022   0.285  1.00  0.00     0.154 HD
ENDROOT
BRANCH   1  21
HETATM   21  C1  UNL     1      -0.241  -1.770   0.265  1.00  0.00     0.241 C 
HETATM   22  O1  UNL     1      -0.196  -1.769   1.543  1.00  0.00    -0.271 OA
HETATM   23  N1  UNL     1      -1.441  -2.183  -0.371  1.00  0.00    -0.359 N 
ATOM     24  H1  UNL     1      -1.472  -2.183  -1.391  1.00  0.00     0.162 HD
BRANCH  23  25
HETATM   25  C2  UNL     1      -2.616  -2.601   0.346  1.00  0.00     0.124 C 
BRANCH  25  26
HETATM   26  C3  UNL     1      -3.171  -1.517   1.259  1.00  0.00     0.050 C 
BRANCH  26  27
HETATM   27  C4  UNL     1      -3.553  -0.290   0.483  1.00  0.00     0.274 C 
BRANCH  27  28
HETATM   28  N2  UNL     1      -4.057   0.736   1.329  1.00  0.00     0.091 N 
HETATM   29  C5  UNL     1      -4.427   1.924   0.551  1.00  0.00     0.300 C 
HETATM   30  C6  UNL     1      -5.761   1.680  -0.145  1.00  0.00     0.262 C 
HETATM   31  N3  UNL     1      -6.779   1.406   0.848  1.00  0.00    -0.072 N 
HETATM   32  C7  UNL     1      -6.426   0.136   1.493  1.00  0.00     0.262 C 
ATOM     33  H32 UNL     1      -6.905   2.170   1.512  1.00  0.00     0.277 HD
ATOM     34  H31 UNL     1      -7.724   1.409   0.463  1.00  0.00     0.277 HD
HETATM   35  C8  UNL     1      -5.105   0.358   2.223  1.00  0.00     0.300 C 
ENDBRANCH  27  28
ENDBRANCH  26  27
ENDBRANCH  25  26
ENDBRANCH  23  25
ENDBRANCH   1  21
TORSDOF 5
