REMARK  7 active torsions:
REMARK  status: ('A' for Active; 'I' for Inactive)
REMARK    1  A    between atoms: N1_1  and  C1_4 
REMARK    2  A    between atoms: C2_7  and  N3_8 
REMARK       I    between atoms: N3_8  and  C3_10 
REMARK    3  A    between atoms: C3_10  and  C4_12 
REMARK    4  A    between atoms: C4_12  and  N4_13 
REMARK    5  A    between atoms: C10_25  and  C11_26 
REMARK    6  A    between atoms: N8_27  and  C12_29 
REMARK    7  A    between atoms: C12_29  and  C13_30 
ROOT
HETATM    1  C1  UNL     1       1.312   1.138   1.239  1.00  0.00     0.129 A 
HETATM    2  N2  UNL     1       0.109   1.675   1.478  1.00  0.00    -0.176 N 
ATOM      3  H2  UNL     1       0.046   2.640   1.803  1.00  0.00     0.186 HD
HETATM    4  C2  UNL     1      -1.037   0.951   1.293  1.00  0.00     0.687 A 
HETATM    5  N6  UNL     1      -0.897  -0.302   0.865  1.00  0.00    -0.177 N 
ATOM      6  H6  UNL     1      -1.745  -0.850   0.722  1.00  0.00     0.185 HD
HETATM    7  C9  UNL     1       0.289  -0.903   0.605  1.00  0.00     0.147 A 
HETATM    8  N7  UNL     1       0.375  -2.236   0.153  1.00  0.00    -0.081 NA
HETATM    9  C10 UNL     1       1.435  -0.167   0.795  1.00  0.00     0.065 A 
ENDROOT
BRANCH   4  10
HETATM   10  N3  UNL     1      -2.161   1.530   1.545  1.00  0.00    -0.158 N 
HETATM   11  C3  UNL     1      -3.364   0.775   1.354  1.00  0.00     0.264 C 
HETATM   12  O1  UNL     1      -3.634  -0.201   2.077  1.00  0.00    -0.271 OA
ATOM     13  H3  UNL     1      -2.193   2.496   1.870  1.00  0.00     0.187 HD
BRANCH  11  14
HETATM   14  C4  UNL     1      -4.251   1.211   0.270  1.00  0.00     0.375 C 
BRANCH  14  15
HETATM   15  N4  UNL     1      -5.427   0.402   0.119  1.00  0.00     0.100 N 
HETATM   16  C5  UNL     1      -5.120  -0.875  -0.392  1.00  0.00     0.300 C 
HETATM   17  C6  UNL     1      -6.326  -1.677  -0.827  1.00  0.00     0.262 C 
HETATM   18  N5  UNL     1      -7.553  -0.918  -0.700  1.00  0.00    -0.072 N 
HETATM   19  C7  UNL     1      -7.332   0.317  -1.458  1.00  0.00     0.262 C 
ATOM     20  H52 UNL     1      -8.385  -1.433  -0.989  1.00  0.00     0.277 HD
ATOM     21  H51 UNL     1      -7.839  -0.760   0.266  1.00  0.00     0.277 HD
HETATM   22  C8  UNL     1      -6.392   1.153  -0.648  1.00  0.00     0.300 C 
ENDBRANCH  14  15
ENDBRANCH  11  14
ENDBRANCH   4  10
BRANCH   1  23
HETATM   23  N1  UNL     1       2.409   1.807   1.409  1.00  0.00    -0.384 N 
ATOM     24  H12 UNL     1       2.318   2.769   1.736  1.00  0.00     0.157 HD
ATOM     25  H11 UNL     1       3.325   1.398   1.227  1.00  0.00     0.157 HD
ENDBRANCH   1  23
BRANCH   9  26
HETATM   26  C11 UNL     1       2.769  -0.699   0.558  1.00  0.00     0.101 C 
HETATM   27  N8  UNL     1       3.833  -0.009   0.742  1.00  0.00    -0.396 N 
ATOM     28  H8  UNL     1       3.701   0.948   1.068  1.00  0.00     0.158 HD
BRANCH  27  29
HETATM   29  C12 UNL     1       5.179  -0.430   0.542  1.00  0.00     0.152 C 
BRANCH  29  30
HETATM   30  C13 UNL     1       5.460  -0.629  -0.913  1.00  0.00     0.203 C 
HETATM   31  C14 UNL     1       6.891  -1.078  -1.156  1.00  0.00     0.036 C 
HETATM   32  C15 UNL     1       7.636   0.237  -1.157  1.00  0.00     0.029 C 
HETATM   33  C16 UNL     1       6.647   1.189  -1.747  1.00  0.00     0.233 C 
HETATM   34  N9  UNL     1       5.344   0.613  -1.608  1.00  0.00    -0.069 N 
ATOM     35  H92 UNL     1       4.864   0.515  -2.503  1.00  0.00     0.277 HD
ATOM     36  H91 UNL     1       4.683   1.249  -1.161  1.00  0.00     0.277 HD
ENDBRANCH  29  30
ENDBRANCH  27  29
ENDBRANCH   9  26
TORSDOF 7
