REMARK  7 active torsions:
REMARK  status: ('A' for Active; 'I' for Inactive)
REMARK    1  A    between atoms: C1_2  and  C2_4 
REMARK    2  A    between atoms: C2_4  and  C3_5 
REMARK    3  A    between atoms: C3_5  and  N1_6 
REMARK    4  A    between atoms: N1_6  and  C4_8 
REMARK    5  A    between atoms: C5_11  and  N3_12 
REMARK    6  A    between atoms: N3_12  and  C6_14 
REMARK    7  A    between atoms: C6_14  and  C7_15 
ROOT
HETATM    1  C4  UNL     1      -1.694  -0.629  -0.414  1.00  0.00     0.137 A 
HETATM    2  N2  UNL     1      -0.614   0.170  -0.461  1.00  0.00    -0.176 N 
ATOM      3  H2  UNL     1      -0.742   1.150  -0.712  1.00  0.00     0.186 HD
HETATM    4  C5  UNL     1       0.637  -0.272  -0.189  1.00  0.00     0.682 A 
HETATM    5  N7  UNL     1       0.868  -1.551   0.148  1.00  0.00    -0.169 N 
ATOM      6  H7  UNL     1       1.812  -1.878   0.353  1.00  0.00     0.186 HD
HETATM    7  C9  UNL     1      -0.193  -2.395   0.208  1.00  0.00     0.187 A 
HETATM    8  O4  UNL     1      -0.044  -3.658   0.529  1.00  0.00    -0.242 OA
HETATM    9  C10 UNL     1      -1.029  -4.517   0.603  1.00  0.00     0.374 A 
HETATM   10  O5  UNL     1      -0.845  -5.737   0.918  1.00  0.00    -0.238 OA
HETATM   11  N8  UNL     1      -2.293  -4.110   0.337  1.00  0.00    -0.268 N 
ATOM     12  H8  UNL     1      -3.062  -4.778   0.394  1.00  0.00     0.174 HD
HETATM   13  C11 UNL     1      -2.542  -2.844   0.002  1.00  0.00     0.268 A 
HETATM   14  O6  UNL     1      -3.689  -2.405  -0.256  1.00  0.00    -0.267 OA
HETATM   15  C12 UNL     1      -1.475  -1.958  -0.067  1.00  0.00     0.128 A 
ENDROOT
BRANCH   4  16
HETATM   16  N3  UNL     1       1.634   0.543  -0.250  1.00  0.00    -0.219 N 
ATOM     17  H3  UNL     1       1.462   1.515  -0.505  1.00  0.00     0.178 HD
BRANCH  16  18
HETATM   18  C6  UNL     1       2.993   0.122   0.032  1.00  0.00     0.216 C 
BRANCH  18  19
HETATM   19  C7  UNL     1       3.919   1.280   0.064  1.00  0.00     0.118 A 
HETATM   20  N4  UNL     1       3.684   2.559  -0.200  1.00  0.00    -0.283 N 
HETATM   21  N5  UNL     1       4.811   3.240  -0.040  1.00  0.00    -0.250 N 
ATOM     22  H4  UNL     1       2.786   2.953  -0.480  1.00  0.00     0.188 HD
HETATM   23  C8  UNL     1       5.788   2.383   0.333  1.00  0.00     0.340 A 
ATOM     24  H5  UNL     1       4.922   4.245  -0.176  1.00  0.00     0.192 HD
HETATM   25  O3  UNL     1       6.979   2.714   0.565  1.00  0.00    -0.245 OA
HETATM   26  N6  UNL     1       5.219   1.167   0.394  1.00  0.00    -0.294 N 
ATOM     27  H6  UNL     1       5.694   0.301   0.648  1.00  0.00     0.172 HD
ENDBRANCH  18  19
ENDBRANCH  16  18
ENDBRANCH   4  16
BRANCH   1  28
HETATM   28  N1  UNL     1      -2.891  -0.302  -0.655  1.00  0.00    -0.374 N 
ATOM     29  H1  UNL     1      -3.604  -1.027  -0.575  1.00  0.00     0.161 HD
BRANCH  28  30
HETATM   30  C3  UNL     1      -3.321   1.017  -1.034  1.00  0.00     0.132 C 
BRANCH  30  31
HETATM   31  C2  UNL     1      -4.014   1.708   0.124  1.00  0.00     0.132 C 
BRANCH  31  32
HETATM   32  C1  UNL     1      -3.145   1.863   1.310  1.00  0.00     0.174 C 
HETATM   33  O1  UNL     1      -2.995   0.875   2.070  1.00  0.00    -0.648 OA
HETATM   34  O2  UNL     1      -2.533   3.090   1.536  1.00  0.00    -0.648 OA
ENDBRANCH  31  32
ENDBRANCH  30  31
ENDBRANCH  28  30
ENDBRANCH   1  28
TORSDOF 7
