REMARK  7 active torsions:
REMARK  status: ('A' for Active; 'I' for Inactive)
REMARK    1  A    between atoms: N1_2  and  C2_3 
REMARK    2  A    between atoms: N1_2  and  S1_27 
REMARK    3  A    between atoms: C2_3  and  C3_4 
REMARK    4  A    between atoms: C3_4  and  N2_5 
REMARK    5  A    between atoms: C3_4  and  C9_22 
REMARK    6  A    between atoms: C5_11  and  N5_12 
REMARK    7  A    between atoms: C9_22  and  O3_25 
ROOT
HETATM    1  N2  UNL     1       0.182   0.343   0.317  1.00  0.00    -0.242 N 
HETATM    2  N3  UNL     1       1.125  -0.140  -0.479  1.00  0.00    -0.278 N 
ATOM      3  H3  UNL     1       1.001  -0.329  -1.474  1.00  0.00     0.189 HD
HETATM    4  C4  UNL     1       2.264  -0.347   0.198  1.00  0.00     0.157 A 
HETATM    5  N4  UNL     1       3.494  -0.811  -0.117  1.00  0.00    -0.174 N 
ATOM      6  H4  UNL     1       3.699  -1.097  -1.074  1.00  0.00     0.186 HD
HETATM    7  C5  UNL     1       4.447  -0.897   0.824  1.00  0.00     0.680 A 
HETATM    8  N6  UNL     1       4.184  -0.521   2.099  1.00  0.00    -0.155 N 
ATOM      9  H6  UNL     1       4.922  -0.596   2.799  1.00  0.00     0.187 HD
HETATM   10  C6  UNL     1       2.989  -0.056   2.466  1.00  0.00     0.279 A 
HETATM   11  O1  UNL     1       2.711   0.301   3.635  1.00  0.00    -0.266 OA
HETATM   12  C7  UNL     1       2.004   0.034   1.492  1.00  0.00     0.147 A 
HETATM   13  C8  UNL     1       0.702   0.461   1.552  1.00  0.00     0.282 A 
HETATM   14  O2  UNL     1       0.129   0.887   2.609  1.00  0.00    -0.265 OA
ENDROOT
BRANCH   1  15
HETATM   15  C3  UNL     1      -1.186   0.702  -0.014  1.00  0.00     0.184 C 
BRANCH  15  16
HETATM   16  C2  UNL     1      -1.822  -0.300  -0.943  1.00  0.00     0.108 C 
BRANCH  16  17
HETATM   17  N1  UNL     1      -1.896  -1.598  -0.450  1.00  0.00    -0.274 N 
HETATM   18  C1  UNL     1      -1.112  -2.612  -1.028  1.00  0.00     0.171 C 
BRANCH  17  19
HETATM   19  S1  UNL     1      -3.254  -2.058   0.420  1.00  0.00     0.210 S 
HETATM   20  O4  UNL     1      -3.751  -3.392  -0.123  1.00  0.00    -0.578 OA
HETATM   21  O5  UNL     1      -4.326  -1.015   0.306  1.00  0.00    -0.578 OA
HETATM   22  O6  UNL     1      -2.823  -2.287   2.037  1.00  0.00    -0.578 OA
ENDBRANCH  17  19
ENDBRANCH  16  17
ENDBRANCH  15  16
BRANCH  15  23
HETATM   23  C9  UNL     1      -1.210   2.103  -0.588  1.00  0.00     0.078 C 
HETATM   24  C10 UNL     1      -2.618   2.556  -0.840  1.00  0.00     0.048 C 
HETATM   25  C11 UNL     1      -0.319   2.252  -1.788  1.00  0.00     0.048 C 
BRANCH  23  26
HETATM   26  O3  UNL     1      -0.691   2.943   0.423  1.00  0.00    -0.388 OA
ATOM     27  H3  UNL     1      -0.706   3.822   0.063  1.00  0.00     0.210 HD
ENDBRANCH  23  26
ENDBRANCH  15  23
ENDBRANCH   1  15
BRANCH   7  28
HETATM   28  N5  UNL     1       5.623  -1.345   0.505  1.00  0.00    -0.234 N 
ATOM     29  H52 UNL     1       5.821  -1.628  -0.455  1.00  0.00     0.174 HD
ATOM     30  H51 UNL     1       6.347  -1.410   1.220  1.00  0.00     0.174 HD
ENDBRANCH   7  28
TORSDOF 7
