REMARK  4 active torsions:
REMARK  status: ('A' for Active; 'I' for Inactive)
REMARK    1  A    between atoms: N1_1  and  N2_4 
REMARK    2  A    between atoms: N2_4  and  S1_6 
REMARK    3  A    between atoms: S1_6  and  N3_9 
REMARK    4  A    between atoms: N3_9  and  C1_11 
ROOT
HETATM    1  N3  UNL     1      -0.655   0.477   0.589  1.00  0.00    -0.252 N 
ATOM      2  H3  UNL     1      -1.094   1.368   0.822  1.00  0.00     0.182 HD
ENDROOT
BRANCH   1   3
HETATM    3  S1  UNL     1      -1.641  -0.932   0.567  1.00  0.00     0.337 S 
HETATM    4  O1  UNL     1      -1.076  -1.905   1.572  1.00  0.00    -0.181 OA
HETATM    5  O2  UNL     1      -1.628  -1.546  -0.790  1.00  0.00    -0.181 OA
BRANCH   3   6
HETATM    6  N2  UNL     1      -3.260  -0.610   1.014  1.00  0.00    -0.216 N 
ATOM      7  H2  UNL     1      -3.618  -0.647   1.968  1.00  0.00     0.201 HD
BRANCH   6   8
HETATM    8  N1  UNL     1      -4.032  -0.285  -0.124  1.00  0.00    -0.335 N 
ATOM      9  H12 UNL     1      -3.661  -0.251  -1.073  1.00  0.00     0.177 HD
ATOM     10  H11 UNL     1      -4.998  -0.093   0.143  1.00  0.00     0.177 HD
ENDBRANCH   6   8
ENDBRANCH   3   6
ENDBRANCH   1   3
BRANCH   1  11
HETATM   11  C1  UNL     1       0.587   0.470   0.332  1.00  0.00     0.121 A 
HETATM   12  C2  UNL     1       1.295  -0.680   0.002  1.00  0.00     0.066 A 
HETATM   13  C3  UNL     1       2.648  -0.596  -0.263  1.00  0.00     0.096 A 
HETATM   14  N4  UNL     1       3.308   0.573  -0.212  1.00  0.00    -0.319 N 
HETATM   15  C4  UNL     1       2.615   1.672   0.107  1.00  0.00     0.325 A 
ATOM     16  H4  UNL     1       4.307   0.621  -0.411  1.00  0.00     0.170 HD
HETATM   17  O3  UNL     1       3.196   2.788   0.165  1.00  0.00    -0.247 OA
HETATM   18  N5  UNL     1       1.292   1.610   0.369  1.00  0.00    -0.294 N 
ATOM     19  H5  UNL     1       0.804   2.474   0.607  1.00  0.00     0.172 HD
ENDBRANCH   1  11
TORSDOF 4
