REMARK  6 active torsions:
REMARK  status: ('A' for Active; 'I' for Inactive)
REMARK    1  A    between atoms: C8_8  and  S1_9 
REMARK    2  A    between atoms: S1_9  and  C9_10 
REMARK    3  A    between atoms: C9_10  and  C10_11 
REMARK    4  A    between atoms: C10_11  and  C11_16 
REMARK    5  A    between atoms: N1_12  and  O1_14 
REMARK    6  A    between atoms: C16_21  and  N2_22 
ROOT
HETATM    1  C10 UNL     1       1.894   0.795  -0.174  1.00  0.00     0.053 C 
HETATM    2  N1  UNL     1       2.292   1.716   0.591  1.00  0.00    -0.272 N 
ATOM      3  H1  UNL     1       3.293   1.911   0.572  1.00  0.00     0.194 HD
ENDROOT
BRANCH   1   4
HETATM    4  C9  UNL     1       0.459   0.421  -0.232  1.00  0.00     0.136 C 
BRANCH   4   5
HETATM    5  S1  UNL     1      -0.568   1.396   0.877  1.00  0.00    -0.131 SA
BRANCH   5   6
HETATM    6  C8  UNL     1      -2.284   0.838   0.714  1.00  0.00     0.184 C 
HETATM    7  C7  UNL     1      -2.347  -0.579   1.236  1.00  0.00     0.051 C 
HETATM    8  C4  UNL     1      -3.660  -1.245   1.005  1.00  0.00    -0.042 C 
HETATM    9  C3  UNL     1      -4.523  -0.322   0.181  1.00  0.00     0.040 C 
HETATM   10  C5  UNL     1      -4.380  -1.500   2.308  1.00  0.00     0.015 C 
HETATM   11  C6  UNL     1      -3.517  -2.559   0.275  1.00  0.00     0.015 C 
HETATM   12  C2  UNL     1      -3.789   0.296  -0.963  1.00  0.00     0.119 C 
HETATM   13  C1  UNL     1      -4.758   1.181  -1.720  1.00  0.00     0.039 C 
HETATM   14  O3  UNL     1      -2.629   0.938  -0.622  1.00  0.00    -0.371 OA
ENDBRANCH   5   6
ENDBRANCH   4   5
ENDBRANCH   1   4
BRANCH   1  15
HETATM   15  C11 UNL     1       2.855   0.055  -1.037  1.00  0.00     0.018 A 
HETATM   16  C12 UNL     1       2.347  -0.874  -1.920  1.00  0.00     0.016 A 
HETATM   17  C13 UNL     1       3.145  -1.570  -2.802  1.00  0.00     0.001 A 
HETATM   18  C14 UNL     1       4.502  -1.319  -2.792  1.00  0.00     0.002 A 
HETATM   19  C15 UNL     1       5.003  -0.390  -1.906  1.00  0.00     0.032 A 
HETATM   20  C16 UNL     1       4.183   0.317  -1.007  1.00  0.00     0.069 A 
BRANCH  20  21
HETATM   21  N2  UNL     1       4.876   1.187  -0.130  1.00  0.00    -0.256 N 
HETATM   22  C17 UNL     1       5.394   1.219   1.218  1.00  0.00     0.185 C 
HETATM   23  C18 UNL     1       6.451   2.132   0.573  1.00  0.00     0.223 C 
HETATM   24  O2  UNL     1       5.380   2.466  -0.271  1.00  0.00    -0.276 OA
ENDBRANCH  20  21
ENDBRANCH   1  15
BRANCH   2  25
HETATM   25  O1  UNL     1       1.571   2.460   1.415  1.00  0.00    -0.290 OA
ATOM     26  H1  UNL     1       1.871   3.153   1.991  1.00  0.00     0.244 HD
ENDBRANCH   2  25
TORSDOF 6
