REMARK  2 active torsions:
REMARK  status: ('A' for Active; 'I' for Inactive)
REMARK    1  A    between atoms: N1_1  and  C1_4 
REMARK    2  A    between atoms: C2_10  and  N4_11 
ROOT
HETATM    1  C1  UNL     1       0.776  -0.231  -0.026  1.00  0.00     0.151 A 
HETATM    2  N2  UNL     1       1.451   0.924  -0.035  1.00  0.00    -0.296 N 
ATOM      3  H2  UNL     1       2.460   1.067  -0.065  1.00  0.00     0.177 HD
HETATM    4  S1  UNL     1       0.233   2.084   0.015  1.00  0.00     0.070 SA
HETATM    5  N3  UNL     1      -1.107   1.071   0.045  1.00  0.00    -0.296 N 
ATOM      6  H3  UNL     1      -2.094   1.326   0.077  1.00  0.00     0.177 HD
HETATM    7  C2  UNL     1      -0.565  -0.150   0.016  1.00  0.00     0.151 A 
ENDROOT
BRANCH   1   8
HETATM    8  N1  UNL     1       1.479  -1.363  -0.060  1.00  0.00    -0.382 N 
ATOM      9  H12 UNL     1       2.497  -1.424  -0.092  1.00  0.00     0.157 HD
ATOM     10  H11 UNL     1       0.964  -2.244  -0.053  1.00  0.00     0.157 HD
ENDBRANCH   1   8
BRANCH   7  11
HETATM   11  N4  UNL     1      -1.315  -1.245   0.027  1.00  0.00    -0.382 N 
ATOM     12  H42 UNL     1      -0.901  -2.177   0.005  1.00  0.00     0.157 HD
ATOM     13  H41 UNL     1      -2.333  -1.184   0.059  1.00  0.00     0.157 HD
ENDBRANCH   7  11
TORSDOF 2
