REMARK  4 active torsions:
REMARK  status: ('A' for Active; 'I' for Inactive)
REMARK       I    between atoms: C2_2  and  N1_4 
REMARK    1  A    between atoms: N1_4  and  N2_6 
REMARK    2  A    between atoms: C3_8  and  C5_11 
REMARK    3  A    between atoms: C6_12  and  N4_13 
REMARK    4  A    between atoms: C7_20  and  N7_21 
ROOT
HETATM    1  N2  UNL     1       0.620   0.409   0.793  1.00  0.00    -0.287 N 
ATOM      2  H2  UNL     1       0.230   0.069   1.672  1.00  0.00     0.188 HD
HETATM    3  C3  UNL     1      -0.087   0.336  -0.266  1.00  0.00     0.146 C 
HETATM    4  C4  UNL     1       0.511   0.833  -1.500  1.00  0.00     0.120 C 
HETATM    5  N3  UNL     1       1.012   1.235  -2.460  1.00  0.00    -0.190 NA
ENDROOT
BRANCH   3   6
HETATM    6  C5  UNL     1      -1.426  -0.201  -0.323  1.00  0.00     0.099 A 
HETATM    7  C6  UNL     1      -2.207  -0.727   0.680  1.00  0.00     0.205 A 
HETATM    8  N5  UNL     1      -3.382  -1.083   0.065  1.00  0.00    -0.278 N 
HETATM    9  N6  UNL     1      -3.336  -0.806  -1.196  1.00  0.00    -0.283 N 
ATOM     10  H5  UNL     1      -4.180  -1.507   0.538  1.00  0.00     0.189 HD
HETATM   11  C7  UNL     1      -2.160  -0.256  -1.530  1.00  0.00     0.131 A 
ATOM     12  H6  UNL     1      -4.096  -0.983  -1.853  1.00  0.00     0.188 HD
BRANCH   7  13
HETATM   13  N4  UNL     1      -1.928  -0.892   2.048  1.00  0.00    -0.095 N 
HETATM   14  O2  UNL     1      -2.860  -1.422   2.773  1.00  0.00    -0.530 OA
HETATM   15  O3  UNL     1      -0.811  -0.574   2.735  1.00  0.00    -0.530 OA
ENDBRANCH   7  13
BRANCH  11  16
HETATM   16  N7  UNL     1      -1.785   0.137  -2.703  1.00  0.00    -0.384 N 
ATOM     17  H72 UNL     1      -0.890   0.555  -2.957  1.00  0.00     0.157 HD
ATOM     18  H71 UNL     1      -2.315   0.097  -3.574  1.00  0.00     0.157 HD
ENDBRANCH  11  16
ENDBRANCH   3   6
BRANCH   1  19
HETATM   19  N1  UNL     1       1.910   0.939   0.786  1.00  0.00    -0.269 N 
HETATM   20  C2  UNL     1       3.067   0.134   0.691  1.00  0.00     0.232 C 
HETATM   21  C1  UNL     1       4.414   0.733   0.688  1.00  0.00     0.119 C 
HETATM   22  O1  UNL     1       2.946  -1.108   0.609  1.00  0.00    -0.272 OA
ATOM     23  H1  UNL     1       2.023   1.951   0.852  1.00  0.00     0.190 HD
ENDBRANCH   1  19
TORSDOF 4
