REMARK  7 active torsions:
REMARK  status: ('A' for Active; 'I' for Inactive)
REMARK    1  A    between atoms: N1_2  and  C2_5 
REMARK    2  A    between atoms: C2_5  and  C3_6 
REMARK    3  A    between atoms: C7_12  and  N3_13 
REMARK    4  A    between atoms: N3_13  and  C8_14 
REMARK    5  A    between atoms: C8_14  and  N4_15 
REMARK    6  A    between atoms: C8_14  and  C9_19 
REMARK    7  A    between atoms: C9_19  and  C10_20 
ROOT
HETATM    1  N3  UNL     1      -0.026   0.542  -0.730  1.00  0.00    -0.396 NA
ENDROOT
BRANCH   1   2
HETATM    2  C7  UNL     1      -0.566   1.016   0.259  1.00  0.00     0.183 A 
HETATM    3  C3  UNL     1      -1.883   0.684   0.607  1.00  0.00     0.025 A 
HETATM    4  C4  UNL     1      -2.448   1.223   1.723  1.00  0.00     0.015 A 
HETATM    5  C5  UNL     1      -1.775   2.100   2.548  1.00  0.00     0.018 A 
HETATM    6  C6  UNL     1      -0.485   2.402   2.173  1.00  0.00     0.090 A 
HETATM    7  N2  UNL     1       0.072   1.886   1.094  1.00  0.00    -0.341 N 
ATOM      8  H2  UNL     1       1.031   2.152   0.872  1.00  0.00     0.167 HD
BRANCH   3   9
HETATM    9  C2  UNL     1      -2.660  -0.252  -0.264  1.00  0.00     0.275 C 
BRANCH   9  10
HETATM   10  N1  UNL     1      -4.000  -0.454   0.304  1.00  0.00    -0.075 N 
HETATM   11  C1  UNL     1      -4.760  -1.350  -0.527  1.00  0.00     0.267 C 
ATOM     12  H12 UNL     1      -4.487   0.429   0.457  1.00  0.00     0.277 HD
ATOM     13  H11 UNL     1      -3.960  -0.773   1.272  1.00  0.00     0.277 HD
ENDBRANCH   9  10
ENDBRANCH   3   9
ENDBRANCH   1   2
BRANCH   1  14
HETATM   14  C8  UNL     1       0.612   0.068  -1.780  1.00  0.00     0.364 C 
BRANCH  14  15
HETATM   15  N4  UNL     1      -0.355  -0.522  -2.748  1.00  0.00    -0.046 N 
ATOM     16  H43 UNL     1      -0.948  -1.228  -2.312  1.00  0.00     0.278 HD
ATOM     17  H42 UNL     1      -1.082   0.142  -3.012  1.00  0.00     0.278 HD
ATOM     18  H41 UNL     1       0.139  -0.889  -3.561  1.00  0.00     0.278 HD
ENDBRANCH  14  15
BRANCH  14  19
HETATM   19  C9  UNL     1       1.574  -1.117  -1.539  1.00  0.00     0.107 C 
BRANCH  19  20
HETATM   20  C10 UNL     1       2.645  -0.796  -0.604  1.00  0.00    -0.053 A 
HETATM   21  C11 UNL     1       2.477  -1.021   0.754  1.00  0.00     0.007 A 
HETATM   22  C12 UNL     1       3.484  -0.720   1.660  1.00  0.00     0.001 A 
HETATM   23  C13 UNL     1       4.690  -0.189   1.261  1.00  0.00     0.000 A 
HETATM   24  C14 UNL     1       4.855   0.036  -0.104  1.00  0.00     0.001 A 
HETATM   25  C15 UNL     1       3.845  -0.268  -0.995  1.00  0.00     0.007 A 
ENDBRANCH  19  20
ENDBRANCH  14  19
ENDBRANCH   1  14
TORSDOF 7
