REMARK  14 active torsions:
REMARK  status: ('A' for Active; 'I' for Inactive)
REMARK    1  A    between atoms: O1_2  and  C2_3 
REMARK    2  A    between atoms: C2_3  and  C3_4 
REMARK    3  A    between atoms: C3_4  and  C4_5 
REMARK    4  A    between atoms: C4_5  and  N1_6 
REMARK    5  A    between atoms: N1_6  and  C5_8 
REMARK    6  A    between atoms: C5_8  and  N2_10 
REMARK    7  A    between atoms: N3_13  and  C8_14 
REMARK    8  A    between atoms: C9_17  and  N5_18 
REMARK    9  A    between atoms: N5_18  and  C10_20 
REMARK   10  A    between atoms: C14_26  and  N7_27 
REMARK   11  A    between atoms: C18_31  and  C19_32 
REMARK   12  A    between atoms: C19_32  and  O2_33 
REMARK   13  A    between atoms: O2_33  and  C20_34 
REMARK   14  A    between atoms: C20_34  and  C21_35 
ROOT
HETATM    1  C8  UNL     1      -0.683  -1.343   0.086  1.00  0.00     0.709 A 
HETATM    2  N4  UNL     1      -0.944  -2.450   0.801  1.00  0.00    -0.021 N 
ATOM      3  H4  UNL     1      -0.172  -2.926   1.268  1.00  0.00     0.203 HD
HETATM    4  C9  UNL     1      -2.182  -2.952   0.924  1.00  0.00     0.707 A 
HETATM    5  N6  UNL     1      -3.188  -2.320   0.308  1.00  0.00    -0.021 N 
ATOM      6  H6  UNL     1      -4.131  -2.697   0.398  1.00  0.00     0.203 HD
HETATM    7  C14 UNL     1      -3.003  -1.191  -0.436  1.00  0.00     0.709 A 
HETATM    8  N9  UNL     1      -1.732  -0.744  -0.515  1.00  0.00    -0.021 N 
ATOM      9  H9  UNL     1      -1.554   0.098  -1.062  1.00  0.00     0.203 HD
ENDROOT
BRANCH   1  10
HETATM   10  N3  UNL     1       0.642  -0.860  -0.014  1.00  0.00    -0.214 N 
HETATM   11  C7  UNL     1       1.031   0.353  -0.706  1.00  0.00     0.161 C 
HETATM   12  C6  UNL     1       2.235   0.997  -0.056  1.00  0.00     0.145 C 
HETATM   13  N2  UNL     1       3.309   0.029   0.159  1.00  0.00    -0.355 N 
HETATM   14  C26 UNL     1       3.002  -1.339  -0.135  1.00  0.00     0.145 C 
HETATM   15  C25 UNL     1       1.702  -1.652   0.625  1.00  0.00     0.161 C 
BRANCH  13  16
HETATM   16  C5  UNL     1       4.580   0.433   0.634  1.00  0.00     0.169 C 
HETATM   17  S1  UNL     1       4.755   2.047   0.948  1.00  0.00    -0.041 SA
BRANCH  16  18
HETATM   18  N1  UNL     1       5.659  -0.451   0.859  1.00  0.00    -0.367 N 
ATOM     19  H1  UNL     1       5.502  -1.441   0.669  1.00  0.00     0.161 HD
BRANCH  18  20
HETATM   20  C4  UNL     1       6.949  -0.072   1.330  1.00  0.00     0.124 C 
BRANCH  20  21
HETATM   21  C3  UNL     1       7.767   0.731   0.319  1.00  0.00     0.046 C 
BRANCH  21  22
HETATM   22  C2  UNL     1       9.127   1.072   0.925  1.00  0.00     0.168 C 
BRANCH  22  23
HETATM   23  O1  UNL     1       9.861   1.781   0.017  1.00  0.00    -0.396 OA
HETATM   24  C1  UNL     1       9.306   2.975  -0.385  1.00  0.00     0.201 C 
ENDBRANCH  22  23
ENDBRANCH  21  22
ENDBRANCH  20  21
ENDBRANCH  18  20
ENDBRANCH  16  18
ENDBRANCH  13  16
ENDBRANCH   1  10
BRANCH   4  25
HETATM   25  N5  UNL     1      -2.334  -4.019   1.632  1.00  0.00    -0.220 N 
ATOM     26  H5  UNL     1      -3.269  -4.412   1.736  1.00  0.00     0.178 HD
BRANCH  25  27
HETATM   27  C10 UNL     1      -1.220  -4.679   2.285  1.00  0.00     0.099 C 
HETATM   28  C11 UNL     1      -1.614  -6.091   2.648  1.00  0.00     0.026 C 
HETATM   29  C12 UNL     1      -0.350  -6.574   1.970  1.00  0.00     0.004 C 
HETATM   30  C13 UNL     1      -0.302  -5.256   1.228  1.00  0.00     0.026 C 
ENDBRANCH  25  27
ENDBRANCH   4  25
BRANCH   7  31
HETATM   31  N7  UNL     1      -4.082  -0.551  -1.080  1.00  0.00    -0.210 N 
HETATM   32  C15 UNL     1      -5.460  -0.961  -1.049  1.00  0.00     0.142 C 
HETATM   33  C16 UNL     1      -5.944  -0.601  -2.438  1.00  0.00     0.022 C 
HETATM   34  C17 UNL     1      -4.800   0.135  -3.124  1.00  0.00     0.030 C 
HETATM   35  C18 UNL     1      -4.021   0.626  -1.898  1.00  0.00     0.126 C 
BRANCH  35  36
HETATM   36  C19 UNL     1      -4.824   1.771  -1.337  1.00  0.00     0.194 C 
BRANCH  36  37
HETATM   37  O2  UNL     1      -4.403   2.167  -0.092  1.00  0.00    -0.383 OA
BRANCH  37  38
HETATM   38  C20 UNL     1      -5.144   3.212   0.430  1.00  0.00     0.224 C 
BRANCH  38  39
HETATM   39  C21 UNL     1      -5.115   4.432  -0.411  1.00  0.00     0.033 A 
HETATM   40  C22 UNL     1      -4.175   5.435  -0.397  1.00  0.00     0.028 A 
HETATM   41  C23 UNL     1      -4.515   6.385  -1.330  1.00  0.00     0.019 A 
HETATM   42  C24 UNL     1      -5.684   5.947  -1.919  1.00  0.00     0.088 A 
HETATM   43  N8  UNL     1      -6.017   4.768  -1.341  1.00  0.00    -0.367 N 
ATOM     44  H8  UNL     1      -6.839   4.214  -1.581  1.00  0.00     0.165 HD
ENDBRANCH  38  39
ENDBRANCH  37  38
ENDBRANCH  36  37
ENDBRANCH  35  36
ENDBRANCH   7  31
TORSDOF 14
