REMARK  5 active torsions:
REMARK  status: ('A' for Active; 'I' for Inactive)
REMARK    1  A    between atoms: C11_13  and  O3_14 
REMARK    2  A    between atoms: O3_14  and  C12_15 
REMARK    3  A    between atoms: C12_15  and  C15_18 
REMARK    4  A    between atoms: C16_21  and  C17_22 
REMARK    5  A    between atoms: C17_22  and  O6_24 
ROOT
HETATM    1  C1  UNL     1       5.697  -0.566  -0.317  1.00  0.00     0.026 C 
HETATM    2  C2  UNL     1       4.491  -0.732   0.180  1.00  0.00     0.018 C 
HETATM    3  C3  UNL     1       4.097  -1.296   1.471  1.00  0.00     0.289 C 
HETATM    4  O1  UNL     1       4.873  -1.873   2.303  1.00  0.00    -0.260 OA
HETATM    5  O2  UNL     1       2.732  -1.092   1.629  1.00  0.00    -0.311 OA
HETATM    6  C4  UNL     1       2.457   0.066   0.800  1.00  0.00     0.149 C 
HETATM    7  C5  UNL     1       3.175  -0.392  -0.436  1.00  0.00     0.076 C 
HETATM    8  C6  UNL     1       2.545  -1.702  -0.794  1.00  0.00    -0.012 C 
HETATM    9  C7  UNL     1       1.305  -1.864  -1.182  1.00  0.00    -0.086 C 
HETATM   10  C8  UNL     1       0.912  -3.254  -1.480  1.00  0.00     0.043 C 
HETATM   11  C9  UNL     1       0.265  -0.837  -1.369  1.00  0.00     0.041 C 
HETATM   12  C10 UNL     1       0.190   0.262  -0.424  1.00  0.00     0.026 C 
HETATM   13  C11 UNL     1      -1.243   0.361   0.157  1.00  0.00     0.134 C 
HETATM   14  C16 UNL     1      -1.504   1.833   0.234  1.00  0.00     0.044 C 
HETATM   15  C19 UNL     1      -0.242   2.586   0.523  1.00  0.00     0.014 C 
HETATM   16  C20 UNL     1       0.859   1.878   1.205  1.00  0.00    -0.011 C 
HETATM   17  C21 UNL     1       2.117   2.714   0.909  1.00  0.00     0.010 C 
HETATM   18  C22 UNL     1       1.063   0.419   0.741  1.00  0.00     0.027 C 
ENDROOT
BRANCH  13  19
HETATM   19  O3  UNL     1      -2.158  -0.433  -0.417  1.00  0.00    -0.364 OA
BRANCH  19  20
HETATM   20  C12 UNL     1      -2.826  -1.371   0.293  1.00  0.00     0.142 C 
HETATM   21  C13 UNL     1      -1.959  -2.407   1.002  1.00  0.00     0.057 C 
HETATM   22  C14 UNL     1      -3.539  -2.241  -0.806  1.00  0.00     0.057 C 
BRANCH  20  23
HETATM   23  C15 UNL     1      -3.842  -0.942   1.258  1.00  0.00     0.208 C 
HETATM   24  O4  UNL     1      -4.227   0.209   1.492  1.00  0.00    -0.646 OA
HETATM   25  O5  UNL     1      -4.462  -1.956   2.018  1.00  0.00    -0.646 OA
ENDBRANCH  20  23
ENDBRANCH  19  20
ENDBRANCH  13  19
BRANCH  14  26
HETATM   26  C17 UNL     1      -2.069   2.395  -1.059  1.00  0.00     0.120 C 
HETATM   27  C18 UNL     1      -2.319   3.884  -0.942  1.00  0.00     0.040 C 
BRANCH  26  28
HETATM   28  O6  UNL     1      -3.242   1.804  -1.444  1.00  0.00    -0.395 OA
ATOM     29  H6  UNL     1      -3.595   2.156  -2.253  1.00  0.00     0.210 HD
ENDBRANCH  26  28
ENDBRANCH  14  26
TORSDOF 5
