REMARK  6 active torsions:
REMARK  status: ('A' for Active; 'I' for Inactive)
REMARK    1  A    between atoms: C3_3  and  C4_4 
REMARK    2  A    between atoms: C5_7  and  O1_8 
REMARK    3  A    between atoms: O1_8  and  C6_9 
REMARK    4  A    between atoms: C6_9  and  C7_10 
REMARK    5  A    between atoms: C8_21  and  N7_22 
REMARK    6  A    between atoms: N11_30  and  N12_31 
ROOT
HETATM    1  C4  UNL     1      -0.129   1.637  -0.134  1.00  0.00     0.154 A 
HETATM    2  N1  UNL     1       0.857   0.706  -0.321  1.00  0.00    -0.305 N 
ATOM      3  H1  UNL     1       0.604  -0.282  -0.321  1.00  0.00     0.171 HD
HETATM    4  C5  UNL     1       2.137   1.040  -0.504  1.00  0.00     0.239 A 
HETATM    5  N6  UNL     1       2.436   2.352  -0.498  1.00  0.00    -0.155 N 
ATOM      6  H6  UNL     1       3.408   2.628  -0.635  1.00  0.00     0.188 HD
HETATM    7  C8  UNL     1       1.522   3.311  -0.321  1.00  0.00     0.680 A 
HETATM    8  N8  UNL     1       0.246   2.928  -0.141  1.00  0.00    -0.174 N 
ATOM      9  H8  UNL     1      -0.466   3.645  -0.004  1.00  0.00     0.186 HD
ENDROOT
BRANCH   4  10
HETATM   10  O1  UNL     1       3.153   0.121  -0.695  1.00  0.00    -0.314 OA
BRANCH  10  11
HETATM   11  C6  UNL     1       2.938  -1.275  -0.717  1.00  0.00     0.260 C 
BRANCH  11  12
HETATM   12  C7  UNL     1       4.192  -2.021  -0.937  1.00  0.00     0.165 A 
HETATM   13  N2  UNL     1       4.397  -2.809  -1.935  1.00  0.00    -0.226 N 
HETATM   14  O2  UNL     1       5.635  -3.367  -1.896  1.00  0.00    -0.139 OA
ATOM     15  H2  UNL     1       3.711  -2.992  -2.668  1.00  0.00     0.198 HD
HETATM   16  N3  UNL     1       6.298  -2.907  -0.779  1.00  0.00     0.071 NA
HETATM   17  N4  UNL     1       5.372  -2.036  -0.154  1.00  0.00    -0.163 N 
HETATM   18  N5  UNL     1       5.537  -1.378   0.909  1.00  0.00    -0.324 N 
ATOM     19  H52 UNL     1       4.870  -0.751   1.359  1.00  0.00     0.178 HD
ATOM     20  H51 UNL     1       6.387  -1.389   1.473  1.00  0.00     0.178 HD
ENDBRANCH  11  12
ENDBRANCH  10  11
ENDBRANCH   4  10
BRANCH   1  21
HETATM   21  C3  UNL     1      -1.510   1.231   0.061  1.00  0.00     0.118 A 
HETATM   22  C2  UNL     1      -2.017  -0.049   0.088  1.00  0.00     0.078 A 
HETATM   23  C1  UNL     1      -1.263  -1.323  -0.077  1.00  0.00     0.074 C 
HETATM   24  N11 UNL     1      -3.359   0.037   0.296  1.00  0.00    -0.185 N 
HETATM   25  N10 UNL     1      -3.642   1.327   0.389  1.00  0.00     0.003 NA
HETATM   26  N9  UNL     1      -2.540   2.056   0.250  1.00  0.00    -0.273 N 
HETATM   27  C9  UNL     1      -2.491   3.482   0.298  1.00  0.00     0.176 C 
BRANCH  24  28
HETATM   28  N12 UNL     1      -4.286  -0.992   0.397  1.00  0.00    -0.317 N 
HETATM   29  C10 UNL     1      -4.639  -1.631   1.647  1.00  0.00     0.172 C 
HETATM   30  C11 UNL     1      -4.947  -1.465  -0.802  1.00  0.00     0.172 C 
ENDBRANCH  24  28
ENDBRANCH   1  21
BRANCH   7  31
HETATM   31  N7  UNL     1       1.804   4.580  -0.314  1.00  0.00    -0.234 N 
ATOM     32  H72 UNL     1       2.772   4.871  -0.451  1.00  0.00     0.174 HD
ATOM     33  H71 UNL     1       1.106   5.312  -0.179  1.00  0.00     0.174 HD
ENDBRANCH   7  31
TORSDOF 6
