REMARK  10 active torsions:
REMARK  status: ('A' for Active; 'I' for Inactive)
REMARK    1  A    between atoms: O1_2  and  C2_3 
REMARK    2  A    between atoms: C2_3  and  C3_4 
REMARK    3  A    between atoms: C3_4  and  O2_5 
REMARK    4  A    between atoms: O2_5  and  C4_6 
REMARK    5  A    between atoms: C4_6  and  N1_7 
REMARK    6  A    between atoms: C4_6  and  C16_30 
REMARK    7  A    between atoms: N1_7  and  C5_9 
REMARK    8  A    between atoms: C6_12  and  N3_13 
REMARK    9  A    between atoms: C11_21  and  N5_22 
REMARK   10  A    between atoms: C16_30  and  O5_32 
ROOT
HETATM    1  O5  UNL     1       1.679  -1.096  -3.176  1.00  0.00    -0.274 OA
HETATM    2  C18 UNL     1       0.903  -0.577  -4.171  1.00  0.00     0.229 C 
HETATM    3  N7  UNL     1       0.242  -0.153  -5.026  1.00  0.00    -0.164 NA
ENDROOT
BRANCH   1   4
HETATM    4  C16 UNL     1       2.899  -0.503  -2.770  1.00  0.00     0.187 C 
HETATM    5  C17 UNL     1       3.998  -1.523  -2.961  1.00  0.00     0.046 C 
BRANCH   4   6
HETATM    6  C4  UNL     1       2.825  -0.114  -1.286  1.00  0.00     0.267 C 
BRANCH   6   7
HETATM    7  O2  UNL     1       3.991   0.449  -0.852  1.00  0.00    -0.361 OA
BRANCH   7   8
HETATM    8  C3  UNL     1       4.601  -0.198   0.201  1.00  0.00     0.196 C 
BRANCH   8   9
HETATM    9  C2  UNL     1       3.766  -0.270   1.454  1.00  0.00     0.193 C 
BRANCH   9  10
HETATM   10  O1  UNL     1       3.394   0.934   1.986  1.00  0.00    -0.394 OA
HETATM   11  C1  UNL     1       4.472   1.716   2.346  1.00  0.00     0.201 C 
ENDBRANCH   9  10
ENDBRANCH   8   9
ENDBRANCH   7   8
ENDBRANCH   6   7
BRANCH   6  12
HETATM   12  N1  UNL     1       1.734   0.822  -1.173  1.00  0.00    -0.196 N 
ATOM     13  H1  UNL     1       1.892   1.774  -1.504  1.00  0.00     0.180 HD
BRANCH  12  14
HETATM   14  C5  UNL     1       0.584   0.546  -0.689  1.00  0.00     0.709 A 
HETATM   15  N2  UNL     1       0.219  -0.657  -0.214  1.00  0.00    -0.021 N 
HETATM   16  C6  UNL     1      -1.004  -0.904   0.287  1.00  0.00     0.709 A 
ATOM     17  H2  UNL     1       0.900  -1.416  -0.234  1.00  0.00     0.203 HD
HETATM   18  N4  UNL     1      -1.915   0.085   0.322  1.00  0.00    -0.021 N 
HETATM   19  C11 UNL     1      -1.586   1.307  -0.146  1.00  0.00     0.709 A 
ATOM     20  H4  UNL     1      -2.847  -0.087   0.699  1.00  0.00     0.203 HD
HETATM   21  N6  UNL     1      -0.336   1.528  -0.649  1.00  0.00    -0.021 N 
ATOM     22  H6  UNL     1      -0.095   2.454  -1.001  1.00  0.00     0.203 HD
BRANCH  16  23
HETATM   23  N3  UNL     1      -1.409  -2.169   0.794  1.00  0.00    -0.213 N 
HETATM   24  C7  UNL     1      -2.021  -3.155  -0.089  1.00  0.00     0.167 C 
HETATM   25  C8  UNL     1      -3.326  -3.564   0.562  1.00  0.00     0.188 C 
HETATM   26  O3  UNL     1      -3.146  -4.002   1.846  1.00  0.00    -0.388 OA
HETATM   27  C9  UNL     1      -1.840  -3.966   2.293  1.00  0.00     0.188 C 
HETATM   28  C10 UNL     1      -1.248  -2.557   2.180  1.00  0.00     0.167 C 
ENDBRANCH  16  23
BRANCH  19  29
HETATM   29  N5  UNL     1      -2.548   2.361  -0.112  1.00  0.00    -0.213 N 
HETATM   30  C12 UNL     1      -2.579   3.183   1.074  1.00  0.00     0.167 C 
HETATM   31  C13 UNL     1      -3.841   3.947   1.267  1.00  0.00     0.188 C 
HETATM   32  O4  UNL     1      -4.758   3.837   0.251  1.00  0.00    -0.388 OA
HETATM   33  C14 UNL     1      -4.155   3.924  -1.004  1.00  0.00     0.188 C 
HETATM   34  C15 UNL     1      -3.450   2.589  -1.224  1.00  0.00     0.167 C 
ENDBRANCH  19  29
ENDBRANCH  12  14
ENDBRANCH   6  12
ENDBRANCH   4   6
ENDBRANCH   1   4
TORSDOF 10
