REMARK  10 active torsions:
REMARK  status: ('A' for Active; 'I' for Inactive)
REMARK    1  A    between atoms: C3_10  and  S1_11 
REMARK    2  A    between atoms: S1_11  and  C4_12 
REMARK    3  A    between atoms: C4_12  and  C5_13 
REMARK    4  A    between atoms: C5_13  and  N5_14 
REMARK    5  A    between atoms: N6_17  and  C9_19 
REMARK    6  A    between atoms: C9_19  and  C10_20 
REMARK    7  A    between atoms: C10_20  and  O1_21 
REMARK    8  A    between atoms: C10_20  and  C11_23 
REMARK    9  A    between atoms: C11_23  and  N7_24 
REMARK   10  A    between atoms: C14_29  and  N9_30 
ROOT
HETATM    1  C1  UNL     1      -8.572   1.414   0.640  1.00  0.00     0.039 C 
HETATM    2  C2  UNL     1      -7.853   0.465   0.470  1.00  0.00     0.027 C 
HETATM    3  N1  UNL     1      -7.035  -0.639   0.261  1.00  0.00    -0.173 N 
HETATM    4  N2  UNL     1      -7.313  -1.878   0.664  1.00  0.00    -0.212 N 
ATOM      5  H2  UNL     1      -8.146  -2.180   1.169  1.00  0.00     0.211 HD
HETATM    6  N3  UNL     1      -6.312  -2.633   0.288  1.00  0.00    -0.225 N 
ATOM      7  H3  UNL     1      -6.235  -3.637   0.453  1.00  0.00     0.210 HD
HETATM    8  N4  UNL     1      -5.416  -1.890  -0.340  1.00  0.00    -0.262 N 
ATOM      9  H4  UNL     1      -4.538  -2.224  -0.737  1.00  0.00     0.190 HD
HETATM   10  C3  UNL     1      -5.860  -0.616  -0.367  1.00  0.00     0.191 A 
ENDROOT
BRANCH  10  11
HETATM   11  S1  UNL     1      -4.960   0.736  -1.117  1.00  0.00    -0.088 SA
BRANCH  11  12
HETATM   12  C4  UNL     1      -3.899   1.418   0.220  1.00  0.00     0.102 C 
BRANCH  12  13
HETATM   13  C5  UNL     1      -2.916   0.361   0.645  1.00  0.00     0.127 C 
BRANCH  13  14
HETATM   14  N5  UNL     1      -2.081  -0.093  -0.410  1.00  0.00    -0.408 N 
HETATM   15  C6  UNL     1      -1.271  -1.222  -0.057  1.00  0.00     0.144 C 
HETATM   16  C7  UNL     1       0.174  -0.988   0.137  1.00  0.00     0.256 C 
HETATM   17  N6  UNL     1       0.758  -0.041  -0.771  1.00  0.00    -0.065 N 
HETATM   18  C8  UNL     1       0.825  -0.451  -2.138  1.00  0.00     0.272 C 
HETATM   19  C15 UNL     1      -0.076   1.173  -0.733  1.00  0.00     0.256 C 
HETATM   20  C16 UNL     1      -1.458   0.875  -1.231  1.00  0.00     0.144 C 
BRANCH  17  21
HETATM   21  C9  UNL     1       2.057   0.357  -0.245  1.00  0.00     0.270 C 
BRANCH  21  22
HETATM   22  C10 UNL     1       2.798  -0.797   0.388  1.00  0.00     0.162 C 
BRANCH  22  23
HETATM   23  O1  UNL     1       3.048  -1.810  -0.502  1.00  0.00    -0.392 OA
ATOM     24  H1  UNL     1       3.514  -2.536  -0.104  1.00  0.00     0.210 HD
ENDBRANCH  22  23
BRANCH  22  25
HETATM   25  C11 UNL     1       4.023  -0.264   1.093  1.00  0.00     0.165 C 
BRANCH  25  26
HETATM   26  N7  UNL     1       4.964   0.401   0.271  1.00  0.00    -0.320 N 
HETATM   27  C12 UNL     1       4.891   1.713  -0.070  1.00  0.00     0.111 A 
HETATM   28  C13 UNL     1       5.922   2.026  -0.894  1.00  0.00     0.108 A 
HETATM   29  N8  UNL     1       6.634   0.924  -1.066  1.00  0.00    -0.332 N 
HETATM   30  C14 UNL     1       6.043  -0.078  -0.346  1.00  0.00     0.252 A 
ATOM     31  H8  UNL     1       7.476   0.837  -1.635  1.00  0.00     0.168 HD
BRANCH  30  32
HETATM   32  N9  UNL     1       6.609  -1.378  -0.292  1.00  0.00    -0.079 N 
HETATM   33  O2  UNL     1       7.638  -1.636  -0.998  1.00  0.00    -0.529 OA
HETATM   34  O3  UNL     1       6.123  -2.410   0.471  1.00  0.00    -0.529 OA
ENDBRANCH  30  32
ENDBRANCH  25  26
ENDBRANCH  22  25
ENDBRANCH  21  22
ENDBRANCH  17  21
ENDBRANCH  13  14
ENDBRANCH  12  13
ENDBRANCH  11  12
ENDBRANCH  10  11
TORSDOF 10
