REMARK  8 active torsions:
REMARK  status: ('A' for Active; 'I' for Inactive)
REMARK    1  A    between atoms: O1_2  and  C2_3 
REMARK    2  A    between atoms: N1_5  and  C4_6 
REMARK    3  A    between atoms: C5_9  and  C6_10 
REMARK    4  A    between atoms: N4_12  and  O2_14 
REMARK    5  A    between atoms: C7_16  and  N5_17 
REMARK    6  A    between atoms: N5_17  and  C8_19 
REMARK    7  A    between atoms: N9_25  and  O3_26 
REMARK    8  A    between atoms: N10_30  and  N11_31 
ROOT
HETATM    1  C4  UNL     1      -1.002   0.255  -0.554  1.00  0.00     0.706 A 
HETATM    2  N2  UNL     1      -0.149   0.457  -1.544  1.00  0.00    -0.184 N 
ATOM      3  H2  UNL     1      -0.470   0.283  -2.496  1.00  0.00     0.184 HD
HETATM    4  C5  UNL     1       1.136   0.885  -1.369  1.00  0.00     0.125 A 
HETATM    5  C7  UNL     1       1.567   1.118  -0.083  1.00  0.00     0.150 A 
HETATM    6  C10 UNL     1       0.653   0.898   0.935  1.00  0.00     0.312 A 
HETATM    7  O4  UNL     1       1.050   1.114   2.131  1.00  0.00    -0.263 OA
HETATM    8  N10 UNL     1      -0.604   0.477   0.727  1.00  0.00    -0.043 N 
ENDROOT
BRANCH   5   9
HETATM    9  N5  UNL     1       2.875   1.540   0.214  1.00  0.00    -0.181 N 
ATOM     10  H5  UNL     1       3.082   2.539   0.198  1.00  0.00     0.184 HD
BRANCH   9  11
HETATM   11  C8  UNL     1       3.930   0.623   0.539  1.00  0.00     0.719 C 
HETATM   12  N6  UNL     1       3.710  -0.631   0.723  1.00  0.00    -0.208 N 
HETATM   13  C9  UNL     1       4.848  -1.465   1.048  1.00  0.00     0.271 C 
ATOM     14  H6  UNL     1       2.771  -1.022   0.643  1.00  0.00     0.179 HD
HETATM   15  N7  UNL     1       5.940  -1.073   0.194  1.00  0.00    -0.103 NA
HETATM   16  N8  UNL     1       6.312   0.242   0.343  1.00  0.00     0.015 NA
HETATM   17  N9  UNL     1       5.261   1.094   0.670  1.00  0.00     0.028 N 
BRANCH  17  18
HETATM   18  O3  UNL     1       5.509   2.374   1.112  1.00  0.00    -0.256 OA
ATOM     19  H3  UNL     1       6.401   2.690   1.200  1.00  0.00     0.247 HD
ENDBRANCH  17  18
ENDBRANCH   9  11
ENDBRANCH   5   9
BRANCH   4  20
HETATM   20  C6  UNL     1       1.962   1.077  -2.538  1.00  0.00     0.165 C 
HETATM   21  N3  UNL     1       3.291   1.530  -2.421  1.00  0.00    -0.078 NA
HETATM   22  N4  UNL     1       1.485   0.843  -3.703  1.00  0.00    -0.253 N 
ATOM     23  H4  UNL     1       2.110   0.994  -4.495  1.00  0.00     0.195 HD
BRANCH  22  24
HETATM   24  O2  UNL     1       0.224   0.412  -3.989  1.00  0.00    -0.288 OA
ATOM     25  H2  UNL     1      -0.130   0.238  -4.853  1.00  0.00     0.244 HD
ENDBRANCH  22  24
ENDBRANCH   4  20
BRANCH   8  26
HETATM   26  N11 UNL     1      -1.517   0.257   1.733  1.00  0.00    -0.252 N 
HETATM   27  C11 UNL     1      -1.415  -0.611   2.665  1.00  0.00     0.216 C 
HETATM   28  N12 UNL     1      -0.328  -1.506   2.819  1.00  0.00    -0.065 NA
HETATM   29  N13 UNL     1      -2.469  -0.686   3.617  1.00  0.00    -0.065 NA
ATOM     30  H11 UNL     1      -2.353   0.841   1.735  1.00  0.00     0.190 HD
ENDBRANCH   8  26
BRANCH   1  31
HETATM   31  N1  UNL     1      -2.318  -0.192  -0.852  1.00  0.00    -0.208 N 
HETATM   32  C3  UNL     1      -3.433   0.694  -1.104  1.00  0.00     0.179 C 
HETATM   33  C2  UNL     1      -4.611  -0.122  -0.614  1.00  0.00     0.185 C 
HETATM   34  C13 UNL     1      -4.240  -1.490  -1.037  1.00  0.00     0.029 C 
HETATM   35  C12 UNL     1      -2.762  -1.567  -0.952  1.00  0.00     0.196 C 
HETATM   36  N14 UNL     1      -5.043  -2.398  -1.397  1.00  0.00    -0.402 N 
ATOM     37 2H14 UNL     1      -6.060  -2.345  -1.455  1.00  0.00     0.155 HD
ATOM     38 1H14 UNL     1      -4.787  -3.341  -1.689  1.00  0.00     0.155 HD
BRANCH  33  39
HETATM   39  O1  UNL     1      -5.778   0.327  -1.228  1.00  0.00    -0.383 OA
HETATM   40  C1  UNL     1      -6.666   0.692  -0.219  1.00  0.00     0.202 C 
ENDBRANCH  33  39
ENDBRANCH   1  31
TORSDOF 8
