REMARK  12 active torsions:
REMARK  status: ('A' for Active; 'I' for Inactive)
REMARK    1  A    between atoms: N1_1  and  C1_5 
REMARK    2  A    between atoms: C1_5  and  C2_6 
REMARK       I    between atoms: C2_6  and  N2_8 
REMARK    3  A    between atoms: N2_8  and  C3_10 
REMARK    4  A    between atoms: C3_10  and  C4_11 
REMARK    5  A    between atoms: C4_11  and  N3_12 
REMARK    6  A    between atoms: N3_12  and  C5_14 
REMARK    7  A    between atoms: C8_21  and  N6_22 
REMARK    8  A    between atoms: N6_22  and  C9_24 
REMARK    9  A    between atoms: C9_24  and  O2_25 
REMARK   10  A    between atoms: C9_24  and  C10_27 
REMARK   11  A    between atoms: C10_27  and  N7_28 
REMARK   12  A    between atoms: C10_27  and  N8_32 
ROOT
HETATM    1  C5  UNL     1      -0.689  -0.157   0.346  1.00  0.00     0.135 A 
HETATM    2  N4  UNL     1      -0.470   1.103   0.755  1.00  0.00    -0.337 N 
ATOM      3  H4  UNL     1      -1.263   1.710   0.963  1.00  0.00     0.168 HD
HETATM    4  C6  UNL     1       0.794   1.578   0.895  1.00  0.00     0.182 A 
HETATM    5  N5  UNL     1       1.863   0.814   0.631  1.00  0.00    -0.347 N 
ATOM      6  H5  UNL     1       2.799   1.203   0.746  1.00  0.00     0.167 HD
HETATM    7  C7  UNL     1       1.724  -0.437   0.223  1.00  0.00     0.108 A 
HETATM    8  C8  UNL     1       2.854  -1.177  -0.033  1.00  0.00     0.133 A 
HETATM    9  N9  UNL     1       2.651  -2.464  -0.452  1.00  0.00    -0.337 N 
ATOM     10  H9  UNL     1       3.455  -3.058  -0.657  1.00  0.00     0.168 HD
HETATM   11  C11 UNL     1       1.410  -2.958  -0.598  1.00  0.00     0.182 A 
HETATM   12  N10 UNL     1       0.311  -2.227  -0.344  1.00  0.00    -0.347 N 
ATOM     13  H10 UNL     1      -0.618  -2.631  -0.463  1.00  0.00     0.167 HD
HETATM   14  C12 UNL     1       0.455  -0.952   0.071  1.00  0.00     0.108 A 
ENDROOT
BRANCH   8  15
HETATM   15  N6  UNL     1       3.999  -0.735   0.096  1.00  0.00    -0.345 N 
ATOM     16  H6  UNL     1       4.690  -1.445  -0.147  1.00  0.00     0.163 HD
BRANCH  15  17
HETATM   17  C9  UNL     1       4.623   0.450   0.476  1.00  0.00     0.277 C 
BRANCH  17  18
HETATM   18  O2  UNL     1       4.559   1.504  -0.435  1.00  0.00    -0.373 OA
ATOM     19  H2  UNL     1       4.985   2.313  -0.176  1.00  0.00     0.212 HD
ENDBRANCH  17  18
BRANCH  17  20
HETATM   20  C10 UNL     1       6.119   0.213   0.716  1.00  0.00     0.425 C 
BRANCH  20  21
HETATM   21  N7  UNL     1       6.722   1.415   1.254  1.00  0.00    -0.046 N 
ATOM     22  H73 UNL     1       6.552   2.228   0.663  1.00  0.00     0.277 HD
ATOM     23  H72 UNL     1       6.245   1.742   2.094  1.00  0.00     0.277 HD
ATOM     24  H71 UNL     1       7.717   1.257   1.414  1.00  0.00     0.277 HD
ENDBRANCH  20  21
BRANCH  20  25
HETATM   25  N8  UNL     1       6.810  -0.155  -0.479  1.00  0.00    -0.046 N 
ATOM     26  H83 UNL     1       6.375  -0.965  -0.921  1.00  0.00     0.277 HD
ATOM     27  H82 UNL     1       6.660   0.533  -1.217  1.00  0.00     0.277 HD
ATOM     28  H81 UNL     1       7.805  -0.313  -0.319  1.00  0.00     0.277 HD
ENDBRANCH  20  25
ENDBRANCH  17  20
ENDBRANCH  15  17
ENDBRANCH   8  15
BRANCH   1  29
HETATM   29  N3  UNL     1      -1.769  -0.718   0.177  1.00  0.00    -0.352 N 
ATOM     30  H3  UNL     1      -1.570  -1.668  -0.136  1.00  0.00     0.166 HD
BRANCH  29  31
HETATM   31  C4  UNL     1      -3.140  -0.586   0.238  1.00  0.00     0.082 C 
BRANCH  31  32
HETATM   32  C3  UNL     1      -3.736   0.687   0.745  1.00  0.00     0.167 C 
BRANCH  32  33
HETATM   33  N2  UNL     1      -5.177   0.623   0.745  1.00  0.00    -0.355 N 
HETATM   34  C2  UNL     1      -5.893   0.476  -0.463  1.00  0.00     0.243 C 
HETATM   35  O1  UNL     1      -5.391   0.398  -1.605  1.00  0.00    -0.272 OA
ATOM     36  H2  UNL     1      -5.684   0.685   1.628  1.00  0.00     0.162 HD
BRANCH  34  37
HETATM   37  C1  UNL     1      -7.409   0.400  -0.430  1.00  0.00     0.332 C 
BRANCH  37  38
HETATM   38  N1  UNL     1      -7.965   0.252  -1.747  1.00  0.00    -0.071 N 
ATOM     39  H13 UNL     1      -7.644   0.992  -2.371  1.00  0.00     0.274 HD
ATOM     40  H12 UNL     1      -7.563  -0.551  -2.231  1.00  0.00     0.274 HD
ATOM     41  H11 UNL     1      -8.983   0.201  -1.725  1.00  0.00     0.274 HD
ENDBRANCH  37  38
ENDBRANCH  34  37
ENDBRANCH  32  33
ENDBRANCH  31  32
ENDBRANCH  29  31
ENDBRANCH   1  29
TORSDOF 12
