REMARK  9 active torsions:
REMARK  status: ('A' for Active; 'I' for Inactive)
REMARK    1  A    between atoms: C1_2  and  C2_3 
REMARK    2  A    between atoms: C1_2  and  C14_29 
REMARK    3  A    between atoms: C2_3  and  N1_4 
REMARK    4  A    between atoms: N1_4  and  N2_6 
REMARK    5  A    between atoms: N4_10  and  O2_12 
REMARK    6  A    between atoms: C6_18  and  N6_19 
REMARK    7  A    between atoms: N6_19  and  C7_22 
REMARK    8  A    between atoms: C14_29  and  O3_30 
REMARK    9  A    between atoms: O3_30  and  C15_31 
ROOT
HETATM    1  N2  UNL     1       0.550  -0.924  -0.789  1.00  0.00    -0.185 N 
HETATM    2  N3  UNL     1      -0.120  -2.012  -0.188  1.00  0.00    -0.267 N 
ATOM      3  H3  UNL     1      -1.112  -1.830  -0.038  1.00  0.00     0.190 HD
HETATM    4  C3  UNL     1       0.270  -3.288   0.250  1.00  0.00     0.121 C 
HETATM    5  N4  UNL     1      -0.588  -4.211   0.205  1.00  0.00    -0.255 N 
ATOM      6  H4  UNL     1      -1.523  -3.998  -0.143  1.00  0.00     0.195 HD
HETATM    7  C4  UNL     1       1.628  -3.676   0.703  1.00  0.00     0.124 C 
HETATM    8  C5  UNL     1       2.497  -3.247  -0.490  1.00  0.00     0.067 C 
HETATM    9  N5  UNL     1       2.565  -2.064  -0.931  1.00  0.00    -0.357 N 
ATOM     10  H5  UNL     1       3.190  -1.952  -1.729  1.00  0.00     0.162 HD
HETATM   11  C6  UNL     1       1.915  -0.833  -0.508  1.00  0.00     0.426 C 
ENDROOT
BRANCH   1  12
HETATM   12  N1  UNL     1      -0.300   0.080  -0.708  1.00  0.00    -0.309 N 
ATOM     13  H1  UNL     1      -0.811   0.383  -1.537  1.00  0.00     0.182 HD
BRANCH  12  14
HETATM   14  C2  UNL     1      -0.511   0.762   0.573  1.00  0.00     0.221 C 
BRANCH  14  15
HETATM   15  C1  UNL     1      -2.007   0.613   0.781  1.00  0.00     0.169 C 
HETATM   16  O1  UNL     1      -2.431  -0.285   1.540  1.00  0.00    -0.294 OA
BRANCH  15  17
HETATM   17  C14 UNL     1      -3.023   1.430   0.127  1.00  0.00     0.248 C 
BRANCH  17  18
HETATM   18  O3  UNL     1      -4.179   0.590   0.214  1.00  0.00    -0.378 OA
BRANCH  18  19
HETATM   19  C15 UNL     1      -5.305   1.204  -0.335  1.00  0.00     0.125 C 
HETATM   20  C16 UNL     1      -5.969   1.868   0.897  1.00  0.00     0.059 C 
HETATM   21  C17 UNL     1      -7.267   1.323   1.275  1.00  0.00     0.235 C 
HETATM   22  N7  UNL     1      -8.067   0.867   0.154  1.00  0.00    -0.075 N 
HETATM   23  C18 UNL     1      -7.347  -0.279  -0.391  1.00  0.00     0.235 C 
ATOM     24  H72 UNL     1      -9.037   0.666   0.396  1.00  0.00     0.277 HD
ATOM     25  H71 UNL     1      -8.264   1.594  -0.534  1.00  0.00     0.277 HD
HETATM   26  C19 UNL     1      -6.125   0.284  -1.094  1.00  0.00     0.059 C 
ENDBRANCH  18  19
ENDBRANCH  17  18
ENDBRANCH  15  17
ENDBRANCH  14  15
ENDBRANCH  12  14
ENDBRANCH   1  12
BRANCH  11  27
HETATM   27  N6  UNL     1       2.569   0.252  -1.242  1.00  0.00    -0.029 N 
ATOM     28  H62 UNL     1       2.723   0.047  -2.229  1.00  0.00     0.282 HD
ATOM     29  H61 UNL     1       1.976   1.070  -1.382  1.00  0.00     0.282 HD
BRANCH  27  30
HETATM   30  C7  UNL     1       3.780   0.529  -0.509  1.00  0.00     0.190 C 
HETATM   31  C8  UNL     1       4.221   1.909  -0.922  1.00  0.00     0.033 C 
HETATM   32  C9  UNL     1       5.063   2.597   0.084  1.00  0.00     0.002 C 
HETATM   33  C10 UNL     1       5.469   1.750   1.256  1.00  0.00     0.000 C 
HETATM   34  C11 UNL     1       6.401   0.641   0.890  1.00  0.00     0.000 C 
HETATM   35  C12 UNL     1       6.228   0.098  -0.488  1.00  0.00     0.002 C 
HETATM   36  C13 UNL     1       4.840  -0.516  -0.589  1.00  0.00     0.033 C 
ENDBRANCH  27  30
ENDBRANCH  11  27
BRANCH   5  37
HETATM   37  O2  UNL     1      -0.312  -5.476   0.603  1.00  0.00    -0.288 OA
ATOM     38  H2  UNL     1      -0.958  -6.171   0.569  1.00  0.00     0.244 HD
ENDBRANCH   5  37
TORSDOF 9
