REMARK  14 active torsions:
REMARK  status: ('A' for Active; 'I' for Inactive)
REMARK    1  A    between atoms: C2_2  and  C3_3 
REMARK    2  A    between atoms: C4_4  and  C5_5 
REMARK    3  A    between atoms: C6_6  and  C7_7 
REMARK    4  A    between atoms: C7_7  and  C8_8 
REMARK    5  A    between atoms: C8_8  and  C9_9 
REMARK    6  A    between atoms: C11_11  and  C12_12 
REMARK    7  A    between atoms: C12_12  and  C13_13 
REMARK    8  A    between atoms: C13_13  and  O1_14 
REMARK    9  A    between atoms: C13_13  and  C16_18 
REMARK   10  A    between atoms: O1_14  and  C14_15 
REMARK   11  A    between atoms: C18_22  and  C19_23 
REMARK   12  A    between atoms: C19_23  and  O5_24 
REMARK   13  A    between atoms: C20_26  and  O6_27 
REMARK   14  A    between atoms: O6_27  and  C21_28 
ROOT
HETATM    1  C13 UNL     1      -2.373  -0.214   0.026  1.00  0.00     0.190 C 
ENDROOT
BRANCH   1   2
HETATM    2  C12 UNL     1      -1.182  -0.636  -0.809  1.00  0.00     0.070 C 
BRANCH   2   3
HETATM    3  C11 UNL     1       0.051  -0.366  -0.017  1.00  0.00     0.135 C 
HETATM    4  C10 UNL     1       1.325  -0.730  -0.703  1.00  0.00     0.047 C 
HETATM    5  C9  UNL     1       2.348  -0.004   0.184  1.00  0.00     0.088 C 
HETATM    6  C23 UNL     1       1.551   1.147   0.665  1.00  0.00     0.263 C 
HETATM    7  O9  UNL     1       0.244   1.052   0.142  1.00  0.00    -0.316 OA
HETATM    8  O10 UNL     1       1.896   2.101   1.417  1.00  0.00    -0.265 OA
BRANCH   5   9
HETATM    9  C8  UNL     1       3.563   0.375  -0.608  1.00  0.00     0.018 C 
BRANCH   9  10
HETATM   10  C7  UNL     1       4.610   1.091   0.217  1.00  0.00     0.028 C 
BRANCH  10  11
HETATM   11  C6  UNL     1       5.764   1.418  -0.635  1.00  0.00    -0.027 C 
HETATM   12  C5  UNL     1       6.974   0.985  -0.423  1.00  0.00    -0.004 C 
BRANCH  12  13
HETATM   13  C4  UNL     1       7.389   0.129   0.658  1.00  0.00    -0.004 C 
HETATM   14  C3  UNL     1       8.622  -0.293   0.849  1.00  0.00    -0.027 C 
BRANCH  14  15
HETATM   15  C2  UNL     1       9.791   0.024   0.008  1.00  0.00     0.022 C 
HETATM   16  C1  UNL     1      10.374  -1.273  -0.555  1.00  0.00     0.009 C 
ENDBRANCH  14  15
ENDBRANCH  12  13
ENDBRANCH  10  11
ENDBRANCH   9  10
ENDBRANCH   5   9
ENDBRANCH   2   3
ENDBRANCH   1   2
BRANCH   1  17
HETATM   17  O1  UNL     1      -2.445  -0.923   1.240  1.00  0.00    -0.311 OA
BRANCH  17  18
HETATM   18  C14 UNL     1      -2.348  -0.297   2.453  1.00  0.00     0.255 C 
HETATM   19  C15 UNL     1      -2.438  -1.156   3.680  1.00  0.00     0.126 C 
HETATM   20  O2  UNL     1      -2.192   0.931   2.501  1.00  0.00    -0.266 OA
ENDBRANCH  17  18
ENDBRANCH   1  17
BRANCH   1  21
HETATM   21  C16 UNL     1      -3.665  -0.284  -0.754  1.00  0.00     0.302 C 
HETATM   22  O3  UNL     1      -4.028  -1.596  -1.087  1.00  0.00    -0.286 OA
HETATM   23  C17 UNL     1      -5.346  -2.018  -0.970  1.00  0.00     0.272 C 
HETATM   24  O4  UNL     1      -5.696  -3.193  -1.248  1.00  0.00    -0.265 OA
HETATM   25  C18 UNL     1      -6.423  -1.093  -0.505  1.00  0.00     0.165 C 
HETATM   26  C20 UNL     1      -5.867   0.314  -0.640  1.00  0.00     0.288 C 
HETATM   27  O8  UNL     1      -4.642   0.339   0.034  1.00  0.00    -0.327 OA
BRANCH  25  28
HETATM   28  C19 UNL     1      -6.793  -1.365   0.936  1.00  0.00     0.183 C 
BRANCH  28  29
HETATM   29  O5  UNL     1      -7.248  -2.665   1.065  1.00  0.00    -0.400 OA
ATOM     30  H5  UNL     1      -7.480  -2.836   1.970  1.00  0.00     0.209 HD
ENDBRANCH  28  29
ENDBRANCH  25  28
BRANCH  26  31
HETATM   31  O6  UNL     1      -6.755   1.299  -0.207  1.00  0.00    -0.289 OA
BRANCH  31  32
HETATM   32  C21 UNL     1      -7.216   2.279  -1.082  1.00  0.00     0.257 C 
HETATM   33  C22 UNL     1      -8.170   3.342  -0.631  1.00  0.00     0.126 C 
HETATM   34  O7  UNL     1      -6.799   2.234  -2.266  1.00  0.00    -0.266 OA
ENDBRANCH  31  32
ENDBRANCH  26  31
ENDBRANCH   1  21
TORSDOF 14
