REMARK  15 active torsions:
REMARK  status: ('A' for Active; 'I' for Inactive)
REMARK    1  A    between atoms: C2_2  and  C3_3 
REMARK    2  A    between atoms: C4_4  and  C5_5 
REMARK    3  A    between atoms: C5_5  and  N1_6 
REMARK    4  A    between atoms: C5_5  and  C6_10 
REMARK       I    between atoms: C6_10  and  N2_12 
REMARK    5  A    between atoms: C10_16  and  N3_17 
REMARK       I    between atoms: N3_17  and  C11_19 
REMARK    6  A    between atoms: C11_19  and  C12_21 
REMARK    7  A    between atoms: C12_21  and  C13_22 
REMARK    8  A    between atoms: C12_21  and  C18_30 
REMARK    9  A    between atoms: C13_22  and  C14_23 
REMARK       I    between atoms: C18_30  and  N5_32 
REMARK   10  A    between atoms: N5_32  and  C19_34 
REMARK   11  A    between atoms: C19_34  and  C20_35 
REMARK   12  A    between atoms: C19_34  and  C27_42 
REMARK   13  A    between atoms: C20_35  and  C21_36 
REMARK   14  A    between atoms: C27_42  and  O4_43 
REMARK   15  A    between atoms: C27_42  and  C28_45 
ROOT
HETATM    1  C12 UNL     1      -0.981  -2.448  -0.559  1.00  0.00     0.171 C 
ENDROOT
BRANCH   1   2
HETATM    2  C11 UNL     1       0.484  -2.336  -0.708  1.00  0.00     0.231 C 
HETATM    3  N3  UNL     1       1.238  -1.513   0.157  1.00  0.00    -0.347 N 
ATOM      4  H3  UNL     1       0.756  -0.992   0.889  1.00  0.00     0.163 HD
HETATM    5  O2  UNL     1       1.046  -2.987  -1.619  1.00  0.00    -0.273 OA
BRANCH   3   6
HETATM    6  C10 UNL     1       2.692  -1.386   0.034  1.00  0.00     0.177 C 
HETATM    7  C9  UNL     1       3.348  -1.871   1.286  1.00  0.00     0.036 C 
HETATM    8  C8  UNL     1       3.721  -0.741   2.208  1.00  0.00     0.023 C 
HETATM    9  C7  UNL     1       4.680   0.245   1.570  1.00  0.00     0.135 C 
HETATM   10  N2  UNL     1       4.274   0.634   0.254  1.00  0.00    -0.285 N 
HETATM   11  C6  UNL     1       4.922   1.562  -0.581  1.00  0.00     0.260 C 
HETATM   12  C31 UNL     1       3.085   0.019  -0.281  1.00  0.00     0.249 C 
HETATM   13  O1  UNL     1       4.493   1.863  -1.747  1.00  0.00    -0.270 OA
HETATM   14  O5  UNL     1       2.339   0.694  -1.051  1.00  0.00    -0.271 OA
BRANCH  11  15
HETATM   15  C5  UNL     1       6.184   2.314  -0.233  1.00  0.00     0.297 C 
BRANCH  15  16
HETATM   16  C4  UNL     1       7.146   2.268  -1.359  1.00  0.00     0.011 C 
HETATM   17  C3  UNL     1       8.296   3.113  -1.532  1.00  0.00    -0.028 C 
BRANCH  17  18
HETATM   18  C2  UNL     1       9.428   3.258  -0.618  1.00  0.00     0.022 C 
HETATM   19  C1  UNL     1       9.196   3.910   0.703  1.00  0.00     0.009 C 
ENDBRANCH  17  18
ENDBRANCH  15  16
BRANCH  15  20
HETATM   20  N1  UNL     1       6.698   2.006   1.011  1.00  0.00    -0.063 N 
ATOM     21  H13 UNL     1       7.155   1.094   0.982  1.00  0.00     0.275 HD
ATOM     22  H12 UNL     1       7.498   2.605   1.214  1.00  0.00     0.275 HD
ATOM     23  H11 UNL     1       6.036   2.038   1.786  1.00  0.00     0.275 HD
ENDBRANCH  15  20
ENDBRANCH  11  15
ENDBRANCH   3   6
ENDBRANCH   1   2
BRANCH   1  24
HETATM   24  C13 UNL     1      -1.347  -3.038   0.808  1.00  0.00     0.056 C 
BRANCH  24  25
HETATM   25  C14 UNL     1      -0.722  -4.421   0.913  1.00  0.00     0.187 C 
HETATM   26  C15 UNL     1      -1.246  -5.325  -0.189  1.00  0.00     0.034 C 
HETATM   27  C16 UNL     1      -1.422  -6.665   0.461  1.00  0.00     0.029 C 
HETATM   28  C17 UNL     1      -1.205  -6.452   1.944  1.00  0.00     0.233 C 
HETATM   29  N4  UNL     1      -1.121  -5.027   2.153  1.00  0.00    -0.071 N 
ATOM     30  H42 UNL     1      -0.509  -4.777   2.930  1.00  0.00     0.277 HD
ATOM     31  H41 UNL     1      -1.984  -4.631   2.527  1.00  0.00     0.277 HD
ENDBRANCH  24  25
ENDBRANCH   1  24
BRANCH   1  32
HETATM   32  C18 UNL     1      -1.648  -1.112  -0.591  1.00  0.00     0.231 C 
HETATM   33  O3  UNL     1      -0.940  -0.098  -0.683  1.00  0.00    -0.273 OA
HETATM   34  N5  UNL     1      -3.056  -0.991  -0.518  1.00  0.00    -0.353 N 
ATOM     35  H5  UNL     1      -3.635  -1.827  -0.443  1.00  0.00     0.163 HD
BRANCH  34  36
HETATM   36  C19 UNL     1      -3.679   0.322  -0.549  1.00  0.00     0.114 C 
BRANCH  36  37
HETATM   37  C20 UNL     1      -4.499   0.582   0.676  1.00  0.00     0.032 C 
BRANCH  37  38
HETATM   38  C21 UNL     1      -5.124   1.936   0.619  1.00  0.00    -0.013 C 
HETATM   39  C22 UNL     1      -5.964   2.212   1.877  1.00  0.00     0.005 C 
HETATM   40  C23 UNL     1      -6.947   3.299   1.509  1.00  0.00     0.000 C 
HETATM   41  C24 UNL     1      -6.317   4.245   0.512  1.00  0.00     0.000 C 
HETATM   42  C25 UNL     1      -4.833   4.372   0.707  1.00  0.00     0.000 C 
HETATM   43  C26 UNL     1      -4.115   3.050   0.542  1.00  0.00     0.005 C 
ENDBRANCH  37  38
ENDBRANCH  36  37
BRANCH  36  44
HETATM   44  C27 UNL     1      -4.439   0.485  -1.846  1.00  0.00     0.144 C 
BRANCH  44  45
HETATM   45  O4  UNL     1      -3.467   0.333  -2.864  1.00  0.00    -0.393 OA
ATOM     46  H4  UNL     1      -3.944   0.435  -3.679  1.00  0.00     0.210 HD
ENDBRANCH  44  45
BRANCH  44  47
HETATM   47  C28 UNL     1      -5.541  -0.502  -2.027  1.00  0.00     0.016 A 
HETATM   48  C29 UNL     1      -6.300  -0.330  -3.335  1.00  0.00     0.007 A 
HETATM   49  C30 UNL     1      -5.458  -1.535  -3.125  1.00  0.00     0.007 A 
ENDBRANCH  44  47
ENDBRANCH  36  44
ENDBRANCH  34  36
ENDBRANCH   1  32
TORSDOF 15
