REMARK  10 active torsions:
REMARK  status: ('A' for Active; 'I' for Inactive)
REMARK    1  A    between atoms: N1_2  and  C2_4 
REMARK    2  A    between atoms: C2_4  and  C7_11 
REMARK    3  A    between atoms: N2_5  and  C3_7 
REMARK    4  A    between atoms: C3_7  and  C4_8 
REMARK       I    between atoms: N3_16  and  C11_17 
REMARK    5  A    between atoms: C11_17  and  C12_19 
REMARK    6  A    between atoms: C12_19  and  N4_20 
REMARK    7  A    between atoms: C12_19  and  C13_24 
REMARK    8  A    between atoms: C13_24  and  C14_25 
REMARK    9  A    between atoms: C14_25  and  C15_26 
REMARK   10  A    between atoms: C15_26  and  C16_27 
ROOT
HETATM    1  C7  UNL     1      -2.246  -0.543  -1.502  1.00  0.00     0.178 C 
HETATM    2  C8  UNL     1      -2.496  -1.806  -2.281  1.00  0.00     0.200 C 
HETATM    3  O1  UNL     1      -2.987  -2.841  -1.511  1.00  0.00    -0.387 OA
HETATM    4  C9  UNL     1      -2.329  -3.019  -0.318  1.00  0.00     0.187 C 
HETATM    5  C10 UNL     1      -1.023  -2.253  -0.248  1.00  0.00     0.153 C 
HETATM    6  N3  UNL     1      -1.228  -0.843  -0.502  1.00  0.00    -0.335 N 
HETATM    7  C11 UNL     1      -0.509   0.190   0.163  1.00  0.00     0.251 C 
HETATM    8  O2  UNL     1      -0.809   1.376  -0.165  1.00  0.00    -0.271 OA
ENDROOT
BRANCH   1   9
HETATM    9  C2  UNL     1      -3.470  -0.008  -0.876  1.00  0.00     0.098 C 
HETATM   10  N2  UNL     1      -3.498   0.118   0.404  1.00  0.00    -0.378 N 
ATOM     11  H2  UNL     1      -2.664  -0.160   0.921  1.00  0.00     0.160 HD
BRANCH   9  12
HETATM   12  N1  UNL     1      -4.597   0.361  -1.631  1.00  0.00    -0.383 N 
HETATM   13  C1  UNL     1      -5.762  -0.518  -1.759  1.00  0.00     0.147 C 
ATOM     14  H1  UNL     1      -4.604   1.265  -2.103  1.00  0.00     0.160 HD
ENDBRANCH   9  12
BRANCH  10  15
HETATM   15  C3  UNL     1      -4.604   0.616   1.158  1.00  0.00     0.124 C 
BRANCH  15  16
HETATM   16  C4  UNL     1      -4.818   2.102   1.038  1.00  0.00    -0.005 C 
HETATM   17  C5  UNL     1      -6.017   2.507   1.879  1.00  0.00     0.011 C 
HETATM   18  C6  UNL     1      -3.643   2.911   1.534  1.00  0.00     0.011 C 
ENDBRANCH  15  16
ENDBRANCH  10  15
ENDBRANCH   1   9
BRANCH   7  19
HETATM   19  C12 UNL     1       0.528  -0.041   1.175  1.00  0.00     0.275 C 
BRANCH  19  20
HETATM   20  N4  UNL     1       0.934   1.269   1.712  1.00  0.00    -0.067 N 
ATOM     21  H43 UNL     1       1.229   1.920   0.985  1.00  0.00     0.275 HD
ATOM     22  H42 UNL     1       0.147   1.811   2.069  1.00  0.00     0.275 HD
ATOM     23  H41 UNL     1       1.655   1.108   2.416  1.00  0.00     0.275 HD
ENDBRANCH  19  20
BRANCH  19  24
HETATM   24  C13 UNL     1       1.776  -0.676   0.540  1.00  0.00     0.042 C 
BRANCH  24  25
HETATM   25  C14 UNL     1       2.827  -0.899   1.617  1.00  0.00     0.003 C 
BRANCH  25  26
HETATM   26  C15 UNL     1       4.066  -1.521   1.069  1.00  0.00     0.005 C 
BRANCH  26  27
HETATM   27  C16 UNL     1       4.661  -0.642   0.022  1.00  0.00    -0.014 C 
HETATM   28  C17 UNL     1       5.945  -1.267  -0.555  1.00  0.00     0.004 C 
HETATM   29  C18 UNL     1       6.327  -0.402  -1.738  1.00  0.00     0.000 C 
HETATM   30  C19 UNL     1       6.821   0.911  -1.172  1.00  0.00     0.000 C 
HETATM   31  C20 UNL     1       5.826   1.575  -0.286  1.00  0.00     0.000 C 
HETATM   32  C21 UNL     1       5.057   0.681   0.623  1.00  0.00     0.004 C 
ENDBRANCH  26  27
ENDBRANCH  25  26
ENDBRANCH  24  25
ENDBRANCH  19  24
ENDBRANCH   7  19
TORSDOF 10
