REMARK  15 active torsions:
REMARK  status: ('A' for Active; 'I' for Inactive)
REMARK    1  A    between atoms: C2_2  and  C3_3 
REMARK    2  A    between atoms: C3_3  and  N1_4 
REMARK    3  A    between atoms: C7_12  and  N4_13 
REMARK    4  A    between atoms: N4_13  and  C8_15 
REMARK    5  A    between atoms: C14_21  and  N5_22 
REMARK    6  A    between atoms: N5_22  and  C15_24 
REMARK    7  A    between atoms: C15_24  and  N6_26 
REMARK    8  A    between atoms: N6_26  and  C16_28 
REMARK    9  A    between atoms: C16_28  and  C17_29 
REMARK   10  A    between atoms: C17_29  and  C18_30 
REMARK   11  A    between atoms: C18_30  and  C19_31 
REMARK   12  A    between atoms: C19_31  and  N7_32 
REMARK   13  A    between atoms: C22_35  and  C23_36 
REMARK   14  A    between atoms: C23_36  and  O2_38 
REMARK   15  A    between atoms: O2_38  and  C24_39 
ROOT
HETATM    1  C8  UNL     1      -4.251   1.951  -0.326  1.00  0.00     0.110 C 
HETATM    2  C9  UNL     1      -5.159   3.135  -0.643  1.00  0.00     0.011 C 
HETATM    3  C10 UNL     1      -4.464   4.379  -0.211  1.00  0.00     0.007 C 
HETATM    4  C11 UNL     1      -3.315   4.506  -1.192  1.00  0.00     0.007 C 
HETATM    5  C12 UNL     1      -3.430   3.299  -2.098  1.00  0.00     0.011 C 
HETATM    6  C13 UNL     1      -4.963   3.178  -2.154  1.00  0.00     0.013 C 
HETATM    7  C14 UNL     1      -3.066   2.095  -1.308  1.00  0.00     0.111 C 
ENDROOT
BRANCH   7   8
HETATM    8  N5  UNL     1      -1.838   2.226  -0.576  1.00  0.00    -0.360 N 
ATOM      9  H5  UNL     1      -1.854   2.250   0.444  1.00  0.00     0.162 HD
BRANCH   8  10
HETATM   10  C15 UNL     1      -0.609   2.321  -1.264  1.00  0.00     0.168 C 
HETATM   11  S1  UNL     1      -0.582   2.268  -2.891  1.00  0.00    -0.041 SA
BRANCH  10  12
HETATM   12  N6  UNL     1       0.627   2.457  -0.543  1.00  0.00    -0.367 N 
ATOM     13  H6  UNL     1       1.510   2.526  -1.050  1.00  0.00     0.161 HD
BRANCH  12  14
HETATM   14  C16 UNL     1       0.616   2.496   0.889  1.00  0.00     0.122 C 
BRANCH  14  15
HETATM   15  C17 UNL     1       2.016   2.639   1.428  1.00  0.00     0.021 C 
BRANCH  15  16
HETATM   16  C18 UNL     1       2.840   1.440   0.966  1.00  0.00     0.032 C 
BRANCH  16  17
HETATM   17  C19 UNL     1       4.239   1.593   1.516  1.00  0.00     0.272 C 
BRANCH  17  18
HETATM   18  N7  UNL     1       5.088   0.505   1.139  1.00  0.00     0.088 N 
HETATM   19  C20 UNL     1       4.737  -0.750   1.728  1.00  0.00     0.273 C 
HETATM   20  C21 UNL     1       5.949  -1.666   1.553  1.00  0.00     0.045 C 
HETATM   21  C22 UNL     1       6.192  -1.834   0.084  1.00  0.00     0.089 C 
HETATM   22  C26 UNL     1       6.381  -0.537  -0.652  1.00  0.00     0.045 C 
HETATM   23  C27 UNL     1       5.315   0.482  -0.261  1.00  0.00     0.273 C 
BRANCH  21  24
HETATM   24  C23 UNL     1       7.473  -2.597  -0.066  1.00  0.00     0.263 C 
HETATM   25  O1  UNL     1       7.523  -3.720  -0.648  1.00  0.00    -0.265 OA
BRANCH  24  26
HETATM   26  O2  UNL     1       8.669  -2.098   0.432  1.00  0.00    -0.322 OA
BRANCH  26  27
HETATM   27  C24 UNL     1       9.903  -2.768   0.321  1.00  0.00     0.174 C 
HETATM   28  C25 UNL     1      10.344  -3.029  -1.083  1.00  0.00     0.034 C 
ENDBRANCH  26  27
ENDBRANCH  24  26
ENDBRANCH  21  24
ENDBRANCH  17  18
ENDBRANCH  16  17
ENDBRANCH  15  16
ENDBRANCH  14  15
ENDBRANCH  12  14
ENDBRANCH  10  12
ENDBRANCH   8  10
ENDBRANCH   7   8
BRANCH   1  29
HETATM   29  N4  UNL     1      -4.892   0.714  -0.481  1.00  0.00    -0.368 N 
ATOM     30  H4  UNL     1      -5.382   0.574  -1.364  1.00  0.00     0.161 HD
BRANCH  29  31
HETATM   31  C7  UNL     1      -4.939  -0.244   0.330  1.00  0.00     0.118 A 
HETATM   32  C6  UNL     1      -4.340  -0.230   1.554  1.00  0.00     0.136 A 
HETATM   33  N3  UNL     1      -4.430  -1.303   2.406  1.00  0.00    -0.358 N 
HETATM   34  C5  UNL     1      -5.114  -2.394   2.047  1.00  0.00     0.095 A 
ATOM     35  H3  UNL     1      -3.973  -1.267   3.317  1.00  0.00     0.165 HD
HETATM   36  C4  UNL     1      -5.380  -3.604   2.666  1.00  0.00     0.140 A 
HETATM   37  C28 UNL     1      -5.732  -2.445   0.819  1.00  0.00     0.152 A 
HETATM   38  N2  UNL     1      -6.131  -4.341   1.824  1.00  0.00    -0.305 N 
HETATM   39  N1  UNL     1      -6.349  -3.659   0.714  1.00  0.00    -0.272 N 
ATOM     40  H2  UNL     1      -6.478  -5.281   2.015  1.00  0.00     0.186 HD
HETATM   41  N8  UNL     1      -5.629  -1.388   0.009  1.00  0.00    -0.325 N 
ATOM     42  H8  UNL     1      -6.089  -1.433  -0.900  1.00  0.00     0.169 HD
BRANCH  39  43
HETATM   43  C3  UNL     1      -7.095  -4.036  -0.469  1.00  0.00     0.177 C 
BRANCH  43  44
HETATM   44  C2  UNL     1      -8.512  -3.675  -0.420  1.00  0.00    -0.015 C 
HETATM   45  C1  UNL     1      -9.448  -4.603  -0.507  1.00  0.00     0.008 C 
ENDBRANCH  43  44
ENDBRANCH  39  43
ENDBRANCH  29  31
ENDBRANCH   1  29
TORSDOF 15
