REMARK  11 active torsions:
REMARK  status: ('A' for Active; 'I' for Inactive)
REMARK    1  A    between atoms: C7_8  and  C8_9 
REMARK    2  A    between atoms: C8_9  and  C9_10 
REMARK    3  A    between atoms: C9_10  and  C10_11 
REMARK    4  A    between atoms: N1_14  and  C13_15 
REMARK    5  A    between atoms: C13_15  and  C14_16 
REMARK    6  A    between atoms: C14_16  and  C15_17 
REMARK    7  A    between atoms: C15_17  and  N2_18 
REMARK    8  A    between atoms: C20_23  and  C21_24 
REMARK    9  A    between atoms: C22_25  and  C23_26 
REMARK   10  A    between atoms: C23_26  and  O2_27 
REMARK   11  A    between atoms: C24_29  and  N3_30 
ROOT
HETATM    1  C1  UNL     1      -4.815   2.913   0.369  1.00  0.00     0.077 C 
HETATM    2  C2  UNL     1      -4.354   1.578   0.070  1.00  0.00     0.264 C 
HETATM    3  C3  UNL     1      -4.357   1.138  -1.378  1.00  0.00     0.189 C 
HETATM    4  O1  UNL     1      -5.496   1.413  -2.056  1.00  0.00    -0.381 OA
HETATM    5  C4  UNL     1      -6.677   1.135  -1.440  1.00  0.00     0.170 C 
HETATM    6  C5  UNL     1      -6.603  -0.286  -0.995  1.00  0.00     0.052 C 
HETATM    7  C6  UNL     1      -5.372  -0.512  -0.190  1.00  0.00     0.103 C 
HETATM    8  C7  UNL     1      -4.095  -0.317  -1.031  1.00  0.00     0.084 C 
HETATM    9  C8  UNL     1      -2.849  -0.101  -0.217  1.00  0.00     0.209 A 
HETATM   10  C24 UNL     1      -2.538  -0.525   1.092  1.00  0.00     0.276 A 
HETATM   11  C25 UNL     1      -2.671   0.883   1.652  1.00  0.00     0.363 A 
HETATM   12  N4  UNL     1      -3.680   1.123   2.655  1.00  0.00    -0.311 N 
ATOM     13  H4  UNL     1      -3.512   1.567   3.558  1.00  0.00     0.166 HD
HETATM   14  C26 UNL     1      -4.995   0.631   2.182  1.00  0.00     0.322 C 
HETATM   15  O3  UNL     1      -5.957   0.389   2.880  1.00  0.00    -0.247 OA
HETATM   16  N5  UNL     1      -5.028   0.457   0.783  1.00  0.00    -0.291 N 
HETATM   17  N6  UNL     1      -2.934   1.299   0.320  1.00  0.00     0.158 N 
ENDROOT
BRANCH   9  18
HETATM   18  C9  UNL     1      -1.710  -0.144  -1.254  1.00  0.00     0.084 C 
BRANCH  18  19
HETATM   19  C10 UNL     1      -0.359  -0.026  -0.749  1.00  0.00    -0.043 A 
HETATM   20  C11 UNL     1       0.185   1.249  -0.533  1.00  0.00     0.025 A 
HETATM   21  C12 UNL     1       1.433   1.446  -0.012  1.00  0.00     0.091 A 
HETATM   22  N1  UNL     1       2.194   0.375   0.315  1.00  0.00    -0.366 N 
HETATM   23  C19 UNL     1       1.679  -0.849   0.109  1.00  0.00     0.102 A 
HETATM   24  C20 UNL     1       0.427  -1.103  -0.413  1.00  0.00    -0.014 A 
BRANCH  22  25
HETATM   25  C13 UNL     1       3.500   0.491   0.873  1.00  0.00     0.129 C 
BRANCH  25  26
HETATM   26  C14 UNL     1       4.635   0.553  -0.098  1.00  0.00     0.048 C 
BRANCH  26  27
HETATM   27  C15 UNL     1       5.910   0.677   0.750  1.00  0.00     0.237 C 
BRANCH  27  28
HETATM   28  N2  UNL     1       7.100   0.757  -0.033  1.00  0.00    -0.079 N 
HETATM   29  C16 UNL     1       6.888   1.255  -1.377  1.00  0.00     0.271 C 
HETATM   30  C17 UNL     1       7.979   1.734   0.631  1.00  0.00     0.271 C 
HETATM   31  C18 UNL     1       7.842  -0.481  -0.071  1.00  0.00     0.271 C 
ENDBRANCH  27  28
ENDBRANCH  26  27
ENDBRANCH  25  26
ENDBRANCH  22  25
BRANCH  24  32
HETATM   32  C21 UNL     1      -0.015  -2.497  -0.639  1.00  0.00     0.011 C 
HETATM   33  C22 UNL     1       0.691  -3.556  -0.341  1.00  0.00    -0.000 C 
BRANCH  33  34
HETATM   34  C23 UNL     1       0.111  -4.917  -0.627  1.00  0.00     0.191 C 
BRANCH  34  35
HETATM   35  O2  UNL     1      -1.165  -4.782  -1.197  1.00  0.00    -0.397 OA
ATOM     36  H2  UNL     1      -1.531  -5.640  -1.377  1.00  0.00     0.209 HD
ENDBRANCH  34  35
ENDBRANCH  33  34
ENDBRANCH  24  32
ENDBRANCH  18  19
ENDBRANCH   9  18
BRANCH  10  37
HETATM   37  N3  UNL     1      -3.214  -1.579   1.814  1.00  0.00    -0.069 N 
ATOM     38  H33 UNL     1      -4.206  -1.343   1.812  1.00  0.00     0.275 HD
ATOM     39  H32 UNL     1      -3.175  -2.409   1.222  1.00  0.00     0.275 HD
ATOM     40  H31 UNL     1      -2.989  -1.886   2.760  1.00  0.00     0.275 HD
ENDBRANCH  10  37
TORSDOF 11
