REMARK  14 active torsions:
REMARK  status: ('A' for Active; 'I' for Inactive)
REMARK    1  A    between atoms: C2_2  and  S1_3 
REMARK    2  A    between atoms: S1_3  and  C4_5 
REMARK    3  A    between atoms: S1_3  and  C5_8 
REMARK    4  A    between atoms: C4_5  and  O1_6 
REMARK    5  A    between atoms: N1_11  and  C8_12 
REMARK    6  A    between atoms: C8_12  and  C9_13 
REMARK    7  A    between atoms: C9_13  and  N2_14 
REMARK    8  A    between atoms: N3_17  and  C12_18 
REMARK    9  A    between atoms: C12_18  and  C13_19 
REMARK   10  A    between atoms: C13_19  and  C14_20 
REMARK   11  A    between atoms: C14_20  and  C15_21 
REMARK   12  A    between atoms: C15_21  and  N4_22 
REMARK   13  A    between atoms: C17_24  and  N5_25 
REMARK   14  A    between atoms: N5_25  and  C18_27 
ROOT
HETATM    1  N2  UNL     1      -0.967   0.248   2.248  1.00  0.00    -0.350 N 
HETATM    2  C10 UNL     1      -0.848  -0.440   1.123  1.00  0.00     0.109 A 
HETATM    3  C11 UNL     1      -0.039   0.254   0.250  1.00  0.00     0.110 A 
HETATM    4  N3  UNL     1       0.337   1.386   0.864  1.00  0.00    -0.341 N 
HETATM    5  C22 UNL     1      -0.226   1.380   2.072  1.00  0.00     0.185 A 
ENDROOT
BRANCH   4   6
HETATM    6  C12 UNL     1       1.197   2.467   0.369  1.00  0.00     0.223 C 
BRANCH   6   7
HETATM    7  C13 UNL     1       2.575   2.092   0.764  1.00  0.00    -0.085 C 
BRANCH   7   8
HETATM    8  C14 UNL     1       3.685   1.767   1.096  1.00  0.00    -0.083 C 
BRANCH   8   9
HETATM    9  C15 UNL     1       5.020   1.353   1.516  1.00  0.00     0.242 C 
BRANCH   9  10
HETATM   10  N4  UNL     1       6.022   1.568   0.502  1.00  0.00    -0.275 N 
HETATM   11  C16 UNL     1       6.363   0.670  -0.437  1.00  0.00     0.160 A 
HETATM   12  C17 UNL     1       7.337   0.924  -1.382  1.00  0.00     0.134 A 
HETATM   13  N6  UNL     1       7.949   2.122  -1.337  1.00  0.00    -0.175 N 
HETATM   14  C21 UNL     1       7.614   3.022  -0.404  1.00  0.00     0.692 A 
ATOM     15  H6  UNL     1       8.674   2.346  -2.019  1.00  0.00     0.186 HD
HETATM   16  N7  UNL     1       8.205   4.167  -0.368  1.00  0.00    -0.233 N 
HETATM   17  N8  UNL     1       6.664   2.722   0.486  1.00  0.00    -0.130 N 
ATOM     18  H72 UNL     1       8.930   4.396  -1.048  1.00  0.00     0.174 HD
ATOM     19  H71 UNL     1       7.950   4.853   0.343  1.00  0.00     0.174 HD
ATOM     20  H8  UNL     1       6.422   3.420   1.189  1.00  0.00     0.206 HD
BRANCH  12  21
HETATM   21  N5  UNL     1       7.701   0.104  -2.296  1.00  0.00    -0.371 N 
ATOM     22  H5  UNL     1       8.435   0.425  -2.928  1.00  0.00     0.161 HD
BRANCH  21  23
HETATM   23  C18 UNL     1       7.194  -1.210  -2.529  1.00  0.00     0.075 C 
HETATM   24  C19 UNL     1       7.437  -2.182  -1.398  1.00  0.00     0.031 C 
HETATM   25  C20 UNL     1       7.710  -1.771  -3.845  1.00  0.00     0.031 C 
ENDBRANCH  21  23
ENDBRANCH  12  21
ENDBRANCH   9  10
ENDBRANCH   8   9
ENDBRANCH   7   8
ENDBRANCH   6   7
ENDBRANCH   4   6
BRANCH   1  26
HETATM   26  C9  UNL     1      -1.706  -0.058   3.463  1.00  0.00     0.149 C 
BRANCH  26  27
HETATM   27  C8  UNL     1      -3.107   0.462   3.438  1.00  0.00     0.148 C 
BRANCH  27  28
HETATM   28  N1  UNL     1      -3.933  -0.052   2.388  1.00  0.00    -0.365 N 
HETATM   29  C7  UNL     1      -4.686  -1.171   2.528  1.00  0.00     0.091 A 
HETATM   30  C6  UNL     1      -5.478  -1.658   1.514  1.00  0.00     0.034 A 
HETATM   31  C5  UNL     1      -5.541  -1.009   0.276  1.00  0.00    -0.013 A 
HETATM   32  C24 UNL     1      -4.773   0.126   0.143  1.00  0.00     0.034 A 
HETATM   33  C23 UNL     1      -3.982   0.583   1.206  1.00  0.00     0.091 A 
BRANCH  31  34
HETATM   34  S1  UNL     1      -6.573  -1.679  -0.981  1.00  0.00    -0.208 SA
HETATM   35  C3  UNL     1      -6.720  -3.470  -0.699  1.00  0.00     0.075 C 
BRANCH  34  36
HETATM   36  C2  UNL     1      -8.232  -0.983  -0.918  1.00  0.00     0.056 C 
HETATM   37  C1  UNL     1      -8.222   0.503  -1.141  1.00  0.00     0.015 C 
ENDBRANCH  34  36
BRANCH  34  38
HETATM   38  C4  UNL     1      -5.921  -1.420  -2.630  1.00  0.00     0.223 C 
BRANCH  38  39
HETATM   39  O1  UNL     1      -5.891  -0.058  -2.878  1.00  0.00    -0.392 OA
ATOM     40  H1  UNL     1      -5.545   0.079  -3.752  1.00  0.00     0.210 HD
ENDBRANCH  38  39
ENDBRANCH  34  38
ENDBRANCH  31  34
ENDBRANCH  27  28
ENDBRANCH  26  27
ENDBRANCH   1  26
TORSDOF 14
