REMARK  10 active torsions:
REMARK  status: ('A' for Active; 'I' for Inactive)
REMARK    1  A    between atoms: C2_2  and  C3_3 
REMARK    2  A    between atoms: C3_3  and  C4_4 
REMARK    3  A    between atoms: C4_4  and  C5_5 
REMARK    4  A    between atoms: C5_5  and  C6_6 
REMARK    5  A    between atoms: C6_6  and  C7_7 
REMARK    6  A    between atoms: N1_13  and  C13_14 
REMARK    7  A    between atoms: C13_14  and  C14_15 
REMARK    8  A    between atoms: C14_15  and  C15_16 
REMARK    9  A    between atoms: C15_16  and  N2_17 
REMARK       I    between atoms: N2_17  and  C16_19 
REMARK   10  A    between atoms: C16_19  and  C17_21 
ROOT
HETATM    1  C13 UNL     1       0.597  -1.479  -0.146  1.00  0.00     0.274 C 
ENDROOT
BRANCH   1   2
HETATM    2  N1  UNL     1       0.293  -0.907  -1.402  1.00  0.00     0.093 N 
HETATM    3  C12 UNL     1       0.361   0.506  -1.521  1.00  0.00     0.273 C 
HETATM    4  C11 UNL     1      -0.846   0.999  -2.304  1.00  0.00     0.037 C 
HETATM    5  C10 UNL     1      -1.255  -0.316  -2.990  1.00  0.00     0.021 C 
HETATM    6  C9  UNL     1      -2.644  -0.288  -3.483  1.00  0.00     0.007 C 
HETATM    7  C22 UNL     1      -0.962  -1.355  -1.954  1.00  0.00     0.227 C 
HETATM    8  C8  UNL     1      -3.611  -1.191  -2.790  1.00  0.00     0.005 C 
HETATM    9  C7  UNL     1      -3.417  -1.390  -1.339  1.00  0.00    -0.012 C 
HETATM   10  C23 UNL     1      -1.994  -1.444  -0.873  1.00  0.00     0.041 C 
BRANCH   9  11
HETATM   11  C6  UNL     1      -4.216  -0.435  -0.455  1.00  0.00     0.005 C 
BRANCH  11  12
HETATM   12  C5  UNL     1      -5.690  -0.526  -0.640  1.00  0.00     0.000 C 
BRANCH  12  13
HETATM   13  C4  UNL     1      -6.348   0.469   0.290  1.00  0.00     0.000 C 
BRANCH  13  14
HETATM   14  C3  UNL     1      -6.067   0.246   1.735  1.00  0.00    -0.000 C 
BRANCH  14  15
HETATM   15  C2  UNL     1      -6.806   1.329   2.508  1.00  0.00    -0.005 C 
HETATM   16  C1  UNL     1      -8.297   1.271   2.264  1.00  0.00     0.005 C 
ENDBRANCH  14  15
ENDBRANCH  13  14
ENDBRANCH  12  13
ENDBRANCH  11  12
ENDBRANCH   9  11
ENDBRANCH   1   2
BRANCH   1  17
HETATM   17  C14 UNL     1       2.003  -1.432   0.331  1.00  0.00     0.050 C 
BRANCH  17  18
HETATM   18  C15 UNL     1       2.613  -0.092   0.526  1.00  0.00     0.124 C 
BRANCH  18  19
HETATM   19  N2  UNL     1       3.983  -0.295   1.031  1.00  0.00    -0.361 N 
HETATM   20  C16 UNL     1       4.795   0.848   1.303  1.00  0.00     0.225 C 
HETATM   21  O1  UNL     1       4.337   1.999   1.111  1.00  0.00    -0.273 OA
ATOM     22  H2  UNL     1       4.345  -1.236   1.184  1.00  0.00     0.162 HD
BRANCH  20  23
HETATM   23  C17 UNL     1       6.177   0.645   1.811  1.00  0.00     0.118 C 
HETATM   24  C18 UNL     1       6.887   1.928   2.053  1.00  0.00     0.138 C 
HETATM   25  N3  UNL     1       8.311   1.890   1.955  1.00  0.00    -0.366 N 
HETATM   26  C19 UNL     1       8.984   0.650   1.858  1.00  0.00     0.167 C 
ATOM     27  H3  UNL     1       8.844   2.760   1.955  1.00  0.00     0.161 HD
HETATM   28  S1  UNL     1      10.512   0.461   2.450  1.00  0.00    -0.041 SA
HETATM   29  N4  UNL     1       8.303  -0.428   1.232  1.00  0.00    -0.362 N 
HETATM   30  C20 UNL     1       6.909  -0.329   0.929  1.00  0.00     0.094 C 
ATOM     31  H4  UNL     1       8.813  -1.280   0.997  1.00  0.00     0.162 HD
HETATM   32  C21 UNL     1       6.744  -0.040  -0.542  1.00  0.00     0.033 C 
ENDBRANCH  20  23
ENDBRANCH  18  19
ENDBRANCH  17  18
ENDBRANCH   1  17
TORSDOF 10
