REMARK  2 active torsions:
REMARK  status: ('A' for Active; 'I' for Inactive)
REMARK    1  A    between atoms: C4_4  and  N1_5 
REMARK    2  A    between atoms: N1_5  and  C5_7 
ROOT
HETATM    1  C1  UNL     1      -2.724   0.303  -0.140  1.00  0.00     0.028 C 
HETATM    2  C2  UNL     1      -1.822   1.295   0.573  1.00  0.00     0.005 C 
HETATM    3  C3  UNL     1      -0.362   0.905   0.379  1.00  0.00     0.054 C 
HETATM    4  C4  UNL     1      -0.196  -0.535   0.072  1.00  0.00     0.280 C 
HETATM    5  N2  UNL     1      -1.171  -1.383   0.734  1.00  0.00    -0.055 N 
ATOM      6  H21 UNL     1      -1.069  -1.331   1.748  1.00  0.00     0.279 HD
ATOM      7  H22 UNL     1      -0.949  -2.369   0.594  1.00  0.00     0.279 HD
HETATM    8  C8  UNL     1      -2.523  -1.103   0.342  1.00  0.00     0.235 C 
ENDROOT
BRANCH   4   9
HETATM    9  N1  UNL     1       1.092  -1.010   0.469  1.00  0.00    -0.391 N 
ATOM     10  H1  UNL     1       1.190  -1.716   1.198  1.00  0.00     0.155 HD
BRANCH   9  11
HETATM   11  C5  UNL     1       2.230  -0.468  -0.183  1.00  0.00     0.078 A 
HETATM   12  C6  UNL     1       2.714   0.906  -0.140  1.00  0.00     0.027 A 
HETATM   13  C7  UNL     1       3.418  -0.128   0.701  1.00  0.00     0.027 A 
ENDBRANCH   9  11
ENDBRANCH   4   9
TORSDOF 2
