REMARK  12 active torsions:
REMARK  status: ('A' for Active; 'I' for Inactive)
REMARK    1  A    between atoms: C4_4  and  C5_5 
REMARK    2  A    between atoms: C5_5  and  N1_6 
REMARK    3  A    between atoms: N1_6  and  C6_9 
REMARK    4  A    between atoms: C6_9  and  C7_10 
REMARK    5  A    between atoms: C7_10  and  C8_11 
REMARK    6  A    between atoms: C8_11  and  C9_12 
REMARK    7  A    between atoms: C9_12  and  C10_13 
REMARK    8  A    between atoms: C10_13  and  C11_14 
REMARK    9  A    between atoms: C11_14  and  C12_15 
REMARK   10  A    between atoms: C12_15  and  C13_16 
REMARK   11  A    between atoms: C13_16  and  C14_17 
REMARK   12  A    between atoms: C15_18  and  C16_19 
ROOT
HETATM    1  C8  UNL     1       1.423  -0.882   0.506  1.00  0.00     0.005 C 
ENDROOT
BRANCH   1   2
HETATM    2  C7  UNL     1       2.078  -1.072  -0.813  1.00  0.00     0.028 C 
BRANCH   2   3
HETATM    3  C6  UNL     1       3.482  -0.689  -0.969  1.00  0.00     0.232 C 
BRANCH   3   4
HETATM    4  N1  UNL     1       4.489  -1.124  -0.072  1.00  0.00    -0.070 N 
ATOM      5  H12 UNL     1       4.428  -2.117   0.152  1.00  0.00     0.277 HD
ATOM      6  H11 UNL     1       4.364  -0.771   0.877  1.00  0.00     0.277 HD
BRANCH   4   7
HETATM    7  C5  UNL     1       5.772  -0.743  -0.667  1.00  0.00     0.289 C 
BRANCH   7   8
HETATM    8  C4  UNL     1       6.528   0.262   0.065  1.00  0.00     0.034 A 
HETATM    9  C3  UNL     1       7.841   0.467  -0.336  1.00  0.00     0.027 A 
HETATM   10  C2  UNL     1       8.614   1.466   0.189  1.00  0.00     0.003 A 
HETATM   11  C1  UNL     1       8.089   2.327   1.166  1.00  0.00     0.017 A 
HETATM   12  C20 UNL     1       6.777   2.086   1.540  1.00  0.00     0.088 A 
HETATM   13  N3  UNL     1       6.042   1.099   1.009  1.00  0.00    -0.368 N 
ATOM     14  H3  UNL     1       5.081   0.975   1.329  1.00  0.00     0.165 HD
ENDBRANCH   7   8
ENDBRANCH   4   7
ENDBRANCH   3   4
ENDBRANCH   2   3
ENDBRANCH   1   2
BRANCH   1  15
HETATM   15  C9  UNL     1      -0.116  -1.061   0.282  1.00  0.00     0.027 C 
BRANCH  15  16
HETATM   16  C10 UNL     1      -0.609   0.154  -0.383  1.00  0.00    -0.031 C 
BRANCH  16  17
HETATM   17  C11 UNL     1      -1.931   0.360  -0.938  1.00  0.00    -0.030 C 
BRANCH  17  18
HETATM   18  C12 UNL     1      -3.202   0.189  -0.212  1.00  0.00     0.030 C 
BRANCH  18  19
HETATM   19  C13 UNL     1      -3.491  -1.234   0.117  1.00  0.00     0.031 C 
BRANCH  19  20
HETATM   20  C14 UNL     1      -4.681  -1.606   0.875  1.00  0.00    -0.026 C 
HETATM   21  C15 UNL     1      -6.061  -1.338   0.540  1.00  0.00     0.009 C 
BRANCH  21  22
HETATM   22  C16 UNL     1      -6.602   0.014   0.490  1.00  0.00    -0.020 A 
HETATM   23  C17 UNL     1      -6.884   0.829  -0.572  1.00  0.00     0.029 A 
HETATM   24  C18 UNL     1      -7.378   2.047  -0.110  1.00  0.00     0.088 A 
HETATM   25  N2  UNL     1      -7.390   1.956   1.230  1.00  0.00    -0.374 N 
HETATM   26  C19 UNL     1      -6.939   0.771   1.633  1.00  0.00     0.099 A 
ATOM     27  H2  UNL     1      -7.704   2.698   1.856  1.00  0.00     0.164 HD
ENDBRANCH  21  22
ENDBRANCH  19  20
ENDBRANCH  18  19
ENDBRANCH  17  18
ENDBRANCH  16  17
ENDBRANCH  15  16
ENDBRANCH   1  15
TORSDOF 12
