REMARK  3 active torsions:
REMARK  status: ('A' for Active; 'I' for Inactive)
REMARK    1  A    between atoms: C2_2  and  O1_3 
REMARK    2  A    between atoms: O1_3  and  C3_4 
REMARK       I    between atoms: C3_4  and  N1_6 
REMARK    3  A    between atoms: C7_12  and  C9_14 
ROOT
HETATM    1  C3  UNL     1       3.293  -0.453  -0.910  1.00  0.00     0.364 C 
HETATM    2  O2  UNL     1       3.443   0.529  -1.682  1.00  0.00    -0.238 OA
HETATM    3  N1  UNL     1       2.092  -1.091  -0.811  1.00  0.00    -0.306 N 
ATOM      4  H1  UNL     1       2.092  -1.931  -1.389  1.00  0.00     0.170 HD
HETATM    5  C4  UNL     1       1.003  -0.967  -0.238  1.00  0.00     0.036 C 
HETATM    6  C5  UNL     1      -0.013  -2.065  -0.537  1.00  0.00     0.079 C 
HETATM    7  C6  UNL     1      -1.376  -1.496  -0.828  1.00  0.00     0.122 C 
HETATM    8 CL1  UNL     1      -1.551  -1.331  -2.556  1.00  0.00    -0.121 Cl
HETATM    9  C7  UNL     1      -1.705  -0.324   0.010  1.00  0.00     0.083 C 
HETATM   10  C8  UNL     1      -1.996  -0.852   1.427  1.00  0.00     0.048 C 
HETATM   11  O3  UNL     1      -0.649   0.582   0.144  1.00  0.00    -0.353 OA
HETATM   12  C13 UNL     1       0.497   0.052   0.689  1.00  0.00     0.274 C 
HETATM   13  C14 UNL     1       1.400   1.126   0.979  1.00  0.00     0.097 C 
HETATM   14  N2  UNL     1       2.104   1.993   1.228  1.00  0.00    -0.194 NA
ENDROOT
BRANCH   9  15
HETATM   15  C9  UNL     1      -2.887   0.490  -0.376  1.00  0.00    -0.019 C 
HETATM   16  C10 UNL     1      -2.777   1.104  -1.750  1.00  0.00     0.017 C 
HETATM   17  C11 UNL     1      -4.204  -0.230  -0.190  1.00  0.00     0.017 C 
HETATM   18  C12 UNL     1      -2.935   1.676   0.602  1.00  0.00     0.017 C 
ENDBRANCH   9  15
BRANCH   1  19
HETATM   19  O1  UNL     1       4.395  -0.854  -0.174  1.00  0.00    -0.304 OA
BRANCH  19  20
HETATM   20  C2  UNL     1       5.660  -0.243  -0.240  1.00  0.00     0.176 C 
HETATM   21  C1  UNL     1       5.641   1.211   0.152  1.00  0.00     0.034 C 
ENDBRANCH  19  20
ENDBRANCH   1  19
TORSDOF 3
