REMARK  1 active torsions:
REMARK  status: ('A' for Active; 'I' for Inactive)
REMARK    1  A    between atoms: O1_2  and  C2_3 
ROOT
HETATM    1  C2  UNL     1      -3.160  -0.520   0.335  1.00  0.00     0.260 C 
HETATM    2  C3  UNL     1      -3.325   0.961   0.093  1.00  0.00     0.067 C 
HETATM    3  C4  UNL     1      -2.059   1.620  -0.350  1.00  0.00     0.018 C 
HETATM    4  C5  UNL     1      -1.827   2.973   0.248  1.00  0.00     0.012 C 
HETATM    5  C6  UNL     1      -0.928   0.645   0.014  1.00  0.00     0.155 C 
HETATM    6  O2  UNL     1       0.249   1.281  -0.236  1.00  0.00    -0.371 OA
HETATM    7  C7  UNL     1       1.355   0.493  -0.352  1.00  0.00     0.196 C 
HETATM    8  C8  UNL     1       1.129  -0.964  -0.103  1.00  0.00     0.169 C 
HETATM    9  O3  UNL     1       2.307  -1.656  -0.509  1.00  0.00    -0.321 OA
HETATM   10  C9  UNL     1       3.546  -1.043  -0.503  1.00  0.00     0.195 A 
HETATM   11  O4  UNL     1       4.713  -1.480  -0.912  1.00  0.00    -0.300 OA
HETATM   12  C10 UNL     1       5.642  -0.582  -0.729  1.00  0.00     0.145 A 
HETATM   13  C11 UNL     1       5.053   0.524  -0.162  1.00  0.00     0.040 A 
HETATM   14  C12 UNL     1       3.729   0.235  -0.019  1.00  0.00     0.044 A 
HETATM   15  C13 UNL     1       2.523   0.944   0.508  1.00  0.00     0.160 C 
HETATM   16  C14 UNL     1       2.357   0.482   1.953  1.00  0.00     0.060 C 
HETATM   17  F1  UNL     1       2.713   2.306   0.454  1.00  0.00    -0.235 F 
HETATM   18  C15 UNL     1      -0.012  -1.513  -0.892  1.00  0.00     0.045 C 
HETATM   19  C16 UNL     1       0.461  -1.735  -2.321  1.00  0.00     0.015 C 
HETATM   20  C17 UNL     1      -1.183  -0.550  -0.882  1.00  0.00     0.160 C 
HETATM   21  O5  UNL     1      -2.367  -1.153  -0.575  1.00  0.00    -0.353 OA
ENDROOT
BRANCH   1  22
HETATM   22  O1  UNL     1      -4.432  -1.087   0.279  1.00  0.00    -0.366 OA
HETATM   23  C1  UNL     1      -4.787  -1.709   1.466  1.00  0.00     0.204 C 
ENDBRANCH   1  22
TORSDOF 1
