REMARK  7 active torsions:
REMARK  status: ('A' for Active; 'I' for Inactive)
REMARK    1  A    between atoms: S1_2  and  N1_4 
REMARK    2  A    between atoms: N1_4  and  C2_5 
REMARK    3  A    between atoms: C2_5  and  O2_6 
REMARK    4  A    between atoms: C2_5  and  C3_8 
REMARK    5  A    between atoms: C6_11  and  C7_12 
REMARK    6  A    between atoms: C8_13  and  C9_14 
REMARK    7  A    between atoms: C9_14  and  C10_15 
ROOT
HETATM    1  C3  UNL     1      -1.691   0.431  -0.108  1.00  0.00     0.097 A 
HETATM    2  C4  UNL     1      -0.844   0.566  -1.290  1.00  0.00     0.012 A 
HETATM    3  C5  UNL     1      -1.150  -0.005  -2.637  1.00  0.00     0.012 C 
HETATM    4  C6  UNL     1      -0.581  -0.513  -0.219  1.00  0.00     0.083 A 
ENDROOT
BRANCH   1   5
HETATM    5  C2  UNL     1      -3.129  -0.091  -0.255  1.00  0.00     0.207 C 
BRANCH   5   6
HETATM    6  N1  UNL     1      -4.076   0.279   0.480  1.00  0.00    -0.323 NA
BRANCH   6   7
HETATM    7  S1  UNL     1      -5.332   0.769   1.456  1.00  0.00     0.184 S 
HETATM    8  C1  UNL     1      -6.428   1.380   1.417  1.00  0.00     0.168 C 
HETATM    9  O1  UNL     1      -4.323   0.005   2.477  1.00  0.00    -0.222 OA
ENDBRANCH   6   7
ENDBRANCH   5   6
BRANCH   5  10
HETATM   10  O2  UNL     1      -3.190  -0.954  -1.241  1.00  0.00    -0.338 OA
ATOM     11  H2  UNL     1      -2.473  -1.234  -1.798  1.00  0.00     0.220 HD
ENDBRANCH   5  10
ENDBRANCH   1   5
BRANCH   4  12
HETATM   12  C7  UNL     1       0.660  -0.360   0.527  1.00  0.00    -0.101 C 
HETATM   13  C8  UNL     1       1.678  -0.212   1.126  1.00  0.00    -0.106 C 
BRANCH  13  14
HETATM   14  C9  UNL     1       2.929  -0.015   1.837  1.00  0.00     0.093 C 
BRANCH  14  15
HETATM   15  C10 UNL     1       4.085  -0.722   1.164  1.00  0.00     0.007 C 
HETATM   16  C11 UNL     1       4.316  -0.245  -0.247  1.00  0.00     0.006 C 
ENDBRANCH  14  15
ENDBRANCH  13  14
ENDBRANCH   4  12
TORSDOF 7
