REMARK  4 active torsions:
REMARK  status: ('A' for Active; 'I' for Inactive)
REMARK    1  A    between atoms: O1_1  and  C1_3 
REMARK    2  A    between atoms: C1_3  and  C2_4 
REMARK    3  A    between atoms: C4_7  and  N1_8 
REMARK    4  A    between atoms: C10_16  and  O3_17 
ROOT
HETATM    1  C2  UNL     1      -1.564   0.568  -0.052  1.00  0.00     0.130 C 
HETATM    2  C3  UNL     1      -0.874   0.852   1.235  1.00  0.00     0.213 C 
HETATM    3  O2  UNL     1       0.349   0.208   1.370  1.00  0.00    -0.360 OA
HETATM    4  C4  UNL     1       1.071   0.405   0.203  1.00  0.00     0.257 C 
HETATM    5  C8  UNL     1       0.241  -0.235  -0.917  1.00  0.00     0.174 C 
HETATM    6  C9  UNL     1      -0.485  -1.463  -0.403  1.00  0.00     0.071 C 
HETATM    7  C10 UNL     1      -1.895  -0.918  -0.129  1.00  0.00     0.159 C 
HETATM    8  O4  UNL     1      -0.773   0.718  -1.174  1.00  0.00    -0.363 OA
ENDROOT
BRANCH   4   9
HETATM    9  N1  UNL     1       2.400  -0.147   0.256  1.00  0.00    -0.322 N 
HETATM   10  C5  UNL     1       3.482   0.432  -0.296  1.00  0.00     0.111 A 
HETATM   11  C6  UNL     1       4.585  -0.345  -0.068  1.00  0.00     0.106 A 
HETATM   12  N2  UNL     1       4.160  -1.412   0.636  1.00  0.00    -0.361 N 
HETATM   13  C7  UNL     1       2.835  -1.278   0.824  1.00  0.00     0.184 A 
ATOM     14  H2  UNL     1       4.739  -2.183   0.967  1.00  0.00     0.166 HD
ENDBRANCH   4   9
BRANCH   1  15
HETATM   15  C1  UNL     1      -2.784   1.426  -0.175  1.00  0.00     0.207 C 
BRANCH  15  16
HETATM   16  O1  UNL     1      -3.504   1.033  -1.315  1.00  0.00    -0.398 OA
ATOM     17  H1  UNL     1      -4.278   1.578  -1.393  1.00  0.00     0.209 HD
ENDBRANCH  15  16
ENDBRANCH   1  15
BRANCH   7  18
HETATM   18  O3  UNL     1      -2.418  -1.404   1.043  1.00  0.00    -0.392 OA
ATOM     19  H3  UNL     1      -2.624  -2.330   0.995  1.00  0.00     0.210 HD
ENDBRANCH   7  18
TORSDOF 4
