REMARK  10 active torsions:
REMARK  status: ('A' for Active; 'I' for Inactive)
REMARK    1  A    between atoms: C2_2  and  N1_3 
REMARK    2  A    between atoms: N2_6  and  C5_7 
REMARK    3  A    between atoms: C5_7  and  C6_8 
REMARK    4  A    between atoms: C5_7  and  C12_16 
REMARK    5  A    between atoms: C12_16  and  C14_18 
REMARK    6  A    between atoms: C14_18  and  O1_19 
REMARK    7  A    between atoms: C14_18  and  C15_21 
REMARK    8  A    between atoms: C15_21  and  O2_22 
REMARK    9  A    between atoms: C15_21  and  C16_24 
REMARK   10  A    between atoms: C16_24  and  C17_26 
ROOT
HETATM    1  C17 UNL     1      -5.004  -1.060  -0.030  1.00  0.00     0.105 C 
HETATM    2  C18 UNL     1      -4.655  -2.272  -0.856  1.00  0.00     0.039 C 
HETATM    3  C19 UNL     1      -5.664  -1.627   1.226  1.00  0.00     0.039 C 
HETATM    4  C20 UNL     1      -6.026  -0.299  -0.727  1.00  0.00     0.076 C 
HETATM    5  N3  UNL     1      -6.844   0.337  -1.287  1.00  0.00    -0.196 NA
ENDROOT
BRANCH   1   6
HETATM    6  C16 UNL     1      -3.822  -0.230   0.299  1.00  0.00     0.179 C 
HETATM    7  O3  UNL     1      -3.716   0.764  -0.420  1.00  0.00    -0.293 OA
BRANCH   6   8
HETATM    8  C15 UNL     1      -2.822  -0.453   1.331  1.00  0.00     0.218 C 
BRANCH   8   9
HETATM    9  C14 UNL     1      -1.363  -0.547   0.962  1.00  0.00     0.160 C 
BRANCH   9  10
HETATM   10  C12 UNL     1      -0.698   0.637   0.485  1.00  0.00     0.036 C 
HETATM   11  C13 UNL     1      -1.227   1.803   1.401  1.00  0.00     0.014 C 
BRANCH  10  12
HETATM   12  C5  UNL     1       0.688   0.953   0.223  1.00  0.00     0.105 C 
BRANCH  12  13
HETATM   13  N2  UNL     1       1.522  -0.007  -0.510  1.00  0.00    -0.281 NA
HETATM   14  C4  UNL     1       1.726  -1.263   0.137  1.00  0.00     0.077 C 
HETATM   15  C3  UNL     1       3.060  -1.895   0.223  1.00  0.00     0.097 C 
HETATM   16  N1  UNL     1       4.201  -1.218  -0.198  1.00  0.00    -0.388 N 
HETATM   17  C22 UNL     1       3.882  -0.318  -1.228  1.00  0.00     0.137 C 
HETATM   18  C21 UNL     1       2.815   0.617  -0.647  1.00  0.00     0.115 C 
BRANCH  16  19
HETATM   19  C2  UNL     1       5.236  -0.930   0.708  1.00  0.00     0.118 C 
HETATM   20  C1  UNL     1       5.906  -2.256   1.097  1.00  0.00     0.026 C 
ENDBRANCH  16  19
ENDBRANCH  12  13
BRANCH  12  21
HETATM   21  C6  UNL     1       0.671   2.118  -0.763  1.00  0.00     0.004 A 
HETATM   22  C7  UNL     1       1.406   3.284  -0.556  1.00  0.00     0.043 A 
HETATM   23 CL1  UNL     1       2.226   3.507   0.969  1.00  0.00    -0.084 Cl
HETATM   24  C8  UNL     1       1.490   4.291  -1.528  1.00  0.00     0.024 A 
HETATM   25  C9  UNL     1       0.846   4.151  -2.711  1.00  0.00     0.003 A 
HETATM   26  C10 UNL     1       0.106   3.022  -2.973  1.00  0.00     0.024 A 
HETATM   27  C11 UNL     1       0.053   2.038  -1.975  1.00  0.00     0.043 A 
HETATM   28 CL2  UNL     1      -0.732   0.574  -2.531  1.00  0.00    -0.084 Cl
ENDBRANCH  12  21
ENDBRANCH  10  12
ENDBRANCH   9  10
BRANCH   9  29
HETATM   29  O1  UNL     1      -1.335  -1.730   0.256  1.00  0.00    -0.392 OA
ATOM     30  H1  UNL     1      -1.774  -2.511   0.571  1.00  0.00     0.210 HD
ENDBRANCH   9  29
ENDBRANCH   8   9
BRANCH   8  31
HETATM   31  O2  UNL     1      -3.144  -1.644   2.077  1.00  0.00    -0.385 OA
ATOM     32  H2  UNL     1      -4.063  -1.585   2.309  1.00  0.00     0.210 HD
ENDBRANCH   8  31
ENDBRANCH   6   8
ENDBRANCH   1   6
TORSDOF 10
