REMARK  5 active torsions:
REMARK  status: ('A' for Active; 'I' for Inactive)
REMARK    1  A    between atoms: N1_1  and  C1_5 
REMARK    2  A    between atoms: C1_5  and  C2_6 
REMARK    3  A    between atoms: C1_5  and  C3_8 
REMARK    4  A    between atoms: C3_8  and  C4_9 
REMARK       I    between atoms: C4_9  and  N2_11 
REMARK    5  A    between atoms: N2_11  and  C5_13 
ROOT
HETATM    1  C4  UNL     1      -0.164   0.001   0.066  1.00  0.00     0.225 C 
HETATM    2  O2  UNL     1      -0.173  -0.917  -0.776  1.00  0.00    -0.273 OA
HETATM    3  N2  UNL     1       1.040   0.502   0.579  1.00  0.00    -0.312 N 
ATOM      4  H2  UNL     1       0.966   1.255   1.263  1.00  0.00     0.170 HD
ENDROOT
BRANCH   1   5
HETATM    5  C3  UNL     1      -1.473   0.532   0.491  1.00  0.00     0.143 C 
BRANCH   5   6
HETATM    6  C1  UNL     1      -2.625  -0.149  -0.185  1.00  0.00     0.253 C 
BRANCH   6   7
HETATM    7  N1  UNL     1      -2.527   0.029  -1.620  1.00  0.00    -0.068 N 
ATOM      8  H13 UNL     1      -3.360  -0.291  -2.114  1.00  0.00     0.275 HD
ATOM      9  H12 UNL     1      -2.570   1.009  -1.898  1.00  0.00     0.275 HD
ATOM     10  H11 UNL     1      -1.677  -0.434  -1.942  1.00  0.00     0.275 HD
ENDBRANCH   6   7
BRANCH   6  11
HETATM   11  C2  UNL     1      -3.877   0.533   0.289  1.00  0.00     0.264 C 
HETATM   12  O1  UNL     1      -4.607   1.104  -0.485  1.00  0.00    -0.305 OA
ENDBRANCH   6  11
ENDBRANCH   5   6
ENDBRANCH   1   5
BRANCH   3  13
HETATM   13  C5  UNL     1       2.347   0.075   0.249  1.00  0.00     0.123 A 
HETATM   14  C6  UNL     1       2.704  -0.909  -0.636  1.00  0.00     0.068 A 
HETATM   15  C7  UNL     1       4.103  -0.984  -0.640  1.00  0.00     0.111 A 
HETATM   16  N3  UNL     1       4.540  -0.063   0.224  1.00  0.00    -0.310 N 
HETATM   17  N4  UNL     1       3.517   0.562   0.748  1.00  0.00    -0.286 N 
ATOM     18  H3  UNL     1       5.519   0.124   0.441  1.00  0.00     0.186 HD
ATOM     19  H4  UNL     1       3.586   1.312   1.436  1.00  0.00     0.188 HD
ENDBRANCH   3  13
TORSDOF 5
