REMARK  8 active torsions:
REMARK  status: ('A' for Active; 'I' for Inactive)
REMARK    1  A    between atoms: O1_2  and  C2_3 
REMARK    2  A    between atoms: C3_4  and  C4_5 
REMARK    3  A    between atoms: C4_5  and  C5_6 
REMARK    4  A    between atoms: C5_6  and  C6_7 
REMARK    5  A    between atoms: C15_17  and  O2_18 
REMARK    6  A    between atoms: C16_20  and  O3_21 
REMARK    7  A    between atoms: C17_23  and  C18_24 
REMARK    8  A    between atoms: C18_24  and  C19_25 
ROOT
HETATM    1  C2  UNL     1       1.420  -0.042  -0.926  1.00  0.00     0.084 A 
HETATM    2  C3  UNL     1       0.287   0.682  -1.099  1.00  0.00    -0.021 A 
HETATM    3  C14 UNL     1       0.399   2.062  -1.063  1.00  0.00     0.049 A 
HETATM    4  C15 UNL     1       1.605   2.633  -0.859  1.00  0.00     0.100 A 
HETATM    5  C16 UNL     1       2.809   1.912  -0.672  1.00  0.00     0.108 A 
HETATM    6  C17 UNL     1       2.690   0.560  -0.710  1.00  0.00     0.015 A 
ENDROOT
BRANCH   2   7
HETATM    7  C4  UNL     1      -1.085   0.156  -1.276  1.00  0.00     0.042 C 
BRANCH   7   8
HETATM    8  C5  UNL     1      -1.776  -0.057   0.025  1.00  0.00     0.015 C 
BRANCH   8   9
HETATM    9  C6  UNL     1      -3.181  -0.604  -0.153  1.00  0.00    -0.031 C 
HETATM   10  C7  UNL     1      -3.108  -1.923  -0.873  1.00  0.00     0.016 C 
HETATM   11  C8  UNL     1      -4.065   0.299  -0.976  1.00  0.00     0.015 C 
HETATM   12  C9  UNL     1      -5.510   0.235  -0.577  1.00  0.00    -0.004 C 
HETATM   13  C10 UNL     1      -5.603   0.862   0.816  1.00  0.00     0.006 C 
HETATM   14  C13 UNL     1      -6.024  -1.211  -0.508  1.00  0.00     0.079 C 
HETATM   15  C11 UNL     1      -4.400   0.550   1.661  1.00  0.00     0.016 C 
HETATM   16  C12 UNL     1      -3.772  -0.782   1.229  1.00  0.00     0.055 C 
HETATM   17  S1  UNL     1      -5.214  -1.899   0.995  1.00  0.00    -0.163 SA
ENDBRANCH   8   9
ENDBRANCH   7   8
ENDBRANCH   2   7
BRANCH   1  18
HETATM   18  O1  UNL     1       1.362  -1.415  -0.963  1.00  0.00    -0.355 OA
HETATM   19  C1  UNL     1       1.201  -2.312   0.087  1.00  0.00     0.210 C 
ENDBRANCH   1  18
BRANCH   6  20
HETATM   20  C18 UNL     1       3.772  -0.413  -0.538  1.00  0.00     0.072 C 
BRANCH  20  21
HETATM   21  C19 UNL     1       5.146   0.011  -0.575  1.00  0.00    -0.020 C 
HETATM   22  C20 UNL     1       6.048  -0.157   0.370  1.00  0.00    -0.091 C 
HETATM   23  C21 UNL     1       7.459   0.340   0.198  1.00  0.00     0.042 C 
HETATM   24  C22 UNL     1       5.731  -0.838   1.642  1.00  0.00     0.042 C 
ENDBRANCH  20  21
ENDBRANCH   6  20
BRANCH   4  25
HETATM   25  O2  UNL     1       1.678   4.023  -0.829  1.00  0.00    -0.358 OA
ATOM     26  H2  UNL     1       2.527   4.425  -0.685  1.00  0.00     0.217 HD
ENDBRANCH   4  25
BRANCH   5  27
HETATM   27  O3  UNL     1       3.917   2.670  -0.480  1.00  0.00    -0.357 OA
ATOM     28  H3  UNL     1       4.725   2.186  -0.355  1.00  0.00     0.217 HD
ENDBRANCH   5  27
TORSDOF 8
