REMARK  2 active torsions:
REMARK  status: ('A' for Active; 'I' for Inactive)
REMARK    1  A    between atoms: O1_1  and  C1_3 
REMARK    2  A    between atoms: C1_3  and  C2_4 
ROOT
HETATM    1  C1  UNL     1       0.256  -0.070  -0.002  1.00  0.00     0.086 C 
HETATM    2  C6  UNL     1       1.154  -0.491  -1.134  1.00  0.00     0.040 C 
HETATM    3  C7  UNL     1       2.455   0.200  -1.160  1.00  0.00     0.003 C 
HETATM    4  C8  UNL     1       3.096   0.442   0.169  1.00  0.00     0.000 C 
HETATM    5  C9  UNL     1       2.118   0.845   1.241  1.00  0.00     0.003 C 
HETATM    6  C10 UNL     1       1.045  -0.230   1.284  1.00  0.00     0.040 C 
ENDROOT
BRANCH   1   7
HETATM    7  O1  UNL     1      -0.022   1.290  -0.133  1.00  0.00    -0.388 OA
ATOM      8  H1  UNL     1       0.779   1.796  -0.200  1.00  0.00     0.210 HD
ENDBRANCH   1   7
BRANCH   1   9
HETATM    9  C2  UNL     1      -0.991  -0.857   0.103  1.00  0.00     0.220 C 
HETATM   10  C3  UNL     1      -1.909  -0.773  -1.064  1.00  0.00     0.038 C 
HETATM   11  C4  UNL     1      -3.075   0.057  -0.629  1.00  0.00     0.030 C 
HETATM   12  C5  UNL     1      -2.814   0.405   0.808  1.00  0.00     0.233 C 
HETATM   13  N1  UNL     1      -1.730  -0.412   1.266  1.00  0.00    -0.068 N 
ATOM     14  H12 UNL     1      -2.038  -1.183   1.859  1.00  0.00     0.277 HD
ATOM     15  H11 UNL     1      -1.141   0.059   1.953  1.00  0.00     0.277 HD
ENDBRANCH   1   9
TORSDOF 2
