REMARK  13 active torsions:
REMARK  status: ('A' for Active; 'I' for Inactive)
REMARK    1  A    between atoms: N1_1  and  C1_5 
REMARK    2  A    between atoms: C1_5  and  C2_6 
REMARK    3  A    between atoms: C2_6  and  C3_7 
REMARK    4  A    between atoms: C3_7  and  N2_8 
REMARK    5  A    between atoms: N2_8  and  C4_10 
REMARK    6  A    between atoms: C4_10  and  C5_11 
REMARK    7  A    between atoms: C5_11  and  C6_12 
REMARK    8  A    between atoms: C6_12  and  C7_13 
REMARK    9  A    between atoms: C7_13  and  N3_14 
REMARK   10  A    between atoms: N3_14  and  C8_16 
REMARK   11  A    between atoms: C11_19  and  S1_20 
REMARK   12  A    between atoms: S1_20  and  N4_23 
REMARK   13  A    between atoms: N4_23  and  C12_25 
ROOT
HETATM    1  C8  UNL     1      -0.762   1.123  -0.394  1.00  0.00     0.028 A 
HETATM    2  C9  UNL     1      -0.690  -0.168  -0.846  1.00  0.00     0.030 A 
HETATM    3  C10 UNL     1      -1.747  -0.763  -1.501  1.00  0.00     0.027 A 
HETATM    4  C11 UNL     1      -2.916  -0.070  -1.724  1.00  0.00     0.080 A 
HETATM    5  C17 UNL     1      -3.017   1.238  -1.278  1.00  0.00     0.027 A 
HETATM    6  C18 UNL     1      -1.942   1.803  -0.625  1.00  0.00     0.030 A 
ENDROOT
BRANCH   1   7
HETATM    7  N3  UNL     1       0.295   1.781   0.272  1.00  0.00    -0.390 N 
ATOM      8  H3  UNL     1       0.121   2.670   0.741  1.00  0.00     0.159 HD
BRANCH   7   9
HETATM    9  C7  UNL     1       1.641   1.197   0.295  1.00  0.00     0.120 C 
BRANCH   9  10
HETATM   10  C6  UNL     1       2.256   1.232  -1.070  1.00  0.00     0.025 C 
BRANCH  10  11
HETATM   11  C5  UNL     1       3.587   0.588  -1.154  1.00  0.00     0.046 C 
BRANCH  11  12
HETATM   12  C4  UNL     1       4.659   1.158  -0.311  1.00  0.00     0.060 C 
BRANCH  12  13
HETATM   13  N2  UNL     1       4.613   1.134   1.057  1.00  0.00    -0.382 N 
ATOM     14  H2  UNL     1       4.538   2.048   1.504  1.00  0.00     0.163 HD
BRANCH  13  15
HETATM   15  C3  UNL     1       4.653   0.064   1.920  1.00  0.00     0.061 C 
BRANCH  15  16
HETATM   16  C2  UNL     1       5.906  -0.712   2.036  1.00  0.00     0.072 C 
BRANCH  16  17
HETATM   17  C1  UNL     1       6.259  -1.470   0.802  1.00  0.00     0.234 C 
BRANCH  17  18
HETATM   18  N1  UNL     1       7.509  -2.224   0.985  1.00  0.00    -0.079 N 
ATOM     19  H13 UNL     1       8.273  -1.619   1.286  1.00  0.00     0.274 HD
ATOM     20  H12 UNL     1       7.464  -2.834   1.801  1.00  0.00     0.274 HD
ATOM     21  H11 UNL     1       7.751  -2.743   0.141  1.00  0.00     0.274 HD
ENDBRANCH  17  18
ENDBRANCH  16  17
ENDBRANCH  15  16
ENDBRANCH  13  15
ENDBRANCH  12  13
ENDBRANCH  11  12
ENDBRANCH  10  11
ENDBRANCH   9  10
ENDBRANCH   7   9
ENDBRANCH   1   7
BRANCH   4  22
HETATM   22  S1  UNL     1      -4.214  -0.877  -2.556  1.00  0.00     0.264 S 
HETATM   23  O1  UNL     1      -4.876   0.123  -3.463  1.00  0.00    -0.200 OA
HETATM   24  O2  UNL     1      -3.594  -1.946  -3.446  1.00  0.00    -0.200 OA
BRANCH  22  25
HETATM   25  N4  UNL     1      -5.288  -1.673  -1.505  1.00  0.00    -0.266 N 
ATOM     26  H4  UNL     1      -5.103  -2.663  -1.345  1.00  0.00     0.180 HD
BRANCH  25  27
HETATM   27  C12 UNL     1      -6.291  -1.191  -0.895  1.00  0.00     0.114 A 
HETATM   28  C13 UNL     1      -6.744   0.089  -0.940  1.00  0.00     0.049 A 
HETATM   29  C14 UNL     1      -7.853   0.521  -0.246  1.00  0.00     0.005 A 
HETATM   30  C15 UNL     1      -8.538  -0.385   0.533  1.00  0.00     0.017 A 
HETATM   31  C16 UNL     1      -8.069  -1.672   0.568  1.00  0.00     0.089 A 
HETATM   32  N5  UNL     1      -6.985  -2.076  -0.116  1.00  0.00    -0.352 N 
ATOM     33  H5  UNL     1      -6.678  -3.047  -0.054  1.00  0.00     0.166 HD
ENDBRANCH  25  27
ENDBRANCH  22  25
ENDBRANCH   4  22
TORSDOF 13
