REMARK  0 active torsions:
REMARK  status: ('A' for Active; 'I' for Inactive)
ROOT
HETATM    1  C1  UNL     1      -2.306   1.234  -0.269  1.00  0.00     0.046 C 
HETATM    2  C2  UNL     1      -1.250   0.149  -0.050  1.00  0.00     0.123 C 
HETATM    3  C3  UNL     1      -1.977  -1.182  -0.250  1.00  0.00     0.046 C 
HETATM    4  C4  UNL     1      -0.690   0.294   1.325  1.00  0.00     0.100 C 
HETATM    5  C5  UNL     1       0.801   0.380   1.142  1.00  0.00     0.225 C 
HETATM    6  F1  UNL     1       1.225   1.678   1.383  1.00  0.00    -0.224 F 
HETATM    7  C6  UNL     1       1.501  -0.582   1.973  1.00  0.00     0.106 C 
HETATM    8  N1  UNL     1       2.085  -1.354   2.642  1.00  0.00    -0.194 NA
HETATM    9  C7  UNL     1       1.060   0.069  -0.299  1.00  0.00     0.168 C 
HETATM   10  C8  UNL     1       1.707  -1.271  -0.506  1.00  0.00     0.050 C 
HETATM   11  C9  UNL     1       2.012   1.092  -0.941  1.00  0.00     0.050 C 
HETATM   12  N2  UNL     1      -0.191   0.207  -0.995  1.00  0.00    -0.054 N 
ATOM     13  H21 UNL     1      -0.227   1.050  -1.569  1.00  0.00     0.279 HD
ATOM     14  H22 UNL     1      -0.298  -0.478  -1.743  1.00  0.00     0.279 HD
ENDROOT
TORSDOF 0
