REMARK  1 active torsions:
REMARK  status: ('A' for Active; 'I' for Inactive)
REMARK    1  A    between atoms: C2_2  and  C3_3 
ROOT
HETATM    1  C3  UNL     1      -0.752   0.321  -0.140  1.00  0.00     0.241 C 
HETATM    2  C4  UNL     1      -0.928  -0.840  -1.091  1.00  0.00     0.083 C 
HETATM    3  N1  UNL     1       0.176  -0.001   0.932  1.00  0.00    -0.034 N 
ATOM      4  H11 UNL     1      -0.126  -0.747   1.559  1.00  0.00     0.281 HD
ATOM      5  H12 UNL     1       0.259   0.706   1.662  1.00  0.00     0.281 HD
HETATM    6  C5  UNL     1       1.379  -0.268   0.200  1.00  0.00     0.209 C 
HETATM    7  C6  UNL     1       2.629   0.051   0.953  1.00  0.00     0.042 C 
HETATM    8  C7  UNL     1       1.256   0.736  -0.949  1.00  0.00     0.204 C 
HETATM    9  O1  UNL     1      -0.012   1.294  -0.828  1.00  0.00    -0.349 OA
ENDROOT
BRANCH   1  10
HETATM   10  C2  UNL     1      -2.041   0.830   0.343  1.00  0.00     0.030 C 
HETATM   11  C1  UNL     1      -3.019   0.001   0.663  1.00  0.00     0.012 C 
ENDBRANCH   1  10
TORSDOF 1
