REMARK  4 active torsions:
REMARK  status: ('A' for Active; 'I' for Inactive)
REMARK    1  A    between atoms: C4_6  and  O1_7 
REMARK    2  A    between atoms: C4_6  and  C5_9 
REMARK    3  A    between atoms: C5_9  and  S1_10 
REMARK    4  A    between atoms: S1_10  and  N2_11 
ROOT
HETATM    1  N1  UNL     1      -4.719   0.065  -1.096  1.00  0.00    -0.193 NA
HETATM    2  C1  UNL     1      -3.662   0.360  -0.728  1.00  0.00     0.115 C 
HETATM    3  C2  UNL     1      -2.331   0.714  -0.248  1.00  0.00     0.229 C 
HETATM    4 CL1  UNL     1      -2.510   1.937   1.033  1.00  0.00    -0.072 Cl
HETATM    5  C3  UNL     1      -1.639  -0.516   0.323  1.00  0.00     0.112 C 
HETATM    6  C4  UNL     1      -0.187  -0.014   0.286  1.00  0.00     0.096 C 
HETATM    7  C6  UNL     1      -0.223   0.752  -1.008  1.00  0.00     0.210 C 
HETATM    8  O3  UNL     1      -1.509   1.217  -1.215  1.00  0.00    -0.349 OA
ENDROOT
BRANCH   6   9
HETATM    9  O1  UNL     1      -0.042   0.814   1.389  1.00  0.00    -0.387 OA
ATOM     10  H1  UNL     1       0.856   1.124   1.366  1.00  0.00     0.210 HD
ENDBRANCH   6   9
BRANCH   6  11
HETATM   11  C5  UNL     1       0.777  -1.160   0.312  1.00  0.00     0.169 C 
BRANCH  11  12
HETATM   12  S1  UNL     1       2.437  -0.548   0.273  1.00  0.00     0.088 S 
HETATM   13  O2  UNL     1       3.367  -1.753   0.270  1.00  0.00    -0.238 OA
HETATM   14  S2  UNL     1       2.816   0.325   1.698  1.00  0.00     0.029 SA
BRANCH  12  15
HETATM   15  N2  UNL     1       2.768   0.363  -1.130  1.00  0.00    -0.351 N 
ATOM     16  H22 UNL     1       2.074   0.528  -1.859  1.00  0.00     0.166 HD
ATOM     17  H21 UNL     1       3.725   0.716  -1.152  1.00  0.00     0.166 HD
ENDBRANCH  12  15
ENDBRANCH  11  12
ENDBRANCH   6  11
TORSDOF 4
