REMARK  1 active torsions:
REMARK  status: ('A' for Active; 'I' for Inactive)
REMARK    1  A    between atoms: C6_6  and  O1_7 
ROOT
HETATM    1  C1  UNL     1      -2.352   0.141  -0.079  1.00  0.00     0.010 C 
HETATM    2  C2  UNL     1      -0.935   0.441   0.417  1.00  0.00    -0.016 C 
HETATM    3  C3  UNL     1      -0.297  -0.730   1.075  1.00  0.00     0.004 C 
HETATM    4  C4  UNL     1       0.664  -1.485   0.202  1.00  0.00     0.003 C 
HETATM    5  C5  UNL     1       1.754  -0.641  -0.373  1.00  0.00     0.032 C 
HETATM    6  C6  UNL     1       1.324   0.808  -0.551  1.00  0.00     0.118 C 
HETATM    7  C7  UNL     1      -0.148   0.819  -0.838  1.00  0.00     0.035 C 
ENDROOT
BRANCH   6   8
HETATM    8  O1  UNL     1       1.642   1.453   0.654  1.00  0.00    -0.396 OA
ATOM      9  H1  UNL     1       1.374   2.357   0.543  1.00  0.00     0.210 HD
ENDBRANCH   6   8
TORSDOF 1
