REMARK  1 active torsions:
REMARK  status: ('A' for Active; 'I' for Inactive)
REMARK    1  A    between atoms: O1_1  and  C1_3 
ROOT
HETATM    1  C1  UNL     1       1.244  -0.357  -0.179  1.00  0.00     0.189 A 
HETATM    2  C2  UNL     1       0.185  -1.369  -0.049  1.00  0.00     0.071 C 
HETATM    3  C3  UNL     1      -1.204  -0.894   0.053  1.00  0.00     0.006 C 
HETATM    4  C4  UNL     1      -1.483   0.477  -0.449  1.00  0.00     0.003 C 
HETATM    5  C5  UNL     1      -0.416   1.478  -0.193  1.00  0.00     0.037 C 
HETATM    6  C6  UNL     1       0.979   0.974  -0.444  1.00  0.00     0.187 A 
HETATM    7  O2  UNL     1       1.256   0.204  -1.559  1.00  0.00    -0.342 OA
ENDROOT
BRANCH   1   8
HETATM    8  O1  UNL     1       2.527  -0.778   0.211  1.00  0.00    -0.363 OA
ATOM      9  H1  UNL     1       3.211  -0.124   0.127  1.00  0.00     0.213 HD
ENDBRANCH   1   8
TORSDOF 1
