REMARK  14 active torsions:
REMARK  status: ('A' for Active; 'I' for Inactive)
REMARK    1  A    between atoms: C2_2  and  C3_3 
REMARK    2  A    between atoms: C3_3  and  C4_4 
REMARK    3  A    between atoms: C4_4  and  C5_5 
REMARK    4  A    between atoms: C5_5  and  C6_6 
REMARK    5  A    between atoms: C6_6  and  C7_7 
REMARK    6  A    between atoms: C7_7  and  C8_8 
REMARK    7  A    between atoms: C8_8  and  C9_9 
REMARK    8  A    between atoms: C9_9  and  C10_10 
REMARK    9  A    between atoms: C10_10  and  N1_11 
REMARK   10  A    between atoms: N1_11  and  C11_13 
REMARK   11  A    between atoms: C11_13  and  C12_14 
REMARK   12  A    between atoms: C12_14  and  N2_15 
REMARK   13  A    between atoms: N2_15  and  C13_17 
REMARK   14  A    between atoms: C13_17  and  C14_18 
ROOT
HETATM    1  C10 UNL     1       1.191  -0.561  -1.308  1.00  0.00     0.129 C 
ENDROOT
BRANCH   1   2
HETATM    2  C9  UNL     1       0.382  -0.841  -0.032  1.00  0.00     0.020 C 
BRANCH   2   3
HETATM    3  C8  UNL     1      -0.436   0.373   0.332  1.00  0.00     0.002 C 
BRANCH   3   4
HETATM    4  C7  UNL     1      -1.218   0.076   1.589  1.00  0.00     0.000 C 
BRANCH   4   5
HETATM    5  C6  UNL     1      -2.155  -1.076   1.454  1.00  0.00     0.000 C 
BRANCH   5   6
HETATM    6  C5  UNL     1      -3.154  -0.820   0.358  1.00  0.00     0.000 C 
BRANCH   6   7
HETATM    7  C4  UNL     1      -3.949   0.397   0.666  1.00  0.00     0.004 C 
BRANCH   7   8
HETATM    8  C3  UNL     1      -4.957   0.648  -0.435  1.00  0.00     0.026 C 
BRANCH   8   9
HETATM    9  C2  UNL     1      -5.863  -0.505  -0.527  1.00  0.00    -0.037 C 
HETATM   10  C1  UNL     1      -7.153  -0.340  -0.305  1.00  0.00     0.007 C 
ENDBRANCH   8   9
ENDBRANCH   7   8
ENDBRANCH   6   7
ENDBRANCH   5   6
ENDBRANCH   4   5
ENDBRANCH   3   4
ENDBRANCH   2   3
ENDBRANCH   1   2
BRANCH   1  11
HETATM   11  N1  UNL     1       2.034   0.562  -0.989  1.00  0.00    -0.356 N 
ATOM     12  H1  UNL     1       1.645   1.403  -0.562  1.00  0.00     0.169 HD
BRANCH  11  13
HETATM   13  C11 UNL     1       3.293   0.478  -1.257  1.00  0.00    -0.029 C 
BRANCH  13  14
HETATM   14  C12 UNL     1       4.490   0.183  -1.674  1.00  0.00     0.159 C 
BRANCH  14  15
HETATM   15  N2  UNL     1       5.319  -0.622  -0.890  1.00  0.00    -0.388 N 
ATOM     16  H2  UNL     1       5.563  -1.560  -1.207  1.00  0.00     0.159 HD
BRANCH  15  17
HETATM   17  C13 UNL     1       5.832  -0.132   0.368  1.00  0.00     0.146 C 
BRANCH  17  18
HETATM   18  C14 UNL     1       6.781   0.952   0.054  1.00  0.00    -0.018 C 
HETATM   19  C15 UNL     1       6.583   2.169   0.505  1.00  0.00     0.008 C 
ENDBRANCH  17  18
ENDBRANCH  15  17
ENDBRANCH  14  15
ENDBRANCH  13  14
ENDBRANCH  11  13
ENDBRANCH   1  11
TORSDOF 14
