REMARK  14 active torsions:
REMARK  status: ('A' for Active; 'I' for Inactive)
REMARK    1  A    between atoms: C2_2  and  C3_3 
REMARK    2  A    between atoms: C3_3  and  C4_4 
REMARK    3  A    between atoms: C4_4  and  O1_5 
REMARK    4  A    between atoms: O1_5  and  C5_6 
REMARK    5  A    between atoms: C5_6  and  C6_7 
REMARK    6  A    between atoms: C6_7  and  O2_10 
REMARK    7  A    between atoms: O2_10  and  C9_11 
REMARK    8  A    between atoms: C9_11  and  C10_12 
REMARK    9  A    between atoms: C12_14  and  C14_16 
REMARK   10  A    between atoms: C14_16  and  N1_17 
REMARK   11  A    between atoms: N1_17  and  C15_18 
REMARK   12  A    between atoms: N1_17  and  C20_23 
REMARK   13  A    between atoms: C15_18  and  C16_19 
REMARK   14  A    between atoms: C16_19  and  C17_20 
ROOT
HETATM    1  C10 UNL     1       0.360   1.146   1.238  1.00  0.00     0.020 A 
HETATM    2  C11 UNL     1       0.216  -0.306   1.593  1.00  0.00     0.019 A 
HETATM    3  C12 UNL     1      -1.037   0.558   1.531  1.00  0.00    -0.022 A 
HETATM    4  C13 UNL     1      -1.596   1.026   2.859  1.00  0.00     0.017 C 
ENDROOT
BRANCH   3   5
HETATM    5  C14 UNL     1      -1.915   0.419   0.355  1.00  0.00     0.134 C 
BRANCH   5   6
HETATM    6  N1  UNL     1      -3.210  -0.137   0.523  1.00  0.00    -0.365 N 
BRANCH   6   7
HETATM    7  C15 UNL     1      -4.128  -0.001  -0.599  1.00  0.00     0.125 C 
BRANCH   7   8
HETATM    8  C16 UNL     1      -3.759  -0.812  -1.796  1.00  0.00     0.024 C 
BRANCH   8   9
HETATM    9  C17 UNL     1      -4.711  -0.635  -2.948  1.00  0.00    -0.021 C 
HETATM   10  C18 UNL     1      -6.120  -1.020  -2.598  1.00  0.00     0.009 C 
HETATM   11  C19 UNL     1      -4.695   0.748  -3.520  1.00  0.00     0.009 C 
ENDBRANCH   8   9
ENDBRANCH   7   8
ENDBRANCH   6   7
BRANCH   6  12
HETATM   12  C20 UNL     1      -3.691  -0.840   1.636  1.00  0.00     0.118 A 
HETATM   13  C21 UNL     1      -4.675  -0.314   2.423  1.00  0.00     0.136 A 
HETATM   14  N2  UNL     1      -5.164  -0.989   3.509  1.00  0.00    -0.371 N 
HETATM   15  C22 UNL     1      -4.646  -2.190   3.781  1.00  0.00     0.104 A 
ATOM     16  H2  UNL     1      -5.899  -0.588   4.091  1.00  0.00     0.164 HD
HETATM   17  C23 UNL     1      -3.655  -2.761   3.020  1.00  0.00     0.106 A 
HETATM   18  N3  UNL     1      -3.207  -2.066   1.967  1.00  0.00    -0.350 N 
ATOM     19  H3  UNL     1      -2.472  -2.474   1.389  1.00  0.00     0.166 HD
ENDBRANCH   6  12
ENDBRANCH   5   6
ENDBRANCH   3   5
BRANCH   1  20
HETATM   20  C9  UNL     1       0.748   1.519  -0.158  1.00  0.00     0.174 C 
BRANCH  20  21
HETATM   21  O2  UNL     1       1.962   1.026  -0.477  1.00  0.00    -0.378 OA
BRANCH  21  22
HETATM   22  C6  UNL     1       3.102   1.482   0.034  1.00  0.00     0.075 C 
HETATM   23  C7  UNL     1       3.365   1.624   1.463  1.00  0.00     0.048 C 
HETATM   24  C8  UNL     1       3.446   2.878  -0.595  1.00  0.00     0.048 C 
BRANCH  22  25
HETATM   25  C5  UNL     1       4.235   0.581  -0.530  1.00  0.00     0.204 C 
BRANCH  25  26
HETATM   26  O1  UNL     1       5.451   1.025  -0.061  1.00  0.00    -0.388 OA
BRANCH  26  27
HETATM   27  C4  UNL     1       6.467   0.227  -0.537  1.00  0.00     0.171 C 
BRANCH  27  28
HETATM   28  C3  UNL     1       6.393  -1.216  -0.116  1.00  0.00     0.052 C 
BRANCH  28  29
HETATM   29  C2  UNL     1       7.577  -1.904  -0.723  1.00  0.00    -0.035 C 
HETATM   30  C1  UNL     1       7.440  -2.920  -1.555  1.00  0.00     0.007 C 
ENDBRANCH  28  29
ENDBRANCH  27  28
ENDBRANCH  26  27
ENDBRANCH  25  26
ENDBRANCH  22  25
ENDBRANCH  21  22
ENDBRANCH  20  21
ENDBRANCH   1  20
TORSDOF 14
