REMARK  13 active torsions:
REMARK  status: ('A' for Active; 'I' for Inactive)
REMARK    1  A    between atoms: C4_4  and  C5_5 
REMARK    2  A    between atoms: C5_5  and  C6_6 
REMARK    3  A    between atoms: C6_6  and  C7_7 
REMARK    4  A    between atoms: C9_9  and  C10_10 
REMARK    5  A    between atoms: C10_10  and  C11_11 
REMARK    6  A    between atoms: C11_11  and  C12_12 
REMARK    7  A    between atoms: C14_14  and  O1_15 
REMARK    8  A    between atoms: C14_14  and  S1_17 
REMARK    9  A    between atoms: S1_17  and  C15_18 
REMARK   10  A    between atoms: C15_18  and  C16_19 
REMARK   11  A    between atoms: C16_19  and  O2_20 
REMARK   12  A    between atoms: O2_20  and  C17_21 
REMARK   13  A    between atoms: C17_21  and  N1_22 
ROOT
HETATM    1  C12 UNL     1       0.325  -2.350  -0.192  1.00  0.00    -0.043 C 
HETATM    2  C13 UNL     1       0.738  -3.613  -0.832  1.00  0.00     0.047 C 
HETATM    3  C14 UNL     1      -0.886  -1.898  -0.411  1.00  0.00     0.104 C 
ENDROOT
BRANCH   3   4
HETATM    4  O1  UNL     1      -1.735  -2.622  -1.235  1.00  0.00    -0.354 OA
ATOM      5  H1  UNL     1      -2.613  -2.294  -1.394  1.00  0.00     0.218 HD
ENDBRANCH   3   4
BRANCH   3   6
HETATM    6  S1  UNL     1      -1.399  -0.380   0.351  1.00  0.00    -0.103 SA
BRANCH   6   7
HETATM    7  C15 UNL     1      -3.103   0.055  -0.108  1.00  0.00     0.107 C 
BRANCH   7   8
HETATM    8  C16 UNL     1      -4.045  -0.947   0.462  1.00  0.00     0.180 C 
BRANCH   8   9
HETATM    9  O2  UNL     1      -5.367  -0.744   0.175  1.00  0.00    -0.362 OA
BRANCH   9  10
HETATM   10  C17 UNL     1      -5.825   0.461   0.648  1.00  0.00     0.440 C 
BRANCH  10  11
HETATM   11  N1  UNL     1      -7.247   0.622   0.341  1.00  0.00     0.115 N 
HETATM   12  C18 UNL     1      -7.496   0.585  -1.069  1.00  0.00     0.301 C 
HETATM   13  C19 UNL     1      -8.328   1.779  -1.457  1.00  0.00     0.198 C 
HETATM   14  O3  UNL     1      -7.601   2.924  -1.125  1.00  0.00    -0.388 OA
HETATM   15  C20 UNL     1      -7.522   3.070   0.256  1.00  0.00     0.198 C 
HETATM   16  C21 UNL     1      -7.741   1.794   1.002  1.00  0.00     0.301 C 
ENDBRANCH  10  11
ENDBRANCH   9  10
ENDBRANCH   8   9
ENDBRANCH   7   8
ENDBRANCH   6   7
ENDBRANCH   3   6
BRANCH   1  17
HETATM   17  C11 UNL     1       1.239  -1.571   0.695  1.00  0.00     0.041 C 
BRANCH  17  18
HETATM   18  C10 UNL     1       2.492  -1.122  -0.069  1.00  0.00     0.032 C 
BRANCH  18  19
HETATM   19  C9  UNL     1       3.336  -0.372   0.866  1.00  0.00    -0.024 C 
HETATM   20  C7  UNL     1       4.562  -0.767   1.134  1.00  0.00    -0.087 C 
HETATM   21  C8  UNL     1       5.071  -2.007   0.492  1.00  0.00     0.043 C 
BRANCH  20  22
HETATM   22  C6  UNL     1       5.423  -0.025   2.071  1.00  0.00     0.037 C 
BRANCH  22  23
HETATM   23  C5  UNL     1       6.646   0.478   1.370  1.00  0.00     0.031 C 
BRANCH  23  24
HETATM   24  C4  UNL     1       6.235   1.398   0.286  1.00  0.00    -0.024 C 
HETATM   25  C2  UNL     1       6.594   1.299  -0.977  1.00  0.00    -0.091 C 
HETATM   26  C1  UNL     1       6.071   2.330  -1.938  1.00  0.00     0.042 C 
HETATM   27  C3  UNL     1       7.501   0.236  -1.469  1.00  0.00     0.042 C 
ENDBRANCH  23  24
ENDBRANCH  22  23
ENDBRANCH  20  22
ENDBRANCH  18  19
ENDBRANCH  17  18
ENDBRANCH   1  17
TORSDOF 13
