REMARK  8 active torsions:
REMARK  status: ('A' for Active; 'I' for Inactive)
REMARK    1  A    between atoms: C2_2  and  C4_4 
REMARK    2  A    between atoms: C18_20  and  C19_21 
REMARK       I    between atoms: C19_21  and  N1_23 
REMARK    3  A    between atoms: N1_23  and  C20_25 
REMARK    4  A    between atoms: C20_25  and  C21_26 
REMARK    5  A    between atoms: C21_26  and  C22_27 
REMARK    6  A    between atoms: C22_27  and  O5_29 
REMARK    7  A    between atoms: O5_29  and  C23_30 
REMARK    8  A    between atoms: C23_30  and  O6_31 
ROOT
HETATM    1  C4  UNL     1      -0.195  -0.107   0.608  1.00  0.00     0.052 C 
HETATM    2  C5  UNL     1      -0.734  -1.103  -0.414  1.00  0.00     0.026 C 
HETATM    3  C6  UNL     1      -2.071  -1.679  -0.224  1.00  0.00    -0.008 C 
HETATM    4  C7  UNL     1      -2.411  -2.346  -1.596  1.00  0.00     0.018 C 
HETATM    5  C8  UNL     1      -2.092  -2.868   0.724  1.00  0.00     0.122 C 
HETATM    6  C9  UNL     1      -3.554  -2.940   0.973  1.00  0.00     0.260 C 
HETATM    7  O1  UNL     1      -4.221  -3.974   1.141  1.00  0.00    -0.265 OA
HETATM    8  O2  UNL     1      -4.040  -1.652   0.984  1.00  0.00    -0.315 OA
HETATM    9  C10 UNL     1      -3.197  -0.838   0.151  1.00  0.00     0.141 C 
HETATM   10  C11 UNL     1      -4.005  -0.343  -1.037  1.00  0.00     0.037 C 
HETATM   11  C12 UNL     1      -4.496   1.037  -0.841  1.00  0.00     0.036 C 
HETATM   12  C13 UNL     1      -3.642   1.956  -0.062  1.00  0.00    -0.087 C 
HETATM   13  C14 UNL     1      -4.320   2.565   1.123  1.00  0.00     0.043 C 
HETATM   14  C15 UNL     1      -2.401   2.293  -0.276  1.00  0.00    -0.020 C 
HETATM   15  C16 UNL     1      -1.490   1.827  -1.393  1.00  0.00     0.055 C 
HETATM   16  C17 UNL     1      -0.098   1.795  -0.956  1.00  0.00    -0.010 C 
HETATM   17  C18 UNL     1       0.517   0.992  -0.093  1.00  0.00     0.014 C 
ENDROOT
BRANCH  17  18
HETATM   18  C19 UNL     1       1.927   1.322   0.232  1.00  0.00     0.248 C 
HETATM   19  O3  UNL     1       2.525   0.607   1.052  1.00  0.00    -0.268 OA
HETATM   20  N1  UNL     1       2.655   2.384  -0.312  1.00  0.00    -0.353 N 
ATOM     21  H1  UNL     1       2.148   2.981  -0.965  1.00  0.00     0.163 HD
BRANCH  20  22
HETATM   22  C20 UNL     1       4.005   2.738  -0.074  1.00  0.00     0.156 C 
BRANCH  22  23
HETATM   23  C21 UNL     1       5.094   1.884  -0.550  1.00  0.00     0.075 C 
BRANCH  23  24
HETATM   24  C22 UNL     1       5.264   0.511  -0.125  1.00  0.00     0.282 C 
HETATM   25  O4  UNL     1       4.901  -0.436  -0.880  1.00  0.00    -0.260 OA
BRANCH  24  26
HETATM   26  O5  UNL     1       5.820   0.165   1.096  1.00  0.00    -0.293 OA
BRANCH  26  27
HETATM   27  C23 UNL     1       5.976  -1.181   1.482  1.00  0.00     0.345 C 
BRANCH  27  28
HETATM   28  O6  UNL     1       6.798  -1.894   0.594  1.00  0.00    -0.377 OA
ATOM     29  H6  UNL     1       6.903  -2.802   0.854  1.00  0.00     0.212 HD
ENDBRANCH  27  28
ENDBRANCH  26  27
ENDBRANCH  24  26
ENDBRANCH  23  24
ENDBRANCH  22  23
ENDBRANCH  20  22
ENDBRANCH  17  18
BRANCH   1  30
HETATM   30  C2  UNL     1       0.634  -0.951   1.508  1.00  0.00    -0.084 C 
HETATM   31  C1  UNL     1       0.487  -0.867   2.847  1.00  0.00     0.014 C 
HETATM   32  C3  UNL     1       1.542  -2.022   1.004  1.00  0.00     0.043 C 
ENDBRANCH   1  30
TORSDOF 8
