REMARK  9 active torsions:
REMARK  status: ('A' for Active; 'I' for Inactive)
REMARK    1  A    between atoms: C2_2  and  C3_3 
REMARK    2  A    between atoms: C4_5  and  N1_6 
REMARK    3  A    between atoms: C10_14  and  C11_15 
REMARK    4  A    between atoms: C11_15  and  S2_16 
REMARK    5  A    between atoms: S2_16  and  C12_17 
REMARK    6  A    between atoms: C12_17  and  C13_18 
REMARK    7  A    between atoms: C13_18  and  O1_19 
REMARK    8  A    between atoms: C13_18  and  N3_21 
REMARK    9  A    between atoms: N3_21  and  C14_23 
ROOT
HETATM    1  C11 UNL     1      -0.637  -0.143  -0.325  1.00  0.00     0.118 C 
ENDROOT
BRANCH   1   2
HETATM    2  C10 UNL     1      -2.147  -0.105  -0.648  1.00  0.00    -0.029 A 
HETATM    3  C3  UNL     1      -2.587   0.889  -1.474  1.00  0.00     0.013 A 
HETATM    4  S1  UNL     1      -4.205   1.077  -1.122  1.00  0.00    -0.072 SA
HETATM    5  C4  UNL     1      -4.373  -0.163   0.101  1.00  0.00     0.073 A 
HETATM    6  C9  UNL     1      -3.096  -0.674   0.173  1.00  0.00     0.046 A 
BRANCH   3   7
HETATM    7  C2  UNL     1      -1.824   1.331  -2.680  1.00  0.00     0.009 C 
HETATM    8  C1  UNL     1      -2.250   2.234  -3.435  1.00  0.00     0.013 C 
ENDBRANCH   3   7
BRANCH   5   9
HETATM    9  N1  UNL     1      -5.608  -0.410   0.746  1.00  0.00    -0.366 N 
HETATM   10  C5  UNL     1      -6.270   0.709   1.425  1.00  0.00     0.168 C 
HETATM   11  C6  UNL     1      -7.385   1.082   0.458  1.00  0.00     0.080 C 
HETATM   12  N2  UNL     1      -8.132   0.008  -0.006  1.00  0.00    -0.379 N 
HETATM   13  C7  UNL     1      -7.608  -1.281  -0.153  1.00  0.00     0.080 C 
ATOM     14  H2  UNL     1      -9.109   0.166  -0.251  1.00  0.00     0.164 HD
HETATM   15  C8  UNL     1      -6.373  -1.616   0.705  1.00  0.00     0.168 C 
ENDBRANCH   5   9
ENDBRANCH   1   2
BRANCH   1  16
HETATM   16  S2  UNL     1       0.101  -1.718  -0.653  1.00  0.00    -0.133 SA
BRANCH  16  17
HETATM   17  C12 UNL     1       1.729  -1.486  -1.493  1.00  0.00     0.101 C 
BRANCH  17  18
HETATM   18  C13 UNL     1       2.728  -0.983  -0.739  1.00  0.00     0.147 C 
BRANCH  18  19
HETATM   19  O1  UNL     1       3.822  -0.936  -1.849  1.00  0.00    -0.346 OA
ATOM     20  H1  UNL     1       4.526  -0.582  -1.318  1.00  0.00     0.219 HD
ENDBRANCH  18  19
BRANCH  18  21
HETATM   21  N3  UNL     1       3.468  -0.496   0.281  1.00  0.00    -0.330 N 
ATOM     22  H3  UNL     1       3.030  -0.301   1.181  1.00  0.00     0.168 HD
BRANCH  21  23
HETATM   23  C14 UNL     1       4.888  -0.250   0.096  1.00  0.00     0.093 A 
HETATM   24  C15 UNL     1       5.746   0.444   0.985  1.00  0.00     0.128 A 
HETATM   25  N4  UNL     1       6.991   0.325   0.631  1.00  0.00    -0.352 N 
HETATM   26  C16 UNL     1       7.460  -0.281  -0.338  1.00  0.00     0.055 A 
HETATM   27  C19 UNL     1       8.217   0.940   1.385  1.00  0.00     0.129 A 
HETATM   28  S3  UNL     1       5.954  -0.920  -1.051  1.00  0.00    -0.058 SA
HETATM   29  C17 UNL     1       8.915  -0.309  -0.538  1.00  0.00     0.067 A 
HETATM   30  C18 UNL     1       9.395   0.446   0.661  1.00  0.00     0.027 A 
ENDBRANCH  21  23
ENDBRANCH  18  21
ENDBRANCH  17  18
ENDBRANCH  16  17
ENDBRANCH   1  16
TORSDOF 9
