REMARK  7 active torsions:
REMARK  status: ('A' for Active; 'I' for Inactive)
REMARK    1  A    between atoms: O1_2  and  C2_3 
REMARK    2  A    between atoms: C4_5  and  C5_6 
REMARK    3  A    between atoms: C6_7  and  C8_10 
REMARK       I    between atoms: C8_10  and  N2_12 
REMARK    4  A    between atoms: N2_12  and  C9_14 
REMARK    5  A    between atoms: C18_25  and  O3_26 
REMARK    6  A    between atoms: O3_26  and  C19_27 
REMARK    7  A    between atoms: C19_27  and  C20_28 
ROOT
HETATM    1  C5  UNL     1       0.389   0.895  -1.006  1.00  0.00     0.058 C 
HETATM    2  C6  UNL     1      -0.775   0.639  -0.452  1.00  0.00     0.114 C 
HETATM    3  C7  UNL     1      -0.844  -0.054   0.800  1.00  0.00     0.105 C 
HETATM    4  N1  UNL     1      -0.921  -0.610   1.839  1.00  0.00    -0.191 NA
ENDROOT
BRANCH   2   5
HETATM    5  C8  UNL     1      -2.035   1.056  -1.103  1.00  0.00     0.262 C 
HETATM    6  O2  UNL     1      -1.953   1.656  -2.202  1.00  0.00    -0.267 OA
HETATM    7  N2  UNL     1      -3.295   0.789  -0.508  1.00  0.00    -0.351 N 
ATOM      8  H2  UNL     1      -3.348   0.300   0.386  1.00  0.00     0.163 HD
BRANCH   7   9
HETATM    9  C9  UNL     1      -4.487   1.210  -1.170  1.00  0.00     0.095 C 
HETATM   10  C10 UNL     1      -5.330   0.057  -1.509  1.00  0.00     0.026 C 
HETATM   11  C11 UNL     1      -5.727  -0.997  -0.531  1.00  0.00     0.002 C 
HETATM   12  C12 UNL     1      -7.118  -0.765   0.067  1.00  0.00     0.001 C 
HETATM   13  C13 UNL     1      -7.265  -0.123   1.378  1.00  0.00     0.011 C 
HETATM   14  C14 UNL     1      -7.112   1.435   1.401  1.00  0.00     0.080 C 
HETATM   15  C15 UNL     1      -6.078   1.691   0.487  1.00  0.00    -0.181 C 
HETATM   16  C16 UNL     1      -5.173   2.357  -0.356  1.00  0.00     0.105 C 
ENDBRANCH   7   9
ENDBRANCH   2   5
BRANCH   1  17
HETATM   17  C4  UNL     1       1.687   0.550  -0.491  1.00  0.00     0.036 A 
HETATM   18  C3  UNL     1       1.969  -0.703  -0.041  1.00  0.00     0.069 A 
HETATM   19  C2  UNL     1       3.187  -1.061   0.493  1.00  0.00     0.105 A 
HETATM   20  C18 UNL     1       4.203  -0.076   0.579  1.00  0.00     0.117 A 
HETATM   21  C17 UNL     1       3.856   1.194   0.100  1.00  0.00     0.128 A 
HETATM   22  N3  UNL     1       2.666   1.475  -0.402  1.00  0.00    -0.363 N 
ATOM     23  H3  UNL     1       2.481   2.422  -0.733  1.00  0.00     0.165 HD
BRANCH  19  24
HETATM   24  O1  UNL     1       3.462  -2.338   0.948  1.00  0.00    -0.353 OA
HETATM   25  C1  UNL     1       2.444  -3.317   0.859  1.00  0.00     0.210 C 
ENDBRANCH  19  24
BRANCH  20  26
HETATM   26  O3  UNL     1       5.346  -0.412   1.082  1.00  0.00    -0.346 OA
BRANCH  26  27
HETATM   27  C19 UNL     1       6.537  -0.565   1.552  1.00  0.00     0.182 C 
BRANCH  27  28
HETATM   28  C20 UNL     1       7.656  -0.288   0.557  1.00  0.00     0.036 C 
HETATM   29  C21 UNL     1       7.579  -1.178  -0.639  1.00  0.00     0.035 C 
HETATM   30  C22 UNL     1       7.595  -0.190  -1.785  1.00  0.00     0.168 C 
HETATM   31  O4  UNL     1       7.196   1.014  -1.257  1.00  0.00    -0.391 OA
HETATM   32  C23 UNL     1       7.651   1.098   0.041  1.00  0.00     0.174 C 
ENDBRANCH  27  28
ENDBRANCH  26  27
ENDBRANCH  20  26
ENDBRANCH   1  17
TORSDOF 7
