REMARK  5 active torsions:
REMARK  status: ('A' for Active; 'I' for Inactive)
REMARK    1  A    between atoms: C2_2  and  C4_4 
REMARK    2  A    between atoms: C7_7  and  O1_9 
REMARK    3  A    between atoms: C10_12  and  O2_13 
REMARK    4  A    between atoms: C12_16  and  C13_17 
REMARK    5  A    between atoms: C13_17  and  O3_18 
ROOT
HETATM    1  C4  UNL     1      -2.788  -0.460  -0.404  1.00  0.00     0.013 C 
HETATM    2  C5  UNL     1      -2.686   0.970  -0.008  1.00  0.00     0.012 C 
HETATM    3  C6  UNL     1      -2.028   1.868  -1.018  1.00  0.00     0.038 C 
HETATM    4  C7  UNL     1      -0.595   2.256  -0.620  1.00  0.00     0.057 C 
HETATM    5  C8  UNL     1      -0.377   3.589  -1.384  1.00  0.00     0.045 C 
HETATM    6  C9  UNL     1       0.325   1.193  -1.050  1.00  0.00     0.076 C 
HETATM    7  C10 UNL     1       1.240   0.551  -0.042  1.00  0.00     0.071 C 
HETATM    8  C11 UNL     1       2.595   0.559  -0.714  1.00  0.00     0.074 C 
HETATM    9  C12 UNL     1       3.612  -0.363  -0.321  1.00  0.00    -0.058 C 
HETATM   10  C14 UNL     1       3.586  -1.676  -0.222  1.00  0.00    -0.022 C 
HETATM   11  C15 UNL     1       2.449  -2.555  -0.505  1.00  0.00     0.028 C 
HETATM   12  C16 UNL     1       1.121  -1.900  -0.569  1.00  0.00     0.016 C 
HETATM   13  C17 UNL     1       0.835  -0.833   0.436  1.00  0.00    -0.012 C 
HETATM   14  C18 UNL     1       1.605  -1.049   1.757  1.00  0.00     0.018 C 
HETATM   15  C19 UNL     1      -0.618  -0.956   0.812  1.00  0.00     0.013 C 
HETATM   16  C20 UNL     1      -1.607  -1.345  -0.196  1.00  0.00     0.010 C 
ENDROOT
BRANCH   1  17
HETATM   17  C2  UNL     1      -4.039  -1.006   0.252  1.00  0.00    -0.089 C 
HETATM   18  C1  UNL     1      -5.126  -1.297  -0.441  1.00  0.00     0.014 C 
HETATM   19  C3  UNL     1      -4.072  -1.230   1.724  1.00  0.00     0.043 C 
ENDBRANCH   1  17
BRANCH   4  20
HETATM   20  O1  UNL     1      -0.615   2.646   0.685  1.00  0.00    -0.390 OA
ATOM     21  H1  UNL     1       0.271   2.886   0.931  1.00  0.00     0.210 HD
ENDBRANCH   4  20
BRANCH   7  22
HETATM   22  O2  UNL     1       1.374   1.377   1.089  1.00  0.00    -0.389 OA
ATOM     23  H2  UNL     1       1.952   0.972   1.725  1.00  0.00     0.210 HD
ENDBRANCH   7  22
BRANCH   9  24
HETATM   24  C13 UNL     1       4.938   0.227   0.044  1.00  0.00     0.198 C 
BRANCH  24  25
HETATM   25  O3  UNL     1       4.821   1.108   1.115  1.00  0.00    -0.397 OA
ATOM     26  H3  UNL     1       5.663   1.483   1.347  1.00  0.00     0.209 HD
ENDBRANCH  24  25
ENDBRANCH   9  24
TORSDOF 5
