REMARK  9 active torsions:
REMARK  status: ('A' for Active; 'I' for Inactive)
REMARK    1  A    between atoms: N2_8  and  C7_9 
REMARK    2  A    between atoms: N3_12  and  C10_13 
REMARK    3  A    between atoms: C10_13  and  C11_14 
REMARK    4  A    between atoms: C11_14  and  C12_15 
REMARK    5  A    between atoms: C12_15  and  C13_16 
REMARK    6  A    between atoms: C13_16  and  N4_17 
REMARK    7  A    between atoms: N4_17  and  C14_19 
REMARK    8  A    between atoms: C14_19  and  N5_21 
REMARK    9  A    between atoms: N5_21  and  N6_23 
ROOT
HETATM    1  C1  UNL     1      -5.591  -1.298   0.653  1.00  0.00     0.032 C 
HETATM    2  C2  UNL     1      -5.613  -0.254  -0.444  1.00  0.00     0.076 C 
HETATM    3  C3  UNL     1      -6.747   0.693  -0.140  1.00  0.00     0.027 C 
HETATM    4  C4  UNL     1      -6.296   1.962  -0.840  1.00  0.00     0.042 C 
HETATM    5  C5  UNL     1      -4.803   1.931  -0.413  1.00  0.00     0.188 C 
HETATM    6  C6  UNL     1      -4.875   2.349   1.011  1.00  0.00     0.084 C 
HETATM    7  N1  UNL     1      -4.910   2.670   2.131  1.00  0.00    -0.195 NA
HETATM    8  N2  UNL     1      -4.481   0.551  -0.535  1.00  0.00    -0.388 N 
ENDROOT
BRANCH   8   9
HETATM    9  C7  UNL     1      -3.205   0.105  -0.204  1.00  0.00     0.084 C 
HETATM   10  C8  UNL     1      -2.680  -1.049  -1.011  1.00  0.00     0.055 C 
HETATM   11  C9  UNL     1      -1.274  -1.031  -1.412  1.00  0.00     0.274 C 
HETATM   12  N3  UNL     1      -0.342  -0.304  -0.614  1.00  0.00     0.088 N 
HETATM   13  C17 UNL     1      -0.909   0.633   0.300  1.00  0.00     0.274 C 
HETATM   14  C18 UNL     1      -2.156   1.216  -0.361  1.00  0.00     0.055 C 
BRANCH  12  15
HETATM   15  C10 UNL     1       0.645  -1.171   0.015  1.00  0.00     0.272 C 
BRANCH  15  16
HETATM   16  C11 UNL     1       1.627  -0.302   0.744  1.00  0.00     0.032 C 
BRANCH  16  17
HETATM   17  C12 UNL     1       2.700  -1.132   1.422  1.00  0.00     0.021 C 
BRANCH  17  18
HETATM   18  C13 UNL     1       3.392  -1.937   0.382  1.00  0.00     0.122 C 
BRANCH  18  19
HETATM   19  N4  UNL     1       4.016  -1.193  -0.668  1.00  0.00    -0.366 N 
ATOM     20  H4  UNL     1       3.572  -1.247  -1.584  1.00  0.00     0.161 HD
BRANCH  19  21
HETATM   21  C14 UNL     1       5.174  -0.393  -0.584  1.00  0.00     0.186 C 
HETATM   22  S1  UNL     1       5.661   0.366  -1.977  1.00  0.00    -0.040 SA
BRANCH  21  23
HETATM   23  N5  UNL     1       5.960  -0.181   0.566  1.00  0.00    -0.279 N 
ATOM     24  H5  UNL     1       5.638  -0.666   1.403  1.00  0.00     0.189 HD
BRANCH  23  25
HETATM   25  N6  UNL     1       7.076   0.566   0.732  1.00  0.00    -0.334 N 
HETATM   26  C15 UNL     1       8.217  -0.059   1.310  1.00  0.00     0.170 C 
HETATM   27  C16 UNL     1       7.298   1.724  -0.037  1.00  0.00     0.170 C 
ENDBRANCH  23  25
ENDBRANCH  21  23
ENDBRANCH  19  21
ENDBRANCH  18  19
ENDBRANCH  17  18
ENDBRANCH  16  17
ENDBRANCH  15  16
ENDBRANCH  12  15
ENDBRANCH   8   9
TORSDOF 9
