REMARK  5 active torsions:
REMARK  status: ('A' for Active; 'I' for Inactive)
REMARK    1  A    between atoms: C2_2  and  N1_3 
REMARK       I    between atoms: N1_3  and  C3_5 
REMARK       I    between atoms: C3_5  and  N2_7 
REMARK    2  A    between atoms: C6_10  and  N3_11 
REMARK    3  A    between atoms: N3_11  and  C7_13 
REMARK    4  A    between atoms: C7_13  and  N4_15 
REMARK    5  A    between atoms: N5_18  and  C10_19 
ROOT
HETATM    1  N1  UNL     1       3.244   1.793  -0.165  1.00  0.00    -0.343 N 
ATOM      2  H1  UNL     1       2.436   2.046   0.403  1.00  0.00     0.164 HD
HETATM    3  C3  UNL     1       3.517   0.424  -0.409  1.00  0.00     0.318 C 
HETATM    4  O1  UNL     1       4.512   0.132  -1.108  1.00  0.00    -0.247 OA
HETATM    5  N2  UNL     1       2.675  -0.566   0.133  1.00  0.00    -0.334 N 
HETATM    6  C4  UNL     1       1.535  -0.192   0.938  1.00  0.00     0.129 C 
HETATM    7  C5  UNL     1       0.734  -1.465   1.150  1.00  0.00     0.045 C 
HETATM    8  C6  UNL     1       0.454  -2.026  -0.216  1.00  0.00     0.087 C 
HETATM    9  C13 UNL     1       1.758  -2.694  -0.695  1.00  0.00     0.045 C 
HETATM   10  C14 UNL     1       2.947  -1.959  -0.114  1.00  0.00     0.129 C 
ENDROOT
BRANCH   8  11
HETATM   11  N3  UNL     1      -0.645  -2.926  -0.298  1.00  0.00    -0.362 N 
ATOM     12  H3  UNL     1      -0.390  -3.905  -0.430  1.00  0.00     0.162 HD
BRANCH  11  13
HETATM   13  C7  UNL     1      -1.997  -2.685  -0.228  1.00  0.00     0.171 C 
HETATM   14  S1  UNL     1      -2.957  -4.083  -0.340  1.00  0.00    -0.041 SA
BRANCH  13  15
HETATM   15  N4  UNL     1      -2.704  -1.466  -0.080  1.00  0.00    -0.331 N 
HETATM   16  C8  UNL     1      -4.194  -1.462  -0.010  1.00  0.00     0.157 C 
HETATM   17  C9  UNL     1      -4.549  -0.031   0.330  1.00  0.00     0.294 C 
HETATM   18  N5  UNL     1      -3.474   0.677  -0.292  1.00  0.00     0.107 N 
HETATM   19  C12 UNL     1      -2.311  -0.105   0.013  1.00  0.00     0.399 C 
BRANCH  18  20
HETATM   20  C10 UNL     1      -3.361   2.049   0.159  1.00  0.00     0.270 C 
HETATM   21  C11 UNL     1      -4.499   2.906  -0.285  1.00  0.00     0.037 C 
ENDBRANCH  18  20
ENDBRANCH  13  15
ENDBRANCH  11  13
ENDBRANCH   8  11
BRANCH   1  22
HETATM   22  C2  UNL     1       4.091   2.850  -0.707  1.00  0.00     0.120 C 
HETATM   23  C1  UNL     1       5.479   2.626  -0.149  1.00  0.00     0.026 C 
ENDBRANCH   1  22
TORSDOF 5
