REMARK  6 active torsions:
REMARK  status: ('A' for Active; 'I' for Inactive)
REMARK    1  A    between atoms: C2_2  and  O1_3 
REMARK    2  A    between atoms: C2_2  and  C3_5 
REMARK    3  A    between atoms: C3_5  and  N1_6 
REMARK    4  A    between atoms: N1_6  and  C5_8 
REMARK    5  A    between atoms: C5_8  and  N2_10 
REMARK       I    between atoms: N3_13  and  C8_14 
REMARK    6  A    between atoms: C8_14  and  C9_16 
ROOT
HETATM    1  N2  UNL     1      -1.303  -0.359   0.161  1.00  0.00    -0.355 N 
HETATM    2  C6  UNL     1      -0.267  -1.377   0.477  1.00  0.00     0.145 C 
HETATM    3  C7  UNL     1       1.057  -0.881  -0.107  1.00  0.00     0.145 C 
HETATM    4  N3  UNL     1       1.433   0.292   0.657  1.00  0.00    -0.347 N 
HETATM    5  C8  UNL     1       2.769   0.527   0.993  1.00  0.00     0.250 C 
HETATM    6  O2  UNL     1       3.004   1.573   1.698  1.00  0.00    -0.271 OA
HETATM    7  C14 UNL     1       0.371   1.173   1.059  1.00  0.00     0.145 C 
HETATM    8  C15 UNL     1      -0.889   0.992   0.190  1.00  0.00     0.145 C 
ENDROOT
BRANCH   5   9
HETATM    9  C9  UNL     1       3.857  -0.370   0.572  1.00  0.00     0.277 C 
HETATM   10  C10 UNL     1       4.077  -0.214  -0.932  1.00  0.00     0.043 C 
HETATM   11  C11 UNL     1       5.032   0.980  -1.093  1.00  0.00     0.004 C 
HETATM   12  C12 UNL     1       6.411   0.428  -0.714  1.00  0.00     0.027 C 
HETATM   13  C13 UNL     1       6.278  -0.311   0.607  1.00  0.00     0.233 C 
HETATM   14  N4  UNL     1       5.052   0.055   1.285  1.00  0.00    -0.062 N 
ATOM     15  H42 UNL     1       5.026   1.057   1.473  1.00  0.00     0.278 HD
ATOM     16  H41 UNL     1       5.048  -0.295   2.243  1.00  0.00     0.278 HD
ENDBRANCH   5   9
BRANCH   1  17
HETATM   17  C5  UNL     1      -2.578  -0.833  -0.116  1.00  0.00     0.171 C 
HETATM   18  S1  UNL     1      -2.732  -2.523  -0.002  1.00  0.00    -0.041 SA
BRANCH  17  19
HETATM   19  N1  UNL     1      -3.770  -0.198  -0.463  1.00  0.00    -0.360 N 
HETATM   20  C4  UNL     1      -3.823   1.235  -0.620  1.00  0.00     0.152 C 
BRANCH  19  21
HETATM   21  C3  UNL     1      -4.952  -1.018  -0.670  1.00  0.00     0.155 C 
BRANCH  21  22
HETATM   22  C2  UNL     1      -6.019  -0.880   0.347  1.00  0.00     0.132 C 
HETATM   23  C1  UNL     1      -6.729   0.422   0.200  1.00  0.00     0.041 C 
BRANCH  22  24
HETATM   24  O1  UNL     1      -5.634  -1.184   1.632  1.00  0.00    -0.394 OA
ATOM     25  H1  UNL     1      -5.181  -2.014   1.726  1.00  0.00     0.210 HD
ENDBRANCH  22  24
ENDBRANCH  21  22
ENDBRANCH  19  21
ENDBRANCH  17  19
ENDBRANCH   1  17
TORSDOF 6
