REMARK  17 active torsions:
REMARK  status: ('A' for Active; 'I' for Inactive)
REMARK    1  A    between atoms: C2_2  and  C3_3 
REMARK    2  A    between atoms: C3_3  and  C4_4 
REMARK    3  A    between atoms: C4_4  and  O1_5 
REMARK    4  A    between atoms: O1_5  and  C5_6 
REMARK       I    between atoms: C5_6  and  N1_8 
REMARK    5  A    between atoms: N2_11  and  C8_12 
REMARK    6  A    between atoms: C8_12  and  O3_13 
REMARK    7  A    between atoms: C8_12  and  C9_15 
REMARK    8  A    between atoms: C9_15  and  C10_16 
REMARK    9  A    between atoms: C9_15  and  N3_18 
REMARK       I    between atoms: N3_18  and  C11_20 
REMARK   10  A    between atoms: C11_20  and  C12_22 
REMARK   11  A    between atoms: C14_26  and  C15_27 
REMARK   12  A    between atoms: C15_27  and  C16_28 
REMARK   13  A    between atoms: C16_28  and  C17_29 
REMARK   14  A    between atoms: C17_29  and  C18_30 
REMARK   15  A    between atoms: C18_30  and  C19_31 
REMARK   16  A    between atoms: C20_36  and  N7_37 
REMARK       I    between atoms: N7_37  and  C21_39 
REMARK   17  A    between atoms: C21_39  and  C22_41 
ROOT
HETATM    1  C12 UNL     1      -0.864  -0.371   0.748  1.00  0.00     0.117 A 
HETATM    2  C13 UNL     1      -1.844  -1.049   1.460  1.00  0.00     0.124 A 
HETATM    3  N4  UNL     1      -2.810  -1.368   0.585  1.00  0.00    -0.353 N 
ATOM      4  H4  UNL     1      -3.664  -1.874   0.819  1.00  0.00     0.166 HD
HETATM    5  C14 UNL     1      -2.494  -0.928  -0.638  1.00  0.00     0.081 A 
HETATM    6  N8  UNL     1      -1.313  -0.327  -0.523  1.00  0.00    -0.340 N 
ATOM      7  H8  UNL     1      -0.812   0.111  -1.296  1.00  0.00     0.167 HD
ENDROOT
BRANCH   1   8
HETATM    8  C11 UNL     1       0.384   0.182   1.276  1.00  0.00     0.270 C 
HETATM    9  N3  UNL     1       1.315   0.831   0.458  1.00  0.00    -0.338 N 
ATOM     10  H3  UNL     1       1.102   0.909  -0.536  1.00  0.00     0.164 HD
HETATM   11  O5  UNL     1       0.607   0.060   2.500  1.00  0.00    -0.266 OA
BRANCH   9  12
HETATM   12  C9  UNL     1       2.576   1.406   0.935  1.00  0.00     0.221 C 
BRANCH  12  13
HETATM   13  C8  UNL     1       3.718   0.638   0.451  1.00  0.00     0.144 C 
BRANCH  13  14
HETATM   14  N2  UNL     1       4.970   1.041  -0.001  1.00  0.00    -0.360 N 
HETATM   15  C7  UNL     1       5.537   2.327  -0.221  1.00  0.00     0.144 C 
HETATM   16  C6  UNL     1       6.579   2.538   0.872  1.00  0.00     0.148 C 
HETATM   17  N1  UNL     1       7.451   1.369   0.946  1.00  0.00    -0.325 N 
HETATM   18  C5  UNL     1       8.845   1.573   1.078  1.00  0.00     0.362 C 
HETATM   19  C27 UNL     1       6.919   0.014   0.891  1.00  0.00     0.148 C 
HETATM   20  O2  UNL     1       9.302   2.732   1.132  1.00  0.00    -0.238 OA
HETATM   21  C26 UNL     1       5.959  -0.066  -0.273  1.00  0.00     0.144 C 
BRANCH  18  22
HETATM   22  O1  UNL     1       9.691   0.503   1.145  1.00  0.00    -0.304 OA
BRANCH  22  23
HETATM   23  C4  UNL     1      11.100   0.622   1.280  1.00  0.00     0.180 C 
BRANCH  23  24
HETATM   24  C3  UNL     1      11.708  -0.757   1.317  1.00  0.00     0.026 C 
BRANCH  24  25
HETATM   25  C2  UNL     1      11.370  -1.478   0.016  1.00  0.00    -0.002 C 
HETATM   26  C1  UNL     1      11.973  -2.867   0.027  1.00  0.00     0.005 C 
ENDBRANCH  24  25
ENDBRANCH  23  24
ENDBRANCH  22  23
ENDBRANCH  18  22
ENDBRANCH  13  14
BRANCH  13  27
HETATM   27  O3  UNL     1       3.568  -0.676   0.426  1.00  0.00    -0.348 OA
ATOM     28  H3  UNL     1       2.713  -0.951   0.735  1.00  0.00     0.219 HD
ENDBRANCH  13  27
ENDBRANCH  12  13
BRANCH  12  29
HETATM   29  C10 UNL     1       2.547   2.843   0.704  1.00  0.00     0.264 C 
HETATM   30  O4  UNL     1       1.628   3.339   0.059  1.00  0.00    -0.304 OA
ENDBRANCH  12  29
ENDBRANCH   9  12
ENDBRANCH   1   8
BRANCH   5  31
HETATM   31  C15 UNL     1      -3.291  -1.065  -1.912  1.00  0.00     0.076 C 
BRANCH  31  32
HETATM   32  C16 UNL     1      -4.177   0.191  -1.937  1.00  0.00     0.008 C 
BRANCH  32  33
HETATM   33  C17 UNL     1      -5.042   0.209  -3.165  1.00  0.00     0.007 C 
BRANCH  33  34
HETATM   34  C18 UNL     1      -5.876   1.459  -3.160  1.00  0.00     0.066 C 
BRANCH  34  35
HETATM   35  C19 UNL     1      -6.733   1.448  -1.937  1.00  0.00     0.069 A 
HETATM   36  N5  UNL     1      -6.501   1.928  -0.729  1.00  0.00    -0.296 N 
HETATM   37  N6  UNL     1      -7.363   1.827   0.193  1.00  0.00    -0.279 N 
ATOM     38  H5  UNL     1      -5.612   2.388  -0.535  1.00  0.00     0.187 HD
HETATM   39  C20 UNL     1      -8.529   1.217  -0.082  1.00  0.00     0.167 A 
ATOM     40  H6  UNL     1      -7.177   2.200   1.124  1.00  0.00     0.189 HD
HETATM   41  S1  UNL     1      -8.321   0.801  -1.723  1.00  0.00    -0.038 SA
BRANCH  39  42
HETATM   42  N7  UNL     1      -9.524   1.023   0.751  1.00  0.00    -0.305 N 
HETATM   43  C21 UNL     1     -10.665   0.353   0.240  1.00  0.00     0.231 C 
HETATM   44  O6  UNL     1     -11.521   1.133  -0.315  1.00  0.00    -0.272 OA
ATOM     45  H7  UNL     1      -9.479   1.339   1.720  1.00  0.00     0.171 HD
BRANCH  43  46
HETATM   46  C22 UNL     1     -10.907  -1.092   0.308  1.00  0.00     0.030 C 
HETATM   47  C23 UNL     1     -10.959  -1.580   1.759  1.00  0.00     0.025 C 
HETATM   48  C24 UNL     1     -12.261  -1.387  -0.329  1.00  0.00     0.025 C 
HETATM   49  C25 UNL     1      -9.903  -1.946  -0.398  1.00  0.00     0.025 C 
ENDBRANCH  43  46
ENDBRANCH  39  42
ENDBRANCH  34  35
ENDBRANCH  33  34
ENDBRANCH  32  33
ENDBRANCH  31  32
ENDBRANCH   5  31
TORSDOF 17
