REMARK  5 active torsions:
REMARK  status: ('A' for Active; 'I' for Inactive)
REMARK    1  A    between atoms: N1_1  and  C1_5 
REMARK    2  A    between atoms: C1_5  and  N2_6 
REMARK    3  A    between atoms: C1_5  and  C2_10 
REMARK    4  A    between atoms: C2_10  and  C3_11 
REMARK    5  A    between atoms: N3_19  and  C11_20 
ROOT
HETATM    1  C3  UNL     1      -1.877  -0.316  -0.375  1.00  0.00    -0.001 C 
HETATM    2  C4  UNL     1      -3.017  -1.208  -0.049  1.00  0.00     0.005 C 
HETATM    3  C5  UNL     1      -2.639  -2.653   0.201  1.00  0.00     0.000 C 
HETATM    4  C6  UNL     1      -1.242  -2.952  -0.284  1.00  0.00     0.001 C 
HETATM    5  C7  UNL     1      -0.325  -2.073   0.562  1.00  0.00     0.011 C 
HETATM    6  C8  UNL     1      -0.578  -0.622   0.307  1.00  0.00    -0.009 C 
HETATM    7  C9  UNL     1      -0.302   0.137   1.556  1.00  0.00     0.042 C 
HETATM    8  C10 UNL     1       1.231   0.212   1.627  1.00  0.00     0.273 C 
HETATM    9  N3  UNL     1       1.700  -0.260   0.345  1.00  0.00     0.093 N 
HETATM   10  C16 UNL     1       0.574  -0.128  -0.587  1.00  0.00     0.282 C 
ENDROOT
BRANCH   1  11
HETATM   11  C2  UNL     1      -2.243   1.114  -0.132  1.00  0.00     0.067 C 
BRANCH  11  12
HETATM   12  C1  UNL     1      -3.384   1.653  -0.928  1.00  0.00     0.378 C 
BRANCH  12  13
HETATM   13  N1  UNL     1      -3.519   3.067  -0.507  1.00  0.00    -0.051 N 
ATOM     14  H13 UNL     1      -4.349   3.540  -0.865  1.00  0.00     0.276 HD
ATOM     15  H12 UNL     1      -3.743   3.198   0.480  1.00  0.00     0.276 HD
ATOM     16  H11 UNL     1      -2.634   3.480  -0.801  1.00  0.00     0.276 HD
ENDBRANCH  12  13
BRANCH  12  17
HETATM   17  N2  UNL     1      -4.658   1.059  -0.505  1.00  0.00    -0.051 N 
ATOM     18  H23 UNL     1      -4.882   1.190   0.482  1.00  0.00     0.276 HD
ATOM     19  H22 UNL     1      -5.488   1.532  -0.863  1.00  0.00     0.276 HD
ATOM     20  H21 UNL     1      -4.565   0.085  -0.795  1.00  0.00     0.276 HD
ENDBRANCH  12  17
ENDBRANCH  11  12
ENDBRANCH   1  11
BRANCH   9  21
HETATM   21  C11 UNL     1       2.789   0.634  -0.067  1.00  0.00     0.223 C 
HETATM   22  C12 UNL     1       3.470   0.155  -1.321  1.00  0.00     0.036 C 
HETATM   23  C13 UNL     1       4.954   0.143  -1.021  1.00  0.00     0.002 C 
HETATM   24  C14 UNL     1       5.074   1.036   0.214  1.00  0.00     0.002 C 
HETATM   25  C15 UNL     1       3.852   0.565   1.006  1.00  0.00     0.036 C 
ENDBRANCH   9  21
TORSDOF 5
