REMARK  20 active torsions:
REMARK  status: ('A' for Active; 'I' for Inactive)
REMARK    1  A    between atoms: O1_2  and  C2_3 
REMARK    2  A    between atoms: C6_7  and  O2_8 
REMARK    3  A    between atoms: C7_10  and  O3_11 
REMARK    4  A    between atoms: C8_13  and  O4_14 
REMARK    5  A    between atoms: N1_16  and  O5_17 
REMARK    6  A    between atoms: C9_19  and  O6_20 
REMARK    7  A    between atoms: C10_22  and  N2_23 
REMARK    8  A    between atoms: N2_23  and  C11_26 
REMARK    9  A    between atoms: C11_26  and  C12_27 
REMARK   10  A    between atoms: C12_27  and  S1_28 
REMARK   11  A    between atoms: S1_28  and  C13_29 
REMARK   12  A    between atoms: N6_35  and  C14_36 
REMARK   13  A    between atoms: C16_38  and  O7_39 
REMARK   14  A    between atoms: C18_42  and  N7_43 
REMARK   15  A    between atoms: C21_56  and  C22_57 
REMARK   16  A    between atoms: C22_57  and  O8_58 
REMARK   17  A    between atoms: C22_57  and  O9_60 
REMARK   18  A    between atoms: O9_60  and  C23_61 
REMARK   19  A    between atoms: C23_61  and  C24_62 
REMARK   20  A    between atoms: C24_62  and  O10_63 
ROOT
HETATM    1  C2  UNL     1      -6.812   1.136   0.771  1.00  0.00     0.104 A 
HETATM    2  C3  UNL     1      -5.669   0.595   1.298  1.00  0.00     0.052 A 
HETATM    3  C4  UNL     1      -4.381   0.807   0.768  1.00  0.00    -0.014 A 
HETATM    4  C5  UNL     1      -4.263   1.603  -0.345  1.00  0.00     0.063 A 
HETATM    5  C6  UNL     1      -5.476   2.153  -0.869  1.00  0.00     0.117 A 
HETATM    6  C7  UNL     1      -6.713   1.933  -0.336  1.00  0.00     0.133 A 
HETATM    7  C8  UNL     1      -3.054   1.946  -1.087  1.00  0.00     0.179 C 
HETATM    8  N1  UNL     1      -1.825   1.365  -1.295  1.00  0.00    -0.204 N 
HETATM    9  C9  UNL     1      -0.651   1.133  -0.480  1.00  0.00     0.299 C 
HETATM   10  C10 UNL     1      -0.548  -0.358  -0.210  1.00  0.00     0.335 C 
HETATM   11  N11 UNL     1      -1.163  -0.630   0.992  1.00  0.00    -0.358 N 
ATOM     12  H11 UNL     1      -0.626  -0.583   1.858  1.00  0.00     0.161 HD
HETATM   13  C21 UNL     1      -2.569  -0.983   1.034  1.00  0.00     0.062 C 
HETATM   14  C25 UNL     1      -3.328   0.146   1.551  1.00  0.00     0.042 C 
ENDROOT
BRANCH  10  15
HETATM   15  N2  UNL     1       0.845  -0.826  -0.261  1.00  0.00    -0.049 N 
ATOM     16  H22 UNL     1       0.880  -1.844  -0.209  1.00  0.00     0.279 HD
ATOM     17  H21 UNL     1       1.234  -0.685  -1.194  1.00  0.00     0.279 HD
BRANCH  15  18
HETATM   18  C11 UNL     1       1.695  -0.249   0.723  1.00  0.00     0.245 C 
BRANCH  18  19
HETATM   19  C12 UNL     1       3.072  -0.899   0.526  1.00  0.00     0.110 C 
BRANCH  19  20
HETATM   20  S1  UNL     1       3.630  -0.494  -1.142  1.00  0.00    -0.089 SA
BRANCH  20  21
HETATM   21  C13 UNL     1       3.994   1.230  -1.320  1.00  0.00     0.181 A 
HETATM   22  N3  UNL     1       3.143   2.192  -1.678  1.00  0.00    -0.261 N 
HETATM   23  N4  UNL     1       3.844   3.328  -1.687  1.00  0.00    -0.004 NA
ATOM     24  H3  UNL     1       2.154   2.082  -1.901  1.00  0.00     0.186 HD
HETATM   25  N5  UNL     1       5.098   3.078  -1.342  1.00  0.00    -0.216 N 
HETATM   26  N6  UNL     1       5.192   1.789  -1.117  1.00  0.00    -0.203 N 
ATOM     27  H5  UNL     1       5.851   3.761  -1.265  1.00  0.00     0.206 HD
BRANCH  26  28
HETATM   28  C14 UNL     1       6.433   1.177  -0.723  1.00  0.00     0.135 A 
HETATM   29  C15 UNL     1       7.564   1.561  -1.358  1.00  0.00     0.088 A 
HETATM   30  C16 UNL     1       8.798   0.979  -1.000  1.00  0.00     0.087 A 
HETATM   31  C17 UNL     1       8.813   0.017   0.008  1.00  0.00     0.085 A 
HETATM   32  C18 UNL     1       9.961  -0.610   0.431  1.00  0.00     0.116 A 
HETATM   33  C20 UNL     1       7.612  -0.314   0.603  1.00  0.00     0.124 A 
HETATM   34  N8  UNL     1       9.881  -1.538   1.422  1.00  0.00    -0.338 N 
HETATM   35  C19 UNL     1       8.733  -1.873   2.009  1.00  0.00     0.183 A 
ATOM     36  H8  UNL     1      10.738  -1.998   1.729  1.00  0.00     0.168 HD
HETATM   37  N9  UNL     1       7.629  -1.250   1.582  1.00  0.00    -0.338 N 
ATOM     38  H9  UNL     1       6.742  -1.496   2.022  1.00  0.00     0.168 HD
HETATM   39  N10 UNL     1       6.459   0.261   0.235  1.00  0.00    -0.326 N 
ATOM     40  H10 UNL     1       5.591  -0.009   0.697  1.00  0.00     0.169 HD
BRANCH  30  41
HETATM   41  O7  UNL     1       9.894   1.370  -1.635  1.00  0.00    -0.359 OA
ATOM     42  H7  UNL     1      10.725   0.978  -1.394  1.00  0.00     0.217 HD
ENDBRANCH  30  41
BRANCH  32  43
HETATM   43  N7  UNL     1      11.094  -0.322  -0.103  1.00  0.00    -0.385 N 
ATOM     44  H72 UNL     1      11.154   0.374  -0.846  1.00  0.00     0.157 HD
ATOM     45  H71 UNL     1      11.946  -0.787   0.211  1.00  0.00     0.157 HD
ENDBRANCH  32  43
ENDBRANCH  26  28
ENDBRANCH  20  21
ENDBRANCH  19  20
ENDBRANCH  18  19
ENDBRANCH  15  18
ENDBRANCH  10  15
BRANCH   9  46
HETATM   46  O6  UNL     1      -0.439   1.944   0.584  1.00  0.00    -0.370 OA
ATOM     47  H6  UNL     1       0.331   1.792   1.119  1.00  0.00     0.212 HD
ENDBRANCH   9  46
BRANCH   8  48
HETATM   48  O5  UNL     1      -1.542   0.870  -2.599  1.00  0.00    -0.283 OA
ATOM     49  H5  UNL     1      -0.693   0.469  -2.743  1.00  0.00     0.245 HD
ENDBRANCH   8  48
BRANCH  13  50
HETATM   50  C22 UNL     1      -2.986  -1.805  -0.103  1.00  0.00     0.307 C 
BRANCH  50  51
HETATM   51  O8  UNL     1      -2.063  -2.968   0.023  1.00  0.00    -0.366 OA
ATOM     52  H8  UNL     1      -2.334  -3.502  -0.715  1.00  0.00     0.213 HD
ENDBRANCH  50  51
BRANCH  50  53
HETATM   53  O9  UNL     1      -4.173  -2.510   0.070  1.00  0.00    -0.354 OA
BRANCH  53  54
HETATM   54  C23 UNL     1      -4.884  -2.818  -1.032  1.00  0.00     0.197 C 
BRANCH  54  55
HETATM   55  C24 UNL     1      -5.375  -1.722  -1.912  1.00  0.00     0.190 C 
BRANCH  55  56
HETATM   56  O10 UNL     1      -6.094  -2.235  -3.010  1.00  0.00    -0.399 OA
ATOM     57  H10 UNL     1      -6.407  -1.536  -3.572  1.00  0.00     0.209 HD
ENDBRANCH  55  56
ENDBRANCH  54  55
ENDBRANCH  53  54
ENDBRANCH  50  53
ENDBRANCH  13  50
BRANCH   7  58
HETATM   58  O4  UNL     1      -3.140   3.097  -1.730  1.00  0.00    -0.344 OA
ATOM     59  H4  UNL     1      -2.353   3.320  -2.213  1.00  0.00     0.219 HD
ENDBRANCH   7  58
BRANCH   5  60
HETATM   60  O2  UNL     1      -5.440   2.974  -1.997  1.00  0.00    -0.357 OA
ATOM     61  H2  UNL     1      -6.245   3.339  -2.345  1.00  0.00     0.217 HD
ENDBRANCH   5  60
BRANCH   6  62
HETATM   62  O3  UNL     1      -7.863   2.498  -0.892  1.00  0.00    -0.356 OA
ATOM     63  H3  UNL     1      -7.794   3.052  -1.661  1.00  0.00     0.218 HD
ENDBRANCH   6  62
BRANCH   1  64
HETATM   64  O1  UNL     1      -8.057   0.870   1.366  1.00  0.00    -0.353 OA
HETATM   65  C1  UNL     1      -8.157   0.050   2.507  1.00  0.00     0.210 C 
ENDBRANCH   1  64
TORSDOF 20
