REMARK  8 active torsions:
REMARK  status: ('A' for Active; 'I' for Inactive)
REMARK    1  A    between atoms: C2_3  and  C3_4 
REMARK    2  A    between atoms: C3_4  and  C4_5 
REMARK    3  A    between atoms: C5_6  and  C7_9 
REMARK       I    between atoms: C7_9  and  N3_11 
REMARK    4  A    between atoms: N3_11  and  C8_13 
REMARK    5  A    between atoms: C11_16  and  N4_17 
REMARK    6  A    between atoms: C11_16  and  C13_24 
REMARK       I    between atoms: N4_17  and  C12_19 
REMARK    7  A    between atoms: C13_24  and  O2_25 
REMARK    8  A    between atoms: C13_24  and  N7_27 
ROOT
HETATM    1  N1  UNL     1       8.197  -0.185  -4.246  1.00  0.00    -0.197 NA
HETATM    2  C1  UNL     1       7.797   0.212  -3.231  1.00  0.00     0.059 C 
HETATM    3  C2  UNL     1       7.298   0.690  -1.961  1.00  0.00     0.127 C 
ENDROOT
BRANCH   3   4
HETATM    4  C3  UNL     1       6.505  -0.433  -1.288  1.00  0.00     0.043 C 
BRANCH   4   5
HETATM    5  C4  UNL     1       6.024   0.102  -0.013  1.00  0.00     0.002 C 
HETATM    6  C5  UNL     1       4.823   0.271   0.439  1.00  0.00     0.108 C 
HETATM    7  C6  UNL     1       4.651   0.847   1.796  1.00  0.00     0.104 C 
HETATM    8  N2  UNL     1       4.536   1.289   2.853  1.00  0.00    -0.191 NA
BRANCH   6   9
HETATM    9  C7  UNL     1       3.611  -0.038  -0.249  1.00  0.00     0.262 C 
HETATM   10  O1  UNL     1       3.595  -0.513  -1.387  1.00  0.00    -0.267 OA
HETATM   11  N3  UNL     1       2.347   0.198   0.378  1.00  0.00    -0.352 N 
ATOM     12  H3  UNL     1       2.336   0.589   1.320  1.00  0.00     0.163 HD
BRANCH  11  13
HETATM   13  C8  UNL     1       1.069  -0.096  -0.270  1.00  0.00     0.085 C 
HETATM   14  C9  UNL     1       0.361   1.205  -0.405  1.00  0.00     0.028 C 
HETATM   15  C10 UNL     1      -1.101   1.160  -0.013  1.00  0.00     0.042 C 
HETATM   16  C11 UNL     1      -1.715  -0.162  -0.264  1.00  0.00     0.097 C 
HETATM   17  C18 UNL     1      -1.048  -1.108   0.717  1.00  0.00     0.042 C 
HETATM   18  C19 UNL     1       0.438  -1.183   0.491  1.00  0.00     0.028 C 
BRANCH  16  19
HETATM   19  N4  UNL     1      -1.380  -0.571  -1.632  1.00  0.00    -0.348 N 
HETATM   20  C12 UNL     1      -1.848  -1.759  -2.240  1.00  0.00     0.182 C 
HETATM   21  N5  UNL     1      -1.747  -2.920  -1.706  1.00  0.00    -0.374 N 
HETATM   22  N6  UNL     1      -2.483  -1.703  -3.537  1.00  0.00    -0.064 NA
ATOM     23  H52 UNL     1      -1.299  -2.960  -0.791  1.00  0.00     0.158 HD
ATOM     24  H51 UNL     1      -2.085  -3.777  -2.145  1.00  0.00     0.158 HD
ATOM     25  H4  UNL     1      -0.772   0.039  -2.179  1.00  0.00     0.163 HD
ENDBRANCH  16  19
BRANCH  16  26
HETATM   26  C13 UNL     1      -3.151  -0.165  -0.039  1.00  0.00     0.142 C 
BRANCH  26  27
HETATM   27  O2  UNL     1      -3.833  -0.662  -1.048  1.00  0.00    -0.348 OA
ATOM     28  H2  UNL     1      -4.772  -0.664  -0.901  1.00  0.00     0.219 HD
ENDBRANCH  26  27
BRANCH  26  29
HETATM   29  N7  UNL     1      -3.958   0.247   1.013  1.00  0.00    -0.359 N 
HETATM   30  C14 UNL     1      -5.417   0.026   0.862  1.00  0.00     0.151 C 
HETATM   31  C15 UNL     1      -6.193   1.249   1.265  1.00  0.00     0.187 C 
HETATM   32  O3  UNL     1      -5.567   1.967   2.281  1.00  0.00    -0.388 OA
HETATM   33  C16 UNL     1      -4.798   1.095   3.051  1.00  0.00     0.187 C 
HETATM   34  C17 UNL     1      -3.501   0.886   2.206  1.00  0.00     0.151 C 
ENDBRANCH  26  29
ENDBRANCH  16  26
ENDBRANCH  11  13
ENDBRANCH   6   9
ENDBRANCH   4   5
ENDBRANCH   3   4
TORSDOF 8
