REMARK  5 active torsions:
REMARK  status: ('A' for Active; 'I' for Inactive)
REMARK    1  A    between atoms: N1_2  and  C2_4 
REMARK    2  A    between atoms: N2_9  and  C6_10 
REMARK    3  A    between atoms: C6_10  and  O1_11 
REMARK    4  A    between atoms: O1_11  and  S2_12 
REMARK    5  A    between atoms: S2_12  and  N3_13 
ROOT
HETATM    1  C2  UNL     1      -1.585   0.807   0.547  1.00  0.00     0.148 A 
HETATM    2  S1  UNL     1      -3.192   0.582   0.034  1.00  0.00    -0.064 SA
HETATM    3  C3  UNL     1      -2.990  -0.915  -0.750  1.00  0.00     0.078 A 
HETATM    4  C4  UNL     1      -1.661  -1.171  -0.572  1.00  0.00     0.018 A 
HETATM    5  C5  UNL     1      -1.087  -2.467  -1.154  1.00  0.00     0.069 C 
HETATM    6  N2  UNL     1      -0.953  -0.280   0.095  1.00  0.00    -0.308 N 
ENDROOT
BRANCH   6   7
HETATM    7  C6  UNL     1       0.505  -0.469   0.345  1.00  0.00     0.321 C 
BRANCH   7   8
HETATM    8  O1  UNL     1       1.175   0.112  -0.708  1.00  0.00    -0.270 OA
BRANCH   8   9
HETATM    9  S2  UNL     1       3.082  -0.389   0.080  1.00  0.00     0.160 SA
HETATM   10  F1  UNL     1       2.495   1.498   0.801  1.00  0.00    -0.128 F 
HETATM   11  S3  UNL     1       3.028  -1.597  -0.669  1.00  0.00     0.047 SA
BRANCH   9  12
HETATM   12  N3  UNL     1       4.236   0.771  -0.899  1.00  0.00    -0.339 N 
ATOM     13  H32 UNL     1       3.986   1.453  -1.615  1.00  0.00     0.167 HD
ATOM     14  H31 UNL     1       5.152   0.530  -0.520  1.00  0.00     0.167 HD
ENDBRANCH   9  12
ENDBRANCH   8   9
ENDBRANCH   7   8
ENDBRANCH   6   7
BRANCH   1  15
HETATM   15  N1  UNL     1      -1.053   1.806   1.231  1.00  0.00    -0.375 N 
HETATM   16  C1  UNL     1      -1.972   2.870   1.600  1.00  0.00     0.148 C 
ATOM     17  H1  UNL     1      -0.065   1.828   1.483  1.00  0.00     0.161 HD
ENDBRANCH   1  15
TORSDOF 5
