REMARK  8 active torsions:
REMARK  status: ('A' for Active; 'I' for Inactive)
REMARK    1  A    between atoms: C2_2  and  C4_4 
REMARK    2  A    between atoms: C4_4  and  C5_5 
REMARK    3  A    between atoms: C5_5  and  N1_6 
REMARK       I    between atoms: N1_6  and  C6_8 
REMARK    4  A    between atoms: C6_8  and  C7_10 
REMARK    5  A    between atoms: C7_10  and  C9_12 
REMARK       I    between atoms: C9_12  and  N2_14 
REMARK       I    between atoms: N2_14  and  C10_16 
REMARK    6  A    between atoms: C10_16  and  C11_18 
REMARK    7  A    between atoms: C11_18  and  N3_19 
REMARK       I    between atoms: N3_19  and  C12_21 
REMARK    8  A    between atoms: C12_21  and  C13_23 
ROOT
HETATM    1  C11 UNL     1      -1.560  -2.492   0.251  1.00  0.00     0.114 C 
HETATM    2  C23 UNL     1      -1.878  -3.117   1.565  1.00  0.00     0.041 C 
HETATM    3  C24 UNL     1      -1.944  -4.592   1.376  1.00  0.00     0.003 C 
HETATM    4  C25 UNL     1      -2.380  -4.737  -0.066  1.00  0.00     0.003 C 
HETATM    5  C26 UNL     1      -1.545  -3.666  -0.736  1.00  0.00     0.041 C 
ENDROOT
BRANCH   1   6
HETATM    6  C10 UNL     1      -0.196  -1.910   0.210  1.00  0.00     0.252 C 
HETATM    7  N2  UNL     1       0.965  -2.615   0.548  1.00  0.00    -0.295 N 
HETATM    8  C9  UNL     1       2.292  -2.158   0.540  1.00  0.00     0.237 C 
ATOM      9  H2  UNL     1       0.829  -3.584   0.837  1.00  0.00     0.171 HD
HETATM   10  O2  UNL     1       3.179  -2.983   0.918  1.00  0.00    -0.272 OA
HETATM   11  O3  UNL     1      -0.114  -0.714  -0.153  1.00  0.00    -0.270 OA
BRANCH   8  12
HETATM   12  C7  UNL     1       2.738  -0.818   0.133  1.00  0.00     0.166 C 
HETATM   13  C8  UNL     1       2.685  -0.629  -1.371  1.00  0.00     0.030 C 
BRANCH  12  14
HETATM   14  C6  UNL     1       4.151  -0.604   0.529  1.00  0.00     0.230 C 
HETATM   15  N1  UNL     1       4.805   0.643   0.247  1.00  0.00    -0.360 N 
ATOM     16  H1  UNL     1       4.288   1.382  -0.230  1.00  0.00     0.162 HD
HETATM   17  O1  UNL     1       4.850  -1.464   1.115  1.00  0.00    -0.273 OA
BRANCH  15  18
HETATM   18  C5  UNL     1       6.172   0.869   0.623  1.00  0.00     0.123 C 
BRANCH  18  19
HETATM   19  C4  UNL     1       6.574   2.275   0.190  1.00  0.00     0.023 C 
BRANCH  19  20
HETATM   20  C2  UNL     1       8.016   2.517   0.585  1.00  0.00    -0.021 C 
HETATM   21  C1  UNL     1       8.358   3.928   0.130  1.00  0.00     0.009 C 
HETATM   22  C3  UNL     1       8.895   1.494  -0.072  1.00  0.00     0.009 C 
ENDBRANCH  19  20
ENDBRANCH  18  19
ENDBRANCH  15  18
ENDBRANCH  12  14
ENDBRANCH   8  12
ENDBRANCH   1   6
BRANCH   1  23
HETATM   23  N3  UNL     1      -2.583  -1.561  -0.112  1.00  0.00    -0.342 N 
HETATM   24  C12 UNL     1      -2.886  -0.375   0.571  1.00  0.00     0.227 C 
HETATM   25  O4  UNL     1      -2.252  -0.035   1.600  1.00  0.00    -0.273 OA
ATOM     26  H3  UNL     1      -3.140  -1.779  -0.939  1.00  0.00     0.163 HD
BRANCH  24  27
HETATM   27  C13 UNL     1      -3.966   0.541   0.120  1.00  0.00     0.042 C 
HETATM   28  C14 UNL     1      -5.272  -0.226   0.103  1.00  0.00     0.024 C 
HETATM   29  C15 UNL     1      -6.369   0.613  -0.470  1.00  0.00    -0.013 C 
HETATM   30  C16 UNL     1      -5.995   1.090  -1.845  1.00  0.00     0.009 C 
HETATM   31  C20 UNL     1      -6.600   1.779   0.477  1.00  0.00     0.009 C 
HETATM   32  C17 UNL     1      -4.754   1.925  -1.737  1.00  0.00    -0.013 C 
HETATM   33  C18 UNL     1      -4.937   3.081  -0.775  1.00  0.00     0.009 C 
HETATM   34  C22 UNL     1      -3.596   1.093  -1.225  1.00  0.00     0.024 C 
HETATM   35  C19 UNL     1      -5.310   2.532   0.583  1.00  0.00    -0.013 C 
HETATM   36  C21 UNL     1      -4.162   1.694   1.078  1.00  0.00     0.024 C 
ENDBRANCH  24  27
ENDBRANCH   1  23
TORSDOF 8
