REMARK  10 active torsions:
REMARK  status: ('A' for Active; 'I' for Inactive)
REMARK    1  A    between atoms: C2_2  and  C4_4 
REMARK    2  A    between atoms: C4_4  and  C5_5 
REMARK    3  A    between atoms: C7_10  and  C8_11 
REMARK    4  A    between atoms: C8_11  and  C9_12 
REMARK    5  A    between atoms: C9_12  and  C10_13 
REMARK    6  A    between atoms: C10_13  and  C11_14 
REMARK    7  A    between atoms: C11_14  and  C12_15 
REMARK    8  A    between atoms: C12_15  and  C13_16 
REMARK    9  A    between atoms: C15_23  and  C16_24 
REMARK   10  A    between atoms: C16_24  and  C17_25 
ROOT
HETATM    1  C5  UNL     1      -0.312   2.881   0.623  1.00  0.00     0.154 C 
HETATM    2  N1  UNL     1      -0.050   2.207  -0.598  1.00  0.00    -0.348 N 
ATOM      3  H1  UNL     1      -0.425   2.655  -1.434  1.00  0.00     0.163 HD
HETATM    4  C6  UNL     1       0.651   1.012  -0.820  1.00  0.00     0.241 C 
HETATM    5  O1  UNL     1       1.227   0.871  -1.940  1.00  0.00    -0.271 OA
HETATM    6  C7  UNL     1       0.808  -0.124   0.099  1.00  0.00     0.176 C 
HETATM    7  N2  UNL     1       0.471  -1.369  -0.574  1.00  0.00    -0.347 N 
ATOM      8  H2  UNL     1       1.035  -1.571  -1.399  1.00  0.00     0.163 HD
HETATM    9  C14 UNL     1      -0.481  -2.321  -0.285  1.00  0.00     0.222 C 
HETATM   10  O4  UNL     1      -0.117  -3.521  -0.137  1.00  0.00    -0.273 OA
HETATM   11  C15 UNL     1      -1.986  -2.110  -0.111  1.00  0.00     0.078 C 
HETATM   12  C21 UNL     1      -2.507  -1.180  -1.133  1.00  0.00     0.014 C 
HETATM   13  C22 UNL     1      -3.120   0.096  -0.699  1.00  0.00     0.001 C 
HETATM   14  C23 UNL     1      -2.991   0.524   0.705  1.00  0.00     0.007 C 
HETATM   15  C24 UNL     1      -2.794   2.052   0.702  1.00  0.00     0.080 C 
HETATM   16  C25 UNL     1      -1.505   2.419   1.360  1.00  0.00     0.149 C 
HETATM   17  O5  UNL     1      -1.489   2.314   2.577  1.00  0.00    -0.296 OA
ENDROOT
BRANCH   6  18
HETATM   18  C8  UNL     1       2.218  -0.245   0.655  1.00  0.00     0.035 C 
BRANCH  18  19
HETATM   19  C9  UNL     1       3.283  -0.438  -0.362  1.00  0.00     0.002 C 
BRANCH  19  20
HETATM   20  C10 UNL     1       4.604  -0.537   0.420  1.00  0.00     0.001 C 
BRANCH  20  21
HETATM   21  C11 UNL     1       5.760  -0.737  -0.542  1.00  0.00     0.010 C 
BRANCH  21  22
HETATM   22  C12 UNL     1       7.076  -0.834   0.182  1.00  0.00     0.113 C 
BRANCH  22  23
HETATM   23  C13 UNL     1       7.164  -1.941   1.140  1.00  0.00     0.172 C 
HETATM   24  O2  UNL     1       6.625  -1.836   2.268  1.00  0.00    -0.648 OA
HETATM   25  O3  UNL     1       7.826  -3.134   0.868  1.00  0.00    -0.648 OA
ENDBRANCH  22  23
ENDBRANCH  21  22
ENDBRANCH  20  21
ENDBRANCH  19  20
ENDBRANCH  18  19
ENDBRANCH   6  18
BRANCH   1  26
HETATM   26  C4  UNL     1      -0.527   4.371   0.390  1.00  0.00     0.037 C 
BRANCH  26  27
HETATM   27  C2  UNL     1       0.669   5.030  -0.233  1.00  0.00    -0.020 C 
HETATM   28  C1  UNL     1       1.918   4.938   0.571  1.00  0.00     0.009 C 
HETATM   29  C3  UNL     1       0.349   6.501  -0.445  1.00  0.00     0.009 C 
ENDBRANCH  26  27
ENDBRANCH   1  26
BRANCH  11  30
HETATM   30  C16 UNL     1      -2.652  -3.453  -0.214  1.00  0.00     0.022 C 
BRANCH  30  31
HETATM   31  C17 UNL     1      -4.087  -3.607  -0.044  1.00  0.00    -0.051 C 
HETATM   32  C18 UNL     1      -4.327  -5.158  -0.186  1.00  0.00     0.014 C 
HETATM   33  C19 UNL     1      -5.056  -3.033  -1.001  1.00  0.00     0.014 C 
HETATM   34  C20 UNL     1      -4.594  -3.311   1.356  1.00  0.00     0.014 C 
ENDBRANCH  30  31
ENDBRANCH  11  30
TORSDOF 10
