REMARK  11 active torsions:
REMARK  status: ('A' for Active; 'I' for Inactive)
REMARK    1  A    between atoms: C2_2  and  C3_3 
REMARK    2  A    between atoms: C2_2  and  C9_14 
REMARK    3  A    between atoms: C3_3  and  C4_4 
REMARK    4  A    between atoms: C4_4  and  C5_5 
REMARK    5  A    between atoms: C5_5  and  S1_6 
REMARK    6  A    between atoms: S1_6  and  C6_7 
REMARK    7  A    between atoms: C6_7  and  C7_8 
REMARK    8  A    between atoms: C7_8  and  C8_9 
REMARK    9  A    between atoms: C8_9  and  N1_10 
REMARK   10  A    between atoms: C16_21  and  O1_22 
REMARK   11  A    between atoms: C18_25  and  O2_26 
ROOT
HETATM    1  C9  UNL     1       1.271   0.632  -0.975  1.00  0.00    -0.002 C 
HETATM    2  C10 UNL     1       1.717   0.191   0.400  1.00  0.00     0.006 C 
HETATM    3  C11 UNL     1       0.501   0.454   1.262  1.00  0.00     0.006 C 
HETATM    4  C12 UNL     1      -0.576   0.101   0.261  1.00  0.00    -0.002 C 
HETATM    5  C13 UNL     1      -1.940   0.131   0.735  1.00  0.00    -0.005 C 
HETATM    6  C14 UNL     1      -2.217   0.773   2.062  1.00  0.00     0.008 C 
HETATM    7  C15 UNL     1      -3.618   0.280   2.469  1.00  0.00     0.039 C 
HETATM    8  C16 UNL     1      -4.610   0.799   1.439  1.00  0.00     0.068 C 
HETATM    9  C17 UNL     1      -5.990   0.466   1.880  1.00  0.00     0.070 C 
HETATM   10  C18 UNL     1      -6.471  -0.885   1.464  1.00  0.00     0.121 C 
HETATM   11  C19 UNL     1      -6.113  -1.273   0.067  1.00  0.00     0.032 C 
HETATM   12  C20 UNL     1      -4.586  -1.121  -0.050  1.00  0.00     0.015 C 
HETATM   13  C21 UNL     1      -4.278   0.313   0.047  1.00  0.00    -0.009 C 
HETATM   14  C22 UNL     1      -5.223   1.066  -0.900  1.00  0.00     0.019 C 
HETATM   15  C23 UNL     1      -2.896   0.739  -0.279  1.00  0.00     0.001 C 
HETATM   16  C24 UNL     1      -2.472   0.342  -1.667  1.00  0.00     0.007 C 
HETATM   17  C25 UNL     1      -1.069   0.784  -1.998  1.00  0.00     0.010 C 
HETATM   18  C26 UNL     1      -0.165   1.013  -0.873  1.00  0.00    -0.036 C 
HETATM   19  C27 UNL     1      -0.239   2.483  -0.492  1.00  0.00     0.016 C 
ENDROOT
BRANCH   1  20
HETATM   20  C2  UNL     1       1.713  -0.232  -2.084  1.00  0.00    -0.014 C 
HETATM   21  C1  UNL     1       1.313  -1.659  -2.065  1.00  0.00     0.010 C 
BRANCH  20  22
HETATM   22  C3  UNL     1       3.190  -0.154  -2.394  1.00  0.00     0.005 C 
BRANCH  22  23
HETATM   23  C4  UNL     1       4.100  -0.843  -1.454  1.00  0.00     0.010 C 
BRANCH  23  24
HETATM   24  C5  UNL     1       5.518  -0.611  -2.013  1.00  0.00     0.074 C 
BRANCH  24  25
HETATM   25  S1  UNL     1       6.649  -1.455  -0.861  1.00  0.00    -0.169 SA
BRANCH  25  26
HETATM   26  C6  UNL     1       6.550  -0.564   0.729  1.00  0.00     0.075 C 
BRANCH  26  27
HETATM   27  C7  UNL     1       7.454  -1.188   1.748  1.00  0.00     0.037 C 
BRANCH  27  28
HETATM   28  C8  UNL     1       8.876  -1.133   1.238  1.00  0.00     0.230 C 
BRANCH  28  29
HETATM   29  N1  UNL     1       9.288   0.238   1.013  1.00  0.00    -0.079 N 
ATOM     30  H13 UNL     1       8.645   0.729   0.392  1.00  0.00     0.274 HD
ATOM     31  H12 UNL     1       9.163   0.812   1.847  1.00  0.00     0.274 HD
ATOM     32  H11 UNL     1      10.247   0.275   0.669  1.00  0.00     0.274 HD
ENDBRANCH  28  29
ENDBRANCH  27  28
ENDBRANCH  26  27
ENDBRANCH  25  26
ENDBRANCH  24  25
ENDBRANCH  23  24
ENDBRANCH  22  23
ENDBRANCH  20  22
ENDBRANCH   1  20
BRANCH   8  33
HETATM   33  O1  UNL     1      -4.470   2.187   1.427  1.00  0.00    -0.389 OA
ATOM     34  H1  UNL     1      -5.089   2.511   0.784  1.00  0.00     0.210 HD
ENDBRANCH   8  33
BRANCH  10  35
HETATM   35  O2  UNL     1      -7.882  -0.861   1.549  1.00  0.00    -0.395 OA
ATOM     36  H2  UNL     1      -8.188  -1.721   1.284  1.00  0.00     0.210 HD
ENDBRANCH  10  35
TORSDOF 11
