REMARK  7 active torsions:
REMARK  status: ('A' for Active; 'I' for Inactive)
REMARK    1  A    between atoms: N1_2  and  C2_4 
REMARK    2  A    between atoms: C2_4  and  N2_6 
REMARK    3  A    between atoms: N2_6  and  C3_8 
REMARK    4  A    between atoms: C3_8  and  C4_9 
REMARK    5  A    between atoms: C4_9  and  N3_10 
REMARK    6  A    between atoms: N3_10  and  N4_12 
REMARK    7  A    between atoms: C5_14  and  C6_15 
ROOT
HETATM    1  N3  UNL     1      -0.127   0.221  -0.085  1.00  0.00    -0.335 N 
ATOM      2  H3  UNL     1      -0.652   0.291   0.787  1.00  0.00     0.180 HD
ENDROOT
BRANCH   1   3
HETATM    3  C4  UNL     1      -0.723   0.626  -1.328  1.00  0.00     0.159 C 
BRANCH   3   4
HETATM    4  C3  UNL     1      -2.147   1.123  -1.068  1.00  0.00     0.143 C 
BRANCH   4   5
HETATM    5  N2  UNL     1      -2.929   0.033  -0.473  1.00  0.00    -0.366 N 
ATOM      6  H2  UNL     1      -2.516  -0.882  -0.293  1.00  0.00     0.161 HD
BRANCH   5   7
HETATM    7  C2  UNL     1      -4.288   0.308  -0.158  1.00  0.00     0.167 C 
HETATM    8  S1  UNL     1      -4.949   1.779  -0.450  1.00  0.00    -0.041 SA
BRANCH   7   9
HETATM    9  N1  UNL     1      -5.064  -0.739   0.421  1.00  0.00    -0.372 N 
HETATM   10  C1  UNL     1      -6.446  -0.445   0.736  1.00  0.00     0.148 C 
ATOM     11  H1  UNL     1      -4.662  -1.658   0.606  1.00  0.00     0.161 HD
ENDBRANCH   7   9
ENDBRANCH   5   7
ENDBRANCH   4   5
ENDBRANCH   3   4
ENDBRANCH   1   3
BRANCH   1  12
HETATM   12  N4  UNL     1       1.175  -0.268  -0.085  1.00  0.00    -0.315 N 
HETATM   13  C5  UNL     1       2.132   0.528   0.271  1.00  0.00     0.118 C 
ATOM     14  H4  UNL     1       1.371  -1.231  -0.359  1.00  0.00     0.185 HD
BRANCH  13  15
HETATM   15  C6  UNL     1       3.493   0.001   0.267  1.00  0.00    -0.019 A 
HETATM   16  C7  UNL     1       3.771  -1.301  -0.101  1.00  0.00     0.013 A 
HETATM   17  C8  UNL     1       5.057  -1.774  -0.097  1.00  0.00     0.001 A 
HETATM   18  C9  UNL     1       6.113  -0.967   0.274  1.00  0.00     0.000 A 
HETATM   19  C10 UNL     1       5.867   0.315   0.639  1.00  0.00     0.001 A 
HETATM   20  C11 UNL     1       4.567   0.789   0.634  1.00  0.00     0.013 A 
ENDBRANCH  13  15
ENDBRANCH   1  12
TORSDOF 7
