REMARK  5 active torsions:
REMARK  status: ('A' for Active; 'I' for Inactive)
REMARK    1  A    between atoms: C2_2  and  O1_3 
REMARK    2  A    between atoms: O1_3  and  C3_4 
REMARK       I    between atoms: C3_4  and  N1_6 
REMARK    3  A    between atoms: C8_12  and  C9_13 
REMARK    4  A    between atoms: C10_15  and  N2_16 
REMARK    5  A    between atoms: N2_16  and  O5_18 
ROOT
HETATM    1  C3  UNL     1      -1.481  -0.416   1.755  1.00  0.00     0.363 C 
HETATM    2  O2  UNL     1      -0.667   0.507   2.004  1.00  0.00    -0.238 OA
HETATM    3  N1  UNL     1      -1.202  -1.271   0.652  1.00  0.00    -0.323 N 
HETATM    4  C4  UNL     1      -2.097  -2.355   0.312  1.00  0.00     0.136 C 
HETATM    5  C5  UNL     1      -2.222  -2.605  -1.167  1.00  0.00     0.103 C 
HETATM    6  C6  UNL     1      -1.700  -1.440  -1.969  1.00  0.00     0.158 C 
HETATM    7  O3  UNL     1      -2.270  -1.000  -2.994  1.00  0.00    -0.293 OA
HETATM    8  C7  UNL     1      -0.456  -0.770  -1.540  1.00  0.00     0.008 C 
HETATM    9  C8  UNL     1       0.176   0.029  -2.378  1.00  0.00     0.050 C 
HETATM   10  C15 UNL     1       0.005  -1.047  -0.147  1.00  0.00     0.170 C 
ENDROOT
BRANCH   9  11
HETATM   11  C9  UNL     1       1.396   0.725  -2.051  1.00  0.00     0.086 A 
HETATM   12  O4  UNL     1       2.367   0.253  -1.332  1.00  0.00    -0.290 OA
HETATM   13  C10 UNL     1       3.352   1.107  -1.198  1.00  0.00     0.192 A 
HETATM   14  C12 UNL     1       2.989   2.235  -1.892  1.00  0.00     0.096 A 
HETATM   15 CL1  UNL     1       3.914   3.709  -2.065  1.00  0.00    -0.079 Cl
HETATM   16  C13 UNL     1       1.746   2.012  -2.443  1.00  0.00    -0.002 A 
HETATM   17  C14 UNL     1       0.951   2.928  -3.267  1.00  0.00     0.053 C 
BRANCH  13  18
HETATM   18  N2  UNL     1       4.557   0.932  -0.489  1.00  0.00    -0.241 N 
HETATM   19  C11 UNL     1       4.797  -0.309   0.195  1.00  0.00     0.188 C 
BRANCH  18  20
HETATM   20  O5  UNL     1       5.410   1.822  -0.444  1.00  0.00    -0.286 OA
ATOM     21  H5  UNL     1       6.222   1.704   0.034  1.00  0.00     0.244 HD
ENDBRANCH  18  20
ENDBRANCH  13  18
ENDBRANCH   9  11
BRANCH   1  22
HETATM   22  O1  UNL     1      -2.617  -0.587   2.543  1.00  0.00    -0.304 OA
BRANCH  22  23
HETATM   23  C2  UNL     1      -2.804   0.325   3.626  1.00  0.00     0.176 C 
HETATM   24  C1  UNL     1      -4.074  -0.024   4.354  1.00  0.00     0.034 C 
ENDBRANCH  22  23
ENDBRANCH   1  22
TORSDOF 5
