REMARK  8 active torsions:
REMARK  status: ('A' for Active; 'I' for Inactive)
REMARK    1  A    between atoms: C2_2  and  C3_3 
REMARK    2  A    between atoms: C3_3  and  N1_4 
REMARK       I    between atoms: N1_4  and  C4_6 
REMARK    3  A    between atoms: C4_6  and  C5_8 
REMARK    4  A    between atoms: C5_8  and  C6_9 
REMARK    5  A    between atoms: C8_12  and  O3_13 
REMARK    6  A    between atoms: O3_13  and  C9_14 
REMARK    7  A    between atoms: C9_14  and  C10_16 
REMARK    8  A    between atoms: C11_17  and  O5_18 
ROOT
HETATM    1  C10 UNL     1      -3.865   3.895  -0.377  1.00  0.00     0.130 C 
HETATM    2  C11 UNL     1      -4.743   4.597   0.272  1.00  0.00     0.152 C 
HETATM    3  C12 UNL     1      -4.928   5.981  -0.051  1.00  0.00     0.124 C 
HETATM    4  N2  UNL     1      -5.076   7.105  -0.329  1.00  0.00    -0.189 NA
ENDROOT
BRANCH   2   5
HETATM    5  O5  UNL     1      -5.482   3.962   1.273  1.00  0.00    -0.351 OA
ATOM      6  H5  UNL     1      -6.125   4.476   1.748  1.00  0.00     0.218 HD
ENDBRANCH   2   5
BRANCH   1   7
HETATM    7  C9  UNL     1      -3.611   2.470  -0.110  1.00  0.00     0.286 C 
HETATM    8  O4  UNL     1      -4.258   1.870   0.783  1.00  0.00    -0.260 OA
BRANCH   7   9
HETATM    9  O3  UNL     1      -2.691   1.731  -0.789  1.00  0.00    -0.310 OA
BRANCH   9  10
HETATM   10  C8  UNL     1      -2.419   0.358  -0.560  1.00  0.00     0.162 C 
HETATM   11  C7  UNL     1      -0.978   0.371  -0.018  1.00  0.00     0.156 C 
HETATM   12  O2  UNL     1      -0.163   0.165  -1.079  1.00  0.00    -0.376 OA
HETATM   13  C21 UNL     1      -0.754  -0.687   0.993  1.00  0.00     0.024 C 
HETATM   14  C6  UNL     1       0.977  -0.584  -0.643  1.00  0.00     0.139 C 
HETATM   15  C19 UNL     1       0.428  -1.432   0.417  1.00  0.00    -0.012 C 
HETATM   16  C18 UNL     1      -0.075  -2.776  -0.059  1.00  0.00     0.012 C 
HETATM   17  C20 UNL     1       1.319  -1.771   1.589  1.00  0.00     0.018 C 
HETATM   18  C17 UNL     1      -0.749  -2.787  -1.394  1.00  0.00     0.001 C 
HETATM   19  C16 UNL     1      -2.234  -2.908  -1.292  1.00  0.00     0.004 C 
HETATM   20  C14 UNL     1      -3.064  -1.792  -1.734  1.00  0.00    -0.016 C 
HETATM   21  C13 UNL     1      -2.500  -0.434  -1.853  1.00  0.00     0.039 C 
HETATM   22  C15 UNL     1      -4.317  -1.772  -0.840  1.00  0.00     0.010 C 
HETATM   23  C22 UNL     1      -0.541  -0.137   2.369  1.00  0.00     0.013 C 
BRANCH  14  24
HETATM   24  C5  UNL     1       1.980   0.446  -0.350  1.00  0.00     0.135 C 
BRANCH  24  25
HETATM   25  C4  UNL     1       3.317   0.076   0.060  1.00  0.00     0.220 C 
HETATM   26  N1  UNL     1       4.170   1.094   0.600  1.00  0.00    -0.361 N 
ATOM     27  H1  UNL     1       3.789   2.037   0.675  1.00  0.00     0.162 HD
HETATM   28  O1  UNL     1       3.771  -1.078  -0.028  1.00  0.00    -0.274 OA
BRANCH  26  29
HETATM   29  C3  UNL     1       5.517   0.888   1.042  1.00  0.00     0.122 C 
BRANCH  29  30
HETATM   30  C2  UNL     1       6.358   0.428  -0.122  1.00  0.00     0.015 C 
HETATM   31  C1  UNL     1       7.802   0.201   0.308  1.00  0.00     0.006 C 
ENDBRANCH  29  30
ENDBRANCH  26  29
ENDBRANCH  24  25
ENDBRANCH  14  24
ENDBRANCH   9  10
ENDBRANCH   7   9
ENDBRANCH   1   7
TORSDOF 8
