REMARK  10 active torsions:
REMARK  status: ('A' for Active; 'I' for Inactive)
REMARK    1  A    between atoms: O1_2  and  C2_3 
REMARK    2  A    between atoms: C4_5  and  O2_6 
REMARK    3  A    between atoms: C7_10  and  C8_11 
REMARK    4  A    between atoms: C9_12  and  C10_13 
REMARK    5  A    between atoms: C10_13  and  O3_14 
REMARK    6  A    between atoms: C10_13  and  N1_16 
REMARK    7  A    between atoms: N1_16  and  C11_18 
REMARK    8  A    between atoms: C11_18  and  C12_19 
REMARK    9  A    between atoms: C12_19  and  O4_21 
REMARK   10  A    between atoms: C18_32  and  C19_33 
ROOT
HETATM    1  C8  UNL     1       0.411  -0.561  -0.870  1.00  0.00     0.018 A 
HETATM    2  C9  UNL     1       1.815  -0.553  -0.975  1.00  0.00     0.070 A 
HETATM    3  N2  UNL     1       2.409  -1.356  -1.875  1.00  0.00    -0.363 N 
ATOM      4  H2  UNL     1       3.427  -1.336  -1.932  1.00  0.00     0.165 HD
HETATM    5  C14 UNL     1       1.772  -2.156  -2.677  1.00  0.00     0.118 A 
HETATM    6  C15 UNL     1       0.399  -2.216  -2.627  1.00  0.00     0.059 A 
HETATM    7  N3  UNL     1      -0.234  -3.009  -3.523  1.00  0.00    -0.361 N 
ATOM      8  H3  UNL     1       0.322  -3.568  -4.170  1.00  0.00     0.165 HD
HETATM    9  C16 UNL     1      -1.555  -3.079  -3.583  1.00  0.00     0.131 A 
HETATM   10  C17 UNL     1      -2.260  -2.319  -2.686  1.00  0.00     0.139 A 
HETATM   11  F2  UNL     1      -3.584  -2.377  -2.759  1.00  0.00    -0.204 F 
HETATM   12  C18 UNL     1      -1.671  -1.482  -1.728  1.00  0.00    -0.000 A 
HETATM   13  C24 UNL     1      -0.297  -1.399  -1.689  1.00  0.00     0.015 A 
ENDROOT
BRANCH   1  14
HETATM   14  C7  UNL     1      -0.166   0.524  -0.131  1.00  0.00     0.021 A 
HETATM   15  C6  UNL     1      -0.565   1.614  -0.897  1.00  0.00     0.161 A 
HETATM   16  C4  UNL     1      -1.039   2.823  -0.358  1.00  0.00     0.110 A 
HETATM   17  F1  UNL     1      -0.488   1.607  -2.269  1.00  0.00    -0.202 F 
HETATM   18  C3  UNL     1      -1.097   2.898   1.019  1.00  0.00     0.076 A 
HETATM   19  C2  UNL     1      -0.712   1.852   1.810  1.00  0.00     0.071 A 
HETATM   20  C25 UNL     1      -0.258   0.698   1.214  1.00  0.00     0.052 A 
BRANCH  16  21
HETATM   21  O2  UNL     1      -1.410   3.833  -1.151  1.00  0.00    -0.353 OA
HETATM   22  C5  UNL     1      -1.887   5.076  -1.176  1.00  0.00     0.210 C 
ENDBRANCH  16  21
BRANCH  19  23
HETATM   23  O1  UNL     1      -0.772   1.939   3.190  1.00  0.00    -0.356 OA
HETATM   24  C1  UNL     1      -1.208   3.033   3.943  1.00  0.00     0.210 C 
ENDBRANCH  19  23
ENDBRANCH   1  14
BRANCH   2  25
HETATM   25  C10 UNL     1       2.655   0.313  -0.164  1.00  0.00     0.269 C 
BRANCH  25  26
HETATM   26  O3  UNL     1       2.294   1.688  -0.173  1.00  0.00    -0.371 OA
ATOM     27  H3  UNL     1       2.843   2.254   0.357  1.00  0.00     0.212 HD
ENDBRANCH  25  26
BRANCH  25  28
HETATM   28  N1  UNL     1       3.996   0.319  -0.578  1.00  0.00    -0.369 N 
ATOM     29  H1  UNL     1       4.333   1.174  -1.021  1.00  0.00     0.161 HD
BRANCH  28  30
HETATM   30  C11 UNL     1       4.903  -0.705  -0.450  1.00  0.00     0.089 C 
BRANCH  30  31
HETATM   31  C12 UNL     1       5.348  -0.939   0.974  1.00  0.00     0.152 C 
HETATM   32  C13 UNL     1       6.397  -2.020   1.021  1.00  0.00     0.045 C 
BRANCH  31  33
HETATM   33  O4  UNL     1       4.283  -1.322   1.759  1.00  0.00    -0.391 OA
ATOM     34  H4  UNL     1       4.563  -1.469   2.655  1.00  0.00     0.210 HD
ENDBRANCH  31  33
ENDBRANCH  30  31
ENDBRANCH  28  30
ENDBRANCH  25  28
ENDBRANCH   2  25
BRANCH  12  35
HETATM   35  C19 UNL     1      -2.523  -0.894  -0.734  1.00  0.00     0.026 C 
HETATM   36  C20 UNL     1      -2.411  -2.161   0.297  1.00  0.00     0.028 C 
HETATM   37  C21 UNL     1      -3.145  -1.839   1.556  1.00  0.00     0.114 C 
HETATM   38  N4  UNL     1      -4.429  -1.242   1.422  1.00  0.00    -0.421 N 
HETATM   39  C22 UNL     1      -4.518  -0.201   0.411  1.00  0.00     0.114 C 
ATOM     40  H4  UNL     1      -5.227  -1.523   1.992  1.00  0.00     0.153 HD
HETATM   41  C23 UNL     1      -4.019  -0.913  -0.900  1.00  0.00     0.028 C 
ENDBRANCH  12  35
TORSDOF 10
