REMARK  5 active torsions:
REMARK  status: ('A' for Active; 'I' for Inactive)
REMARK    1  A    between atoms: C1_2  and  C2_4 
REMARK    2  A    between atoms: C4_6  and  C5_7 
REMARK       I    between atoms: C5_7  and  N2_9 
REMARK    3  A    between atoms: N2_9  and  N3_11 
REMARK    4  A    between atoms: N3_11  and  C6_13 
REMARK    5  A    between atoms: C9_17  and  N4_18 
ROOT
HETATM    1  C2  UNL     1      -0.630  -0.590   0.687  1.00  0.00     0.057 A 
HETATM    2  C3  UNL     1       0.724  -0.677   0.405  1.00  0.00     0.036 A 
HETATM    3  C4  UNL     1       1.405   0.323  -0.249  1.00  0.00     0.034 A 
HETATM    4  C7  UNL     1       0.663   1.439  -0.621  1.00  0.00     0.019 A 
HETATM    5  C8  UNL     1      -0.672   1.561  -0.361  1.00  0.00     0.031 A 
HETATM    6  C9  UNL     1      -1.328   0.531   0.303  1.00  0.00     0.049 A 
ENDROOT
BRANCH   3   7
HETATM    7  C5  UNL     1       2.826   0.276  -0.566  1.00  0.00     0.270 C 
HETATM    8  O2  UNL     1       3.372   1.237  -1.209  1.00  0.00    -0.266 OA
HETATM    9  N2  UNL     1       3.666  -0.800  -0.196  1.00  0.00    -0.264 N 
ATOM     10  H2  UNL     1       3.263  -1.583   0.318  1.00  0.00     0.190 HD
BRANCH   9  11
HETATM   11  N3  UNL     1       5.028  -0.830  -0.509  1.00  0.00    -0.275 N 
ATOM     12  H3  UNL     1       5.392  -1.552  -1.130  1.00  0.00     0.189 HD
BRANCH  11  13
HETATM   13  C6  UNL     1       5.900   0.137   0.033  1.00  0.00     0.368 C 
HETATM   14  O3  UNL     1       5.455   1.020   0.791  1.00  0.00    -0.282 OA
ENDBRANCH  11  13
ENDBRANCH   9  11
ENDBRANCH   3   7
BRANCH   1  15
HETATM   15  C1  UNL     1      -1.280  -1.692   1.384  1.00  0.00     0.267 C 
HETATM   16  N1  UNL     1      -2.659  -1.665   1.694  1.00  0.00    -0.057 NA
HETATM   17  O1  UNL     1      -0.634  -2.717   1.740  1.00  0.00    -0.271 OA
ENDBRANCH   1  15
BRANCH   6  18
HETATM   18  N4  UNL     1      -2.707   0.642   0.590  1.00  0.00    -0.332 N 
HETATM   19  C10 UNL     1      -3.623   0.706  -0.287  1.00  0.00     0.201 C 
HETATM   20  N5  UNL     1      -3.370   0.672  -1.664  1.00  0.00    -0.066 NA
HETATM   21  N6  UNL     1      -4.966   0.818   0.201  1.00  0.00    -0.066 NA
ATOM     22  H4  UNL     1      -2.986   0.673   1.571  1.00  0.00     0.168 HD
ENDBRANCH   6  18
TORSDOF 5
