REMARK  13 active torsions:
REMARK  status: ('A' for Active; 'I' for Inactive)
REMARK    1  A    between atoms: C2_2  and  O2_4 
REMARK    2  A    between atoms: O2_4  and  C3_5 
REMARK    3  A    between atoms: C5_8  and  C6_9 
REMARK    4  A    between atoms: C7_10  and  C8_11 
REMARK    5  A    between atoms: C8_11  and  C9_12 
REMARK    6  A    between atoms: C9_12  and  O5_14 
REMARK    7  A    between atoms: O5_14  and  C10_15 
REMARK    8  A    between atoms: C10_15  and  C12_17 
REMARK    9  A    between atoms: C12_17  and  O6_19 
REMARK   10  A    between atoms: C19_26  and  C21_28 
REMARK   11  A    between atoms: C21_28  and  C22_29 
REMARK   12  A    between atoms: C22_29  and  C23_31 
REMARK   13  A    between atoms: C23_31  and  C25_33 
ROOT
HETATM    1  C3  UNL     1       0.045  -2.246  -0.081  1.00  0.00     0.207 C 
HETATM    2  C4  UNL     1       1.081  -2.115  -1.195  1.00  0.00     0.164 C 
HETATM    3  O3  UNL     1       1.628  -2.975  -1.828  1.00  0.00    -0.294 OA
HETATM    4  C5  UNL     1       1.270  -0.620  -1.325  1.00  0.00     0.085 C 
HETATM    5  C14 UNL     1      -0.224  -0.230  -1.336  1.00  0.00     0.008 C 
HETATM    6  C15 UNL     1      -0.841  -0.849  -2.543  1.00  0.00     0.006 C 
HETATM    7  C16 UNL     1      -2.242  -1.322  -2.323  1.00  0.00     0.005 C 
HETATM    8  C17 UNL     1      -2.895  -0.736  -1.102  1.00  0.00    -0.010 C 
HETATM    9  C18 UNL     1      -4.264  -1.372  -1.037  1.00  0.00     0.011 C 
HETATM   10  C19 UNL     1      -2.121  -0.871   0.177  1.00  0.00    -0.027 C 
HETATM   11  C20 UNL     1      -2.669  -2.039   0.964  1.00  0.00     0.016 C 
HETATM   12  C28 UNL     1      -0.635  -0.971  -0.049  1.00  0.00     0.036 C 
ENDROOT
BRANCH   4  13
HETATM   13  C6  UNL     1       1.930  -0.253  -2.562  1.00  0.00    -0.018 C 
HETATM   14  C7  UNL     1       2.944   0.572  -2.615  1.00  0.00    -0.020 C 
BRANCH  14  15
HETATM   15  C8  UNL     1       3.560   1.244  -1.458  1.00  0.00     0.138 C 
BRANCH  15  16
HETATM   16  C9  UNL     1       5.012   0.861  -1.342  1.00  0.00     0.262 C 
HETATM   17  O4  UNL     1       5.473   0.076  -2.186  1.00  0.00    -0.265 OA
BRANCH  16  18
HETATM   18  O5  UNL     1       5.820   1.351  -0.347  1.00  0.00    -0.314 OA
BRANCH  18  19
HETATM   19  C10 UNL     1       7.171   1.031  -0.191  1.00  0.00     0.156 C 
HETATM   20  C11 UNL     1       7.968   2.311  -0.323  1.00  0.00     0.042 C 
BRANCH  19  21
HETATM   21  C12 UNL     1       7.460   0.418   1.155  1.00  0.00     0.143 C 
HETATM   22  C13 UNL     1       7.119   1.344   2.302  1.00  0.00     0.042 C 
BRANCH  21  23
HETATM   23  O6  UNL     1       8.814   0.116   1.268  1.00  0.00    -0.393 OA
ATOM     24  H6  UNL     1       8.996  -0.270   2.117  1.00  0.00     0.210 HD
ENDBRANCH  21  23
ENDBRANCH  19  21
ENDBRANCH  18  19
ENDBRANCH  16  18
ENDBRANCH  15  16
ENDBRANCH  14  15
ENDBRANCH   4  13
BRANCH   1  25
HETATM   25  O2  UNL     1      -0.607  -3.429  -0.341  1.00  0.00    -0.308 OA
BRANCH  25  26
HETATM   26  C2  UNL     1      -0.336  -4.579   0.414  1.00  0.00     0.255 C 
HETATM   27  C1  UNL     1      -1.018  -5.872   0.164  1.00  0.00     0.126 C 
HETATM   28  O1  UNL     1       0.510  -4.522   1.335  1.00  0.00    -0.266 OA
ENDBRANCH  25  26
ENDBRANCH   1  25
BRANCH  10  29
HETATM   29  C21 UNL     1      -2.293   0.366   1.031  1.00  0.00     0.088 C 
BRANCH  29  30
HETATM   30  C22 UNL     1      -3.607   0.757   1.472  1.00  0.00     0.131 C 
HETATM   31  O7  UNL     1      -4.117   0.229   2.447  1.00  0.00    -0.298 OA
BRANCH  30  32
HETATM   32  C23 UNL     1      -4.441   1.802   0.816  1.00  0.00     0.054 C 
HETATM   33  C24 UNL     1      -3.716   3.150   0.809  1.00  0.00     0.018 C 
BRANCH  32  34
HETATM   34  C25 UNL     1      -5.747   2.039   1.550  1.00  0.00    -0.012 C 
HETATM   35  C26 UNL     1      -6.523   3.100   0.827  1.00  0.00     0.010 C 
HETATM   36  C27 UNL     1      -5.487   2.402   2.983  1.00  0.00     0.010 C 
ENDBRANCH  32  34
ENDBRANCH  30  32
ENDBRANCH  29  30
ENDBRANCH  10  29
TORSDOF 13
