REMARK  10 active torsions:
REMARK  status: ('A' for Active; 'I' for Inactive)
REMARK    1  A    between atoms: O1_2  and  C2_3 
REMARK    2  A    between atoms: C4_5  and  N1_6 
REMARK       I    between atoms: N1_6  and  C5_7 
REMARK    3  A    between atoms: N1_6  and  C10_16 
REMARK    4  A    between atoms: C5_7  and  C6_9 
REMARK    5  A    between atoms: C10_16  and  C11_17 
REMARK    6  A    between atoms: C10_16  and  C15_21 
REMARK    7  A    between atoms: C11_17  and  C12_18 
REMARK       I    between atoms: C15_21  and  N3_23 
REMARK    8  A    between atoms: N3_23  and  C16_25 
REMARK    9  A    between atoms: C23_32  and  O5_33 
REMARK   10  A    between atoms: C25_35  and  O6_36 
ROOT
HETATM    1  N1  UNL     1      -0.951   0.552   0.443  1.00  0.00    -0.299 N 
HETATM    2  C5  UNL     1      -1.023   1.714   1.212  1.00  0.00     0.277 C 
HETATM    3  O2  UNL     1      -2.096   1.814   1.935  1.00  0.00    -0.265 OA
ENDROOT
BRANCH   1   4
HETATM    4  C4  UNL     1      -2.084  -0.372   0.606  1.00  0.00     0.044 A 
HETATM    5  C3  UNL     1      -3.374   0.078   0.376  1.00  0.00     0.069 A 
HETATM    6  C2  UNL     1      -4.464  -0.747   0.510  1.00  0.00     0.106 A 
HETATM    7  C25 UNL     1      -4.252  -2.050   0.883  1.00  0.00     0.135 A 
HETATM    8  C23 UNL     1      -2.966  -2.519   1.118  1.00  0.00     0.106 A 
HETATM    9  C22 UNL     1      -1.872  -1.676   0.979  1.00  0.00     0.069 A 
BRANCH   6  10
HETATM   10  O1  UNL     1      -5.724  -0.246   0.269  1.00  0.00    -0.353 OA
HETATM   11  C1  UNL     1      -6.007   1.063  -0.111  1.00  0.00     0.210 C 
ENDBRANCH   6  10
BRANCH   7  12
HETATM   12  O6  UNL     1      -5.336  -2.932   1.034  1.00  0.00    -0.351 OA
HETATM   13  C26 UNL     1      -5.777  -3.690  -0.063  1.00  0.00     0.210 C 
ENDBRANCH   7  12
BRANCH   8  14
HETATM   14  O5  UNL     1      -2.806  -3.825   1.487  1.00  0.00    -0.353 OA
HETATM   15  C24 UNL     1      -1.583  -4.437   1.759  1.00  0.00     0.210 C 
ENDBRANCH   8  14
ENDBRANCH   1   4
BRANCH   1  16
HETATM   16  C10 UNL     1       0.041   0.119  -0.491  1.00  0.00     0.185 C 
BRANCH  16  17
HETATM   17  C11 UNL     1       0.176   0.877  -1.757  1.00  0.00     0.039 C 
BRANCH  17  18
HETATM   18  C12 UNL     1      -1.098   0.878  -2.584  1.00  0.00    -0.020 C 
HETATM   19  C13 UNL     1      -0.759   1.707  -3.833  1.00  0.00     0.009 C 
HETATM   20  C14 UNL     1      -1.494  -0.488  -3.057  1.00  0.00     0.009 C 
ENDBRANCH  17  18
ENDBRANCH  16  17
BRANCH  16  21
HETATM   21  C15 UNL     1       1.301  -0.173   0.203  1.00  0.00     0.241 C 
HETATM   22  O4  UNL     1       1.376  -0.244   1.478  1.00  0.00    -0.271 OA
HETATM   23  N3  UNL     1       2.543  -0.403  -0.482  1.00  0.00    -0.355 N 
ATOM     24  H3  UNL     1       2.558  -0.363  -1.501  1.00  0.00     0.162 HD
BRANCH  23  25
HETATM   25  C16 UNL     1       3.778  -0.691   0.228  1.00  0.00     0.084 C 
HETATM   26  C17 UNL     1       4.750   0.422  -0.110  1.00  0.00     0.025 C 
HETATM   27  C18 UNL     1       6.124   0.135   0.430  1.00  0.00     0.002 C 
HETATM   28  C19 UNL     1       6.680  -1.187  -0.004  1.00  0.00     0.000 C 
HETATM   29  C20 UNL     1       5.699  -2.279   0.338  1.00  0.00     0.002 C 
HETATM   30  C21 UNL     1       4.314  -2.008  -0.221  1.00  0.00     0.025 C 
ENDBRANCH  23  25
ENDBRANCH  16  21
ENDBRANCH   1  16
BRANCH   2  31
HETATM   31  C6  UNL     1      -0.105   2.829   1.343  1.00  0.00     0.125 A 
HETATM   32  C7  UNL     1      -0.294   3.953   2.156  1.00  0.00     0.071 A 
HETATM   33  C8  UNL     1       0.779   4.764   2.003  1.00  0.00     0.075 A 
HETATM   34  C9  UNL     1       0.978   6.084   2.700  1.00  0.00     0.079 C 
HETATM   35  O3  UNL     1       1.593   4.208   1.161  1.00  0.00    -0.242 OA
HETATM   36  N2  UNL     1       1.087   3.088   0.776  1.00  0.00    -0.256 N 
ATOM     37  H2  UNL     1       1.542   2.463   0.111  1.00  0.00     0.195 HD
ENDBRANCH   2  31
TORSDOF 10
