REMARK  7 active torsions:
REMARK  status: ('A' for Active; 'I' for Inactive)
REMARK    1  A    between atoms: C2_2  and  C3_3 
REMARK    2  A    between atoms: C2_2  and  N1_6 
REMARK    3  A    between atoms: C5_9  and  C6_10 
REMARK    4  A    between atoms: C6_10  and  C7_11 
REMARK    5  A    between atoms: C10_14  and  O4_15 
REMARK    6  A    between atoms: O4_15  and  C11_16 
REMARK    7  A    between atoms: C16_26  and  C17_27 
ROOT
HETATM    1  C7  UNL     1      -0.022  -0.924   0.653  1.00  0.00    -0.034 A 
HETATM    2  C8  UNL     1       0.661   0.249   0.552  1.00  0.00     0.014 A 
HETATM    3  C9  UNL     1       2.059   0.241   0.348  1.00  0.00     0.039 A 
HETATM    4  C10 UNL     1       2.781  -0.913   0.243  1.00  0.00     0.095 A 
HETATM    5  C16 UNL     1       2.086  -2.103   0.345  1.00  0.00     0.075 A 
HETATM    6  C18 UNL     1       0.710  -2.076   0.546  1.00  0.00     0.032 A 
ENDROOT
BRANCH   1   7
HETATM    7  C6  UNL     1      -1.455  -0.912   0.843  1.00  0.00     0.036 C 
BRANCH   7   8
HETATM    8  C5  UNL     1      -2.290  -0.133   0.204  1.00  0.00     0.076 C 
HETATM    9  C4  UNL     1      -3.729  -0.034   0.313  1.00  0.00     0.267 C 
HETATM   10  N1  UNL     1      -4.378   0.592  -0.741  1.00  0.00    -0.283 N 
HETATM   11  O3  UNL     1      -4.331  -0.511   1.342  1.00  0.00    -0.266 OA
HETATM   12  C19 UNL     1      -3.554   1.060  -1.798  1.00  0.00     0.149 C 
HETATM   13  S1  UNL     1      -1.890   1.066  -1.065  1.00  0.00    -0.055 SA
HETATM   14  S2  UNL     1      -3.950   1.500  -3.322  1.00  0.00    -0.052 SA
BRANCH  10  15
HETATM   15  C2  UNL     1      -5.842   0.797  -0.805  1.00  0.00     0.191 C 
HETATM   16  C1  UNL     1      -6.583  -0.488  -0.629  1.00  0.00     0.044 C 
BRANCH  15  17
HETATM   17  C3  UNL     1      -6.166   1.735   0.325  1.00  0.00     0.197 C 
HETATM   18  O1  UNL     1      -5.271   2.205   1.064  1.00  0.00    -0.646 OA
HETATM   19  O2  UNL     1      -7.478   2.124   0.602  1.00  0.00    -0.646 OA
ENDBRANCH  15  17
ENDBRANCH  10  15
ENDBRANCH   7   8
ENDBRANCH   1   7
BRANCH   5  20
HETATM   20  C17 UNL     1       2.750  -3.374   0.245  1.00  0.00     0.212 C 
HETATM   21  O5  UNL     1       2.051  -4.452   0.349  1.00  0.00    -0.644 OA
HETATM   22  O6  UNL     1       4.076  -3.561   0.048  1.00  0.00    -0.644 OA
ENDBRANCH   5  20
BRANCH   4  23
HETATM   23  O4  UNL     1       4.128  -0.929   0.046  1.00  0.00    -0.291 OA
BRANCH  23  24
HETATM   24  C11 UNL     1       5.041   0.077  -0.075  1.00  0.00     0.173 A 
HETATM   25  N2  UNL     1       4.709   1.389   0.001  1.00  0.00    -0.343 N 
HETATM   26  C12 UNL     1       5.524   2.425  -0.106  1.00  0.00     0.117 A 
ATOM     27  H2  UNL     1       3.723   1.600   0.158  1.00  0.00     0.167 HD
HETATM   28  C13 UNL     1       6.880   2.220  -0.322  1.00  0.00     0.089 A 
HETATM   29 CL1  UNL     1       7.956   3.580  -0.464  1.00  0.00    -0.080 Cl
HETATM   30  C14 UNL     1       7.301   0.938  -0.412  1.00  0.00     0.165 A 
HETATM   31  F1  UNL     1       8.609   0.631  -0.621  1.00  0.00    -0.202 F 
HETATM   32  C15 UNL     1       6.401  -0.126  -0.292  1.00  0.00     0.125 A 
HETATM   33 CL2  UNL     1       7.011  -1.750  -0.420  1.00  0.00    -0.076 Cl
ENDBRANCH  23  24
ENDBRANCH   4  23
TORSDOF 7
