REMARK  8 active torsions:
REMARK  status: ('A' for Active; 'I' for Inactive)
REMARK    1  A    between atoms: N1_1  and  N2_4 
REMARK    2  A    between atoms: N2_4  and  C1_5 
REMARK    3  A    between atoms: C1_5  and  O1_6 
REMARK    4  A    between atoms: C1_5  and  C2_8 
REMARK    5  A    between atoms: C2_8  and  O2_9 
REMARK    6  A    between atoms: C2_8  and  C3_11 
REMARK    7  A    between atoms: C3_11  and  N3_12 
REMARK    8  A    between atoms: C5_14  and  N4_15 
ROOT
HETATM    1  N3  UNL     1       0.868   0.465  -0.960  1.00  0.00    -0.305 N 
HETATM    2  C4  UNL     1      -0.106   0.293  -0.060  1.00  0.00     0.131 A 
HETATM    3  C5  UNL     1      -1.254   1.058  -0.099  1.00  0.00     0.118 A 
HETATM    4  C10 UNL     1      -1.339   2.009  -1.118  1.00  0.00     0.277 A 
HETATM    5  O4  UNL     1      -2.354   2.754  -1.231  1.00  0.00    -0.266 OA
HETATM    6  N7  UNL     1      -0.326   2.135  -1.993  1.00  0.00    -0.273 N 
ATOM      7  H7  UNL     1      -0.405   2.835  -2.731  1.00  0.00     0.173 HD
HETATM    8  C11 UNL     1       0.787   1.382  -1.942  1.00  0.00     0.329 A 
HETATM    9  O5  UNL     1       1.715   1.539  -2.792  1.00  0.00    -0.246 OA
ENDROOT
BRANCH   1  10
HETATM   10  C3  UNL     1       2.062  -0.343  -0.905  1.00  0.00     0.168 C 
BRANCH  10  11
HETATM   11  C2  UNL     1       3.142   0.274  -0.053  1.00  0.00     0.182 C 
BRANCH  11  12
HETATM   12  C1  UNL     1       4.333  -0.669  -0.079  1.00  0.00     0.261 C 
BRANCH  12  13
HETATM   13  N2  UNL     1       5.396  -0.172   0.782  1.00  0.00    -0.114 NA
BRANCH  13  14
HETATM   14  N1  UNL     1       6.450  -1.063   0.785  1.00  0.00    -0.346 N 
ATOM     15  H12 UNL     1       6.466  -1.936   0.257  1.00  0.00     0.172 HD
ATOM     16  H11 UNL     1       7.195  -0.715   1.388  1.00  0.00     0.172 HD
ENDBRANCH  13  14
ENDBRANCH  12  13
BRANCH  12  17
HETATM   17  O1  UNL     1       4.858  -0.799  -1.355  1.00  0.00    -0.375 OA
ATOM     18  H1  UNL     1       4.164  -1.123  -1.917  1.00  0.00     0.211 HD
ENDBRANCH  12  17
ENDBRANCH  11  12
BRANCH  11  19
HETATM   19  O2  UNL     1       3.517   1.529  -0.497  1.00  0.00    -0.390 OA
ATOM     20  H2  UNL     1       2.772   2.119  -0.481  1.00  0.00     0.210 HD
ENDBRANCH  11  19
ENDBRANCH  10  11
ENDBRANCH   1  10
BRANCH   3  21
HETATM   21  N4  UNL     1      -2.314   0.923   0.825  1.00  0.00    -0.333 N 
HETATM   22  C6  UNL     1      -3.329   0.138   0.688  1.00  0.00     0.171 C 
HETATM   23  N5  UNL     1      -4.351   0.084   1.699  1.00  0.00    -0.370 N 
HETATM   24  C9  UNL     1      -3.522  -0.739  -0.471  1.00  0.00     0.285 C 
HETATM   25  C7  UNL     1      -5.709  -0.173   1.265  1.00  0.00     0.141 C 
ATOM     26  H5  UNL     1      -4.128   0.222   2.685  1.00  0.00     0.161 HD
HETATM   27  C8  UNL     1      -5.746  -1.462   0.496  1.00  0.00     0.142 C 
HETATM   28  N6  UNL     1      -4.701  -1.550  -0.471  1.00  0.00    -0.353 N 
ATOM     29  H6  UNL     1      -4.801  -2.240  -1.215  1.00  0.00     0.162 HD
HETATM   30  O3  UNL     1      -2.691  -0.758  -1.392  1.00  0.00    -0.264 OA
ATOM     31  H4  UNL     1      -2.274   1.493   1.670  1.00  0.00     0.168 HD
ENDBRANCH   3  21
TORSDOF 8
