REMARK  15 active torsions:
REMARK  status: ('A' for Active; 'I' for Inactive)
REMARK    1  A    between atoms: C2_2  and  N1_3 
REMARK    2  A    between atoms: C2_2  and  C27_35 
REMARK       I    between atoms: N1_3  and  C3_5 
REMARK    3  A    between atoms: C3_5  and  C4_7 
REMARK    4  A    between atoms: C4_7  and  N2_8 
REMARK    5  A    between atoms: C4_7  and  C24_32 
REMARK       I    between atoms: N2_8  and  C5_10 
REMARK    6  A    between atoms: C5_10  and  C6_12 
REMARK    7  A    between atoms: C6_12  and  C7_13 
REMARK    8  A    between atoms: C6_12  and  C20_28 
REMARK    9  A    between atoms: C7_13  and  O3_14 
REMARK   10  A    between atoms: O3_14  and  C8_15 
REMARK   11  A    between atoms: C8_15  and  C9_16 
REMARK   12  A    between atoms: C10_17  and  C11_18 
REMARK       I    between atoms: C27_35  and  N3_37 
REMARK   13  A    between atoms: N3_37  and  C28_39 
REMARK   14  A    between atoms: C28_39  and  C29_40 
REMARK   15  A    between atoms: C28_39  and  C30_42 
ROOT
HETATM    1  N2  UNL     1       0.696   0.351   0.328  1.00  0.00    -0.347 N 
ATOM      2  H2  UNL     1       0.689   0.775  -0.600  1.00  0.00     0.163 HD
HETATM    3  C5  UNL     1      -0.159   0.916   1.316  1.00  0.00     0.225 C 
HETATM    4  O2  UNL     1      -0.078   0.313   2.452  1.00  0.00    -0.273 OA
ENDROOT
BRANCH   1   5
HETATM    5  C4  UNL     1       1.565  -0.768   0.538  1.00  0.00     0.180 C 
BRANCH   5   6
HETATM    6  C3  UNL     1       2.969  -0.298   0.863  1.00  0.00     0.241 C 
HETATM    7  N1  UNL     1       4.009  -1.208   1.115  1.00  0.00    -0.346 N 
ATOM      8  H1  UNL     1       3.789  -2.203   1.072  1.00  0.00     0.163 HD
HETATM    9  O1  UNL     1       3.157   0.934   0.895  1.00  0.00    -0.271 OA
BRANCH   7  10
HETATM   10  C2  UNL     1       5.361  -0.836   1.429  1.00  0.00     0.172 C 
HETATM   11  C1  UNL     1       5.787  -1.288   2.814  1.00  0.00     0.042 C 
BRANCH  10  12
HETATM   12  C27 UNL     1       6.317  -1.238   0.375  1.00  0.00     0.240 C 
HETATM   13  O4  UNL     1       5.873  -1.815  -0.646  1.00  0.00    -0.271 OA
HETATM   14  N3  UNL     1       7.694  -0.995   0.483  1.00  0.00    -0.348 N 
ATOM     15  H3  UNL     1       8.004  -0.524   1.333  1.00  0.00     0.163 HD
BRANCH  14  16
HETATM   16  C28 UNL     1       8.713  -1.332  -0.461  1.00  0.00     0.149 C 
BRANCH  16  17
HETATM   17  C29 UNL     1       9.661  -2.277   0.193  1.00  0.00     0.256 C 
HETATM   18  O5  UNL     1       9.491  -2.628   1.339  1.00  0.00    -0.305 OA
ENDBRANCH  16  17
BRANCH  16  19
HETATM   19  C30 UNL     1       9.517  -0.130  -0.908  1.00  0.00     0.007 C 
HETATM   20  C31 UNL     1       8.597   0.907  -1.570  1.00  0.00     0.012 C 
HETATM   21  C32 UNL     1      10.469  -0.593  -1.993  1.00  0.00     0.012 C 
ENDBRANCH  16  19
ENDBRANCH  14  16
ENDBRANCH  10  12
ENDBRANCH   7  10
ENDBRANCH   5   6
BRANCH   5  22
HETATM   22  C24 UNL     1       1.707  -1.705  -0.608  1.00  0.00     0.009 C 
HETATM   23  C25 UNL     1       0.412  -2.297  -1.104  1.00  0.00     0.012 C 
HETATM   24  C26 UNL     1       2.445  -1.069  -1.783  1.00  0.00     0.012 C 
ENDBRANCH   5  22
ENDBRANCH   1   5
BRANCH   3  25
HETATM   25  C6  UNL     1      -1.056   2.049   1.142  1.00  0.00     0.109 C 
BRANCH  25  26
HETATM   26  C7  UNL     1      -2.254   1.791   0.258  1.00  0.00     0.182 C 
BRANCH  26  27
HETATM   27  O3  UNL     1      -3.064   0.765   0.799  1.00  0.00    -0.390 OA
BRANCH  27  28
HETATM   28  C8  UNL     1      -4.139   0.643  -0.117  1.00  0.00     0.174 C 
BRANCH  28  29
HETATM   29  C9  UNL     1      -5.136  -0.367   0.339  1.00  0.00     0.033 C 
HETATM   30  C10 UNL     1      -6.276  -0.507  -0.646  1.00  0.00     0.014 C 
HETATM   31  C14 UNL     1      -7.187  -1.551  -0.138  1.00  0.00     0.006 C 
HETATM   32  C15 UNL     1      -7.957  -1.212   1.094  1.00  0.00     0.027 C 
HETATM   33  C16 UNL     1      -8.004  -2.249  -1.186  1.00  0.00     0.027 C 
HETATM   34  S1  UNL     1      -5.945  -2.818   0.390  1.00  0.00    -0.150 SA
HETATM   35  C17 UNL     1      -4.488  -1.701   0.475  1.00  0.00     0.007 C 
HETATM   36  C18 UNL     1      -3.571  -2.076  -0.637  1.00  0.00     0.027 C 
HETATM   37  C19 UNL     1      -3.850  -1.796   1.835  1.00  0.00     0.027 C 
BRANCH  30  38
HETATM   38  C11 UNL     1      -6.832   0.793  -1.037  1.00  0.00    -0.017 C 
HETATM   39  C12 UNL     1      -7.402   1.658   0.020  1.00  0.00     0.010 C 
HETATM   40  C13 UNL     1      -7.875   0.692  -2.157  1.00  0.00     0.010 C 
ENDBRANCH  30  38
ENDBRANCH  28  29
ENDBRANCH  27  28
ENDBRANCH  26  27
ENDBRANCH  25  26
BRANCH  25  41
HETATM   41  C20 UNL     1      -0.441   3.352   0.773  1.00  0.00    -0.037 C 
HETATM   42  C21 UNL     1       0.311   3.398  -0.510  1.00  0.00     0.015 C 
HETATM   43  C22 UNL     1      -1.564   4.389   0.672  1.00  0.00     0.015 C 
HETATM   44  C23 UNL     1       0.434   3.867   1.933  1.00  0.00     0.015 C 
ENDBRANCH  25  41
ENDBRANCH   3  25
TORSDOF 15
