REMARK  15 active torsions:
REMARK  status: ('A' for Active; 'I' for Inactive)
REMARK    1  A    between atoms: C6_6  and  C7_7 
REMARK    2  A    between atoms: C8_8  and  C9_9 
REMARK    3  A    between atoms: C8_8  and  N1_29 
REMARK    4  A    between atoms: C9_9  and  O1_10 
REMARK    5  A    between atoms: C9_9  and  C10_12 
REMARK    6  A    between atoms: C10_12  and  O2_13 
REMARK    7  A    between atoms: C10_12  and  C11_15 
REMARK    8  A    between atoms: C11_15  and  O3_16 
REMARK    9  A    between atoms: C11_15  and  C12_18 
REMARK   10  A    between atoms: C12_18  and  C13_19 
REMARK   11  A    between atoms: C12_18  and  C20_26 
REMARK   12  A    between atoms: C13_19  and  C14_20 
REMARK   13  A    between atoms: N1_29  and  C23_30 
REMARK   14  A    between atoms: N1_29  and  S1_33 
REMARK   15  A    between atoms: S1_33  and  C26_36 
ROOT
HETATM    1  C7  UNL     1      -2.277  -0.240   0.886  1.00  0.00     0.040 C 
HETATM    2  C8  UNL     1      -2.087  -1.286  -0.080  1.00  0.00     0.055 C 
ENDROOT
BRANCH   2   3
HETATM    3  C9  UNL     1      -0.936  -1.112  -0.955  1.00  0.00     0.200 C 
BRANCH   3   4
HETATM    4  O1  UNL     1      -0.464  -2.323  -1.519  1.00  0.00    -0.387 OA
ATOM      5  H1  UNL     1       0.287  -2.209  -2.090  1.00  0.00     0.210 HD
ENDBRANCH   3   4
BRANCH   3   6
HETATM    6  C10 UNL     1       0.330  -0.522  -0.303  1.00  0.00     0.181 C 
BRANCH   6   7
HETATM    7  O2  UNL     1       0.836  -1.434   0.645  1.00  0.00    -0.390 OA
ATOM      8  H2  UNL     1       1.616  -1.070   1.047  1.00  0.00     0.210 HD
ENDBRANCH   6   7
BRANCH   6   9
HETATM    9  C11 UNL     1       1.364  -0.341  -1.325  1.00  0.00     0.154 C 
BRANCH   9  10
HETATM   10  O3  UNL     1       1.673  -1.569  -1.914  1.00  0.00    -0.393 OA
ATOM     11  H3  UNL     1       2.343  -1.452  -2.577  1.00  0.00     0.210 HD
ENDBRANCH   9  10
BRANCH   9  12
HETATM   12  C12 UNL     1       2.628   0.366  -1.045  1.00  0.00     0.021 C 
BRANCH  12  13
HETATM   13  C13 UNL     1       3.469  -0.207   0.031  1.00  0.00     0.012 C 
BRANCH  13  14
HETATM   14  C14 UNL     1       4.769   0.557   0.197  1.00  0.00    -0.014 C 
HETATM   15  C15 UNL     1       5.599   0.535  -1.052  1.00  0.00     0.005 C 
HETATM   16  C16 UNL     1       7.046   0.230  -0.767  1.00  0.00     0.000 C 
HETATM   17  C17 UNL     1       7.603   1.023   0.379  1.00  0.00     0.000 C 
HETATM   18  C18 UNL     1       6.720   0.910   1.612  1.00  0.00     0.000 C 
HETATM   19  C19 UNL     1       5.605  -0.077   1.309  1.00  0.00     0.005 C 
ENDBRANCH  13  14
ENDBRANCH  12  13
BRANCH  12  20
HETATM   20  C20 UNL     1       2.474   1.869  -0.963  1.00  0.00    -0.016 C 
HETATM   21  C21 UNL     1       1.919   2.393  -2.296  1.00  0.00     0.010 C 
HETATM   22  C22 UNL     1       1.668   2.386   0.160  1.00  0.00     0.010 C 
ENDBRANCH  12  20
ENDBRANCH   9  12
ENDBRANCH   6   9
ENDBRANCH   3   6
ENDBRANCH   2   3
BRANCH   2  23
HETATM   23  N1  UNL     1      -3.255  -1.938  -0.623  1.00  0.00    -0.272 N 
BRANCH  23  24
HETATM   24  C23 UNL     1      -4.038  -1.314  -1.563  1.00  0.00     0.101 A 
HETATM   25  C24 UNL     1      -4.297  -2.170  -2.847  1.00  0.00     0.028 A 
HETATM   26  C25 UNL     1      -5.378  -1.574  -2.030  1.00  0.00     0.028 A 
ENDBRANCH  23  24
BRANCH  23  27
HETATM   27  S1  UNL     1      -3.542  -3.493  -0.078  1.00  0.00     0.237 S 
HETATM   28  O4  UNL     1      -4.812  -4.034  -0.671  1.00  0.00    -0.205 OA
HETATM   29  O5  UNL     1      -2.405  -4.467  -0.239  1.00  0.00    -0.205 OA
BRANCH  27  30
HETATM   30  C26 UNL     1      -3.827  -3.631   1.701  1.00  0.00     0.130 A 
HETATM   31  C27 UNL     1      -4.312  -5.020   2.104  1.00  0.00     0.023 A 
HETATM   32  C28 UNL     1      -5.219  -3.868   2.194  1.00  0.00     0.023 A 
ENDBRANCH  27  30
ENDBRANCH  23  27
ENDBRANCH   2  23
BRANCH   1  33
HETATM   33  C6  UNL     1      -2.496   1.158   0.693  1.00  0.00    -0.028 A 
HETATM   34  C5  UNL     1      -2.436   1.984  -0.380  1.00  0.00     0.012 A 
HETATM   35  C4  UNL     1      -2.684   3.330  -0.393  1.00  0.00     0.001 A 
HETATM   36  C3  UNL     1      -3.030   3.948   0.786  1.00  0.00     0.007 A 
HETATM   37  C2  UNL     1      -3.111   3.178   1.919  1.00  0.00    -0.055 A 
HETATM   38  C1  UNL     1      -3.496   3.847   3.220  1.00  0.00     0.049 C 
HETATM   39  C29 UNL     1      -2.857   1.829   1.892  1.00  0.00    -0.046 A 
HETATM   40  C30 UNL     1      -2.979   1.084   3.178  1.00  0.00     0.049 C 
ENDBRANCH   1  33
TORSDOF 15
