REMARK  10 active torsions:
REMARK  status: ('A' for Active; 'I' for Inactive)
REMARK    1  A    between atoms: C2_2  and  C4_4 
REMARK    2  A    between atoms: C4_4  and  N1_5 
REMARK       I    between atoms: N1_5  and  C5_7 
REMARK    3  A    between atoms: C5_7  and  C6_9 
REMARK    4  A    between atoms: C6_9  and  C7_10 
REMARK    5  A    between atoms: C7_10  and  C8_11 
REMARK    6  A    between atoms: C8_11  and  C9_12 
REMARK    7  A    between atoms: C8_11  and  C19_27 
REMARK       I    between atoms: C9_12  and  N2_14 
REMARK    8  A    between atoms: C12_17  and  C13_18 
REMARK    9  A    between atoms: C13_18  and  N3_19 
REMARK   10  A    between atoms: N3_19  and  C14_22 
ROOT
HETATM    1  C8  UNL     1      -0.741  -2.144   0.003  1.00  0.00     0.011 C 
ENDROOT
BRANCH   1   2
HETATM    2  C7  UNL     1      -1.860  -1.492   0.665  1.00  0.00     0.007 C 
BRANCH   2   3
HETATM    3  C6  UNL     1      -3.010  -0.869   0.081  1.00  0.00     0.084 C 
HETATM    4  C25 UNL     1      -3.826  -0.189   1.217  1.00  0.00     0.052 C 
HETATM    5  C26 UNL     1      -5.264  -0.449   0.904  1.00  0.00     0.233 C 
HETATM    6  N4  UNL     1      -5.173  -1.835   0.416  1.00  0.00    -0.074 N 
HETATM    7  C27 UNL     1      -4.088  -1.675  -0.547  1.00  0.00     0.255 C 
ATOM      8  H42 UNL     1      -5.040  -2.554   1.127  1.00  0.00     0.277 HD
ATOM      9  H41 UNL     1      -6.036  -2.242   0.057  1.00  0.00     0.277 HD
BRANCH   3  10
HETATM   10  C5  UNL     1      -2.715   0.267  -0.821  1.00  0.00     0.231 C 
HETATM   11  N1  UNL     1      -2.114   1.472  -0.421  1.00  0.00    -0.360 N 
ATOM     12  H1  UNL     1      -1.855   1.576   0.560  1.00  0.00     0.162 HD
HETATM   13  O1  UNL     1      -3.016   0.185  -2.064  1.00  0.00    -0.272 OA
BRANCH  11  14
HETATM   14  C4  UNL     1      -1.841   2.573  -1.317  1.00  0.00     0.126 C 
BRANCH  14  15
HETATM   15  C2  UNL     1      -1.201   3.737  -0.613  1.00  0.00    -0.005 C 
HETATM   16  C1  UNL     1      -2.111   4.268   0.499  1.00  0.00     0.011 C 
HETATM   17  C3  UNL     1      -0.958   4.898  -1.551  1.00  0.00     0.011 C 
ENDBRANCH  14  15
ENDBRANCH  11  14
ENDBRANCH   3  10
ENDBRANCH   2   3
ENDBRANCH   1   2
BRANCH   1  18
HETATM   18  C9  UNL     1       0.106  -1.353  -0.900  1.00  0.00     0.249 C 
HETATM   19  O2  UNL     1      -0.038  -1.356  -2.172  1.00  0.00    -0.268 OA
HETATM   20  N2  UNL     1       1.180  -0.496  -0.476  1.00  0.00    -0.348 N 
HETATM   21  C10 UNL     1       1.563  -0.313   0.904  1.00  0.00     0.126 C 
HETATM   22  C18 UNL     1       1.975   0.227  -1.454  1.00  0.00     0.126 C 
HETATM   23  C11 UNL     1       1.554   1.147   1.216  1.00  0.00     0.026 C 
HETATM   24  C12 UNL     1       2.527   1.871   0.351  1.00  0.00     0.014 C 
HETATM   25  C17 UNL     1       2.240   1.650  -1.115  1.00  0.00     0.026 C 
BRANCH  24  26
HETATM   26  C13 UNL     1       3.949   1.509   0.708  1.00  0.00     0.237 C 
BRANCH  26  27
HETATM   27  N3  UNL     1       4.909   2.217  -0.129  1.00  0.00    -0.070 N 
ATOM     28  H32 UNL     1       5.836   1.801  -0.041  1.00  0.00     0.277 HD
ATOM     29  H31 UNL     1       4.729   2.031  -1.116  1.00  0.00     0.277 HD
BRANCH  27  30
HETATM   30  C14 UNL     1       4.966   3.625   0.113  1.00  0.00     0.186 A 
HETATM   31  C15 UNL     1       5.384   4.173   1.426  1.00  0.00     0.035 A 
HETATM   32  C16 UNL     1       6.411   4.187   0.313  1.00  0.00     0.035 A 
ENDBRANCH  27  30
ENDBRANCH  26  27
ENDBRANCH  24  26
ENDBRANCH   1  18
BRANCH   1  33
HETATM   33  C19 UNL     1      -0.979  -3.553  -0.501  1.00  0.00     0.024 C 
HETATM   34  C20 UNL     1      -1.357  -4.452   0.652  1.00  0.00     0.009 C 
HETATM   35  C21 UNL     1      -0.574  -5.726   0.738  1.00  0.00     0.001 C 
HETATM   36  C22 UNL     1      -0.331  -6.432  -0.546  1.00  0.00     0.000 C 
HETATM   37  C23 UNL     1      -0.064  -5.460  -1.677  1.00  0.00     0.001 C 
HETATM   38  C24 UNL     1       0.343  -4.143  -0.995  1.00  0.00     0.009 C 
ENDBRANCH   1  33
TORSDOF 10
