REMARK  6 active torsions:
REMARK  status: ('A' for Active; 'I' for Inactive)
REMARK    1  A    between atoms: O1_2  and  C2_3 
REMARK    2  A    between atoms: C4_5  and  C5_6 
REMARK    3  A    between atoms: N3_14  and  O2_15 
REMARK    4  A    between atoms: C10_17  and  N4_18 
REMARK    5  A    between atoms: C12_22  and  O5_23 
REMARK    6  A    between atoms: C14_25  and  O6_26 
ROOT
HETATM    1  C5  UNL     1       1.188   0.102  -0.157  1.00  0.00     0.092 C 
HETATM    2  C6  UNL     1       1.906   0.283   1.187  1.00  0.00     0.140 C 
HETATM    3  C7  UNL     1       1.503  -0.731   2.139  1.00  0.00     0.068 C 
HETATM    4  N1  UNL     1       1.198  -1.540   2.907  1.00  0.00    -0.197 NA
HETATM    5  C8  UNL     1       3.379   0.199   0.849  1.00  0.00     0.194 C 
HETATM    6  S1  UNL     1       3.720  -1.547   0.422  1.00  0.00    -0.067 SA
HETATM    7  N2  UNL     1       3.735   1.008  -0.237  1.00  0.00    -0.292 N 
HETATM    8  C9  UNL     1       4.759   0.540  -1.097  1.00  0.00     0.175 C 
HETATM    9  N3  UNL     1       2.809   1.842  -0.770  1.00  0.00    -0.172 N 
HETATM   10  C10 UNL     1       1.497   1.312  -0.973  1.00  0.00     0.311 C 
ENDROOT
BRANCH   1  11
HETATM   11  C4  UNL     1      -0.262  -0.106   0.043  1.00  0.00    -0.043 A 
HETATM   12  C3  UNL     1      -1.067   0.833   0.616  1.00  0.00     0.047 A 
HETATM   13  C2  UNL     1      -2.406   0.590   0.778  1.00  0.00     0.104 A 
HETATM   14  C14 UNL     1      -2.987  -0.596   0.375  1.00  0.00     0.135 A 
HETATM   15  C12 UNL     1      -2.169  -1.553  -0.208  1.00  0.00     0.104 A 
HETATM   16  C11 UNL     1      -0.829  -1.296  -0.364  1.00  0.00     0.047 A 
BRANCH  13  17
HETATM   17  O1  UNL     1      -3.236   1.539   1.360  1.00  0.00    -0.353 OA
HETATM   18  C1  UNL     1      -2.700   2.762   1.788  1.00  0.00     0.210 C 
ENDBRANCH  13  17
BRANCH  14  19
HETATM   19  O6  UNL     1      -4.332  -0.878   0.521  1.00  0.00    -0.351 OA
HETATM   20  C15 UNL     1      -5.259  -0.536  -0.519  1.00  0.00     0.210 C 
ENDBRANCH  14  19
BRANCH  15  21
HETATM   21  O5  UNL     1      -2.743  -2.749  -0.618  1.00  0.00    -0.353 OA
HETATM   22  C13 UNL     1      -1.905  -3.719  -1.211  1.00  0.00     0.210 C 
ENDBRANCH  15  21
ENDBRANCH   1  11
BRANCH  10  23
HETATM   23  N4  UNL     1       1.304   1.102  -2.386  1.00  0.00    -0.126 N 
HETATM   24  O3  UNL     1       0.917  -0.006  -2.792  1.00  0.00    -0.535 OA
HETATM   25  O4  UNL     1       1.535   2.091  -3.300  1.00  0.00    -0.535 OA
ENDBRANCH  10  23
BRANCH   9  26
HETATM   26  O2  UNL     1       2.857   3.115  -0.397  1.00  0.00    -0.270 OA
ATOM     27  H2  UNL     1       2.208   3.700  -0.771  1.00  0.00     0.246 HD
ENDBRANCH   9  26
TORSDOF 6
