REMARK  15 active torsions:
REMARK  status: ('A' for Active; 'I' for Inactive)
REMARK    1  A    between atoms: O1_2  and  C2_3 
REMARK    2  A    between atoms: C2_3  and  C3_5 
REMARK    3  A    between atoms: C8_10  and  O3_11 
REMARK    4  A    between atoms: N1_13  and  N2_14 
REMARK    5  A    between atoms: N2_14  and  C10_16 
REMARK    6  A    between atoms: C11_19  and  N4_20 
REMARK    7  A    between atoms: N6_27  and  C14_29 
REMARK    8  A    between atoms: C14_29  and  C15_30 
REMARK    9  A    between atoms: C15_30  and  N7_31 
REMARK   10  A    between atoms: C17_38  and  C18_39 
REMARK   11  A    between atoms: C18_39  and  O4_40 
REMARK   12  A    between atoms: C18_39  and  N9_42 
REMARK   13  A    between atoms: N9_42  and  N10_44 
REMARK   14  A    between atoms: N14_53  and  O5_54 
REMARK   15  A    between atoms: C20_56  and  C21_57 
ROOT
HETATM    1  C10 UNL     1       0.479  -0.366  -1.037  1.00  0.00     0.727 A 
HETATM    2  N3  UNL     1       0.625   0.920  -1.401  1.00  0.00    -0.171 N 
ATOM      3  H3  UNL     1       1.545   1.231  -1.713  1.00  0.00     0.186 HD
HETATM    4  C11 UNL     1      -0.372   1.818  -1.377  1.00  0.00     0.145 A 
HETATM    5  C12 UNL     1      -1.626   1.384  -0.947  1.00  0.00     0.128 A 
HETATM    6  N5  UNL     1      -2.678   2.191  -0.884  1.00  0.00    -0.333 N 
ATOM      7  H5  UNL     1      -2.574   3.168  -1.159  1.00  0.00     0.168 HD
HETATM    8  C13 UNL     1      -3.897   1.743  -0.459  1.00  0.00     0.149 A 
HETATM    9  N6  UNL     1      -4.851   2.603  -0.435  1.00  0.00    -0.372 N 
ATOM     10  H6  UNL     1      -4.667   3.563  -0.727  1.00  0.00     0.161 HD
HETATM   11  C16 UNL     1      -4.047   0.426  -0.085  1.00  0.00     0.175 A 
HETATM   12  N8  UNL     1      -5.080  -0.302   0.364  1.00  0.00    -0.323 N 
ATOM     13  H8  UNL     1      -6.026   0.048   0.516  1.00  0.00     0.169 HD
HETATM   14  C17 UNL     1      -4.676  -1.560   0.581  1.00  0.00     0.149 A 
HETATM   15  N12 UNL     1      -3.376  -1.595   0.259  1.00  0.00    -0.275 N 
ATOM     16  H12 UNL     1      -2.777  -2.419   0.317  1.00  0.00     0.189 HD
HETATM   17  N13 UNL     1      -2.988  -0.392  -0.147  1.00  0.00    -0.213 N 
HETATM   18  C19 UNL     1      -1.800   0.071  -0.568  1.00  0.00     0.205 A 
HETATM   19  N14 UNL     1      -0.743  -0.751  -0.627  1.00  0.00    -0.029 N 
ENDROOT
BRANCH   1  20
HETATM   20  N2  UNL     1       1.409  -1.233  -1.052  1.00  0.00    -0.126 N 
ATOM     21  H2  UNL     1       1.180  -2.180  -0.751  1.00  0.00     0.206 HD
BRANCH  20  22
HETATM   22  N1  UNL     1       2.720  -0.978  -1.451  1.00  0.00    -0.262 N 
HETATM   23  C6  UNL     1       3.725  -0.541  -0.515  1.00  0.00     0.061 A 
HETATM   24  C5  UNL     1       4.968  -0.743  -1.055  1.00  0.00    -0.026 A 
HETATM   25  C7  UNL     1       3.612   0.015   0.764  1.00  0.00     0.069 A 
HETATM   26  C4  UNL     1       6.075  -0.389  -0.315  1.00  0.00     0.030 A 
HETATM   27  C22 UNL     1       4.787  -1.336  -2.401  1.00  0.00     0.079 C 
HETATM   28  C3  UNL     1       5.977   0.160   0.946  1.00  0.00     0.073 A 
HETATM   29  C8  UNL     1       4.729   0.364   1.492  1.00  0.00     0.086 A 
HETATM   30  C20 UNL     1       3.342  -1.071  -2.746  1.00  0.00     0.214 C 
BRANCH  28  31
HETATM   31  C2  UNL     1       7.162   0.525   1.705  1.00  0.00     0.295 C 
HETATM   32  O2  UNL     1       8.293   0.332   1.194  1.00  0.00    -0.259 OA
BRANCH  31  33
HETATM   33  O1  UNL     1       7.119   1.076   2.968  1.00  0.00    -0.322 OA
HETATM   34  C1  UNL     1       8.299   1.426   3.694  1.00  0.00     0.213 C 
ENDBRANCH  31  33
ENDBRANCH  28  31
BRANCH  29  35
HETATM   35  O3  UNL     1       4.659   0.917   2.762  1.00  0.00    -0.355 OA
HETATM   36  C9  UNL     1       3.359   1.120   3.307  1.00  0.00     0.210 C 
ENDBRANCH  29  35
BRANCH  30  37
HETATM   37  C21 UNL     1       2.805  -2.150  -3.576  1.00  0.00     0.199 C 
HETATM   38  O6  UNL     1       3.265  -2.330  -4.723  1.00  0.00    -0.646 OA
HETATM   39  O7  UNL     1       1.795  -2.957  -3.083  1.00  0.00    -0.646 OA
ENDBRANCH  30  37
ENDBRANCH  20  22
ENDBRANCH   1  20
BRANCH  19  40
HETATM   40  O5  UNL     1      -0.936  -2.071  -0.241  1.00  0.00    -0.268 OA
ATOM     41  H5  UNL     1      -1.799  -2.343   0.049  1.00  0.00     0.246 HD
ENDBRANCH  19  40
BRANCH   4  42
HETATM   42  N4  UNL     1      -0.268   3.054  -1.718  1.00  0.00    -0.383 N 
ATOM     43  H42 UNL     1       0.649   3.371  -2.032  1.00  0.00     0.157 HD
ATOM     44  H41 UNL     1      -1.026   3.737  -1.700  1.00  0.00     0.157 HD
ENDBRANCH   4  42
BRANCH  14  45
HETATM   45  C18 UNL     1      -5.442  -2.725   1.075  1.00  0.00     0.304 C 
BRANCH  45  46
HETATM   46  O4  UNL     1      -6.682  -2.826   0.446  1.00  0.00    -0.368 OA
ATOM     47  H4  UNL     1      -7.174  -3.574   0.763  1.00  0.00     0.212 HD
ENDBRANCH  45  46
BRANCH  45  48
HETATM   48  N9  UNL     1      -4.735  -3.954   0.801  1.00  0.00    -0.287 N 
ATOM     49  H9  UNL     1      -4.452  -4.567   1.565  1.00  0.00     0.185 HD
BRANCH  48  50
HETATM   50  N10 UNL     1      -4.445  -4.292  -0.514  1.00  0.00    -0.251 N 
HETATM   51  N11 UNL     1      -3.293  -4.639  -0.909  1.00  0.00    -0.331 N 
ATOM     52 2H11 UNL     1      -2.550  -4.666  -0.211  1.00  0.00     0.178 HD
ATOM     53 1H11 UNL     1      -3.080  -4.887  -1.875  1.00  0.00     0.178 HD
ATOM     54  H10 UNL     1      -5.200  -4.259  -1.199  1.00  0.00     0.207 HD
ENDBRANCH  48  50
ENDBRANCH  45  48
ENDBRANCH  14  45
BRANCH   9  55
HETATM   55  C14 UNL     1      -6.169   2.239  -0.006  1.00  0.00     0.148 C 
BRANCH  55  56
HETATM   56  C15 UNL     1      -7.032   3.501  -0.041  1.00  0.00     0.249 C 
BRANCH  56  57
HETATM   57  N7  UNL     1      -8.370   3.142   0.392  1.00  0.00    -0.078 N 
ATOM     58  H73 UNL     1      -8.768   2.376  -0.152  1.00  0.00     0.274 HD
ATOM     59  H72 UNL     1      -8.380   2.682   1.303  1.00  0.00     0.274 HD
ATOM     60  H71 UNL     1      -8.946   3.984   0.369  1.00  0.00     0.274 HD
ENDBRANCH  56  57
ENDBRANCH  55  56
ENDBRANCH   9  55
TORSDOF 15
