REMARK  5 active torsions:
REMARK  status: ('A' for Active; 'I' for Inactive)
REMARK    1  A    between atoms: C2_2  and  C3_3 
REMARK    2  A    between atoms: C3_3  and  C4_4 
REMARK       I    between atoms: C4_4  and  N1_6 
REMARK    3  A    between atoms: N1_6  and  C5_8 
REMARK    4  A    between atoms: N4_14  and  C8_15 
REMARK    5  A    between atoms: C10_22  and  N8_23 
ROOT
HETATM    1  C5  UNL     1       1.361   0.218  -1.035  1.00  0.00     0.121 C 
HETATM    2  C6  UNL     1       1.343   0.609  -2.499  1.00  0.00     0.149 C 
HETATM    3  N2  UNL     1       0.258   1.555  -2.662  1.00  0.00    -0.362 N 
ATOM      4  H2  UNL     1       0.369   2.342  -3.301  1.00  0.00     0.162 HD
HETATM    5  C7  UNL     1      -0.844   1.416  -2.011  1.00  0.00     0.205 C 
HETATM    6  N3  UNL     1      -1.925   2.363  -2.177  1.00  0.00    -0.063 NA
HETATM    7  N4  UNL     1      -1.015   0.321  -1.113  1.00  0.00    -0.152 N 
HETATM    8  C12 UNL     1       0.117  -0.559  -0.772  1.00  0.00     0.177 C 
ENDROOT
BRANCH   7   9
HETATM    9  C8  UNL     1      -2.302   0.078  -0.539  1.00  0.00     0.704 A 
HETATM   10  N5  UNL     1      -3.317   0.893  -0.865  1.00  0.00    -0.162 N 
HETATM   11  C9  UNL     1      -4.551   0.698  -0.343  1.00  0.00     0.221 A 
ATOM     12  H5  UNL     1      -3.158   1.666  -1.511  1.00  0.00     0.187 HD
HETATM   13  N6  UNL     1      -5.606   1.578  -0.709  1.00  0.00    -0.062 NA
HETATM   14  N7  UNL     1      -4.700  -0.335   0.501  1.00  0.00    -0.162 N 
HETATM   15  C10 UNL     1      -3.705  -1.169   0.848  1.00  0.00     0.694 A 
ATOM     16  H7  UNL     1      -5.623  -0.497   0.903  1.00  0.00     0.187 HD
HETATM   17  N9  UNL     1      -2.493  -0.940   0.307  1.00  0.00    -0.022 N 
ATOM     18  H9  UNL     1      -1.711  -1.550   0.545  1.00  0.00     0.203 HD
BRANCH  15  19
HETATM   19  N8  UNL     1      -3.911  -2.148   1.669  1.00  0.00    -0.230 N 
HETATM   20  C11 UNL     1      -5.241  -2.334   2.213  1.00  0.00     0.165 C 
ATOM     21  H8  UNL     1      -3.151  -2.777   1.928  1.00  0.00     0.177 HD
ENDBRANCH  15  19
ENDBRANCH   7   9
BRANCH   1  22
HETATM   22  N1  UNL     1       2.571  -0.454  -0.649  1.00  0.00    -0.353 N 
HETATM   23  C4  UNL     1       3.486   0.048   0.309  1.00  0.00     0.217 C 
HETATM   24  O1  UNL     1       3.242   1.136   0.859  1.00  0.00    -0.274 OA
ATOM     25  H1  UNL     1       2.784  -1.348  -1.092  1.00  0.00     0.163 HD
BRANCH  23  26
HETATM   26  C3  UNL     1       4.704  -0.726   0.633  1.00  0.00     0.102 C 
BRANCH  26  27
HETATM   27  C2  UNL     1       5.555  -0.034   1.674  1.00  0.00     0.005 C 
HETATM   28  C1  UNL     1       6.795  -0.825   2.001  1.00  0.00     0.005 C 
ENDBRANCH  26  27
ENDBRANCH  23  26
ENDBRANCH   1  22
TORSDOF 5
