REMARK  6 active torsions:
REMARK  status: ('A' for Active; 'I' for Inactive)
REMARK    1  A    between atoms: C2_2  and  N2_7 
REMARK    2  A    between atoms: N1_3  and  O1_5 
REMARK    3  A    between atoms: N2_7  and  N3_9 
REMARK       I    between atoms: N3_9  and  C3_11 
REMARK       I    between atoms: C3_11  and  N4_13 
REMARK       I    between atoms: N4_13  and  C4_15 
REMARK    4  A    between atoms: C4_15  and  C5_17 
REMARK    5  A    between atoms: C6_18  and  S1_19 
REMARK    6  A    between atoms: S1_19  and  C7_20 
ROOT
HETATM    1  N3  UNL     1       2.265   1.253  -2.129  1.00  0.00    -0.250 N 
ATOM      2  H3  UNL     1       2.147   2.266  -2.152  1.00  0.00     0.192 HD
HETATM    3  C3  UNL     1       1.362   0.430  -1.325  1.00  0.00     0.341 C 
HETATM    4  O2  UNL     1       1.584  -0.756  -1.373  1.00  0.00    -0.245 OA
HETATM    5  N4  UNL     1       0.390   1.176  -0.634  1.00  0.00    -0.274 N 
ATOM      6  H4  UNL     1       0.219   2.181  -0.595  1.00  0.00     0.173 HD
HETATM    7  C4  UNL     1      -0.423  -0.142   0.127  1.00  0.00     0.249 C 
HETATM    8  O3  UNL     1       0.065  -1.161  -0.163  1.00  0.00    -0.268 OA
ENDROOT
BRANCH   7   9
HETATM    9  C5  UNL     1      -1.475   0.302   0.916  1.00  0.00     0.081 C 
HETATM   10  C6  UNL     1      -1.929   1.476   1.155  1.00  0.00     0.059 C 
BRANCH  10  11
HETATM   11  S1  UNL     1      -3.351   1.730   2.261  1.00  0.00    -0.064 SA
BRANCH  11  12
HETATM   12  C7  UNL     1      -3.708   0.136   2.998  1.00  0.00     0.166 A 
HETATM   13  N5  UNL     1      -3.240  -0.407   4.126  1.00  0.00    -0.279 N 
HETATM   14  N6  UNL     1      -3.745  -1.613   4.310  1.00  0.00    -0.294 N 
ATOM     15  H5  UNL     1      -2.582   0.048   4.759  1.00  0.00     0.189 HD
HETATM   16  C8  UNL     1      -4.560  -1.859   3.278  1.00  0.00     0.201 A 
ATOM     17  H6  UNL     1      -3.550  -2.239   5.091  1.00  0.00     0.187 HD
HETATM   18  N7  UNL     1      -4.531  -0.774   2.471  1.00  0.00    -0.326 N 
HETATM   19  C9  UNL     1      -5.264  -0.617   1.215  1.00  0.00     0.159 C 
ENDBRANCH  11  12
ENDBRANCH  10  11
ENDBRANCH   7   9
BRANCH   1  20
HETATM   20  N2  UNL     1       3.275   0.660  -2.856  1.00  0.00    -0.284 N 
ATOM     21  H2  UNL     1       3.186   0.631  -3.872  1.00  0.00     0.188 HD
BRANCH  20  22
HETATM   22  C2  UNL     1       4.434   0.087  -2.264  1.00  0.00     0.112 C 
HETATM   23  C1  UNL     1       5.556  -0.364  -3.121  1.00  0.00     0.092 C 
HETATM   24  N1  UNL     1       4.475  -0.018  -0.994  1.00  0.00    -0.256 N 
ATOM     25  H1  UNL     1       3.653   0.321  -0.494  1.00  0.00     0.195 HD
BRANCH  24  26
HETATM   26  O1  UNL     1       5.463  -0.519  -0.226  1.00  0.00    -0.288 OA
ATOM     27  H1  UNL     1       5.494  -0.597   0.720  1.00  0.00     0.244 HD
ENDBRANCH  24  26
ENDBRANCH  20  22
ENDBRANCH   1  20
TORSDOF 6
