REMARK  5 active torsions:
REMARK  status: ('A' for Active; 'I' for Inactive)
REMARK    1  A    between atoms: C2_5  and  N3_6 
REMARK    2  A    between atoms: C3_12  and  S1_13 
REMARK    3  A    between atoms: S1_13  and  C4_14 
REMARK    4  A    between atoms: C4_14  and  C5_15 
REMARK    5  A    between atoms: C5_15  and  N6_16 
ROOT
HETATM    1  N6  UNL     1      -2.502  -0.797  -0.597  1.00  0.00    -0.374 N 
ATOM      2  H6  UNL     1      -2.191  -1.446  -1.320  1.00  0.00     0.161 HD
HETATM    3  C6  UNL     1      -3.761  -0.558  -0.496  1.00  0.00     0.118 A 
HETATM    4  C7  UNL     1      -4.349   0.287   0.421  1.00  0.00     0.091 A 
HETATM    5  C8  UNL     1      -5.720   0.261   0.191  1.00  0.00     0.132 A 
HETATM    6  C9  UNL     1      -6.724   1.000   0.922  1.00  0.00     0.119 C 
HETATM    7  N7  UNL     1      -7.517   1.606   1.501  1.00  0.00    -0.190 NA
HETATM    8  N8  UNL     1      -5.916  -0.587  -0.841  1.00  0.00    -0.289 N 
ATOM      9  H8  UNL     1      -6.820  -0.822  -1.250  1.00  0.00     0.188 HD
HETATM   10  N9  UNL     1      -4.757  -1.060  -1.234  1.00  0.00    -0.285 N 
ATOM     11  H9  UNL     1      -4.632  -1.722  -2.000  1.00  0.00     0.188 HD
ENDROOT
BRANCH   1  12
HETATM   12  C5  UNL     1      -1.515  -0.203   0.249  1.00  0.00     0.132 C 
BRANCH  12  13
HETATM   13  C4  UNL     1      -1.214   1.245  -0.162  1.00  0.00     0.102 C 
BRANCH  13  14
HETATM   14  S1  UNL     1       0.054   1.875   0.996  1.00  0.00    -0.090 SA
BRANCH  14  15
HETATM   15  C3  UNL     1       1.584   0.992   0.762  1.00  0.00     0.175 A 
HETATM   16  N5  UNL     1       1.974  -0.134   1.376  1.00  0.00    -0.243 N 
HETATM   17  N4  UNL     1       3.171  -0.496   0.948  1.00  0.00     0.094 N 
ATOM     18  H5  UNL     1       1.426  -0.639   2.073  1.00  0.00     0.191 HD
HETATM   19  C2  UNL     1       4.138  -1.418   1.071  1.00  0.00     0.727 A 
HETATM   20  C10 UNL     1       3.558   0.414   0.040  1.00  0.00     0.737 A 
HETATM   21  N2  UNL     1       5.130  -1.058   0.223  1.00  0.00    -0.114 N 
HETATM   22  N1  UNL     1       4.793   0.045  -0.406  1.00  0.00    -0.111 N 
ATOM     23  H2  UNL     1       6.005  -1.565   0.092  1.00  0.00     0.206 HD
HETATM   24  C1  UNL     1       5.522   0.812  -1.406  1.00  0.00     0.198 C 
HETATM   25  N10 UNL     1       2.580   1.329  -0.072  1.00  0.00    -0.165 N 
ATOM     26  H10 UNL     1       2.593   2.142  -0.687  1.00  0.00     0.186 HD
BRANCH  19  27
HETATM   27  N3  UNL     1       4.155  -2.464   1.844  1.00  0.00    -0.231 N 
ATOM     28  H32 UNL     1       4.890  -3.165   1.938  1.00  0.00     0.174 HD
ATOM     29  H31 UNL     1       3.408  -2.735   2.483  1.00  0.00     0.174 HD
ENDBRANCH  19  27
ENDBRANCH  14  15
ENDBRANCH  13  14
ENDBRANCH  12  13
ENDBRANCH   1  12
TORSDOF 5
