REMARK  5 active torsions:
REMARK  status: ('A' for Active; 'I' for Inactive)
REMARK    1  A    between atoms: N1_5  and  C5_6 
REMARK    2  A    between atoms: C5_6  and  C6_7 
REMARK    3  A    between atoms: C5_6  and  C15_19 
REMARK    4  A    between atoms: C12_13  and  O1_14 
REMARK    5  A    between atoms: N5_26  and  C16_27 
ROOT
HETATM    1  C5  UNL     1      -0.528   0.176   0.003  1.00  0.00     0.326 C 
ENDROOT
BRANCH   1   2
HETATM    2  N1  UNL     1      -0.191   1.508  -0.407  1.00  0.00     0.104 N 
HETATM    3  C4  UNL     1       0.350   2.264   0.679  1.00  0.00     0.274 C 
HETATM    4  C3  UNL     1       1.063   3.470   0.094  1.00  0.00     0.034 C 
HETATM    5  C2  UNL     1       0.033   4.326  -0.604  1.00  0.00    -0.015 C 
HETATM    6  C1  UNL     1      -0.071   5.620   0.180  1.00  0.00     0.010 C 
HETATM    7  C22 UNL     1      -1.317   3.653  -0.592  1.00  0.00     0.034 C 
HETATM    8  C21 UNL     1      -1.244   2.216  -1.062  1.00  0.00     0.274 C 
ENDBRANCH   1   2
BRANCH   1   9
HETATM    9  C6  UNL     1       0.727  -0.474   0.487  1.00  0.00    -0.017 A 
HETATM   10  C7  UNL     1       0.720  -1.189   1.642  1.00  0.00     0.011 A 
HETATM   11  C8  UNL     1       1.869  -1.780   2.078  1.00  0.00     0.020 A 
HETATM   12  C9  UNL     1       3.018  -1.648   1.346  1.00  0.00     0.009 A 
HETATM   13  C10 UNL     1       3.083  -0.927   0.155  1.00  0.00    -0.012 A 
HETATM   14  S1  UNL     1       4.498  -2.424   1.931  1.00  0.00    -0.129 SA
HETATM   15  C11 UNL     1       1.900  -0.344  -0.253  1.00  0.00     0.021 A 
HETATM   16  C12 UNL     1       4.298  -0.773  -0.643  1.00  0.00     0.153 C 
HETATM   17  C13 UNL     1       5.135  -2.020  -0.727  1.00  0.00     0.047 C 
HETATM   18  C14 UNL     1       5.675  -2.483   0.577  1.00  0.00     0.082 C 
BRANCH  16  19
HETATM   19  O1  UNL     1       5.037   0.319  -0.171  1.00  0.00    -0.391 OA
ATOM     20  H1  UNL     1       5.827   0.419  -0.690  1.00  0.00     0.210 HD
ENDBRANCH  16  19
ENDBRANCH   1   9
BRANCH   1  21
HETATM   21  C15 UNL     1      -1.112  -0.639  -1.064  1.00  0.00     0.154 A 
HETATM   22  N2  UNL     1      -0.717  -0.770  -2.332  1.00  0.00    -0.270 N 
HETATM   23  N3  UNL     1      -1.519  -1.611  -2.984  1.00  0.00    -0.227 N 
ATOM     24  H2  UNL     1       0.085  -0.294  -2.744  1.00  0.00     0.190 HD
HETATM   25  N4  UNL     1      -2.423  -2.008  -2.117  1.00  0.00    -0.224 N 
ATOM     26  H3  UNL     1      -1.446  -1.891  -3.962  1.00  0.00     0.210 HD
HETATM   27  N5  UNL     1      -2.202  -1.436  -0.944  1.00  0.00    -0.256 N 
ATOM     28  H4  UNL     1      -3.182  -2.660  -2.318  1.00  0.00     0.210 HD
BRANCH  27  29
HETATM   29  C16 UNL     1      -3.033  -1.678   0.213  1.00  0.00     0.111 C 
HETATM   30  C17 UNL     1      -4.471  -1.297  -0.015  1.00  0.00     0.027 C 
HETATM   31  C18 UNL     1      -5.253  -2.565  -0.175  1.00  0.00     0.002 C 
HETATM   32  C19 UNL     1      -4.503  -3.530   0.716  1.00  0.00     0.002 C 
HETATM   33  C20 UNL     1      -3.049  -3.166   0.560  1.00  0.00     0.027 C 
ENDBRANCH  27  29
ENDBRANCH   1  21
TORSDOF 5
