REMARK  1 active torsions:
REMARK  status: ('A' for Active; 'I' for Inactive)
REMARK    1  A    between atoms: N2_3  and  C2_5 
ROOT
HETATM    1  N1  UNL     1       3.902   0.185   1.305  1.00  0.00    -0.172 NA
HETATM    2  C1  UNL     1       3.028  -0.061   0.580  1.00  0.00     0.177 C 
HETATM    3  N2  UNL     1       1.982  -0.379  -0.291  1.00  0.00    -0.323 N 
ATOM      4  H2  UNL     1       2.190  -0.886  -1.151  1.00  0.00     0.172 HD
ENDROOT
BRANCH   3   5
HETATM    5  C2  UNL     1       0.630  -0.013  -0.009  1.00  0.00     0.101 C 
HETATM    6  C3  UNL     1      -0.349  -0.438  -1.055  1.00  0.00     0.027 C 
HETATM    7  C4  UNL     1      -1.615  -0.892  -0.336  1.00  0.00     0.012 C 
HETATM    8  C5  UNL     1      -1.974   0.003   0.810  1.00  0.00     0.074 C 
HETATM    9  S1  UNL     1      -1.315   1.689   0.604  1.00  0.00    -0.167 SA
HETATM   10  C6  UNL     1       0.460   1.501   0.164  1.00  0.00     0.099 C 
ENDBRANCH   3   5
TORSDOF 1
