REMARK  2 active torsions:
REMARK  status: ('A' for Active; 'I' for Inactive)
REMARK    1  A    between atoms: C2_3  and  O1_4 
REMARK    2  A    between atoms: O1_4  and  O2_5 
ROOT
HETATM    1  N1  UNL     1       1.710   0.072  -2.877  1.00  0.00    -0.194 NA
HETATM    2  C1  UNL     1       1.351   0.195  -1.782  1.00  0.00     0.101 C 
HETATM    3  C2  UNL     1       0.901   0.342  -0.379  1.00  0.00     0.183 C 
HETATM    4  C3  UNL     1       0.539  -0.983   0.160  1.00  0.00     0.057 C 
HETATM    5  C4  UNL     1      -0.882  -1.362   0.133  1.00  0.00     0.004 C 
HETATM    6  C5  UNL     1      -1.866  -0.287   0.404  1.00  0.00     0.000 C 
HETATM    7  C6  UNL     1      -1.309   1.075   0.566  1.00  0.00     0.004 C 
HETATM    8  C7  UNL     1      -0.148   1.392  -0.316  1.00  0.00     0.057 C 
ENDROOT
BRANCH   3   9
HETATM    9  O1  UNL     1       2.047   0.791   0.321  1.00  0.00    -0.217 OA
BRANCH   9  10
HETATM   10  O2  UNL     1       3.018  -0.098   0.213  1.00  0.00    -0.249 OA
ATOM     11  H2  UNL     1       3.787   0.203   0.683  1.00  0.00     0.253 HD
ENDBRANCH   9  10
ENDBRANCH   3   9
TORSDOF 2
