REMARK  9 active torsions:
REMARK  status: ('A' for Active; 'I' for Inactive)
REMARK    1  A    between atoms: C2_2  and  N1_3 
REMARK    2  A    between atoms: C2_2  and  C13_19 
REMARK    3  A    between atoms: N1_3  and  C3_4 
REMARK    4  A    between atoms: N1_3  and  C7_8 
REMARK    5  A    between atoms: C3_4  and  C4_5 
REMARK    6  A    between atoms: C8_13  and  C9_14 
REMARK    7  A    between atoms: C13_19  and  N4_22 
REMARK    8  A    between atoms: N4_22  and  C14_25 
REMARK    9  A    between atoms: C21_32  and  O2_33 
ROOT
HETATM    1  C1  UNL     1      -1.038  -0.748   2.342  1.00  0.00     0.040 C 
HETATM    2  C2  UNL     1      -0.310  -0.706   0.939  1.00  0.00     0.186 C 
ENDROOT
BRANCH   2   3
HETATM    3  N1  UNL     1      -1.309  -0.687  -0.051  1.00  0.00    -0.333 N 
BRANCH   3   4
HETATM    4  C3  UNL     1      -1.648  -1.764  -0.998  1.00  0.00     0.132 C 
BRANCH   4   5
HETATM    5  C4  UNL     1      -2.215  -2.940  -0.293  1.00  0.00     0.004 A 
HETATM    6  C5  UNL     1      -2.758  -4.086  -1.162  1.00  0.00     0.007 A 
HETATM    7  C6  UNL     1      -3.672  -3.280  -0.275  1.00  0.00     0.007 A 
ENDBRANCH   4   5
ENDBRANCH   3   4
BRANCH   3   8
HETATM    8  C7  UNL     1      -2.230   0.429  -0.169  1.00  0.00     0.243 A 
HETATM    9  N2  UNL     1      -1.949   1.617  -0.664  1.00  0.00    -0.263 N 
HETATM   10  N3  UNL     1      -3.098   2.320  -0.587  1.00  0.00    -0.279 N 
ATOM     11  H2  UNL     1      -1.052   1.938  -1.029  1.00  0.00     0.190 HD
HETATM   12  C8  UNL     1      -4.026   1.547  -0.058  1.00  0.00     0.149 A 
ATOM     13  H3  UNL     1      -3.227   3.286  -0.887  1.00  0.00     0.189 HD
HETATM   14  O1  UNL     1      -3.507   0.373   0.206  1.00  0.00    -0.263 OA
BRANCH  12  15
HETATM   15  C9  UNL     1      -5.467   1.915   0.213  1.00  0.00     0.016 C 
HETATM   16  C10 UNL     1      -5.851   1.228   1.497  1.00  0.00     0.023 C 
HETATM   17  C11 UNL     1      -6.272   1.368  -0.963  1.00  0.00     0.023 C 
HETATM   18  C12 UNL     1      -5.571   3.396   0.275  1.00  0.00     0.023 C 
ENDBRANCH  12  15
ENDBRANCH   3   8
ENDBRANCH   2   3
BRANCH   2  19
HETATM   19  C13 UNL     1       0.579   0.490   1.056  1.00  0.00     0.424 C 
HETATM   20  F1  UNL     1       1.334   0.076   2.281  1.00  0.00    -0.173 F 
HETATM   21  F2  UNL     1      -0.061   1.629   1.401  1.00  0.00    -0.173 F 
BRANCH  19  22
HETATM   22  N4  UNL     1       1.595   0.700   0.090  1.00  0.00    -0.002 N 
ATOM     23  H42 UNL     1       1.252   0.509  -0.851  1.00  0.00     0.284 HD
ATOM     24  H41 UNL     1       1.806   1.693  -0.011  1.00  0.00     0.284 HD
BRANCH  22  25
HETATM   25  C14 UNL     1       2.803  -0.068   0.376  1.00  0.00     0.201 C 
HETATM   26  C15 UNL     1       3.523  -0.604  -0.801  1.00  0.00     0.020 C 
HETATM   27  C16 UNL     1       4.097   0.457  -1.718  1.00  0.00     0.011 C 
HETATM   28  C23 UNL     1       4.736  -1.406  -0.323  1.00  0.00     0.044 C 
HETATM   29  C17 UNL     1       5.017   1.375  -0.926  1.00  0.00    -0.011 C 
HETATM   30  C18 UNL     1       4.186   1.993   0.152  1.00  0.00     0.011 C 
HETATM   31  C22 UNL     1       6.165   0.585  -0.331  1.00  0.00     0.042 C 
HETATM   32  C19 UNL     1       3.753   0.888   1.113  1.00  0.00     0.020 C 
HETATM   33  C20 UNL     1       4.875   0.081   1.668  1.00  0.00     0.044 C 
HETATM   34  C21 UNL     1       5.642  -0.535   0.513  1.00  0.00     0.059 C 
BRANCH  34  35
HETATM   35  O2  UNL     1       6.648  -1.291   1.056  1.00  0.00    -0.390 OA
ATOM     36  H2  UNL     1       7.128  -1.677   0.333  1.00  0.00     0.210 HD
ENDBRANCH  34  35
ENDBRANCH  22  25
ENDBRANCH  19  22
ENDBRANCH   2  19
TORSDOF 9
