REMARK  11 active torsions:
REMARK  status: ('A' for Active; 'I' for Inactive)
REMARK    1  A    between atoms: N1_1  and  C1_4 
REMARK    2  A    between atoms: C2_7  and  C3_8 
REMARK    3  A    between atoms: C3_8  and  S1_9 
REMARK    4  A    between atoms: S1_9  and  C4_10 
REMARK    5  A    between atoms: C4_10  and  C5_11 
REMARK    6  A    between atoms: C5_11  and  N3_12 
REMARK    7  A    between atoms: C11_20  and  N5_21 
REMARK    8  A    between atoms: N5_21  and  C12_23 
REMARK    9  A    between atoms: C12_23  and  C13_24 
REMARK   10  A    between atoms: C13_24  and  C14_25 
REMARK   11  A    between atoms: C14_25  and  N6_26 
ROOT
HETATM    1  C1  UNL     1       1.534  -3.737  -0.879  1.00  0.00     0.677 A 
HETATM    2  N2  UNL     1       0.647  -3.701   0.124  1.00  0.00    -0.195 N 
ATOM      3  H2  UNL     1       0.185  -4.567   0.400  1.00  0.00     0.184 HD
HETATM    4  C2  UNL     1       0.342  -2.568   0.781  1.00  0.00     0.039 A 
HETATM    5  C10 UNL     1       0.999  -1.406   0.369  1.00  0.00     0.075 A 
HETATM    6  C11 UNL     1       1.903  -1.420  -0.646  1.00  0.00     0.118 A 
HETATM    7  N7  UNL     1       2.144  -2.594  -1.243  1.00  0.00    -0.177 N 
ATOM      8  H7  UNL     1       2.819  -2.623  -2.007  1.00  0.00     0.185 HD
ENDROOT
BRANCH   4   9
HETATM    9  C3  UNL     1      -0.634  -2.517   1.887  1.00  0.00     0.131 C 
BRANCH   9  10
HETATM   10  S1  UNL     1      -2.316  -2.201   1.260  1.00  0.00    -0.161 SA
BRANCH  10  11
HETATM   11  C4  UNL     1      -2.379  -0.565   0.535  1.00  0.00     0.104 C 
BRANCH  11  12
HETATM   12  C5  UNL     1      -2.181   0.488   1.572  1.00  0.00     0.282 C 
BRANCH  12  13
HETATM   13  N3  UNL     1      -2.213   1.826   1.062  1.00  0.00     0.092 N 
HETATM   14  C6  UNL     1      -2.012   2.765   2.114  1.00  0.00     0.291 C 
HETATM   15  C7  UNL     1      -3.260   3.200   2.806  1.00  0.00     0.144 C 
HETATM   16  N4  UNL     1      -4.419   2.443   2.504  1.00  0.00    -0.418 N 
HETATM   17  C8  UNL     1      -4.605   2.118   1.130  1.00  0.00     0.144 C 
ATOM     18  H4  UNL     1      -5.078   2.149   3.225  1.00  0.00     0.153 HD
HETATM   19  C9  UNL     1      -3.371   2.154   0.295  1.00  0.00     0.291 C 
ENDBRANCH  12  13
ENDBRANCH  11  12
ENDBRANCH  10  11
ENDBRANCH   9  10
ENDBRANCH   4   9
BRANCH   1  20
HETATM   20  N1  UNL     1       1.798  -4.830  -1.500  1.00  0.00    -0.234 N 
ATOM     21  H12 UNL     1       1.336  -5.696  -1.224  1.00  0.00     0.174 HD
ATOM     22  H11 UNL     1       2.473  -4.857  -2.264  1.00  0.00     0.174 HD
ENDBRANCH   1  20
BRANCH   6  23
HETATM   23  N5  UNL     1       2.475  -0.315  -0.996  1.00  0.00    -0.376 N 
ATOM     24  H5  UNL     1       2.267   0.567  -0.528  1.00  0.00     0.161 HD
BRANCH  23  25
HETATM   25  C12 UNL     1       3.438  -0.392  -2.099  1.00  0.00     0.123 C 
BRANCH  25  26
HETATM   26  C13 UNL     1       4.080   0.976  -2.299  1.00  0.00     0.047 C 
BRANCH  26  27
HETATM   27  C14 UNL     1       5.054   0.851  -3.445  1.00  0.00     0.231 C 
BRANCH  27  28
HETATM   28  N6  UNL     1       4.257   0.441  -4.602  1.00  0.00    -0.079 N 
ATOM     29  H63 UNL     1       3.706  -0.402  -4.440  1.00  0.00     0.274 HD
ATOM     30  H62 UNL     1       3.473   1.063  -4.799  1.00  0.00     0.274 HD
ATOM     31  H61 UNL     1       4.915   0.357  -5.377  1.00  0.00     0.274 HD
ENDBRANCH  27  28
ENDBRANCH  26  27
ENDBRANCH  25  26
ENDBRANCH  23  25
ENDBRANCH   6  23
TORSDOF 11
