REMARK  14 active torsions:
REMARK  status: ('A' for Active; 'I' for Inactive)
REMARK    1  A    between atoms: C2_2  and  O1_5 
REMARK    2  A    between atoms: O1_5  and  C5_6 
REMARK       I    between atoms: C5_6  and  N1_8 
REMARK    3  A    between atoms: N1_8  and  C6_9 
REMARK    4  A    between atoms: C6_9  and  N2_11 
REMARK    5  A    between atoms: C7_13  and  C8_14 
REMARK    6  A    between atoms: C7_13  and  C15_27 
REMARK    7  A    between atoms: C8_14  and  C9_15 
REMARK    8  A    between atoms: C10_16  and  C11_17 
REMARK    9  A    between atoms: C10_16  and  C12_20 
REMARK   10  A    between atoms: C11_17  and  O3_18 
REMARK   11  A    between atoms: C12_20  and  C13_21 
REMARK   12  A    between atoms: C13_21  and  C14_23 
REMARK   13  A    between atoms: C15_27  and  C16_28 
REMARK   14  A    between atoms: C16_28  and  C17_29 
ROOT
HETATM    1  N2  UNL     1       1.383  -0.870   0.774  1.00  0.00    -0.329 N 
ATOM      2  H2  UNL     1       1.276  -1.821   0.422  1.00  0.00     0.169 HD
HETATM    3  C7  UNL     1       0.367  -0.101   1.039  1.00  0.00    -0.007 C 
ENDROOT
BRANCH   3   4
HETATM    4  C8  UNL     1       0.574   1.268   1.551  1.00  0.00     0.079 C 
BRANCH   4   5
HETATM    5  C9  UNL     1       0.004   2.286   0.672  1.00  0.00    -0.016 C 
HETATM    6  C10 UNL     1      -1.005   3.098   0.951  1.00  0.00    -0.053 C 
BRANCH   6   7
HETATM    7  C11 UNL     1      -1.672   3.011   2.268  1.00  0.00     0.198 C 
BRANCH   7   8
HETATM    8  O3  UNL     1      -3.018   2.682   2.195  1.00  0.00    -0.397 OA
ATOM      9  H3  UNL     1      -3.446   2.626   3.041  1.00  0.00     0.209 HD
ENDBRANCH   7   8
ENDBRANCH   6   7
BRANCH   6  10
HETATM   10  C12 UNL     1      -1.296   4.166  -0.030  1.00  0.00     0.124 C 
BRANCH  10  11
HETATM   11  C13 UNL     1      -2.562   4.191  -0.713  1.00  0.00     0.236 C 
HETATM   12  O4  UNL     1      -2.637   3.520  -1.783  1.00  0.00    -0.288 OA
BRANCH  11  13
HETATM   13  C14 UNL     1      -3.764   4.901  -0.320  1.00  0.00     0.451 C 
HETATM   14  F1  UNL     1      -4.881   4.067  -0.240  1.00  0.00    -0.163 F 
HETATM   15  F2  UNL     1      -3.639   5.583   0.870  1.00  0.00    -0.163 F 
HETATM   16  F3  UNL     1      -4.046   5.899  -1.284  1.00  0.00    -0.163 F 
ENDBRANCH  11  13
ENDBRANCH  10  11
ENDBRANCH   6  10
ENDBRANCH   4   5
ENDBRANCH   3   4
BRANCH   3  17
HETATM   17  C15 UNL     1      -1.030  -0.543   0.755  1.00  0.00     0.053 C 
BRANCH  17  18
HETATM   18  C16 UNL     1      -1.146  -2.031   0.512  1.00  0.00     0.011 C 
BRANCH  18  19
HETATM   19  C17 UNL     1      -2.575  -2.331   0.110  1.00  0.00     0.000 C 
HETATM   20  C18 UNL     1      -2.908  -1.621  -1.176  1.00  0.00     0.079 C 
HETATM   21  S2  UNL     1      -4.264  -2.687  -1.838  1.00  0.00    -0.163 SA
HETATM   22  C19 UNL     1      -4.343  -3.831  -0.409  1.00  0.00     0.051 C 
HETATM   23  C20 UNL     1      -4.694  -5.202  -0.796  1.00  0.00     0.015 C 
HETATM   24  C24 UNL     1      -2.849  -3.771  -0.062  1.00  0.00     0.004 C 
HETATM   25  C21 UNL     1      -3.634  -6.185  -0.413  1.00  0.00     0.001 C 
HETATM   26  C22 UNL     1      -3.050  -5.995   0.964  1.00  0.00     0.000 C 
HETATM   27  C23 UNL     1      -2.789  -4.538   1.261  1.00  0.00     0.006 C 
ENDBRANCH  18  19
ENDBRANCH  17  18
ENDBRANCH   3  17
BRANCH   1  28
HETATM   28  C6  UNL     1       2.743  -0.238   1.031  1.00  0.00     0.255 C 
HETATM   29  S1  UNL     1       3.159  -0.437   2.688  1.00  0.00    -0.025 SA
BRANCH  28  30
HETATM   30  N1  UNL     1       3.405   0.287   0.246  1.00  0.00    -0.316 NA
HETATM   31  C5  UNL     1       4.296   0.993  -0.812  1.00  0.00     0.443 C 
HETATM   32  O2  UNL     1       3.926   1.085  -1.944  1.00  0.00    -0.221 OA
BRANCH  31  33
HETATM   33  O1  UNL     1       5.475   1.470  -0.352  1.00  0.00    -0.282 OA
BRANCH  33  34
HETATM   34  C2  UNL     1       6.415   2.146  -1.156  1.00  0.00     0.062 C 
HETATM   35  C1  UNL     1       7.658   2.589  -0.430  1.00  0.00     0.046 C 
HETATM   36  C3  UNL     1       5.759   3.412  -1.659  1.00  0.00     0.046 C 
HETATM   37  C4  UNL     1       6.830   1.324  -2.354  1.00  0.00     0.046 C 
ENDBRANCH  33  34
ENDBRANCH  31  33
ENDBRANCH  28  30
ENDBRANCH   1  28
TORSDOF 14
