REMARK  19 active torsions:
REMARK  status: ('A' for Active; 'I' for Inactive)
REMARK    1  A    between atoms: C2_2  and  N1_3 
REMARK    2  A    between atoms: C2_2  and  C11_23 
REMARK    3  A    between atoms: N1_3  and  C3_5 
REMARK    4  A    between atoms: C3_5  and  O1_6 
REMARK    5  A    between atoms: C3_5  and  C4_8 
REMARK    6  A    between atoms: C5_11  and  C6_12 
REMARK    7  A    between atoms: C6_12  and  C7_13 
REMARK    8  A    between atoms: C8_16  and  O4_17 
REMARK    9  A    between atoms: C10_20  and  O5_21 
REMARK       I    between atoms: C11_23  and  N3_25 
REMARK   10  A    between atoms: N3_25  and  C12_27 
REMARK   11  A    between atoms: C12_27  and  O7_28 
REMARK   12  A    between atoms: C12_27  and  C13_30 
REMARK   13  A    between atoms: C13_30  and  N4_31 
REMARK   14  A    between atoms: C13_30  and  C19_40 
REMARK       I    between atoms: N4_31  and  C14_33 
REMARK   15  A    between atoms: C14_33  and  O9_35 
REMARK   16  A    between atoms: O9_35  and  C15_36 
REMARK   17  A    between atoms: C19_40  and  C22_43 
REMARK   18  A    between atoms: C23_44  and  C24_45 
REMARK   19  A    between atoms: C31_52  and  O10_53 
ROOT
HETATM    1  C12 UNL     1      -0.651   0.517   0.680  1.00  0.00     0.142 C 
ENDROOT
BRANCH   1   2
HETATM    2  N3  UNL     1      -0.325  -0.488  -0.210  1.00  0.00    -0.308 N 
HETATM    3  C11 UNL     1       0.801  -1.285  -0.357  1.00  0.00     0.245 C 
HETATM    4  O6  UNL     1       0.761  -2.243  -1.206  1.00  0.00    -0.271 OA
ATOM      5  H3  UNL     1      -1.056  -0.682  -0.894  1.00  0.00     0.170 HD
BRANCH   3   6
HETATM    6  C2  UNL     1       2.095  -1.125   0.394  1.00  0.00     0.167 C 
HETATM    7  C1  UNL     1       2.683   0.228   0.041  1.00  0.00     0.042 C 
BRANCH   6   8
HETATM    8  N1  UNL     1       2.951  -2.183   0.158  1.00  0.00    -0.383 N 
ATOM      9  H1  UNL     1       2.617  -2.781  -0.598  1.00  0.00     0.156 HD
BRANCH   8  10
HETATM   10  C3  UNL     1       4.108  -2.623   0.669  1.00  0.00     0.239 C 
BRANCH  10  11
HETATM   11  O1  UNL     1       4.432  -3.918  -0.014  1.00  0.00    -0.375 OA
ATOM     12  H1  UNL     1       5.253  -4.230   0.349  1.00  0.00     0.212 HD
ENDBRANCH  10  11
BRANCH  10  13
HETATM   13  C4  UNL     1       5.390  -1.902   0.555  1.00  0.00     0.154 C 
HETATM   14  N2  UNL     1       5.490  -0.644   1.135  1.00  0.00    -0.404 N 
HETATM   15  C5  UNL     1       6.784  -0.011   1.099  1.00  0.00     0.116 C 
ATOM     16  H2  UNL     1       4.685  -0.189   1.566  1.00  0.00     0.154 HD
HETATM   17  C8  UNL     1       7.343  -0.070  -0.265  1.00  0.00     0.143 C 
HETATM   18  C9  UNL     1       6.438  -0.649  -1.333  1.00  0.00     0.067 C 
HETATM   19  C10 UNL     1       5.830  -1.951  -0.914  1.00  0.00     0.147 C 
BRANCH  15  20
HETATM   20  C6  UNL     1       7.697  -0.537   2.191  1.00  0.00     0.140 C 
BRANCH  20  21
HETATM   21  C7  UNL     1       9.029   0.066   2.178  1.00  0.00     0.174 C 
HETATM   22  O2  UNL     1       9.934  -0.538   1.551  1.00  0.00    -0.648 OA
HETATM   23  O3  UNL     1       9.373   1.248   2.801  1.00  0.00    -0.648 OA
ENDBRANCH  20  21
ENDBRANCH  15  20
BRANCH  17  24
HETATM   24  O4  UNL     1       7.696   1.190  -0.718  1.00  0.00    -0.393 OA
ATOM     25  H4  UNL     1       8.056   1.152  -1.596  1.00  0.00     0.210 HD
ENDBRANCH  17  24
BRANCH  19  26
HETATM   26  O5  UNL     1       4.725  -2.212  -1.713  1.00  0.00    -0.393 OA
ATOM     27  H5  UNL     1       4.997  -2.242  -2.623  1.00  0.00     0.210 HD
ENDBRANCH  19  26
ENDBRANCH  10  13
ENDBRANCH   8  10
ENDBRANCH   6   8
ENDBRANCH   3   6
ENDBRANCH   1   2
BRANCH   1  28
HETATM   28  O7  UNL     1       0.214   0.728   1.643  1.00  0.00    -0.348 OA
ATOM     29  H7  UNL     1      -0.010   1.419   2.255  1.00  0.00     0.219 HD
ENDBRANCH   1  28
BRANCH   1  30
HETATM   30  C13 UNL     1      -1.827   1.416   0.720  1.00  0.00     0.173 C 
BRANCH  30  31
HETATM   31  N4  UNL     1      -1.314   2.736   1.006  1.00  0.00    -0.324 N 
HETATM   32  C14 UNL     1      -1.839   3.783   1.730  1.00  0.00     0.362 C 
HETATM   33  O8  UNL     1      -2.949   3.784   2.279  1.00  0.00    -0.238 OA
ATOM     34  H4  UNL     1      -0.399   2.927   0.598  1.00  0.00     0.165 HD
BRANCH  32  35
HETATM   35  O9  UNL     1      -1.088   4.970   1.885  1.00  0.00    -0.294 OA
BRANCH  35  36
HETATM   36  C15 UNL     1      -1.673   6.046   2.576  1.00  0.00     0.061 C 
HETATM   37  C16 UNL     1      -0.642   7.143   2.731  1.00  0.00     0.046 C 
HETATM   38  C17 UNL     1      -2.301   5.707   3.874  1.00  0.00     0.046 C 
HETATM   39  C18 UNL     1      -2.742   6.689   1.642  1.00  0.00     0.046 C 
ENDBRANCH  35  36
ENDBRANCH  32  35
ENDBRANCH  30  31
BRANCH  30  40
HETATM   40  C19 UNL     1      -2.765   1.307  -0.424  1.00  0.00    -0.002 C 
HETATM   41  C20 UNL     1      -2.194   1.581  -1.772  1.00  0.00     0.021 C 
HETATM   42  C21 UNL     1      -4.029   2.153  -0.246  1.00  0.00     0.021 C 
BRANCH  40  43
HETATM   43  C22 UNL     1      -3.325  -0.111  -0.439  1.00  0.00    -0.019 C 
HETATM   44  C23 UNL     1      -4.139  -0.500  -1.387  1.00  0.00    -0.023 C 
BRANCH  44  45
HETATM   45  C24 UNL     1      -4.723  -1.844  -1.495  1.00  0.00     0.036 C 
HETATM   46  C25 UNL     1      -4.603  -2.335  -2.914  1.00  0.00     0.011 C 
HETATM   47  C26 UNL     1      -5.939  -2.932  -3.381  1.00  0.00     0.001 C 
HETATM   48  C27 UNL     1      -5.775  -4.384  -3.654  1.00  0.00     0.000 C 
HETATM   49  C28 UNL     1      -5.968  -5.310  -2.507  1.00  0.00     0.000 C 
HETATM   50  C29 UNL     1      -5.770  -4.694  -1.142  1.00  0.00     0.002 C 
HETATM   51  C30 UNL     1      -4.350  -4.262  -0.871  1.00  0.00     0.032 C 
HETATM   52  C31 UNL     1      -4.252  -2.804  -0.454  1.00  0.00     0.126 C 
BRANCH  52  53
HETATM   53  O10 UNL     1      -4.860  -2.637   0.781  1.00  0.00    -0.395 OA
ATOM     54  H10 UNL     1      -4.560  -3.248   1.444  1.00  0.00     0.210 HD
ENDBRANCH  52  53
ENDBRANCH  44  45
ENDBRANCH  40  43
ENDBRANCH  30  40
ENDBRANCH   1  30
TORSDOF 19
