REMARK  4 active torsions:
REMARK  status: ('A' for Active; 'I' for Inactive)
REMARK    1  A    between atoms: N1_1  and  N2_4 
REMARK    2  A    between atoms: C3_9  and  C4_10 
REMARK    3  A    between atoms: C4_10  and  O1_11 
REMARK    4  A    between atoms: C4_10  and  C5_13 
ROOT
HETATM    1  C4  UNL     1       0.171  -0.679   0.801  1.00  0.00     0.243 C 
ENDROOT
BRANCH   1   2
HETATM    2  C3  UNL     1      -1.020  -0.092   0.147  1.00  0.00     0.129 C 
HETATM    3  N2  UNL     1      -2.360  -0.311   0.543  1.00  0.00    -0.283 N 
HETATM    4  C1  UNL     1      -3.096   0.813   0.011  1.00  0.00     0.169 C 
HETATM    5  C2  UNL     1      -2.326   1.077  -1.259  1.00  0.00     0.143 C 
HETATM    6  N3  UNL     1      -0.982   0.702  -0.885  1.00  0.00    -0.374 N 
ATOM      7  H3  UNL     1      -0.133   1.012  -1.357  1.00  0.00     0.161 HD
BRANCH   3   8
HETATM    8  N1  UNL     1      -2.901  -1.353   1.278  1.00  0.00    -0.342 N 
ATOM      9  H12 UNL     1      -3.867  -1.511   1.564  1.00  0.00     0.177 HD
ATOM     10  H11 UNL     1      -2.381  -2.146   1.654  1.00  0.00     0.177 HD
ENDBRANCH   3   8
ENDBRANCH   1   2
BRANCH   1  11
HETATM   11  O1  UNL     1       0.255  -0.295   2.132  1.00  0.00    -0.382 OA
ATOM     12  H1  UNL     1       1.019  -0.672   2.552  1.00  0.00     0.211 HD
ENDBRANCH   1  11
BRANCH   1  13
HETATM   13  C5  UNL     1       1.428  -0.244   0.143  1.00  0.00     0.130 A 
HETATM   14  N4  UNL     1       1.688   1.015  -0.219  1.00  0.00    -0.293 N 
HETATM   15  N5  UNL     1       2.842   1.334  -0.807  1.00  0.00    -0.251 N 
ATOM     16  H4  UNL     1       0.995   1.742  -0.043  1.00  0.00     0.187 HD
HETATM   17  C6  UNL     1       3.792   0.395  -1.060  1.00  0.00     0.341 A 
ATOM     18  H5  UNL     1       3.015   2.303  -1.073  1.00  0.00     0.191 HD
HETATM   19  O2  UNL     1       4.878   0.732  -1.620  1.00  0.00    -0.245 OA
HETATM   20  N6  UNL     1       3.565  -0.873  -0.711  1.00  0.00    -0.273 N 
HETATM   21  C7  UNL     1       2.409  -1.185  -0.123  1.00  0.00     0.276 A 
ATOM     22  H6  UNL     1       4.265  -1.593  -0.891  1.00  0.00     0.173 HD
HETATM   23  O3  UNL     1       2.198  -2.398   0.208  1.00  0.00    -0.266 OA
ENDBRANCH   1  13
TORSDOF 4
