REMARK  1 active torsions:
REMARK  status: ('A' for Active; 'I' for Inactive)
REMARK    1  A    between atoms: C2_2  and  C4_4 
REMARK       I    between atoms: N1_6  and  C6_7 
ROOT
HETATM    1  C4  UNL     1      -0.268  -0.037  -0.407  1.00  0.00     0.025 C 
HETATM    2  C5  UNL     1       0.603   0.435   0.743  1.00  0.00     0.133 C 
HETATM    3  N1  UNL     1       1.678  -0.233   0.060  1.00  0.00    -0.336 N 
HETATM    4  C6  UNL     1       3.046  -0.024  -0.134  1.00  0.00     0.330 C 
HETATM    5  N2  UNL     1       3.778   1.067   0.386  1.00  0.00    -0.040 NA
HETATM    6  O1  UNL     1       3.704  -0.856  -0.821  1.00  0.00    -0.251 OA
HETATM    7  C7  UNL     1       0.709  -1.215  -0.333  1.00  0.00     0.133 C 
ENDROOT
BRANCH   1   8
HETATM    8  C2  UNL     1      -1.651  -0.337   0.059  1.00  0.00    -0.015 C 
HETATM    9  C1  UNL     1      -2.542  -0.810  -1.063  1.00  0.00     0.010 C 
HETATM   10  C3  UNL     1      -2.229   0.936   0.649  1.00  0.00     0.010 C 
ENDBRANCH   1   8
TORSDOF 1
