REMARK  3 active torsions:
REMARK  status: ('A' for Active; 'I' for Inactive)
REMARK    1  A    between atoms: C3_3  and  C4_4 
REMARK    2  A    between atoms: C4_4  and  N1_5 
REMARK    3  A    between atoms: C9_10  and  C10_11 
ROOT
HETATM    1  C1  UNL     1       3.942  -0.209   0.180  1.00  0.00     0.112 C 
HETATM    2  C2  UNL     1       2.500  -0.050   0.005  1.00  0.00    -0.108 C 
HETATM    3  C3  UNL     1       1.269   0.066  -0.106  1.00  0.00    -0.064 C 
ENDROOT
BRANCH   3   4
HETATM    4  C4  UNL     1      -0.214   0.138  -0.209  1.00  0.00     0.237 A 
HETATM    5  C7  UNL     1      -0.899  -0.582  -1.267  1.00  0.00     0.050 A 
HETATM    6  C8  UNL     1      -0.048  -0.996  -2.451  1.00  0.00     0.014 C 
HETATM    7  C9  UNL     1      -0.786  -1.315   0.023  1.00  0.00     0.134 A 
BRANCH   4   8
HETATM    8  N1  UNL     1      -0.773   1.214   0.533  1.00  0.00     0.102 N 
HETATM    9  C5  UNL     1      -1.906   1.891  -0.063  1.00  0.00     0.311 C 
HETATM   10  C6  UNL     1       0.153   2.251   0.908  1.00  0.00     0.311 C 
ENDBRANCH   4   8
BRANCH   7  11
HETATM   11  C10 UNL     1      -1.819  -1.458   1.031  1.00  0.00     0.239 C 
HETATM   12  N2  UNL     1      -1.605  -2.413   2.078  1.00  0.00    -0.062 NA
HETATM   13  O1  UNL     1      -2.892  -0.813   1.061  1.00  0.00    -0.276 OA
ENDBRANCH   7  11
ENDBRANCH   3   4
TORSDOF 3
