REMARK  1 active torsions:
REMARK  status: ('A' for Active; 'I' for Inactive)
REMARK       I    between atoms: N1_2  and  C3_4 
REMARK       I    between atoms: C3_4  and  N2_6 
REMARK    1  A    between atoms: N2_6  and  C4_8 
ROOT
HETATM    1  C4  UNL     1      -0.301  -0.135   0.006  1.00  0.00     0.069 C 
HETATM    2  C5  UNL     1      -0.624   0.116  -1.452  1.00  0.00     0.039 C 
HETATM    3  C6  UNL     1      -1.790   1.079  -1.451  1.00  0.00    -0.011 C 
HETATM    4  C7  UNL     1      -3.034   0.299  -1.193  1.00  0.00     0.009 C 
HETATM    5  C8  UNL     1      -2.993  -0.506   0.080  1.00  0.00    -0.011 C 
HETATM    6  C9  UNL     1      -2.166  -1.756  -0.042  1.00  0.00     0.044 C 
HETATM    7  C10 UNL     1      -0.798  -1.445   0.530  1.00  0.00     0.199 C 
HETATM    8  F1  UNL     1       0.022  -2.510   0.391  1.00  0.00    -0.247 F 
HETATM    9  C11 UNL     1      -2.466   0.390   1.177  1.00  0.00     0.012 C 
HETATM   10  C12 UNL     1      -1.114   0.929   0.760  1.00  0.00     0.017 C 
HETATM   11  C13 UNL     1      -1.381   1.974  -0.300  1.00  0.00     0.012 C 
ENDROOT
BRANCH   1  12
HETATM   12  N2  UNL     1       1.084   0.117   0.258  1.00  0.00    -0.331 N 
HETATM   13  C3  UNL     1       2.164  -0.521  -0.431  1.00  0.00     0.318 C 
HETATM   14  N1  UNL     1       3.506  -0.226  -0.124  1.00  0.00    -0.343 N 
HETATM   15  O1  UNL     1       1.959  -1.372  -1.340  1.00  0.00    -0.247 OA
HETATM   16  C1  UNL     1       3.792   0.734   0.903  1.00  0.00     0.154 C 
HETATM   17  C2  UNL     1       4.572  -0.872  -0.823  1.00  0.00     0.154 C 
ATOM     18  H2  UNL     1       1.318   0.799   0.979  1.00  0.00     0.165 HD
ENDBRANCH   1  12
TORSDOF 1
