REMARK  5 active torsions:
REMARK  status: ('A' for Active; 'I' for Inactive)
REMARK    1  A    between atoms: N1_1  and  N2_4 
REMARK    2  A    between atoms: N2_4  and  C1_5 
REMARK    3  A    between atoms: C1_5  and  C2_6 
REMARK       I    between atoms: C2_6  and  N3_8 
REMARK    4  A    between atoms: C3_10  and  C4_11 
REMARK       I    between atoms: C4_11  and  N4_13 
REMARK    5  A    between atoms: N4_13  and  C5_15 
ROOT
HETATM    1  C4  UNL     1       0.077  -0.203  -0.433  1.00  0.00     0.275 C 
HETATM    2  O2  UNL     1       0.106   0.744  -1.250  1.00  0.00    -0.266 OA
HETATM    3  N4  UNL     1      -1.140  -0.930  -0.325  1.00  0.00    -0.155 N 
ATOM      4  H4  UNL     1      -1.105  -1.948  -0.386  1.00  0.00     0.187 HD
ENDROOT
BRANCH   1   5
HETATM    5  C3  UNL     1       1.215  -0.554   0.368  1.00  0.00     0.166 C 
HETATM    6  N3  UNL     1       2.322   0.096   0.279  1.00  0.00    -0.326 N 
HETATM    7  C2  UNL     1       3.474  -0.191   1.030  1.00  0.00     0.276 C 
ATOM      8  H3  UNL     1       2.366   0.872  -0.381  1.00  0.00     0.168 HD
HETATM    9  O1  UNL     1       3.461  -0.359   2.289  1.00  0.00    -0.265 OA
BRANCH   7  10
HETATM   10  C1  UNL     1       4.768  -0.312   0.372  1.00  0.00     0.282 C 
BRANCH  10  11
HETATM   11  N2  UNL     1       5.389   0.669  -0.092  1.00  0.00    -0.340 NA
BRANCH  11  12
HETATM   12  N1  UNL     1       5.742   1.581  -0.861  1.00  0.00    -0.281 N 
ATOM     13  H12 UNL     1       5.062   1.376  -1.593  1.00  0.00     0.191 HD
ATOM     14  H11 UNL     1       6.249   2.381  -1.240  1.00  0.00     0.191 HD
ENDBRANCH  11  12
ENDBRANCH  10  11
ENDBRANCH   7  10
ENDBRANCH   1   5
BRANCH   3  15
HETATM   15  C5  UNL     1      -2.266  -0.373  -0.157  1.00  0.00     0.684 A 
HETATM   16  N5  UNL     1      -3.443  -1.000  -0.048  1.00  0.00    -0.200 N 
HETATM   17  C6  UNL     1      -4.447  -0.096   0.123  1.00  0.00     0.123 A 
ATOM     18  H5  UNL     1      -3.570  -2.011  -0.087  1.00  0.00     0.183 HD
HETATM   19  C7  UNL     1      -3.824   1.133   0.115  1.00  0.00     0.123 A 
HETATM   20  N6  UNL     1      -2.494   0.945  -0.057  1.00  0.00    -0.200 N 
ATOM     21  H6  UNL     1      -1.787   1.679  -0.103  1.00  0.00     0.183 HD
ENDBRANCH   3  15
TORSDOF 5
