REMARK  10 active torsions:
REMARK  status: ('A' for Active; 'I' for Inactive)
REMARK    1  A    between atoms: C1_2  and  C2_4 
REMARK    2  A    between atoms: C6_8  and  C7_9 
REMARK    3  A    between atoms: C14_20  and  O4_21 
REMARK    4  A    between atoms: C14_20  and  C15_23 
REMARK    5  A    between atoms: C16_24  and  C17_25 
REMARK    6  A    between atoms: C18_26  and  C19_27 
REMARK    7  A    between atoms: C20_28  and  C21_29 
REMARK    8  A    between atoms: C21_29  and  C22_30 
REMARK    9  A    between atoms: C22_30  and  O5_31 
REMARK   10  A    between atoms: C23_33  and  C24_34 
ROOT
HETATM    1  C2  UNL     1      -1.456   2.676   0.226  1.00  0.00     0.102 C 
HETATM    2  C3  UNL     1      -0.237   1.798  -0.095  1.00  0.00     0.025 C 
HETATM    3  C4  UNL     1      -0.626   1.013  -1.296  1.00  0.00     0.038 C 
HETATM    4  C5  UNL     1      -2.157   0.959  -1.294  1.00  0.00     0.020 C 
HETATM    5  C6  UNL     1      -2.542  -0.447  -1.215  1.00  0.00     0.070 C 
HETATM    6  C13 UNL     1      -1.314  -1.271  -1.404  1.00  0.00     0.170 C 
HETATM    7  O3  UNL     1      -1.290  -2.462  -1.535  1.00  0.00    -0.294 OA
HETATM    8  C14 UNL     1      -0.131  -0.375  -1.403  1.00  0.00     0.140 C 
HETATM    9  C23 UNL     1      -2.641   1.924  -0.287  1.00  0.00     0.106 C 
ENDROOT
BRANCH   8  10
HETATM   10  O4  UNL     1       0.514  -0.506  -2.672  1.00  0.00    -0.378 OA
ATOM     11  H4  UNL     1       0.832  -1.398  -2.741  1.00  0.00     0.211 HD
ENDBRANCH   8  10
BRANCH   8  12
HETATM   12  C15 UNL     1       0.826  -0.833  -0.408  1.00  0.00     0.019 C 
HETATM   13  C16 UNL     1       2.088  -0.510  -0.260  1.00  0.00    -0.001 C 
BRANCH  13  14
HETATM   14  C17 UNL     1       2.806   0.412  -1.100  1.00  0.00    -0.000 C 
HETATM   15  C18 UNL     1       4.069   0.699  -0.916  1.00  0.00    -0.000 C 
BRANCH  15  16
HETATM   16  C19 UNL     1       4.854   0.118   0.144  1.00  0.00    -0.004 C 
HETATM   17  C20 UNL     1       6.147   0.459   0.274  1.00  0.00    -0.025 C 
BRANCH  17  18
HETATM   18  C21 UNL     1       6.942  -0.136   1.356  1.00  0.00     0.053 C 
BRANCH  18  19
HETATM   19  C22 UNL     1       8.096  -0.894   0.684  1.00  0.00     0.168 C 
BRANCH  19  20
HETATM   20  O5  UNL     1       7.588  -1.874  -0.149  1.00  0.00    -0.401 OA
ATOM     21  H5  UNL     1       8.302  -2.343  -0.565  1.00  0.00     0.209 HD
ENDBRANCH  19  20
ENDBRANCH  18  19
ENDBRANCH  17  18
ENDBRANCH  15  16
ENDBRANCH  13  14
ENDBRANCH   8  12
BRANCH   5  22
HETATM   22  C7  UNL     1      -3.264  -0.987  -0.051  1.00  0.00     0.026 C 
HETATM   23  C8  UNL     1      -2.522  -1.070   1.246  1.00  0.00     0.034 C 
HETATM   24  C9  UNL     1      -3.547  -1.157   2.353  1.00  0.00    -0.029 C 
HETATM   25  C10 UNL     1      -4.519  -2.076   2.428  1.00  0.00    -0.004 C 
HETATM   26  C11 UNL     1      -4.856  -3.191   1.522  1.00  0.00     0.259 C 
HETATM   27  N1  UNL     1      -5.066  -2.664   0.179  1.00  0.00    -0.072 N 
HETATM   28  C12 UNL     1      -3.732  -2.417  -0.366  1.00  0.00     0.238 C 
ATOM     29  H12 UNL     1      -5.642  -3.266  -0.410  1.00  0.00     0.277 HD
ATOM     30  H11 UNL     1      -5.675  -1.846   0.152  1.00  0.00     0.277 HD
ENDBRANCH   5  22
BRANCH   1  31
HETATM   31  C1  UNL     1      -1.163   3.985  -0.337  1.00  0.00     0.177 C 
HETATM   32  O1  UNL     1      -1.819   4.530  -1.211  1.00  0.00    -0.648 OA
HETATM   33  O2  UNL     1      -0.050   4.661   0.163  1.00  0.00    -0.648 OA
ENDBRANCH   1  31
BRANCH   9  34
HETATM   34  C24 UNL     1      -3.646   2.886  -0.827  1.00  0.00     0.178 C 
HETATM   35  O6  UNL     1      -3.936   2.988  -2.049  1.00  0.00    -0.648 OA
HETATM   36  O7  UNL     1      -4.292   3.710   0.078  1.00  0.00    -0.648 OA
ENDBRANCH   9  34
TORSDOF 10
