REMARK  6 active torsions:
REMARK  status: ('A' for Active; 'I' for Inactive)
REMARK    1  A    between atoms: N1_2  and  C3_4 
REMARK    2  A    between atoms: C4_5  and  O1_6 
REMARK    3  A    between atoms: C5_8  and  C6_9 
REMARK    4  A    between atoms: C6_9  and  O2_10 
REMARK    5  A    between atoms: N2_12  and  O3_14 
REMARK    6  A    between atoms: C8_18  and  O5_19 
ROOT
HETATM    1  C3  UNL     1      -0.817   0.013  -0.113  1.00  0.00     0.262 C 
HETATM    2  C4  UNL     1       0.526   0.748  -0.088  1.00  0.00     0.189 C 
HETATM    3  C5  UNL     1       1.653  -0.102   0.371  1.00  0.00     0.229 C 
HETATM    4  O4  UNL     1       1.679  -1.417   0.011  1.00  0.00    -0.367 OA
HETATM    5  C7  UNL     1       0.507  -1.899  -0.416  1.00  0.00     0.160 A 
HETATM    6  C8  UNL     1      -0.549  -2.617   0.206  1.00  0.00     0.156 A 
HETATM    7  C9  UNL     1      -0.524  -1.253   0.582  1.00  0.00     0.084 A 
ENDROOT
BRANCH   3   8
HETATM    8  C6  UNL     1       2.931   0.524  -0.053  1.00  0.00     0.167 C 
HETATM    9  N2  UNL     1       2.909   1.648  -0.690  1.00  0.00    -0.249 N 
ATOM     10  H2  UNL     1       1.999   2.068  -0.880  1.00  0.00     0.196 HD
BRANCH   8  11
HETATM   11  O2  UNL     1       4.167  -0.048   0.203  1.00  0.00    -0.346 OA
ATOM     12  H2  UNL     1       4.985   0.352  -0.068  1.00  0.00     0.219 HD
ENDBRANCH   8  11
BRANCH   9  13
HETATM   13  O3  UNL     1       4.009   2.307  -1.123  1.00  0.00    -0.288 OA
ATOM     14  H3  UNL     1       3.993   3.133  -1.591  1.00  0.00     0.244 HD
ENDBRANCH   9  13
ENDBRANCH   3   8
BRANCH   2  15
HETATM   15  O1  UNL     1       0.388   1.768   0.886  1.00  0.00    -0.390 OA
ATOM     16  H1  UNL     1       1.221   2.224   0.902  1.00  0.00     0.210 HD
ENDBRANCH   2  15
BRANCH   1  17
HETATM   17  N1  UNL     1      -1.880   0.743   0.484  1.00  0.00     0.087 N 
HETATM   18  C1  UNL     1      -2.163   1.994  -0.225  1.00  0.00     0.310 C 
HETATM   19  C2  UNL     1      -3.080  -0.069   0.406  1.00  0.00     0.310 C 
ENDBRANCH   1  17
BRANCH   6  20
HETATM   20  O5  UNL     1      -1.610  -3.097  -0.575  1.00  0.00    -0.392 OA
ATOM     21  H5  UNL     1      -2.316  -3.577  -0.159  1.00  0.00     0.210 HD
ENDBRANCH   6  20
TORSDOF 6
