REMARK  7 active torsions:
REMARK  status: ('A' for Active; 'I' for Inactive)
REMARK    1  A    between atoms: C2_2  and  C19_19 
REMARK    2  A    between atoms: C3_3  and  C4_4 
REMARK    3  A    between atoms: C4_4  and  C5_5 
REMARK    4  A    between atoms: C5_5  and  C6_6 
REMARK    5  A    between atoms: C19_19  and  C20_20 
REMARK    6  A    between atoms: C23_25  and  O3_26 
REMARK    7  A    between atoms: C24_28  and  O4_29 
ROOT
HETATM    1  C1  UNL     1       3.019  -0.201   2.628  1.00  0.00     0.043 C 
HETATM    2  C2  UNL     1       2.582  -0.443   1.199  1.00  0.00    -0.085 C 
HETATM    3  C3  UNL     1       1.335  -0.138   0.881  1.00  0.00    -0.024 C 
ENDROOT
BRANCH   3   4
HETATM    4  C4  UNL     1       0.706  -0.291  -0.438  1.00  0.00     0.031 C 
BRANCH   4   5
HETATM    5  C5  UNL     1      -0.489  -1.148  -0.527  1.00  0.00     0.038 C 
BRANCH   5   6
HETATM    6  C6  UNL     1      -1.734  -0.774   0.104  1.00  0.00    -0.075 C 
HETATM    7  C7  UNL     1      -1.846   0.402   0.676  1.00  0.00    -0.022 C 
HETATM    8  C8  UNL     1      -2.846   1.225   1.424  1.00  0.00     0.040 C 
HETATM    9  C9  UNL     1      -3.961   1.740   0.571  1.00  0.00    -0.022 C 
HETATM   10  C10 UNL     1      -3.503   2.787  -0.416  1.00  0.00     0.020 C 
HETATM   11  C11 UNL     1      -4.928   2.453   1.527  1.00  0.00     0.020 C 
HETATM   12  C12 UNL     1      -4.742   0.687  -0.095  1.00  0.00    -0.079 C 
HETATM   13  C13 UNL     1      -5.751   1.242  -1.023  1.00  0.00     0.044 C 
HETATM   14  C14 UNL     1      -4.764  -0.627  -0.068  1.00  0.00    -0.023 C 
HETATM   15  C15 UNL     1      -4.006  -1.695   0.652  1.00  0.00     0.040 C 
HETATM   16  C16 UNL     1      -2.717  -1.908  -0.046  1.00  0.00    -0.021 C 
HETATM   17  C17 UNL     1      -3.019  -2.129  -1.533  1.00  0.00     0.020 C 
HETATM   18  C18 UNL     1      -2.068  -3.164   0.494  1.00  0.00     0.020 C 
ENDBRANCH   5   6
ENDBRANCH   4   5
ENDBRANCH   3   4
BRANCH   2  19
HETATM   19  C19 UNL     1       3.555  -1.009   0.250  1.00  0.00     0.068 C 
BRANCH  19  20
HETATM   20  C20 UNL     1       4.743  -0.037   0.137  1.00  0.00     0.167 C 
HETATM   21  O1  UNL     1       4.332   1.215  -0.321  1.00  0.00    -0.313 OA
HETATM   22  C21 UNL     1       5.133   2.047  -1.058  1.00  0.00     0.261 C 
HETATM   23  O2  UNL     1       4.977   3.307  -0.920  1.00  0.00    -0.265 OA
HETATM   24  C22 UNL     1       6.126   1.456  -1.965  1.00  0.00     0.145 C 
HETATM   25  C23 UNL     1       6.786   0.309  -1.284  1.00  0.00     0.158 C 
HETATM   26  C24 UNL     1       5.876  -0.643  -0.611  1.00  0.00     0.177 C 
BRANCH  25  27
HETATM   27  O3  UNL     1       7.556  -0.379  -2.234  1.00  0.00    -0.392 OA
ATOM     28  H3  UNL     1       7.977  -1.111  -1.799  1.00  0.00     0.210 HD
ENDBRANCH  25  27
BRANCH  26  29
HETATM   29  O4  UNL     1       6.652  -1.442   0.262  1.00  0.00    -0.390 OA
ATOM     30  H4  UNL     1       7.376  -1.829  -0.216  1.00  0.00     0.210 HD
ENDBRANCH  26  29
ENDBRANCH  19  20
ENDBRANCH   2  19
TORSDOF 7
