REMARK  10 active torsions:
REMARK  status: ('A' for Active; 'I' for Inactive)
REMARK    1  A    between atoms: C3_5  and  C4_6 
REMARK    2  A    between atoms: C4_6  and  C5_7 
REMARK    3  A    between atoms: C10_15  and  N3_16 
REMARK    4  A    between atoms: N3_16  and  C11_17 
REMARK    5  A    between atoms: C11_17  and  C12_18 
REMARK    6  A    between atoms: C12_18  and  C13_19 
REMARK    7  A    between atoms: C16_22  and  S1_23 
REMARK    8  A    between atoms: C23_33  and  C24_34 
REMARK    9  A    between atoms: C24_34  and  C25_35 
REMARK   10  A    between atoms: C30_40  and  C31_41 
ROOT
HETATM    1  C5  UNL     1      -0.059   2.581  -0.278  1.00  0.00     0.034 A 
HETATM    2  C6  UNL     1      -0.135   3.926  -0.641  1.00  0.00     0.129 A 
HETATM    3  F1  UNL     1      -1.040   4.732  -0.074  1.00  0.00    -0.205 F 
HETATM    4  C7  UNL     1       0.732   4.410  -1.589  1.00  0.00     0.045 A 
HETATM    5  C8  UNL     1       1.682   3.633  -2.207  1.00  0.00     0.035 A 
HETATM    6  C9  UNL     1       1.751   2.303  -1.842  1.00  0.00     0.063 A 
HETATM    7  N2  UNL     1       2.551   1.340  -2.262  1.00  0.00    -0.314 N 
ATOM      8  H2  UNL     1       3.282   1.449  -2.965  1.00  0.00     0.170 HD
HETATM    9  C10 UNL     1       2.247   0.161  -1.605  1.00  0.00     0.259 A 
HETATM   10  N4  UNL     1       1.212   0.499  -0.769  1.00  0.00    -0.313 N 
ATOM     11  H4  UNL     1       0.746  -0.149  -0.134  1.00  0.00     0.170 HD
HETATM   12  C20 UNL     1       0.899   1.785  -0.898  1.00  0.00     0.076 A 
ENDROOT
BRANCH   1  13
HETATM   13  C4  UNL     1      -0.971   2.089   0.734  1.00  0.00     0.047 C 
BRANCH  13  14
HETATM   14  C3  UNL     1      -1.981   1.269   0.512  1.00  0.00     0.044 A 
HETATM   15  N1  UNL     1      -2.313   0.771  -0.675  1.00  0.00    -0.355 N 
HETATM   16  C2  UNL     1      -3.421  -0.029  -0.519  1.00  0.00     0.034 A 
ATOM     17  H1  UNL     1      -1.828   0.952  -1.554  1.00  0.00     0.166 HD
HETATM   18  C1  UNL     1      -3.956  -0.636  -1.554  1.00  0.00     0.044 C 
HETATM   19  C23 UNL     1      -3.783  -0.025   0.805  1.00  0.00     0.002 A 
HETATM   20  C21 UNL     1      -2.861   0.806   1.463  1.00  0.00    -0.006 A 
HETATM   21  C22 UNL     1      -2.861   1.076   2.742  1.00  0.00     0.026 C 
BRANCH  19  22
HETATM   22  C24 UNL     1      -4.774  -0.661   1.383  1.00  0.00     0.027 C 
BRANCH  22  23
HETATM   23  C25 UNL     1      -5.779  -1.541   0.877  1.00  0.00    -0.020 A 
HETATM   24  C26 UNL     1      -5.460  -2.911   0.821  1.00  0.00     0.012 A 
HETATM   25  C27 UNL     1      -6.395  -3.815   0.378  1.00  0.00     0.001 A 
HETATM   26  C28 UNL     1      -7.638  -3.415  -0.014  1.00  0.00     0.001 A 
HETATM   27  C29 UNL     1      -7.938  -2.086   0.045  1.00  0.00     0.017 A 
HETATM   28  C30 UNL     1      -7.028  -1.117   0.488  1.00  0.00     0.039 A 
BRANCH  28  29
HETATM   29  C31 UNL     1      -7.412   0.275   0.549  1.00  0.00     0.265 C 
HETATM   30  N5  UNL     1      -6.607   1.300   1.055  1.00  0.00    -0.057 NA
HETATM   31  O2  UNL     1      -8.556   0.596   0.118  1.00  0.00    -0.271 OA
ENDBRANCH  28  29
ENDBRANCH  22  23
ENDBRANCH  19  22
ENDBRANCH  13  14
ENDBRANCH   1  13
BRANCH   9  32
HETATM   32  N3  UNL     1       2.748  -0.907  -1.701  1.00  0.00    -0.388 NA
BRANCH  32  33
HETATM   33  C11 UNL     1       3.093  -2.201  -1.584  1.00  0.00     0.163 C 
BRANCH  33  34
HETATM   34  C12 UNL     1       3.558  -2.657  -0.199  1.00  0.00     0.098 C 
BRANCH  34  35
HETATM   35  C13 UNL     1       4.766  -1.873   0.215  1.00  0.00    -0.052 A 
HETATM   36  C14 UNL     1       6.045  -2.300  -0.092  1.00  0.00     0.009 A 
HETATM   37  C15 UNL     1       7.148  -1.549   0.299  1.00  0.00     0.021 A 
HETATM   38  C16 UNL     1       7.028  -0.371   0.995  1.00  0.00     0.031 A 
HETATM   39  C18 UNL     1       5.750   0.056   1.303  1.00  0.00     0.021 A 
HETATM   40  C19 UNL     1       4.655  -0.693   0.912  1.00  0.00     0.009 A 
BRANCH  38  41
HETATM   41  S1  UNL     1       8.441   0.564   1.478  1.00  0.00     0.045 S 
HETATM   42  C17 UNL     1       8.851   1.707   0.161  1.00  0.00     0.133 C 
HETATM   43  O1  UNL     1       9.756  -0.486   1.681  1.00  0.00    -0.253 OA
ENDBRANCH  38  41
ENDBRANCH  34  35
ENDBRANCH  33  34
ENDBRANCH  32  33
ENDBRANCH   9  32
TORSDOF 10
