REMARK  9 active torsions:
REMARK  status: ('A' for Active; 'I' for Inactive)
REMARK    1  A    between atoms: C2_2  and  C3_3 
REMARK    2  A    between atoms: C3_3  and  C4_4 
REMARK       I    between atoms: N2_11  and  C8_13 
REMARK    3  A    between atoms: C8_13  and  C9_15 
REMARK    4  A    between atoms: C10_16  and  C11_17 
REMARK    5  A    between atoms: C11_17  and  O2_18 
REMARK    6  A    between atoms: C11_17  and  N3_20 
REMARK    7  A    between atoms: N3_20  and  C12_21 
REMARK       I    between atoms: N3_20  and  C19_29 
REMARK    8  A    between atoms: C12_21  and  C13_22 
REMARK    9  A    between atoms: C13_22  and  N4_23 
ROOT
HETATM    1  C9  UNL     1       1.691  -1.444   0.739  1.00  0.00     0.120 C 
HETATM    2  C10 UNL     1       0.269  -1.873   0.765  1.00  0.00     0.003 C 
HETATM    3  C20 UNL     1       0.238  -3.189   0.707  1.00  0.00    -0.009 C 
HETATM    4  C21 UNL     1       1.627  -3.769   0.633  1.00  0.00     0.023 A 
HETATM    5  C22 UNL     1       2.537  -2.626   0.377  1.00  0.00     0.020 A 
HETATM    6  C23 UNL     1       2.267  -3.547  -0.710  1.00  0.00    -0.035 A 
HETATM    7  C24 UNL     1       3.383  -4.565  -0.993  1.00  0.00     0.016 C 
HETATM    8  C25 UNL     1       1.434  -3.270  -1.910  1.00  0.00     0.016 C 
ENDROOT
BRANCH   2   9
HETATM    9  C11 UNL     1      -0.869  -1.005   0.809  1.00  0.00     0.151 C 
BRANCH   9  10
HETATM   10  O2  UNL     1      -0.648   0.272   0.937  1.00  0.00    -0.345 OA
ATOM     11  H2  UNL     1      -1.403   0.848   0.966  1.00  0.00     0.219 HD
ENDBRANCH   9  10
BRANCH   9  12
HETATM   12  N3  UNL     1      -2.241  -1.314   0.735  1.00  0.00    -0.300 N 
HETATM   13  C19 UNL     1      -2.826  -2.532   0.348  1.00  0.00     0.190 C 
HETATM   14  N5  UNL     1      -2.689  -2.924  -0.899  1.00  0.00    -0.373 N 
HETATM   15  N6  UNL     1      -3.563  -3.368   1.247  1.00  0.00    -0.063 NA
ATOM     16  H52 UNL     1      -2.164  -2.328  -1.539  1.00  0.00     0.158 HD
ATOM     17  H51 UNL     1      -3.114  -3.808  -1.180  1.00  0.00     0.158 HD
BRANCH  12  18
HETATM   18  C12 UNL     1      -3.225  -0.210   0.979  1.00  0.00     0.161 C 
BRANCH  18  19
HETATM   19  C13 UNL     1      -3.504   0.415  -0.353  1.00  0.00     0.257 C 
BRANCH  19  20
HETATM   20  N4  UNL     1      -4.429   1.495  -0.318  1.00  0.00    -0.069 N 
HETATM   21  C14 UNL     1      -5.483   1.349   0.654  1.00  0.00     0.272 C 
HETATM   22  C15 UNL     1      -5.058   1.590  -1.624  1.00  0.00     0.237 C 
HETATM   23  C16 UNL     1      -5.735   2.937  -1.667  1.00  0.00     0.029 C 
HETATM   24  C17 UNL     1      -4.792   3.780  -0.823  1.00  0.00     0.029 C 
HETATM   25  C18 UNL     1      -3.815   2.800  -0.192  1.00  0.00     0.237 C 
ENDBRANCH  19  20
ENDBRANCH  18  19
ENDBRANCH  12  18
ENDBRANCH   9  12
ENDBRANCH   2   9
BRANCH   1  26
HETATM   26  C8  UNL     1       2.025  -0.246  -0.011  1.00  0.00     0.230 C 
HETATM   27  N2  UNL     1       2.011   1.082   0.458  1.00  0.00    -0.334 N 
HETATM   28  C2  UNL     1       3.066   1.636   0.949  1.00  0.00    -0.009 C 
ATOM     29  H2  UNL     1       1.145   1.618   0.408  1.00  0.00     0.168 HD
HETATM   30  C1  UNL     1       3.012   3.058   1.441  1.00  0.00     0.064 C 
HETATM   31  O1  UNL     1       2.374  -0.394  -1.233  1.00  0.00    -0.272 OA
BRANCH  28  32
HETATM   32  C3  UNL     1       4.379   0.960   1.074  1.00  0.00     0.109 C 
BRANCH  32  33
HETATM   33  C4  UNL     1       5.411   1.713   0.286  1.00  0.00     0.015 A 
HETATM   34  C5  UNL     1       6.209   2.743   0.746  1.00  0.00     0.045 A 
HETATM   35  C6  UNL     1       7.022   3.165  -0.282  1.00  0.00     0.028 A 
HETATM   36 BR1  UNL     1       8.321   4.550  -0.228  1.00  0.00    -0.050 Br
HETATM   37  C7  UNL     1       6.686   2.359  -1.365  1.00  0.00     0.107 A 
HETATM   38  N1  UNL     1       5.721   1.497  -1.006  1.00  0.00    -0.368 N 
ATOM     39  H1  UNL     1       5.294   0.796  -1.611  1.00  0.00     0.165 HD
ENDBRANCH  32  33
ENDBRANCH  28  32
ENDBRANCH   1  26
TORSDOF 9
