REMARK  9 active torsions:
REMARK  status: ('A' for Active; 'I' for Inactive)
REMARK    1  A    between atoms: C2_2  and  C5_5 
REMARK    2  A    between atoms: C5_5  and  N1_6 
REMARK       I    between atoms: N2_9  and  C8_10 
REMARK    3  A    between atoms: C8_10  and  C9_12 
REMARK    4  A    between atoms: C10_13  and  C11_14 
REMARK    5  A    between atoms: N4_23  and  C18_25 
REMARK    6  A    between atoms: C18_25  and  C19_26 
REMARK    7  A    between atoms: C19_26  and  C20_27 
REMARK    8  A    between atoms: C20_27  and  C21_28 
REMARK    9  A    between atoms: C21_28  and  C22_29 
REMARK       I    between atoms: C22_29  and  N5_31 
REMARK       I    between atoms: N5_31  and  C23_33 
ROOT
HETATM    1  N1  UNL     1       0.183  -1.687   0.192  1.00  0.00     0.120 N 
HETATM    2  C6  UNL     1      -0.469  -1.970  -1.061  1.00  0.00     0.318 C 
HETATM    3  C7  UNL     1       1.039  -0.568  -0.115  1.00  0.00     0.333 C 
HETATM    4  N2  UNL     1       1.391   0.300   0.942  1.00  0.00    -0.300 N 
HETATM    5  C8  UNL     1       2.369   1.378   0.721  1.00  0.00     0.248 C 
HETATM    6  O1  UNL     1       2.609   2.090   1.703  1.00  0.00    -0.268 OA
HETATM    7  C15 UNL     1       0.829   0.170   2.241  1.00  0.00     0.163 C 
HETATM    8  C16 UNL     1      -0.280  -0.810   2.339  1.00  0.00     0.292 C 
HETATM    9  N4  UNL     1      -0.832  -1.227   1.079  1.00  0.00     0.090 N 
HETATM   10  C17 UNL     1      -1.785  -2.283   1.365  1.00  0.00     0.310 C 
ENDROOT
BRANCH   9  11
HETATM   11  C18 UNL     1      -1.598  -0.150   0.534  1.00  0.00     0.272 C 
BRANCH  11  12
HETATM   12  C19 UNL     1      -2.304   0.755   1.458  1.00  0.00     0.031 C 
BRANCH  12  13
HETATM   13  C20 UNL     1      -3.067   1.808   0.686  1.00  0.00     0.011 C 
BRANCH  13  14
HETATM   14  C21 UNL     1      -4.118   1.293  -0.232  1.00  0.00     0.103 C 
BRANCH  14  15
HETATM   15  C22 UNL     1      -4.834   2.386  -0.940  1.00  0.00     0.225 C 
HETATM   16  O2  UNL     1      -4.477   3.559  -0.695  1.00  0.00    -0.273 OA
HETATM   17  N5  UNL     1      -5.879   2.163  -1.861  1.00  0.00    -0.282 N 
HETATM   18  C23 UNL     1      -6.532   3.233  -2.512  1.00  0.00     0.335 C 
ATOM     19  H5  UNL     1      -6.170   1.206  -2.062  1.00  0.00     0.173 HD
HETATM   20  N6  UNL     1      -7.573   2.959  -3.425  1.00  0.00    -0.040 NA
HETATM   21  O3  UNL     1      -6.230   4.442  -2.318  1.00  0.00    -0.251 OA
ENDBRANCH  14  15
ENDBRANCH  13  14
ENDBRANCH  12  13
ENDBRANCH  11  12
ENDBRANCH   9  11
BRANCH   1  22
HETATM   22  C5  UNL     1       0.906  -2.694   0.810  1.00  0.00     0.287 C 
BRANCH  22  23
HETATM   23  C2  UNL     1       1.546  -3.832   0.146  1.00  0.00    -0.025 C 
HETATM   24  C1  UNL     1       0.698  -4.779  -0.625  1.00  0.00     0.016 C 
HETATM   25  C3  UNL     1       2.864  -3.529  -0.540  1.00  0.00     0.016 C 
HETATM   26  C4  UNL     1       2.054  -4.690   1.351  1.00  0.00     0.016 C 
ENDBRANCH  22  23
ENDBRANCH   1  22
BRANCH   5  27
HETATM   27  C9  UNL     1       2.956   1.530  -0.550  1.00  0.00     0.077 C 
HETATM   28  C10 UNL     1       3.803   2.299  -1.128  1.00  0.00     0.035 C 
BRANCH  28  29
HETATM   29  C11 UNL     1       4.601   3.424  -0.750  1.00  0.00     0.033 A 
HETATM   30  C12 UNL     1       5.477   4.102  -1.622  1.00  0.00     0.050 A 
HETATM   31  C13 UNL     1       6.100   5.137  -0.967  1.00  0.00     0.028 A 
HETATM   32 BR1  UNL     1       7.362   6.317  -1.755  1.00  0.00    -0.050 Br
HETATM   33  C14 UNL     1       5.619   5.109   0.307  1.00  0.00     0.107 A 
HETATM   34  N3  UNL     1       4.733   4.081   0.397  1.00  0.00    -0.365 N 
ATOM     35  H3  UNL     1       4.227   3.841   1.249  1.00  0.00     0.165 HD
ENDBRANCH  28  29
ENDBRANCH   5  27
TORSDOF 9
