REMARK  7 active torsions:
REMARK  status: ('A' for Active; 'I' for Inactive)
REMARK    1  A    between atoms: O1_2  and  C2_3 
REMARK    2  A    between atoms: C2_3  and  C3_4 
REMARK    3  A    between atoms: C6_10  and  C7_11 
REMARK    4  A    between atoms: N4_22  and  C14_23 
REMARK    5  A    between atoms: C15_24  and  C16_25 
REMARK       I    between atoms: N6_30  and  C19_32 
REMARK    6  A    between atoms: C19_32  and  C20_34 
REMARK    7  A    between atoms: C20_34  and  N7_35 
ROOT
HETATM    1  C7  UNL     1      -3.621  -0.354  -0.322  1.00  0.00     0.086 C 
HETATM    2  C8  UNL     1      -3.455  -1.615  -1.146  1.00  0.00     0.066 C 
HETATM    3  C9  UNL     1      -2.627  -2.645  -0.405  1.00  0.00     0.250 C 
HETATM    4  N2  UNL     1      -2.691  -2.363   1.002  1.00  0.00    -0.011 N 
HETATM    5  C10 UNL     1      -2.242  -3.402   1.858  1.00  0.00     0.283 C 
HETATM    6  C11 UNL     1      -4.114  -2.144   1.287  1.00  0.00     0.250 C 
HETATM    7  C12 UNL     1      -4.480  -0.714   0.870  1.00  0.00     0.066 C 
HETATM    8  C13 UNL     1      -1.977  -1.089   1.239  1.00  0.00     0.280 C 
HETATM    9  N3  UNL     1      -1.266  -1.068   2.256  1.00  0.00    -0.365 N 
ATOM     10  H31 UNL     1      -0.774  -0.190   2.419  1.00  0.00     0.159 HD
ATOM     11  H32 UNL     1      -1.063  -1.765   2.973  1.00  0.00     0.159 HD
HETATM   12  N4  UNL     1      -2.258  -0.124   0.247  1.00  0.00    -0.307 N 
ENDROOT
BRANCH  12  13
HETATM   13  C14 UNL     1      -1.424   0.914  -0.176  1.00  0.00     0.098 C 
HETATM   14  C15 UNL     1      -0.198   1.357   0.436  1.00  0.00     0.049 C 
BRANCH  14  15
HETATM   15  C16 UNL     1       1.084   0.685   0.397  1.00  0.00     0.066 A 
HETATM   16  C17 UNL     1       2.153   1.154   1.191  1.00  0.00     0.136 A 
HETATM   17  N5  UNL     1       3.250   0.455   0.893  1.00  0.00    -0.199 N 
HETATM   18  C18 UNL     1       2.936  -0.438  -0.055  1.00  0.00     0.685 A 
ATOM     19  H5  UNL     1       4.170   0.579   1.315  1.00  0.00     0.183 HD
HETATM   20  N6  UNL     1       3.843  -1.222  -0.596  1.00  0.00    -0.158 N 
HETATM   21  N8  UNL     1       1.633  -0.293  -0.342  1.00  0.00    -0.190 N 
HETATM   22  C19 UNL     1       5.219  -1.097  -0.141  1.00  0.00     0.262 C 
ATOM     23  H6  UNL     1       3.588  -1.899  -1.315  1.00  0.00     0.187 HD
HETATM   24  O2  UNL     1       5.515  -1.788   0.860  1.00  0.00    -0.271 OA
ATOM     25  H8  UNL     1       1.127  -0.851  -1.030  1.00  0.00     0.184 HD
BRANCH  22  26
HETATM   26  C20 UNL     1       6.094  -0.193  -0.876  1.00  0.00     0.339 C 
BRANCH  26  27
HETATM   27  N7  UNL     1       7.428  -0.059  -0.391  1.00  0.00    -0.070 N 
HETATM   28  C21 UNL     1       7.517   1.048   0.581  1.00  0.00     0.272 C 
HETATM   29  C22 UNL     1       8.270   0.375  -1.517  1.00  0.00     0.272 C 
HETATM   30  C23 UNL     1       8.015  -1.210   0.217  1.00  0.00     0.272 C 
ENDBRANCH  26  27
ENDBRANCH  22  26
ENDBRANCH  14  15
ENDBRANCH  12  13
BRANCH   1  31
HETATM   31  C6  UNL     1      -4.189   0.706  -1.136  1.00  0.00     0.048 A 
HETATM   32  C3  UNL     1      -4.545   2.001  -0.921  1.00  0.00     0.009 A 
HETATM   33  C4  UNL     1      -4.966   2.562  -2.088  1.00  0.00     0.036 A 
HETATM   34 BR1  UNL     1      -5.586   4.363  -2.365  1.00  0.00    -0.049 Br
HETATM   35  C5  UNL     1      -4.884   1.621  -3.060  1.00  0.00     0.108 A 
HETATM   36  N1  UNL     1      -4.420   0.511  -2.482  1.00  0.00    -0.365 N 
ATOM     37  H1  UNL     1      -4.257  -0.368  -2.972  1.00  0.00     0.165 HD
BRANCH  32  38
HETATM   38  C2  UNL     1      -4.443   2.798   0.326  1.00  0.00     0.209 C 
BRANCH  38  39
HETATM   39  O1  UNL     1      -5.653   3.325   0.685  1.00  0.00    -0.391 OA
HETATM   40  C1  UNL     1      -6.679   2.447   0.820  1.00  0.00     0.201 C 
ENDBRANCH  38  39
ENDBRANCH  32  38
ENDBRANCH   1  31
TORSDOF 7
