REMARK  3 active torsions:
REMARK  status: ('A' for Active; 'I' for Inactive)
REMARK    1  A    between atoms: C3_3  and  C4_4 
REMARK    2  A    between atoms: C4_4  and  O1_6 
REMARK    3  A    between atoms: O1_6  and  N1_7 
ROOT
HETATM    1  C1  UNL     1       4.266   1.940  -1.035  1.00  0.00     0.012 C 
HETATM    2  C2  UNL     1       4.074   1.134  -0.159  1.00  0.00    -0.115 C 
HETATM    3  C3  UNL     1       3.836   0.164   0.911  1.00  0.00     0.127 C 
ENDROOT
BRANCH   3   4
HETATM    4  C4  UNL     1       2.713  -0.750   0.479  1.00  0.00     0.159 C 
HETATM    5  C5  UNL     1       3.091  -1.476  -0.793  1.00  0.00     0.043 C 
BRANCH   4   6
HETATM    6  O1  UNL     1       1.564   0.024   0.292  1.00  0.00    -0.273 OA
BRANCH   6   7
HETATM    7  N1  UNL     1       0.457  -0.164   1.076  1.00  0.00    -0.254 N 
HETATM    8  C6  UNL     1      -0.752  -0.056   0.604  1.00  0.00     0.097 C 
HETATM    9  C7  UNL     1      -0.812   0.276  -0.806  1.00  0.00     0.078 C 
HETATM   10  N2  UNL     1      -1.778  -0.279   1.535  1.00  0.00    -0.378 N 
HETATM   11  C8  UNL     1      -2.116   0.015  -1.487  1.00  0.00     0.007 C 
HETATM   12  C9  UNL     1      -3.271   0.741  -0.873  1.00  0.00     0.002 C 
HETATM   13  C10 UNL     1      -3.840  -0.171   0.201  1.00  0.00     0.020 C 
HETATM   14  C11 UNL     1      -3.134   0.155   1.481  1.00  0.00     0.121 C 
ATOM     15  H2  UNL     1      -1.519  -0.823   2.358  1.00  0.00     0.160 HD
ATOM     16  H1  UNL     1       0.583  -0.396   2.061  1.00  0.00     0.195 HD
ENDBRANCH   6   7
ENDBRANCH   4   6
ENDBRANCH   3   4
TORSDOF 3
