REMARK  1 active torsions:
REMARK  status: ('A' for Active; 'I' for Inactive)
REMARK    1  A    between atoms: N1_1  and  C1_5 
ROOT
HETATM    1  C1  UNL     1       1.301  -0.180   0.149  1.00  0.00     0.124 C 
HETATM    2  C2  UNL     1       0.896  -1.557  -0.191  1.00  0.00     0.039 C 
HETATM    3  C3  UNL     1      -0.362  -1.737  -0.931  1.00  0.00     0.007 C 
HETATM    4  C4  UNL     1      -1.472  -0.807  -0.578  1.00  0.00    -0.014 C 
HETATM    5  C5  UNL     1      -1.537  -0.616   0.890  1.00  0.00     0.009 C 
HETATM    6  C6  UNL     1      -0.723   0.491   1.441  1.00  0.00    -0.012 C 
HETATM    7  C7  UNL     1      -0.829   1.772   0.622  1.00  0.00     0.009 C 
HETATM    8  C8  UNL     1      -0.399   1.422  -0.782  1.00  0.00    -0.012 C 
HETATM    9  C9  UNL     1      -1.379   0.454  -1.379  1.00  0.00     0.009 C 
HETATM   10  C10 UNL     1       0.975   0.868  -0.858  1.00  0.00     0.043 C 
HETATM   11  C11 UNL     1       0.760   0.176   1.511  1.00  0.00     0.043 C 
ENDROOT
BRANCH   1  12
HETATM   12  N1  UNL     1       2.769  -0.189   0.285  1.00  0.00    -0.070 N 
ATOM     13  H13 UNL     1       3.107  -0.883   0.951  1.00  0.00     0.275 HD
ATOM     14  H12 UNL     1       3.247  -0.557  -0.538  1.00  0.00     0.275 HD
ATOM     15  H11 UNL     1       3.049   0.763   0.520  1.00  0.00     0.275 HD
ENDBRANCH   1  12
TORSDOF 1
