REMARK  1 active torsions:
REMARK  status: ('A' for Active; 'I' for Inactive)
REMARK    1  A    between atoms: C3_7  and  N3_8 
ROOT
HETATM    1  N1  UNL     1      -2.348   2.804   0.692  1.00  0.00    -0.195 NA
HETATM    2  C1  UNL     1      -1.516   2.001   0.614  1.00  0.00     0.093 C 
HETATM    3  C2  UNL     1      -0.475   0.990   0.492  1.00  0.00     0.302 C 
HETATM    4  N2  UNL     1       0.513   1.345  -0.523  1.00  0.00    -0.033 N 
ATOM      5  H21 UNL     1       1.250   1.963  -0.183  1.00  0.00     0.281 HD
ATOM      6  H22 UNL     1       0.157   1.973  -1.244  1.00  0.00     0.281 HD
HETATM    7  C3  UNL     1       0.998   0.081  -1.035  1.00  0.00     0.329 C 
HETATM    8  C4  UNL     1      -0.115  -0.914  -0.912  1.00  0.00     0.181 A 
HETATM    9  O1  UNL     1       0.146  -1.926   0.000  1.00  0.00    -0.381 OA
HETATM   10  C5  UNL     1      -0.847  -1.458   0.862  1.00  0.00     0.178 A 
HETATM   11  C6  UNL     1      -1.134  -0.269  -0.019  1.00  0.00     0.087 A 
ENDROOT
BRANCH   7  12
HETATM   12  N3  UNL     1       2.206  -0.342  -0.441  1.00  0.00    -0.310 N 
HETATM   13  N4  UNL     1       2.596  -0.005   0.693  1.00  0.00    -0.347 N 
ATOM     14  H42 UNL     1       1.986   0.623   1.217  1.00  0.00     0.176 HD
ATOM     15  H41 UNL     1       3.469  -0.311   1.122  1.00  0.00     0.176 HD
ATOM     16  H3  UNL     1       2.803  -0.969  -0.979  1.00  0.00     0.182 HD
ENDBRANCH   7  12
TORSDOF 1
