REMARK  9 active torsions:
REMARK  status: ('A' for Active; 'I' for Inactive)
REMARK    1  A    between atoms: C2_2  and  C3_3 
REMARK    2  A    between atoms: C3_3  and  O1_4 
REMARK    3  A    between atoms: O1_4  and  C4_5 
REMARK    4  A    between atoms: C10_11  and  O2_12 
REMARK    5  A    between atoms: C10_11  and  S1_15 
REMARK    6  A    between atoms: O2_12  and  O3_13 
REMARK    7  A    between atoms: C12_17  and  C14_19 
REMARK    8  A    between atoms: C15_20  and  C16_21 
REMARK    9  A    between atoms: C16_21  and  O4_22 
ROOT
HETATM    1  C4  UNL     1      -1.289   0.137   0.110  1.00  0.00     0.170 C 
HETATM    2  C5  UNL     1       0.001   0.632  -0.513  1.00  0.00     0.042 C 
HETATM    3  C6  UNL     1       1.169   0.547   0.407  1.00  0.00     0.005 A 
HETATM    4  C7  UNL     1       1.766  -0.798   0.561  1.00  0.00     0.003 A 
HETATM    5  C8  UNL     1       1.005  -1.882  -0.131  1.00  0.00     0.010 C 
HETATM    6  C9  UNL     1      -0.300  -2.081   0.619  1.00  0.00     0.056 C 
HETATM    7  C10 UNL     1      -1.446  -1.354  -0.039  1.00  0.00     0.169 C 
HETATM    8  C12 UNL     1       2.539   0.227  -0.129  1.00  0.00    -0.018 A 
HETATM    9  C13 UNL     1       2.784   0.221  -1.603  1.00  0.00     0.020 C 
ENDROOT
BRANCH   8  10
HETATM   10  C14 UNL     1       3.656   0.876   0.656  1.00  0.00    -0.019 C 
HETATM   11  C15 UNL     1       4.793   1.208   0.108  1.00  0.00    -0.004 C 
BRANCH  11  12
HETATM   12  C16 UNL     1       5.860   1.843   0.922  1.00  0.00     0.191 C 
BRANCH  12  13
HETATM   13  O4  UNL     1       6.982   1.018   0.875  1.00  0.00    -0.397 OA
ATOM     14  H4  UNL     1       7.665   1.424   1.396  1.00  0.00     0.209 HD
ENDBRANCH  12  13
ENDBRANCH  11  12
ENDBRANCH   8  10
BRANCH   1  15
HETATM   15  O1  UNL     1      -2.331   0.746  -0.581  1.00  0.00    -0.382 OA
BRANCH  15  16
HETATM   16  C3  UNL     1      -3.114   1.493   0.276  1.00  0.00     0.168 C 
BRANCH  16  17
HETATM   17  C2  UNL     1      -4.245   2.161  -0.441  1.00  0.00     0.022 C 
HETATM   18  C1  UNL     1      -5.077   2.968   0.532  1.00  0.00     0.007 C 
ENDBRANCH  16  17
ENDBRANCH  15  16
ENDBRANCH   1  15
BRANCH   7  19
HETATM   19  O2  UNL     1      -1.438  -1.715  -1.388  1.00  0.00    -0.218 OA
BRANCH  19  20
HETATM   20  O3  UNL     1      -1.582  -3.042  -1.401  1.00  0.00    -0.249 OA
ATOM     21  H3  UNL     1      -1.577  -3.288  -2.319  1.00  0.00     0.253 HD
ENDBRANCH  19  20
ENDBRANCH   7  19
BRANCH   7  22
HETATM   22  S1  UNL     1      -2.990  -1.849   0.748  1.00  0.00    -0.130 SA
HETATM   23  C11 UNL     1      -3.301  -3.611   0.642  1.00  0.00     0.093 C 
ENDBRANCH   7  22
TORSDOF 9
