REMARK  12 active torsions:
REMARK  status: ('A' for Active; 'I' for Inactive)
REMARK    1  A    between atoms: C2_2  and  O1_4 
REMARK    2  A    between atoms: C2_2  and  C4_6 
REMARK    3  A    between atoms: C9_11  and  C11_13 
REMARK    4  A    between atoms: C11_13  and  O2_14 
REMARK    5  A    between atoms: O2_14  and  C12_15 
REMARK    6  A    between atoms: C12_15  and  O4_17 
REMARK    7  A    between atoms: O4_17  and  C13_18 
REMARK    8  A    between atoms: C13_18  and  C14_19 
REMARK    9  A    between atoms: C14_19  and  C15_20 
REMARK   10  A    between atoms: C15_20  and  C16_21 
REMARK   11  A    between atoms: C16_21  and  C17_22 
REMARK   12  A    between atoms: C17_22  and  O5_23 
ROOT
HETATM    1  C4  UNL     1      -3.454  -0.012   0.280  1.00  0.00     0.029 C 
HETATM    2  C5  UNL     1      -4.522  -0.517  -0.680  1.00  0.00     0.008 C 
HETATM    3  C6  UNL     1      -4.662  -1.990  -0.456  1.00  0.00     0.001 C 
HETATM    4  C7  UNL     1      -3.778  -2.541   0.621  1.00  0.00     0.001 C 
HETATM    5  C8  UNL     1      -2.331  -2.148   0.475  1.00  0.00     0.012 C 
HETATM    6  C9  UNL     1      -2.195  -0.713  -0.061  1.00  0.00    -0.015 C 
HETATM    7  C10 UNL     1      -1.946  -0.858  -1.540  1.00  0.00     0.018 C 
ENDROOT
BRANCH   6   8
HETATM    8  C11 UNL     1      -0.943  -0.151   0.552  1.00  0.00     0.190 C 
BRANCH   8   9
HETATM    9  O2  UNL     1       0.131  -0.986   0.084  1.00  0.00    -0.297 OA
BRANCH   9  10
HETATM   10  C12 UNL     1       1.445  -0.750   0.461  1.00  0.00     0.406 C 
HETATM   11  O3  UNL     1       1.671   0.198   1.211  1.00  0.00    -0.230 OA
BRANCH  10  12
HETATM   12  O4  UNL     1       2.462  -1.555   0.007  1.00  0.00    -0.298 OA
BRANCH  12  13
HETATM   13  C13 UNL     1       3.798  -1.395   0.325  1.00  0.00     0.181 C 
BRANCH  13  14
HETATM   14  C14 UNL     1       4.316  -0.067  -0.162  1.00  0.00     0.027 C 
BRANCH  14  15
HETATM   15  C15 UNL     1       5.796  -0.026   0.250  1.00  0.00     0.004 C 
BRANCH  15  16
HETATM   16  C16 UNL     1       6.401   1.267  -0.196  1.00  0.00     0.026 C 
BRANCH  16  17
HETATM   17  C17 UNL     1       7.853   1.276   0.223  1.00  0.00     0.164 C 
BRANCH  17  18
HETATM   18  O5  UNL     1       8.466   2.457  -0.166  1.00  0.00    -0.401 OA
ATOM     19  H5  UNL     1       9.379   2.463   0.097  1.00  0.00     0.209 HD
ENDBRANCH  17  18
ENDBRANCH  16  17
ENDBRANCH  15  16
ENDBRANCH  14  15
ENDBRANCH  13  14
ENDBRANCH  12  13
ENDBRANCH  10  12
ENDBRANCH   9  10
ENDBRANCH   8   9
ENDBRANCH   6   8
BRANCH   1  20
HETATM   20  C2  UNL     1      -3.415   1.463   0.364  1.00  0.00     0.055 C 
HETATM   21  C1  UNL     1      -4.804   1.911   0.857  1.00  0.00     0.045 C 
HETATM   22  C3  UNL     1      -3.175   2.184  -0.911  1.00  0.00     0.045 C 
BRANCH  20  23
HETATM   23  O1  UNL     1      -2.544   1.856   1.378  1.00  0.00    -0.390 OA
ATOM     24  H1  UNL     1      -1.687   1.580   1.074  1.00  0.00     0.210 HD
ENDBRANCH  20  23
ENDBRANCH   1  20
TORSDOF 12
