REMARK  7 active torsions:
REMARK  status: ('A' for Active; 'I' for Inactive)
REMARK    1  A    between atoms: C2_2  and  C3_3 
REMARK    2  A    between atoms: C3_3  and  O1_4 
REMARK    3  A    between atoms: C3_3  and  N1_6 
REMARK    4  A    between atoms: C7_10  and  N2_11 
REMARK    5  A    between atoms: C7_10  and  C8_15 
REMARK    6  A    between atoms: C9_16  and  C10_17 
REMARK    7  A    between atoms: N3_21  and  O2_22 
ROOT
HETATM    1  N1  UNL     1       2.985  -0.369   0.015  1.00  0.00    -0.355 N 
HETATM    2  C4  UNL     1       3.245  -1.825  -0.103  1.00  0.00     0.152 C 
HETATM    3  C5  UNL     1       2.274  -2.384  -1.059  1.00  0.00    -0.008 C 
HETATM    4  C6  UNL     1       0.992  -2.085  -0.878  1.00  0.00     0.024 C 
HETATM    5  C7  UNL     1       0.667  -1.210   0.276  1.00  0.00     0.219 C 
HETATM    6  C15 UNL     1       1.619  -0.001   0.279  1.00  0.00     0.181 C 
ENDROOT
BRANCH   5   7
HETATM    7  N2  UNL     1       0.824  -1.882   1.533  1.00  0.00    -0.054 N 
ATOM      8  H23 UNL     1       0.279  -2.744   1.560  1.00  0.00     0.276 HD
ATOM      9  H22 UNL     1       1.760  -2.278   1.624  1.00  0.00     0.276 HD
ATOM     10  H21 UNL     1       0.601  -1.281   2.326  1.00  0.00     0.276 HD
ENDBRANCH   5   7
BRANCH   5  11
HETATM   11  C8  UNL     1      -0.721  -0.719   0.180  1.00  0.00    -0.056 C 
HETATM   12  C9  UNL     1      -1.841  -0.301   0.100  1.00  0.00    -0.062 C 
BRANCH  12  13
HETATM   13  C10 UNL     1      -3.183   0.223  -0.008  1.00  0.00     0.035 A 
HETATM   14  C11 UNL     1      -4.293  -0.597   0.069  1.00  0.00     0.023 A 
HETATM   15  C12 UNL     1      -5.568  -0.072  -0.037  1.00  0.00     0.021 A 
HETATM   16  C13 UNL     1      -5.736   1.281  -0.221  1.00  0.00     0.122 A 
HETATM   17  N3  UNL     1      -4.663   2.086  -0.297  1.00  0.00    -0.246 N 
HETATM   18  C14 UNL     1      -3.422   1.574  -0.194  1.00  0.00     0.142 A 
BRANCH  17  19
HETATM   19  O2  UNL     1      -4.901   3.428  -0.482  1.00  0.00    -0.284 OA
ATOM     20  H2  UNL     1      -4.142   3.997  -0.536  1.00  0.00     0.245 HD
ENDBRANCH  17  19
ENDBRANCH  12  13
ENDBRANCH   5  11
BRANCH   1  21
HETATM   21  C3  UNL     1       4.062   0.515  -0.139  1.00  0.00     0.137 C 
BRANCH  21  22
HETATM   22  C2  UNL     1       4.156   1.923  -0.064  1.00  0.00     0.045 C 
HETATM   23  C1  UNL     1       3.218   2.779   0.188  1.00  0.00     0.015 C 
ENDBRANCH  21  22
BRANCH  21  24
HETATM   24  O1  UNL     1       5.206  -0.081  -0.405  1.00  0.00    -0.346 OA
ATOM     25  H1  UNL     1       5.143  -1.028  -0.455  1.00  0.00     0.219 HD
ENDBRANCH  21  24
ENDBRANCH   1  21
TORSDOF 7
