REMARK  3 active torsions:
REMARK  status: ('A' for Active; 'I' for Inactive)
REMARK    1  A    between atoms: N1_2  and  C3_4 
REMARK    2  A    between atoms: C4_5  and  C5_6 
REMARK    3  A    between atoms: C7_14  and  C8_15 
ROOT
HETATM    1  C5  UNL     1       0.685  -1.737   0.106  1.00  0.00     0.019 C 
HETATM    2  C6  UNL     1      -0.529  -2.054   0.371  1.00  0.00     0.024 C 
HETATM    3  S1  UNL     1      -1.026  -3.807   0.744  1.00  0.00     0.022 SA
HETATM    4  S2  UNL     1      -2.909  -3.542  -0.233  1.00  0.00     0.289 S 
HETATM    5  O1  UNL     1      -4.022  -3.730   0.720  1.00  0.00    -0.194 OA
HETATM    6  O2  UNL     1      -2.979  -4.357  -1.462  1.00  0.00    -0.194 OA
HETATM    7  N2  UNL     1      -2.654  -1.836  -0.601  1.00  0.00    -0.296 N 
ATOM      8  H2  UNL     1      -2.996  -1.291  -1.392  1.00  0.00     0.174 HD
HETATM    9  C7  UNL     1      -1.848  -1.420   0.492  1.00  0.00     0.177 C 
ENDROOT
BRANCH   1  10
HETATM   10  C4  UNL     1       1.152  -0.413  -0.201  1.00  0.00     0.018 C 
HETATM   11  C3  UNL     1       2.449  -0.157  -0.455  1.00  0.00     0.084 C 
BRANCH  11  12
HETATM   12  N1  UNL     1       2.917   1.149  -0.758  1.00  0.00    -0.398 N 
HETATM   13  C1  UNL     1       2.204   2.308  -0.267  1.00  0.00     0.148 C 
HETATM   14  C2  UNL     1       4.112   1.278  -1.563  1.00  0.00     0.148 C 
ENDBRANCH  11  12
ENDBRANCH   1  10
BRANCH   9  15
HETATM   15  C8  UNL     1      -1.888   0.005   0.861  1.00  0.00     0.049 A 
HETATM   16  S3  UNL     1      -1.170   0.753   2.219  1.00  0.00    -0.101 SA
HETATM   17  C9  UNL     1      -1.732   2.351   1.986  1.00  0.00     0.053 A 
HETATM   18  C10 UNL     1      -2.473   2.242   0.838  1.00  0.00     0.050 A 
HETATM   19  C11 UNL     1      -2.550   1.039   0.264  1.00  0.00     0.132 A 
HETATM   20  F1  UNL     1      -3.268   0.808  -0.898  1.00  0.00    -0.205 F 
ENDBRANCH   9  15
TORSDOF 3
