REMARK  8 active torsions:
REMARK  status: ('A' for Active; 'I' for Inactive)
REMARK    1  A    between atoms: C2_2  and  C3_3 
REMARK    2  A    between atoms: C3_3  and  C4_4 
REMARK    3  A    between atoms: C5_5  and  C6_6 
REMARK    4  A    between atoms: N1_16  and  C16_17 
REMARK    5  A    between atoms: C16_17  and  C17_18 
REMARK    6  A    between atoms: C17_18  and  C18_19 
REMARK    7  A    between atoms: C25_35  and  C26_36 
REMARK    8  A    between atoms: C26_36  and  C28_38 
ROOT
HETATM    1  C6  UNL     1      -3.800   1.053  -0.247  1.00  0.00     0.085 C 
HETATM    2  C7  UNL     1      -2.844   1.369  -1.106  1.00  0.00     0.026 C 
HETATM    3  C8  UNL     1      -1.430   1.048  -0.973  1.00  0.00    -0.002 C 
HETATM    4  C9  UNL     1      -0.592   1.540  -0.094  1.00  0.00    -0.027 C 
HETATM    5  C10 UNL     1      -0.842   2.521   0.956  1.00  0.00     0.027 C 
HETATM    6  C11 UNL     1       0.403   3.323   1.226  1.00  0.00     0.007 C 
HETATM    7  C12 UNL     1       1.190   3.583  -0.027  1.00  0.00     0.027 C 
HETATM    8  C13 UNL     1       2.640   3.788   0.269  1.00  0.00    -0.029 C 
HETATM    9  C14 UNL     1       3.634   3.008  -0.065  1.00  0.00    -0.010 C 
HETATM   10  C15 UNL     1       3.572   1.730  -0.819  1.00  0.00     0.163 C 
HETATM   11  N1  UNL     1       4.230   0.722  -0.053  1.00  0.00    -0.290 N 
HETATM   12  S1  UNL     1       3.245  -0.449   0.678  1.00  0.00     0.323 S 
HETATM   13  O1  UNL     1       4.189  -1.428   1.379  1.00  0.00    -0.182 OA
HETATM   14  O2  UNL     1       2.407   0.241   1.720  1.00  0.00    -0.182 OA
HETATM   15  N2  UNL     1       2.312  -1.390  -0.399  1.00  0.00    -0.235 N 
ATOM     16  H2  UNL     1       2.728  -1.561  -1.315  1.00  0.00     0.183 HD
HETATM   17  C21 UNL     1       1.056  -1.954  -0.187  1.00  0.00     0.254 C 
HETATM   18  O3  UNL     1       0.346  -2.173  -1.233  1.00  0.00    -0.270 OA
HETATM   19  C22 UNL     1       0.432  -2.335   1.094  1.00  0.00     0.173 C 
HETATM   20  C23 UNL     1       1.449  -3.018   2.018  1.00  0.00     0.042 C 
HETATM   21  N3  UNL     1      -0.629  -3.290   0.915  1.00  0.00    -0.346 N 
ATOM     22  H3  UNL     1      -0.339  -4.227   0.634  1.00  0.00     0.163 HD
HETATM   23  C24 UNL     1      -2.009  -3.102   1.076  1.00  0.00     0.241 C 
HETATM   24  O4  UNL     1      -2.672  -3.882   1.859  1.00  0.00    -0.271 OA
HETATM   25  C25 UNL     1      -2.841  -2.060   0.419  1.00  0.00     0.180 C 
HETATM   26  N4  UNL     1      -2.827  -0.837   1.188  1.00  0.00    -0.343 N 
ATOM     27  H4  UNL     1      -2.171  -0.807   1.968  1.00  0.00     0.163 HD
HETATM   28  C30 UNL     1      -3.601   0.308   0.994  1.00  0.00     0.260 C 
HETATM   29  O5  UNL     1      -4.225   0.786   2.017  1.00  0.00    -0.267 OA
ENDROOT
BRANCH   1  30
HETATM   30  C5  UNL     1      -5.170   1.463  -0.546  1.00  0.00    -0.061 C 
HETATM   31  C4  UNL     1      -6.315   1.828  -0.805  1.00  0.00    -0.097 C 
BRANCH  31  32
HETATM   32  C3  UNL     1      -7.672   2.272  -1.114  1.00  0.00     0.120 C 
BRANCH  32  33
HETATM   33  C2  UNL     1      -8.568   1.847   0.008  1.00  0.00    -0.025 C 
HETATM   34  C1  UNL     1      -9.253   2.718   0.725  1.00  0.00     0.008 C 
ENDBRANCH  32  33
ENDBRANCH  31  32
ENDBRANCH   1  30
BRANCH  25  35
HETATM   35  C26 UNL     1      -4.265  -2.532   0.193  1.00  0.00     0.013 C 
HETATM   36  C27 UNL     1      -4.991  -2.888   1.454  1.00  0.00     0.012 C 
BRANCH  35  37
HETATM   37  C28 UNL     1      -4.347  -3.676  -0.760  1.00  0.00     0.002 C 
HETATM   38  C29 UNL     1      -3.804  -3.364  -2.130  1.00  0.00     0.005 C 
ENDBRANCH  35  37
ENDBRANCH  25  35
BRANCH  11  39
HETATM   39  C16 UNL     1       5.486   0.274  -0.548  1.00  0.00     0.137 C 
BRANCH  39  40
HETATM   40  C17 UNL     1       6.558   0.413   0.480  1.00  0.00     0.024 C 
BRANCH  40  41
HETATM   41  C18 UNL     1       7.907  -0.058  -0.025  1.00  0.00    -0.021 C 
HETATM   42  C19 UNL     1       8.918   0.115   1.060  1.00  0.00     0.009 C 
HETATM   43  C20 UNL     1       8.332   0.751  -1.231  1.00  0.00     0.009 C 
ENDBRANCH  40  41
ENDBRANCH  39  40
ENDBRANCH  11  39
TORSDOF 8
