REMARK  4 active torsions:
REMARK  status: ('A' for Active; 'I' for Inactive)
REMARK    1  A    between atoms: C2_2  and  N1_4 
REMARK    2  A    between atoms: N1_4  and  C4_6 
REMARK    3  A    between atoms: C7_9  and  N2_10 
REMARK    4  A    between atoms: C8_14  and  O1_15 
ROOT
HETATM    1  C4  UNL     1       0.132   0.186  -0.070  1.00  0.00     0.079 C 
HETATM    2  C5  UNL     1      -0.308  -0.885   0.868  1.00  0.00     0.027 C 
HETATM    3  C6  UNL     1      -1.757  -1.008   1.117  1.00  0.00     0.037 C 
HETATM    4  C7  UNL     1      -2.630   0.057   0.588  1.00  0.00     0.212 C 
HETATM    5  C8  UNL     1      -2.172   0.766  -0.626  1.00  0.00     0.150 C 
HETATM    6  C9  UNL     1      -0.877   0.340  -1.203  1.00  0.00     0.058 C 
ENDROOT
BRANCH   1   7
HETATM    7  N1  UNL     1       1.375  -0.121  -0.739  1.00  0.00    -0.414 N 
ATOM      8  H1  UNL     1       1.433  -0.224  -1.752  1.00  0.00     0.153 HD
BRANCH   7   9
HETATM    9  C2  UNL     1       2.513  -0.271   0.100  1.00  0.00     0.068 C 
HETATM   10  C1  UNL     1       2.894   0.978   0.867  1.00  0.00     0.031 C 
HETATM   11  C3  UNL     1       3.693  -0.544  -0.850  1.00  0.00     0.031 C 
ENDBRANCH   7   9
ENDBRANCH   1   7
BRANCH   5  12
HETATM   12  O1  UNL     1      -2.080   2.160  -0.382  1.00  0.00    -0.393 OA
ATOM     13  H1  UNL     1      -1.786   2.616  -1.162  1.00  0.00     0.210 HD
ENDBRANCH   5  12
BRANCH   4  14
HETATM   14  N2  UNL     1      -3.950  -0.528   0.292  1.00  0.00    -0.073 N 
ATOM     15  H23 UNL     1      -3.891  -1.333  -0.332  1.00  0.00     0.274 HD
ATOM     16  H22 UNL     1      -4.357  -1.005   1.097  1.00  0.00     0.274 HD
ATOM     17  H21 UNL     1      -4.554   0.208  -0.074  1.00  0.00     0.274 HD
ENDBRANCH   4  14
TORSDOF 4
