REMARK  9 active torsions:
REMARK  status: ('A' for Active; 'I' for Inactive)
REMARK    1  A    between atoms: C2_2  and  C5_5 
REMARK    2  A    between atoms: C5_5  and  C19_32 
REMARK    3  A    between atoms: C6_6  and  C7_7 
REMARK    4  A    between atoms: C7_7  and  C8_8 
REMARK    5  A    between atoms: C8_8  and  C9_9 
REMARK    6  A    between atoms: C8_8  and  C10_13 
REMARK    7  A    between atoms: C10_13  and  O1_15 
REMARK    8  A    between atoms: C10_13  and  C12_17 
REMARK    9  A    between atoms: C17_25  and  N2_26 
ROOT
HETATM    1  C8  UNL     1       1.098   1.946   1.219  1.00  0.00     0.134 C 
ENDROOT
BRANCH   1   2
HETATM    2  C7  UNL     1      -0.071   1.134   1.686  1.00  0.00     0.044 C 
BRANCH   2   3
HETATM    3  C6  UNL     1      -1.222   1.000   0.846  1.00  0.00    -0.018 C 
HETATM    4  C5  UNL     1      -2.073  -0.002   0.617  1.00  0.00    -0.049 C 
BRANCH   4   5
HETATM    5  C2  UNL     1      -1.938  -1.280   1.300  1.00  0.00    -0.024 C 
HETATM    6  C1  UNL     1      -1.655  -1.135   2.824  1.00  0.00     0.019 C 
HETATM    7  C3  UNL     1      -3.149  -2.221   1.177  1.00  0.00     0.019 C 
HETATM    8  C4  UNL     1      -0.779  -2.113   0.819  1.00  0.00     0.019 C 
ENDBRANCH   4   5
BRANCH   4   9
HETATM    9  C19 UNL     1      -3.098   0.355  -0.436  1.00  0.00    -0.040 C 
HETATM   10  C20 UNL     1      -4.407   0.814   0.116  1.00  0.00     0.038 C 
HETATM   11  C21 UNL     1      -5.657   0.479  -0.608  1.00  0.00     0.004 C 
HETATM   12  C22 UNL     1      -5.395   0.447  -2.096  1.00  0.00     0.003 C 
HETATM   13  C23 UNL     1      -4.477  -0.772  -2.224  1.00  0.00     0.042 C 
HETATM   14  C24 UNL     1      -3.106  -0.437  -1.669  1.00  0.00     0.199 C 
HETATM   15  F4  UNL     1      -2.388  -1.595  -1.735  1.00  0.00    -0.245 F 
ENDBRANCH   4   9
ENDBRANCH   2   3
ENDBRANCH   1   2
BRANCH   1  16
HETATM   16  C9  UNL     1       0.793   3.395   0.963  1.00  0.00     0.394 C 
HETATM   17  F1  UNL     1       0.310   3.893   2.189  1.00  0.00    -0.171 F 
HETATM   18  F2  UNL     1       0.053   3.710  -0.105  1.00  0.00    -0.171 F 
HETATM   19  F3  UNL     1       1.978   4.133   0.823  1.00  0.00    -0.171 F 
ENDBRANCH   1  16
BRANCH   1  20
HETATM   20  C10 UNL     1       1.985   1.335   0.175  1.00  0.00     0.098 C 
HETATM   21  C11 UNL     1       1.360   0.989  -1.107  1.00  0.00     0.050 C 
BRANCH  20  22
HETATM   22  O1  UNL     1       3.040   2.261  -0.088  1.00  0.00    -0.387 OA
ATOM     23  H1  UNL     1       3.602   1.874  -0.749  1.00  0.00     0.210 HD
ENDBRANCH  20  22
BRANCH  20  24
HETATM   24  C12 UNL     1       2.698   0.085   0.711  1.00  0.00     0.206 C 
HETATM   25  O2  UNL     1       3.345   0.384   1.899  1.00  0.00    -0.376 OA
HETATM   26  C13 UNL     1       4.533  -0.224   2.133  1.00  0.00     0.173 C 
HETATM   27  C14 UNL     1       5.508   0.320   1.065  1.00  0.00     0.068 C 
HETATM   28  C15 UNL     1       5.006  -0.306  -0.178  1.00  0.00    -0.014 A 
HETATM   29  C16 UNL     1       5.815  -0.794  -1.166  1.00  0.00     0.115 A 
HETATM   30  C18 UNL     1       3.625  -0.427  -0.325  1.00  0.00     0.066 A 
HETATM   31  N1  UNL     1       5.332  -1.391  -2.278  1.00  0.00    -0.202 N 
HETATM   32  C17 UNL     1       4.015  -1.504  -2.409  1.00  0.00     0.675 A 
ATOM     33  H1  UNL     1       5.962  -1.745  -2.998  1.00  0.00     0.183 HD
HETATM   34  N3  UNL     1       3.181  -1.038  -1.465  1.00  0.00    -0.193 N 
ATOM     35  H3  UNL     1       2.176  -1.144  -1.604  1.00  0.00     0.184 HD
BRANCH  32  36
HETATM   36  N2  UNL     1       3.525  -2.071  -3.463  1.00  0.00    -0.234 N 
ATOM     37  H22 UNL     1       4.158  -2.425  -4.180  1.00  0.00     0.174 HD
ATOM     38  H21 UNL     1       2.514  -2.158  -3.564  1.00  0.00     0.174 HD
ENDBRANCH  32  36
ENDBRANCH  20  24
ENDBRANCH   1  20
TORSDOF 9
