REMARK  10 active torsions:
REMARK  status: ('A' for Active; 'I' for Inactive)
REMARK    1  A    between atoms: O1_2  and  C2_3 
REMARK    2  A    between atoms: C2_3  and  C3_5 
REMARK    3  A    between atoms: C5_7  and  C6_8 
REMARK    4  A    between atoms: C11_16  and  O6_17 
REMARK    5  A    between atoms: C12_19  and  C13_20 
REMARK    6  A    between atoms: C13_20  and  C14_21 
REMARK    7  A    between atoms: C15_22  and  C17_24 
REMARK    8  A    between atoms: C17_24  and  C18_25 
REMARK    9  A    between atoms: C18_25  and  C19_26 
REMARK   10  A    between atoms: C25_32  and  O7_33 
ROOT
HETATM    1  C3  UNL     1      -3.329  -1.917   0.906  1.00  0.00     0.073 A 
HETATM    2  C4  UNL     1      -4.023  -1.092   0.048  1.00  0.00     0.033 A 
HETATM    3  C5  UNL     1      -3.444  -0.599  -1.097  1.00  0.00     0.015 A 
HETATM    4  C11 UNL     1      -2.140  -0.951  -1.375  1.00  0.00     0.084 A 
HETATM    5  C12 UNL     1      -1.378  -1.782  -0.550  1.00  0.00     0.013 A 
HETATM    6  C25 UNL     1      -2.006  -2.249   0.585  1.00  0.00     0.091 A 
ENDROOT
BRANCH   5   7
HETATM    7  C13 UNL     1       0.029  -2.102  -0.914  1.00  0.00     0.072 C 
BRANCH   7   8
HETATM    8  C14 UNL     1       0.977  -1.017  -0.642  1.00  0.00    -0.020 C 
HETATM    9  C15 UNL     1       2.047  -1.142   0.126  1.00  0.00    -0.087 C 
HETATM   10  C16 UNL     1       2.432  -2.399   0.817  1.00  0.00     0.043 C 
BRANCH   9  11
HETATM   11  C17 UNL     1       2.927   0.069   0.314  1.00  0.00     0.034 C 
BRANCH  11  12
HETATM   12  C18 UNL     1       4.329  -0.198  -0.178  1.00  0.00     0.009 C 
BRANCH  12  13
HETATM   13  C19 UNL     1       5.219   0.984  -0.005  1.00  0.00    -0.014 C 
HETATM   14  C20 UNL     1       6.608   0.621  -0.528  1.00  0.00     0.004 C 
HETATM   15  C21 UNL     1       7.365   1.937  -0.608  1.00  0.00     0.000 C 
HETATM   16  C22 UNL     1       7.577   2.421   0.799  1.00  0.00     0.000 C 
HETATM   17  C23 UNL     1       6.339   2.497   1.622  1.00  0.00     0.000 C 
HETATM   18  C24 UNL     1       5.384   1.364   1.433  1.00  0.00     0.004 C 
ENDBRANCH  12  13
ENDBRANCH  11  12
ENDBRANCH   9  11
ENDBRANCH   7   8
ENDBRANCH   5   7
BRANCH   4  19
HETATM   19  O6  UNL     1      -1.595  -0.447  -2.520  1.00  0.00    -0.359 OA
ATOM     20  H6  UNL     1      -0.697  -0.689  -2.712  1.00  0.00     0.217 HD
ENDBRANCH   4  19
BRANCH   6  21
HETATM   21  O7  UNL     1      -1.361  -3.072   1.467  1.00  0.00    -0.359 OA
ATOM     22  H7  UNL     1      -0.464  -3.297   1.249  1.00  0.00     0.217 HD
ENDBRANCH   6  21
BRANCH   3  23
HETATM   23  C6  UNL     1      -4.197   0.289  -2.015  1.00  0.00     0.260 C 
HETATM   24  O3  UNL     1      -4.360   1.571  -1.526  1.00  0.00    -0.335 OA
HETATM   25  C7  UNL     1      -5.652   1.971  -1.760  1.00  0.00     0.167 C 
HETATM   26  C8  UNL     1      -5.749   3.226  -2.579  1.00  0.00     0.079 C 
HETATM   27  C9  UNL     1      -6.310   2.228  -0.412  1.00  0.00     0.079 C 
HETATM   28  O4  UNL     1      -6.341   0.941  -2.414  1.00  0.00    -0.282 OA
HETATM   29  C10 UNL     1      -5.574  -0.224  -2.260  1.00  0.00     0.295 C 
HETATM   30  O5  UNL     1      -5.941  -1.406  -2.314  1.00  0.00    -0.262 OA
ENDBRANCH   3  23
BRANCH   1  31
HETATM   31  C2  UNL     1      -3.975  -2.414   2.099  1.00  0.00     0.295 C 
HETATM   32  O2  UNL     1      -3.341  -3.161   2.870  1.00  0.00    -0.259 OA
BRANCH  31  33
HETATM   33  O1  UNL     1      -5.274  -2.075   2.392  1.00  0.00    -0.322 OA
HETATM   34  C1  UNL     1      -5.956  -2.543   3.562  1.00  0.00     0.213 C 
ENDBRANCH  31  33
ENDBRANCH   1  31
TORSDOF 10
