REMARK  9 active torsions:
REMARK  status: ('A' for Active; 'I' for Inactive)
REMARK    1  A    between atoms: N1_1  and  C1_5 
REMARK    2  A    between atoms: C1_5  and  C2_6 
REMARK    3  A    between atoms: C2_6  and  C3_7 
REMARK    4  A    between atoms: C3_7  and  N2_8 
REMARK    5  A    between atoms: N2_8  and  C4_10 
REMARK    6  A    between atoms: C5_13  and  N4_14 
REMARK    7  A    between atoms: N6_26  and  C15_27 
REMARK    8  A    between atoms: C15_27  and  O1_28 
REMARK    9  A    between atoms: C15_27  and  N7_30 
ROOT
HETATM    1  C4  UNL     1      -1.422   1.322   0.067  1.00  0.00     0.125 A 
HETATM    2  N3  UNL     1      -2.243   0.323  -0.253  1.00  0.00    -0.176 N 
ATOM      3  H3  UNL     1      -3.247   0.488  -0.320  1.00  0.00     0.186 HD
HETATM    4  C5  UNL     1      -1.736  -0.925  -0.492  1.00  0.00     0.682 A 
HETATM    5  N5  UNL     1      -0.418  -1.168  -0.412  1.00  0.00    -0.193 N 
ATOM      6  H5  UNL     1      -0.066  -2.108  -0.596  1.00  0.00     0.184 HD
HETATM    7  C11 UNL     1       0.444  -0.185  -0.092  1.00  0.00     0.054 A 
HETATM    8  C12 UNL     1      -0.080   1.057   0.145  1.00  0.00     0.013 A 
HETATM    9  C13 UNL     1       0.842   2.191   0.529  1.00  0.00     0.064 C 
HETATM   10  C14 UNL     1       1.835   1.620   1.531  1.00  0.00     0.131 C 
HETATM   11  N6  UNL     1       2.548   0.501   0.894  1.00  0.00    -0.342 N 
HETATM   12  C20 UNL     1       1.910  -0.398  -0.008  1.00  0.00     0.184 C 
ENDROOT
BRANCH   1  13
HETATM   13  N2  UNL     1      -1.860   2.490   0.295  1.00  0.00    -0.375 N 
ATOM     14  H2  UNL     1      -1.172   3.203   0.535  1.00  0.00     0.161 HD
BRANCH  13  15
HETATM   15  C3  UNL     1      -3.229   2.900   0.247  1.00  0.00     0.123 C 
BRANCH  15  16
HETATM   16  C2  UNL     1      -3.394   4.082   1.201  1.00  0.00     0.047 C 
BRANCH  16  17
HETATM   17  C1  UNL     1      -2.504   5.227   0.787  1.00  0.00     0.231 C 
BRANCH  17  18
HETATM   18  N1  UNL     1      -2.705   6.308   1.722  1.00  0.00    -0.079 N 
ATOM     19  H13 UNL     1      -3.684   6.580   1.806  1.00  0.00     0.274 HD
ATOM     20  H12 UNL     1      -2.558   6.024   2.691  1.00  0.00     0.274 HD
ATOM     21  H11 UNL     1      -2.103   7.082   1.442  1.00  0.00     0.274 HD
ENDBRANCH  17  18
ENDBRANCH  16  17
ENDBRANCH  15  16
ENDBRANCH  13  15
ENDBRANCH   1  13
BRANCH   4  22
HETATM   22  N4  UNL     1      -2.605  -2.005  -0.836  1.00  0.00    -0.218 N 
HETATM   23  C6  UNL     1      -2.051  -3.298  -1.076  1.00  0.00     0.141 C 
HETATM   24  C7  UNL     1      -3.023  -4.384  -1.370  1.00  0.00     0.020 C 
HETATM   25  C8  UNL     1      -4.383  -3.943  -1.792  1.00  0.00     0.003 C 
HETATM   26  C9  UNL     1      -4.867  -2.949  -0.735  1.00  0.00     0.020 C 
HETATM   27  C10 UNL     1      -4.032  -1.709  -0.921  1.00  0.00     0.141 C 
ENDBRANCH   4  22
BRANCH  11  28
HETATM   28  C15 UNL     1       3.908   0.396   1.244  1.00  0.00     0.217 C 
BRANCH  28  29
HETATM   29  O1  UNL     1       4.356   1.296   2.083  1.00  0.00    -0.332 OA
ATOM     30  H1  UNL     1       5.273   1.225   2.319  1.00  0.00     0.220 HD
ENDBRANCH  28  29
BRANCH  28  31
HETATM   31  N7  UNL     1       4.802  -0.569   0.779  1.00  0.00    -0.347 N 
HETATM   32  C16 UNL     1       4.648  -1.668  -0.117  1.00  0.00     0.126 C 
HETATM   33  C17 UNL     1       6.088  -2.125  -0.469  1.00  0.00     0.021 C 
HETATM   34  C18 UNL     1       6.864  -0.875  -0.132  1.00  0.00     0.021 C 
HETATM   35  C19 UNL     1       6.231  -0.559   1.232  1.00  0.00     0.126 C 
ENDBRANCH  28  31
ENDBRANCH  11  28
TORSDOF 9
