REMARK  5 active torsions:
REMARK  status: ('A' for Active; 'I' for Inactive)
REMARK    1  A    between atoms: C2_2  and  C3_3 
REMARK    2  A    between atoms: C8_8  and  C9_9 
REMARK    3  A    between atoms: C14_15  and  O1_16 
REMARK    4  A    between atoms: C15_18  and  C17_20 
REMARK    5  A    between atoms: C20_25  and  O4_26 
ROOT
HETATM    1  C3  UNL     1       1.971  -1.149   0.301  1.00  0.00    -0.018 C 
HETATM    2  C4  UNL     1       2.346  -1.920   1.584  1.00  0.00     0.018 C 
HETATM    3  C5  UNL     1       0.507  -1.177   0.215  1.00  0.00     0.021 C 
HETATM    4  C6  UNL     1      -0.241   0.075  -0.086  1.00  0.00    -0.033 C 
HETATM    5  C7  UNL     1      -0.088   0.325  -1.562  1.00  0.00     0.016 C 
HETATM    6  C8  UNL     1      -1.685   0.016   0.256  1.00  0.00     0.030 C 
HETATM    7  C13 UNL     1      -2.264   1.368  -0.230  1.00  0.00     0.040 C 
HETATM    8  C14 UNL     1      -1.589   2.564   0.244  1.00  0.00     0.137 C 
HETATM    9  C15 UNL     1      -0.118   2.559   0.419  1.00  0.00     0.075 C 
HETATM   10  C16 UNL     1       0.639   3.165  -0.736  1.00  0.00     0.030 C 
HETATM   11  C18 UNL     1       0.343   1.175   0.776  1.00  0.00     0.018 C 
HETATM   12  C19 UNL     1       1.786   1.149   1.036  1.00  0.00     0.039 C 
HETATM   13  C20 UNL     1       2.630   0.177   0.283  1.00  0.00     0.126 C 
ENDROOT
BRANCH   6  14
HETATM   14  C9  UNL     1      -2.638  -0.972  -0.075  1.00  0.00     0.229 C 
HETATM   15  C10 UNL     1      -3.009  -1.334  -1.491  1.00  0.00     0.066 C 
HETATM   16  C11 UNL     1      -4.034  -2.136  -0.652  1.00  0.00     0.274 C 
HETATM   17  N1  UNL     1      -2.869  -2.274   0.270  1.00  0.00     0.089 N 
HETATM   18  C12 UNL     1      -2.308  -3.492   0.045  1.00  0.00     0.310 C 
ENDBRANCH   6  14
BRANCH   8  19
HETATM   19  O1  UNL     1      -1.886   3.604  -0.671  1.00  0.00    -0.394 OA
ATOM     20  H1  UNL     1      -1.445   4.386  -0.361  1.00  0.00     0.210 HD
ENDBRANCH   8  19
BRANCH   1  21
HETATM   21  C2  UNL     1       2.651  -1.968  -0.807  1.00  0.00     0.007 C 
HETATM   22  C1  UNL     1       4.128  -2.058  -0.648  1.00  0.00     0.006 C 
ENDBRANCH   1  21
BRANCH   9  23
HETATM   23  C17 UNL     1       0.193   3.425   1.597  1.00  0.00     0.184 C 
HETATM   24  O2  UNL     1       0.750   2.999   2.612  1.00  0.00    -0.647 OA
HETATM   25  O3  UNL     1      -0.163   4.789   1.552  1.00  0.00    -0.647 OA
ENDBRANCH   9  23
BRANCH  13  26
HETATM   26  O4  UNL     1       3.857   0.034   0.986  1.00  0.00    -0.395 OA
ATOM     27  H4  UNL     1       4.280   0.885   0.974  1.00  0.00     0.210 HD
ENDBRANCH  13  26
TORSDOF 5
