REMARK  6 active torsions:
REMARK  status: ('A' for Active; 'I' for Inactive)
REMARK    1  A    between atoms: N1_4  and  N2_6 
REMARK    2  A    between atoms: N2_6  and  C4_8 
REMARK       I    between atoms: N5_14  and  C6_16 
REMARK    3  A    between atoms: C6_16  and  C7_18 
REMARK    4  A    between atoms: C7_18  and  C8_19 
REMARK    5  A    between atoms: C8_19  and  C9_20 
REMARK       I    between atoms: C9_20  and  N6_22 
REMARK    6  A    between atoms: C12_25  and  O3_27 
ROOT
HETATM    1  C4  UNL     1       4.756   0.544  -0.637  1.00  0.00     0.181 A 
HETATM    2  N3  UNL     1       4.702   0.409  -1.962  1.00  0.00    -0.276 N 
ATOM      3  H3  UNL     1       5.550   0.479  -2.524  1.00  0.00     0.189 HD
HETATM    4  N4  UNL     1       3.573   0.191  -2.517  1.00  0.00    -0.277 N 
ATOM      5  H4  UNL     1       3.506   0.084  -3.529  1.00  0.00     0.189 HD
HETATM    6  C5  UNL     1       2.483   0.105  -1.753  1.00  0.00     0.169 A 
HETATM    7  N5  UNL     1       1.246  -0.113  -2.146  1.00  0.00    -0.306 N 
ATOM      8  H5  UNL     1       1.013  -0.241  -3.131  1.00  0.00     0.171 HD
HETATM    9  C6  UNL     1       0.237  -0.163  -1.120  1.00  0.00     0.224 C 
HETATM   10  O1  UNL     1      -0.303  -1.263  -0.860  1.00  0.00    -0.273 OA
HETATM   11  S1  UNL     1       3.126   0.348  -0.188  1.00  0.00    -0.014 SA
ENDROOT
BRANCH   9  12
HETATM   12  C7  UNL     1      -0.175   1.038  -0.372  1.00  0.00     0.112 C 
BRANCH  12  13
HETATM   13  C8  UNL     1      -1.385   0.717   0.462  1.00  0.00     0.112 C 
BRANCH  13  14
HETATM   14  C9  UNL     1      -2.492   0.330  -0.432  1.00  0.00     0.220 C 
HETATM   15  O2  UNL     1      -2.386   0.461  -1.674  1.00  0.00    -0.273 OA
HETATM   16  N6  UNL     1      -3.684  -0.193   0.120  1.00  0.00    -0.352 N 
HETATM   17  C10 UNL     1      -3.796  -0.340   1.552  1.00  0.00     0.128 C 
HETATM   18  C15 UNL     1      -4.810  -0.591  -0.699  1.00  0.00     0.128 C 
HETATM   19  C11 UNL     1      -5.205   0.064   1.961  1.00  0.00     0.057 C 
HETATM   20  C12 UNL     1      -6.240  -0.781   1.279  1.00  0.00     0.057 C 
HETATM   21  C13 UNL     1      -7.326   0.115   0.767  1.00  0.00     0.046 C 
HETATM   22  C14 UNL     1      -5.651  -1.552   0.113  1.00  0.00     0.057 C 
BRANCH  20  23
HETATM   23  O3  UNL     1      -6.736  -1.705   2.179  1.00  0.00    -0.390 OA
ATOM     24  H3  UNL     1      -7.391  -2.240   1.747  1.00  0.00     0.210 HD
ENDBRANCH  20  23
ENDBRANCH  13  14
ENDBRANCH  12  13
ENDBRANCH   9  12
BRANCH   1  25
HETATM   25  N2  UNL     1       5.783   0.768   0.143  1.00  0.00    -0.279 N 
ATOM     26  H2  UNL     1       5.648   0.844   1.151  1.00  0.00     0.189 HD
BRANCH  25  27
HETATM   27  N1  UNL     1       7.040   0.901  -0.391  1.00  0.00    -0.308 N 
HETATM   28  C2  UNL     1       8.068   0.194  -0.070  1.00  0.00    -0.004 C 
HETATM   29  C1  UNL     1       8.016  -0.883   0.947  1.00  0.00     0.064 C 
HETATM   30  C3  UNL     1       9.342   0.507  -0.775  1.00  0.00     0.064 C 
ATOM     31  H1  UNL     1       7.172   1.620  -1.102  1.00  0.00     0.186 HD
ENDBRANCH  25  27
ENDBRANCH   1  25
TORSDOF 6
