REMARK  11 active torsions:
REMARK  status: ('A' for Active; 'I' for Inactive)
REMARK    1  A    between atoms: N1_2  and  C3_4 
REMARK    2  A    between atoms: C3_4  and  C4_5 
REMARK    3  A    between atoms: C4_5  and  N2_6 
REMARK       I    between atoms: N2_6  and  C5_8 
REMARK    4  A    between atoms: C5_8  and  C6_10 
REMARK    5  A    between atoms: C6_10  and  C7_11 
REMARK    6  A    between atoms: C6_10  and  C13_27 
REMARK    7  A    between atoms: C7_11  and  C8_12 
REMARK    8  A    between atoms: N3_13  and  N4_15 
REMARK    9  A    between atoms: N4_15  and  C9_17 
REMARK   10  A    between atoms: C11_19  and  C12_20 
REMARK   11  A    between atoms: C13_27  and  N7_28 
ROOT
HETATM    1  C7  UNL     1       0.256   0.927  -0.349  1.00  0.00     0.062 C 
ENDROOT
BRANCH   1   2
HETATM    2  C6  UNL     1      -0.045  -0.472  -0.872  1.00  0.00     0.106 C 
BRANCH   2   3
HETATM    3  C5  UNL     1      -1.483  -0.705  -0.616  1.00  0.00     0.224 C 
HETATM    4  N2  UNL     1      -2.501   0.083  -1.212  1.00  0.00    -0.359 N 
ATOM      5  H2  UNL     1      -2.215   0.834  -1.841  1.00  0.00     0.162 HD
HETATM    6  O1  UNL     1      -1.808  -1.639   0.160  1.00  0.00    -0.273 OA
BRANCH   4   7
HETATM    7  C4  UNL     1      -3.909  -0.106  -0.989  1.00  0.00     0.152 C 
BRANCH   7   8
HETATM    8  C3  UNL     1      -4.316   0.066   0.445  1.00  0.00     0.290 C 
BRANCH   8   9
HETATM    9  N1  UNL     1      -5.744  -0.129   0.625  1.00  0.00     0.081 N 
HETATM   10  C1  UNL     1      -6.138   0.034   1.994  1.00  0.00     0.309 C 
HETATM   11  C2  UNL     1      -6.539   0.661  -0.268  1.00  0.00     0.309 C 
ENDBRANCH   8   9
ENDBRANCH   7   8
ENDBRANCH   4   7
ENDBRANCH   2   3
BRANCH   2  12
HETATM   12  C13 UNL     1       0.338  -0.601  -2.322  1.00  0.00     0.215 C 
BRANCH  12  13
HETATM   13  N7  UNL     1       0.051  -1.916  -2.830  1.00  0.00    -0.155 N 
HETATM   14  O4  UNL     1      -0.437  -2.777  -2.083  1.00  0.00    -0.537 OA
HETATM   15  O5  UNL     1       0.313  -2.240  -4.136  1.00  0.00    -0.537 OA
ENDBRANCH  12  13
ENDBRANCH   2  12
ENDBRANCH   1   2
BRANCH   1  16
HETATM   16  C8  UNL     1       1.703   1.211  -0.585  1.00  0.00     0.081 C 
HETATM   17  N3  UNL     1       2.538   0.307  -0.182  1.00  0.00    -0.314 N 
ATOM     18  H3  UNL     1       2.192  -0.540   0.268  1.00  0.00     0.185 HD
BRANCH  17  19
HETATM   19  N4  UNL     1       3.894   0.487  -0.360  1.00  0.00    -0.285 N 
ATOM     20  H4  UNL     1       4.228   0.945  -1.208  1.00  0.00     0.188 HD
BRANCH  19  21
HETATM   21  C9  UNL     1       4.843   0.046   0.617  1.00  0.00     0.137 A 
HETATM   22  C10 UNL     1       6.215   0.180   0.531  1.00  0.00     0.089 A 
HETATM   23  C11 UNL     1       6.805  -0.365   1.664  1.00  0.00     0.128 A 
HETATM   24  N5  UNL     1       5.776  -0.811   2.403  1.00  0.00    -0.293 N 
HETATM   25  N6  UNL     1       4.619  -0.568   1.784  1.00  0.00    -0.284 N 
ATOM     26  H5  UNL     1       5.866  -1.270   3.309  1.00  0.00     0.187 HD
ATOM     27  H6  UNL     1       3.698  -0.814   2.148  1.00  0.00     0.188 HD
BRANCH  23  28
HETATM   28  C12 UNL     1       8.230  -0.428   1.967  1.00  0.00     0.228 C 
HETATM   29  O2  UNL     1       9.085   0.037   1.171  1.00  0.00    -0.643 OA
HETATM   30  O3  UNL     1       8.663  -1.001   3.137  1.00  0.00    -0.643 OA
ENDBRANCH  23  28
ENDBRANCH  19  21
ENDBRANCH  17  19
ENDBRANCH   1  16
TORSDOF 11
