REMARK  11 active torsions:
REMARK  status: ('A' for Active; 'I' for Inactive)
REMARK    1  A    between atoms: C2_2  and  O1_3 
REMARK    2  A    between atoms: O1_3  and  C3_4 
REMARK       I    between atoms: C3_4  and  N1_6 
REMARK    3  A    between atoms: N1_6  and  C4_8 
REMARK    4  A    between atoms: C4_8  and  C6_10 
REMARK    5  A    between atoms: C6_10  and  O3_11 
REMARK    6  A    between atoms: C6_10  and  C7_13 
REMARK    7  A    between atoms: C7_13  and  O4_14 
REMARK    8  A    between atoms: C7_13  and  N2_16 
REMARK    9  A    between atoms: N2_16  and  C8_18 
REMARK   10  A    between atoms: C10_22  and  S1_23 
REMARK   11  A    between atoms: S1_23  and  N4_26 
REMARK       I    between atoms: N4_26  and  C11_28 
ROOT
HETATM    1  N2  UNL     1      -0.941  -0.934  -2.213  1.00  0.00    -0.327 N 
ATOM      2  H2  UNL     1      -0.548  -0.771  -3.140  1.00  0.00     0.165 HD
ENDROOT
BRANCH   1   3
HETATM    3  C7  UNL     1      -0.049  -1.229  -1.099  1.00  0.00     0.251 C 
BRANCH   3   4
HETATM    4  C6  UNL     1       1.275  -0.612  -1.394  1.00  0.00     0.189 C 
BRANCH   4   5
HETATM    5  C4  UNL     1       2.305  -0.782  -0.309  1.00  0.00     0.115 C 
HETATM    6  C5  UNL     1       2.583  -2.264  -0.167  1.00  0.00     0.035 C 
BRANCH   5   7
HETATM    7  N1  UNL     1       3.510  -0.064  -0.668  1.00  0.00    -0.330 N 
HETATM    8  C3  UNL     1       4.185   0.803   0.220  1.00  0.00     0.360 C 
HETATM    9  O2  UNL     1       3.796   1.024   1.401  1.00  0.00    -0.239 OA
ATOM     10  H1  UNL     1       3.889  -0.190  -1.606  1.00  0.00     0.165 HD
BRANCH   8  11
HETATM   11  O1  UNL     1       5.335   1.470  -0.164  1.00  0.00    -0.304 OA
BRANCH  11  12
HETATM   12  C2  UNL     1       6.049   2.336   0.697  1.00  0.00     0.176 C 
HETATM   13  C1  UNL     1       6.555   1.606   1.922  1.00  0.00     0.034 C 
ENDBRANCH  11  12
ENDBRANCH   8  11
ENDBRANCH   5   7
ENDBRANCH   4   5
BRANCH   4  14
HETATM   14  O3  UNL     1       1.756  -1.143  -2.601  1.00  0.00    -0.389 OA
ATOM     15  H3  UNL     1       1.106  -1.036  -3.286  1.00  0.00     0.210 HD
ENDBRANCH   4  14
ENDBRANCH   3   4
BRANCH   3  16
HETATM   16  O4  UNL     1      -0.654  -0.606   0.021  1.00  0.00    -0.374 OA
ATOM     17  H4  UNL     1      -1.498  -0.999   0.209  1.00  0.00     0.212 HD
ENDBRANCH   3  16
ENDBRANCH   1   3
BRANCH   1  18
HETATM   18  C8  UNL     1      -2.229  -0.875  -2.047  1.00  0.00     0.227 A 
HETATM   19  N3  UNL     1      -3.191  -0.618  -2.955  1.00  0.00    -0.329 N 
HETATM   20  C9  UNL     1      -4.363  -0.674  -2.271  1.00  0.00     0.143 A 
ATOM     21  H3  UNL     1      -3.065  -0.422  -3.948  1.00  0.00     0.168 HD
HETATM   22  C10 UNL     1      -4.089  -0.962  -0.969  1.00  0.00     0.209 A 
HETATM   23  O8  UNL     1      -2.793  -1.076  -0.874  1.00  0.00    -0.264 OA
BRANCH  22  24
HETATM   24  S1  UNL     1      -5.172  -1.162   0.392  1.00  0.00     0.289 S 
HETATM   25  O5  UNL     1      -6.593  -0.966  -0.032  1.00  0.00    -0.198 OA
HETATM   26  O6  UNL     1      -4.956  -2.528   0.976  1.00  0.00    -0.198 OA
BRANCH  24  27
HETATM   27  N4  UNL     1      -4.752   0.055   1.547  1.00  0.00    -0.249 N 
HETATM   28  C11 UNL     1      -5.597   1.175   1.709  1.00  0.00     0.227 C 
HETATM   29  C12 UNL     1      -5.339   2.286   2.669  1.00  0.00     0.118 C 
HETATM   30  O7  UNL     1      -6.638   1.251   1.004  1.00  0.00    -0.273 OA
ATOM     31  H4  UNL     1      -3.903  -0.035   2.105  1.00  0.00     0.182 HD
ENDBRANCH  24  27
ENDBRANCH  22  24
ENDBRANCH   1  18
TORSDOF 11
