REMARK  1 active torsions:
REMARK  status: ('A' for Active; 'I' for Inactive)
REMARK    1  A    between atoms: C1_4  and  N2_5 
ROOT
HETATM    1  N2  UNL     1       1.934   0.374   0.089  1.00  0.00    -0.192 N 
HETATM    2  N3  UNL     1       1.072   1.032   0.843  1.00  0.00    -0.277 N 
ATOM      3  H3  UNL     1       1.306   1.765   1.512  1.00  0.00     0.189 HD
HETATM    4  C2  UNL     1      -0.178   0.571   0.580  1.00  0.00     0.078 A 
HETATM    5  C3  UNL     1      -1.439   0.882   1.058  1.00  0.00     0.033 A 
HETATM    6  C4  UNL     1      -2.545   0.206   0.566  1.00  0.00     0.002 A 
HETATM    7  C5  UNL     1      -2.440  -0.779  -0.394  1.00  0.00     0.002 A 
HETATM    8  C6  UNL     1      -1.166  -1.063  -0.848  1.00  0.00     0.033 A 
HETATM    9  C7  UNL     1      -0.043  -0.409  -0.380  1.00  0.00     0.078 A 
HETATM   10  N4  UNL     1       1.286  -0.499  -0.656  1.00  0.00    -0.277 N 
ATOM     11  H4  UNL     1       1.711  -1.137  -1.329  1.00  0.00     0.189 HD
ENDROOT
BRANCH   1  12
HETATM   12  C1  UNL     1       3.357   0.596   0.099  1.00  0.00     0.220 C 
HETATM   13  N1  UNL     1       4.050   0.209  -0.922  1.00  0.00    -0.392 N 
ATOM     14  H12 UNL     1       3.584  -0.242  -1.709  1.00  0.00     0.157 HD
ATOM     15  H11 UNL     1       5.058   0.366  -0.915  1.00  0.00     0.157 HD
ENDBRANCH   1  12
TORSDOF 1
