REMARK  13 active torsions:
REMARK  status: ('A' for Active; 'I' for Inactive)
REMARK    1  A    between atoms: C2_2  and  C4_4 
REMARK    2  A    between atoms: C4_4  and  C5_5 
REMARK    3  A    between atoms: C10_16  and  C11_17 
REMARK    4  A    between atoms: C11_17  and  C12_18 
REMARK    5  A    between atoms: C16_23  and  O3_24 
REMARK    6  A    between atoms: C17_26  and  C18_27 
REMARK    7  A    between atoms: C18_27  and  C19_28 
REMARK    8  A    between atoms: C19_28  and  C20_29 
REMARK    9  A    between atoms: C20_29  and  N4_30 
REMARK   10  A    between atoms: C22_37  and  O4_38 
REMARK   11  A    between atoms: C23_40  and  C24_41 
REMARK   12  A    between atoms: C24_41  and  C25_42 
REMARK   13  A    between atoms: C28_47  and  O5_48 
ROOT
HETATM    1  C5  UNL     1       3.049  -0.446  -0.949  1.00  0.00     0.159 C 
HETATM    2  N1  UNL     1       2.508  -1.570  -1.713  1.00  0.00    -0.347 N 
ATOM      3  H1  UNL     1       2.922  -2.483  -1.525  1.00  0.00     0.163 HD
HETATM    4  C6  UNL     1       1.496  -1.540  -2.665  1.00  0.00     0.240 C 
HETATM    5  O1  UNL     1       1.708  -2.220  -3.738  1.00  0.00    -0.271 OA
HETATM    6  C7  UNL     1       0.196  -0.834  -2.625  1.00  0.00     0.172 C 
HETATM    7  C8  UNL     1      -0.125  -0.451  -4.081  1.00  0.00     0.042 C 
HETATM    8  N2  UNL     1      -0.891  -1.648  -2.111  1.00  0.00    -0.346 N 
ATOM      9  H2  UNL     1      -1.307  -2.318  -2.758  1.00  0.00     0.163 HD
HETATM   10  C9  UNL     1      -1.429  -1.607  -0.810  1.00  0.00     0.241 C 
HETATM   11  O2  UNL     1      -2.697  -1.626  -0.702  1.00  0.00    -0.271 OA
HETATM   12  C10 UNL     1      -0.679  -1.542   0.440  1.00  0.00     0.178 C 
HETATM   13  N3  UNL     1      -1.376  -0.840   1.529  1.00  0.00    -0.355 N 
HETATM   14  C15 UNL     1      -1.280  -1.561   2.818  1.00  0.00     0.152 C 
HETATM   15  C16 UNL     1      -2.083   0.354   1.482  1.00  0.00     0.137 C 
HETATM   16  C17 UNL     1      -1.846   1.725   1.049  1.00  0.00     0.158 C 
HETATM   17  N7  UNL     1      -0.934   2.034   0.030  1.00  0.00    -0.357 N 
ATOM     18  H7  UNL     1      -1.214   1.586  -0.843  1.00  0.00     0.162 HD
HETATM   19  C22 UNL     1       0.243   2.769  -0.157  1.00  0.00     0.159 C 
HETATM   20  C23 UNL     1       1.657   2.449   0.056  1.00  0.00     0.062 C 
HETATM   21  N8  UNL     1       2.331   2.059  -1.169  1.00  0.00    -0.339 N 
ATOM     22  H8  UNL     1       2.491   2.833  -1.814  1.00  0.00     0.167 HD
HETATM   23  C28 UNL     1       2.799   0.841  -1.633  1.00  0.00     0.139 C 
ENDROOT
BRANCH  16  24
HETATM   24  C18 UNL     1      -3.193   2.395   0.689  1.00  0.00     0.035 C 
BRANCH  24  25
HETATM   25  C19 UNL     1      -3.941   1.749  -0.398  1.00  0.00     0.022 C 
BRANCH  25  26
HETATM   26  C20 UNL     1      -5.222   2.569  -0.604  1.00  0.00     0.122 C 
BRANCH  26  27
HETATM   27  N4  UNL     1      -6.043   1.989  -1.669  1.00  0.00    -0.367 N 
HETATM   28  C21 UNL     1      -6.643   2.749  -2.533  1.00  0.00     0.196 C 
HETATM   29  N5  UNL     1      -6.538   4.173  -2.496  1.00  0.00    -0.067 NA
HETATM   30  N6  UNL     1      -7.423   2.113  -3.533  1.00  0.00    -0.067 NA
ATOM     31  H4  UNL     1      -6.144   0.976  -1.732  1.00  0.00     0.161 HD
ENDBRANCH  26  27
ENDBRANCH  25  26
ENDBRANCH  24  25
ENDBRANCH  16  24
BRANCH  15  32
HETATM   32  O3  UNL     1      -3.293   0.206   1.964  1.00  0.00    -0.348 OA
ATOM     33  H3  UNL     1      -3.777   1.023   1.932  1.00  0.00     0.219 HD
ENDBRANCH  15  32
BRANCH  19  34
HETATM   34  O4  UNL     1       0.124   4.000  -0.628  1.00  0.00    -0.345 OA
ATOM     35  H4  UNL     1       0.923   4.499  -0.755  1.00  0.00     0.219 HD
ENDBRANCH  19  34
BRANCH  12  36
HETATM   36  C11 UNL     1      -0.117  -2.849   0.794  1.00  0.00     0.038 C 
BRANCH  36  37
HETATM   37  C12 UNL     1      -0.949  -4.043   1.049  1.00  0.00    -0.020 C 
HETATM   38  C13 UNL     1       0.006  -5.226   1.444  1.00  0.00     0.009 C 
HETATM   39  C14 UNL     1      -1.678  -4.622  -0.152  1.00  0.00     0.009 C 
ENDBRANCH  36  37
ENDBRANCH  12  36
BRANCH  20  40
HETATM   40  C24 UNL     1       2.203   1.967   1.323  1.00  0.00     0.065 C 
BRANCH  40  41
HETATM   41  C25 UNL     1       2.198   2.893   2.506  1.00  0.00    -0.017 C 
HETATM   42  C26 UNL     1       0.952   3.431   3.022  1.00  0.00     0.010 C 
HETATM   43  C27 UNL     1       2.956   2.252   3.682  1.00  0.00     0.010 C 
ENDBRANCH  40  41
ENDBRANCH  20  40
BRANCH  23  44
HETATM   44  O5  UNL     1       3.090   0.755  -2.901  1.00  0.00    -0.348 OA
ATOM     45  H5  UNL     1       2.929   1.582  -3.340  1.00  0.00     0.219 HD
ENDBRANCH  23  44
BRANCH   1  46
HETATM   46  C4  UNL     1       4.561  -0.658  -0.752  1.00  0.00     0.037 C 
BRANCH  46  47
HETATM   47  C2  UNL     1       4.932  -1.876  -0.022  1.00  0.00    -0.020 C 
HETATM   48  C1  UNL     1       4.387  -1.980   1.377  1.00  0.00     0.009 C 
HETATM   49  C3  UNL     1       6.463  -1.877   0.097  1.00  0.00     0.009 C 
ENDBRANCH  46  47
ENDBRANCH   1  46
TORSDOF 13
