REMARK  9 active torsions:
REMARK  status: ('A' for Active; 'I' for Inactive)
REMARK    1  A    between atoms: N1_1  and  C1_4 
REMARK    2  A    between atoms: N3_9  and  C4_11 
REMARK    3  A    between atoms: C4_11  and  C5_12 
REMARK    4  A    between atoms: C5_12  and  O1_13 
REMARK    5  A    between atoms: N5_19  and  N6_21 
REMARK    6  A    between atoms: N7_24  and  C8_25 
REMARK    7  A    between atoms: C8_25  and  C9_26 
REMARK    8  A    between atoms: C9_26  and  N8_27 
REMARK    9  A    between atoms: C9_26  and  C10_31 
ROOT
HETATM    1  C1  UNL     1      -3.625  -1.215  -2.646  1.00  0.00     0.223 A 
HETATM    2  N2  UNL     1      -3.895  -0.963  -1.338  1.00  0.00    -0.317 N 
ATOM      3  H2  UNL     1      -4.815  -1.050  -0.906  1.00  0.00     0.169 HD
HETATM    4  C2  UNL     1      -2.778  -0.583  -0.696  1.00  0.00     0.116 A 
HETATM    5  C3  UNL     1      -2.481  -0.221   0.586  1.00  0.00     0.136 A 
HETATM    6  N3  UNL     1      -3.283  -0.177   1.503  1.00  0.00    -0.352 N 
ATOM      7  H3  UNL     1      -2.783   0.123   2.340  1.00  0.00     0.166 HD
HETATM    8  N4  UNL     1      -1.180   0.110   0.855  1.00  0.00    -0.336 N 
ATOM      9  H4  UNL     1      -0.930   0.385   1.805  1.00  0.00     0.168 HD
HETATM   10  C6  UNL     1      -0.222   0.087  -0.083  1.00  0.00     0.110 A 
HETATM   11  C7  UNL     1       1.117   0.440   0.248  1.00  0.00     0.152 A 
HETATM   12  N5  UNL     1       1.257   0.754   1.448  1.00  0.00    -0.290 N 
ATOM     13  H5  UNL     1       0.386   0.702   1.976  1.00  0.00     0.188 HD
HETATM   14  N7  UNL     1       2.076   0.422  -0.668  1.00  0.00    -0.324 N 
HETATM   15  C11 UNL     1       1.747   0.053  -1.952  1.00  0.00     0.185 A 
HETATM   16  N10 UNL     1       0.491  -0.279  -2.263  1.00  0.00    -0.348 N 
ATOM     17  H10 UNL     1       0.281  -0.549  -3.224  1.00  0.00     0.167 HD
HETATM   18  C12 UNL     1      -0.499  -0.273  -1.373  1.00  0.00     0.101 A 
HETATM   19  C13 UNL     1      -1.801  -0.617  -1.697  1.00  0.00     0.139 A 
HETATM   20  O3  UNL     1      -2.354  -0.994  -2.819  1.00  0.00    -0.275 OA
ENDROOT
BRANCH  14  21
HETATM   21  C8  UNL     1       3.455   0.763  -0.400  1.00  0.00     0.173 C 
BRANCH  21  22
HETATM   22  C9  UNL     1       4.255  -0.452   0.000  1.00  0.00     0.290 C 
BRANCH  22  23
HETATM   23  N8  UNL     1       4.226  -1.434  -1.093  1.00  0.00    -0.065 N 
ATOM     24  H83 UNL     1       3.275  -1.673  -1.373  1.00  0.00     0.275 HD
ATOM     25  H82 UNL     1       4.542  -1.037  -1.978  1.00  0.00     0.275 HD
ATOM     26  H81 UNL     1       4.767  -2.255  -0.823  1.00  0.00     0.275 HD
ENDBRANCH  22  23
BRANCH  22  27
HETATM   27  C10 UNL     1       5.644  -0.015   0.273  1.00  0.00     0.263 C 
HETATM   28  N9  UNL     1       5.983   0.919   1.264  1.00  0.00    -0.060 NA
HETATM   29  O2  UNL     1       6.564  -0.515  -0.429  1.00  0.00    -0.275 OA
ENDBRANCH  22  27
ENDBRANCH  21  22
ENDBRANCH  14  21
BRANCH  12  30
HETATM   30  N6  UNL     1       2.292   1.142   2.192  1.00  0.00    -0.344 N 
ATOM     31  H62 UNL     1       3.151   1.187   1.644  1.00  0.00     0.176 HD
ATOM     32  H61 UNL     1       2.406   1.399   3.173  1.00  0.00     0.176 HD
ENDBRANCH  12  30
BRANCH   6  33
HETATM   33  C4  UNL     1      -4.603  -0.375   1.850  1.00  0.00     0.088 C 
BRANCH  33  34
HETATM   34  C5  UNL     1      -5.486   0.861   1.835  1.00  0.00     0.208 C 
BRANCH  34  35
HETATM   35  O1  UNL     1      -5.553   1.463   0.596  1.00  0.00    -0.396 OA
ATOM     36  H1  UNL     1      -6.105   2.236   0.587  1.00  0.00     0.209 HD
ENDBRANCH  34  35
ENDBRANCH  33  34
ENDBRANCH   6  33
BRANCH   1  37
HETATM   37  N1  UNL     1      -4.493  -1.603  -3.543  1.00  0.00    -0.365 N 
ATOM     38  H12 UNL     1      -5.489  -1.776  -3.407  1.00  0.00     0.159 HD
ATOM     39  H11 UNL     1      -4.290  -1.792  -4.525  1.00  0.00     0.159 HD
ENDBRANCH   1  37
TORSDOF 9
