REMARK  10 active torsions:
REMARK  status: ('A' for Active; 'I' for Inactive)
REMARK    1  A    between atoms: O1_2  and  C2_3 
REMARK    2  A    between atoms: C2_3  and  O2_4 
REMARK    3  A    between atoms: C2_3  and  C3_6 
REMARK    4  A    between atoms: N1_7  and  N2_9 
REMARK    5  A    between atoms: N2_9  and  C4_11 
REMARK    6  A    between atoms: C6_20  and  N6_21 
REMARK    7  A    between atoms: N6_21  and  N7_23 
REMARK    8  A    between atoms: N7_23  and  C7_24 
REMARK    9  A    between atoms: C7_24  and  C8_25 
REMARK   10  A    between atoms: N9_32  and  N10_33 
ROOT
HETATM    1  C4  UNL     1       2.617   1.094  -0.177  1.00  0.00     0.726 A 
HETATM    2  N3  UNL     1       2.390   2.061  -1.098  1.00  0.00    -0.020 N 
ATOM      3  H3  UNL     1       3.182   2.601  -1.447  1.00  0.00     0.203 HD
HETATM    4  C5  UNL     1       1.162   2.336  -1.569  1.00  0.00     0.705 A 
HETATM    5  N4  UNL     1       0.905   3.243  -2.447  1.00  0.00    -0.234 N 
ATOM      6  H41 UNL     1      -0.027   3.452  -2.805  1.00  0.00     0.174 HD
ATOM      7  H42 UNL     1       1.683   3.793  -2.811  1.00  0.00     0.174 HD
HETATM    8  N5  UNL     1       0.119   1.599  -1.081  1.00  0.00    -0.019 N 
ATOM      9  H5  UNL     1      -0.823   1.788  -1.423  1.00  0.00     0.203 HD
HETATM   10  C6  UNL     1       0.298   0.636  -0.167  1.00  0.00     0.736 A 
HETATM   11  N11 UNL     1       1.560   0.385   0.284  1.00  0.00    -0.018 N 
ATOM     12  H11 UNL     1       1.710  -0.347   0.978  1.00  0.00     0.203 HD
ENDROOT
BRANCH  10  13
HETATM   13  N6  UNL     1      -0.677  -0.051   0.290  1.00  0.00    -0.064 N 
ATOM     14  H6  UNL     1      -0.413  -0.754   0.981  1.00  0.00     0.221 HD
BRANCH  13  15
HETATM   15  N7  UNL     1      -1.923  -0.008   0.030  1.00  0.00    -0.323 NA
BRANCH  15  16
HETATM   16  C7  UNL     1      -2.994   0.244  -0.442  1.00  0.00     0.228 C 
BRANCH  16  17
HETATM   17  C8  UNL     1      -4.322  -0.289  -0.048  1.00  0.00     0.087 A 
HETATM   18  C9  UNL     1      -4.416  -1.185   0.971  1.00  0.00     0.028 A 
HETATM   19  C10 UNL     1      -3.238  -1.678   1.713  1.00  0.00     0.069 C 
HETATM   20  N8  UNL     1      -5.669  -1.623   1.291  1.00  0.00    -0.310 N 
HETATM   21  C11 UNL     1      -6.760  -1.185   0.621  1.00  0.00     0.348 A 
ATOM     22  H8  UNL     1      -5.785  -2.294   2.050  1.00  0.00     0.170 HD
HETATM   23  O3  UNL     1      -7.894  -1.617   0.950  1.00  0.00    -0.245 OA
HETATM   24  N9  UNL     1      -6.678  -0.293  -0.396  1.00  0.00    -0.174 N 
HETATM   25  C12 UNL     1      -5.465   0.159  -0.736  1.00  0.00     0.284 A 
HETATM   26  O4  UNL     1      -5.348   0.987  -1.673  1.00  0.00    -0.265 OA
BRANCH  24  27
HETATM   27  N10 UNL     1      -7.828   0.140  -1.068  1.00  0.00    -0.332 N 
ATOM     28 2H10 UNL     1      -8.752  -0.204  -0.809  1.00  0.00     0.177 HD
ATOM     29 1H10 UNL     1      -7.766   0.811  -1.833  1.00  0.00     0.177 HD
ENDBRANCH  24  27
ENDBRANCH  16  17
ENDBRANCH  15  16
ENDBRANCH  13  15
ENDBRANCH  10  13
BRANCH   1  30
HETATM   30  N2  UNL     1       3.815   0.854   0.251  1.00  0.00    -0.132 N 
ATOM     31  H2  UNL     1       3.918   0.116   0.947  1.00  0.00     0.205 HD
BRANCH  30  32
HETATM   32  N1  UNL     1       4.964   1.502  -0.146  1.00  0.00    -0.297 N 
HETATM   33  C3  UNL     1       6.112   0.891  -0.152  1.00  0.00     0.140 C 
ATOM     34  H1  UNL     1       4.914   2.477  -0.440  1.00  0.00     0.186 HD
BRANCH  33  35
HETATM   35  C2  UNL     1       6.185  -0.522   0.278  1.00  0.00     0.297 C 
BRANCH  35  36
HETATM   36  O1  UNL     1       7.448  -0.954   0.605  1.00  0.00    -0.361 OA
HETATM   37  C1  UNL     1       7.406  -1.440   1.932  1.00  0.00     0.205 C 
ENDBRANCH  35  36
BRANCH  35  38
HETATM   38  O2  UNL     1       5.637  -1.308  -0.762  1.00  0.00    -0.366 OA
ATOM     39  H2  UNL     1       4.764  -1.009  -0.988  1.00  0.00     0.213 HD
ENDBRANCH  35  38
ENDBRANCH  33  35
ENDBRANCH  30  32
ENDBRANCH   1  30
TORSDOF 10
