REMARK  3 active torsions:
REMARK  status: ('A' for Active; 'I' for Inactive)
REMARK    1  A    between atoms: O1_2  and  C2_3 
REMARK    2  A    between atoms: C6_10  and  N2_11 
REMARK    3  A    between atoms: N4_17  and  N5_19 
ROOT
HETATM    1  C2  UNL     1      -0.146  -0.546   0.503  1.00  0.00     0.125 C 
HETATM    2  C3  UNL     1      -1.433  -0.109   0.315  1.00  0.00     0.044 C 
HETATM    3  C4  UNL     1      -2.469  -1.127   0.592  1.00  0.00     0.057 C 
HETATM    4  C5  UNL     1      -1.852   1.153  -0.096  1.00  0.00     0.268 C 
HETATM    5  O2  UNL     1      -3.092   1.340  -0.011  1.00  0.00    -0.267 OA
HETATM    6  N1  UNL     1      -1.159   2.207  -0.569  1.00  0.00    -0.156 N 
ATOM      7  H1  UNL     1      -1.689   3.029  -0.857  1.00  0.00     0.187 HD
HETATM    8  C6  UNL     1       0.180   2.256  -0.690  1.00  0.00     0.680 C 
HETATM    9  N3  UNL     1       1.135   1.334  -0.442  1.00  0.00    -0.173 N 
ATOM     10  H3  UNL     1       2.076   1.574  -0.754  1.00  0.00     0.186 HD
HETATM   11  C7  UNL     1       1.005   0.142   0.162  1.00  0.00     0.169 C 
HETATM   12  N4  UNL     1       2.074  -0.501   0.497  1.00  0.00    -0.289 N 
ATOM     13  H4  UNL     1       2.013  -1.409   0.958  1.00  0.00     0.188 HD
ENDROOT
BRANCH   1  14
HETATM   14  O1  UNL     1       0.019  -1.792   1.088  1.00  0.00    -0.351 OA
HETATM   15  C1  UNL     1       0.079  -2.909   0.214  1.00  0.00     0.210 C 
ENDBRANCH   1  14
BRANCH  12  16
HETATM   16  N5  UNL     1       3.317   0.075   0.213  1.00  0.00    -0.344 N 
ATOM     17  H52 UNL     1       3.361   0.983  -0.249  1.00  0.00     0.176 HD
ATOM     18  H51 UNL     1       4.161  -0.433   0.478  1.00  0.00     0.176 HD
ENDBRANCH  12  16
BRANCH   8  19
HETATM   19  N2  UNL     1       0.617   3.397  -1.122  1.00  0.00    -0.234 N 
ATOM     20  H22 UNL     1      -0.104   4.093  -1.309  1.00  0.00     0.174 HD
ATOM     21  H21 UNL     1       1.632   3.434  -1.214  1.00  0.00     0.174 HD
ENDBRANCH   8  19
TORSDOF 3
