REMARK  5 active torsions:
REMARK  status: ('A' for Active; 'I' for Inactive)
REMARK    1  A    between atoms: N1_1  and  N2_4 
REMARK    2  A    between atoms: C1_6  and  C2_7 
REMARK       I    between atoms: C2_7  and  N3_9 
REMARK    3  A    between atoms: N3_9  and  C3_11 
REMARK    4  A    between atoms: C4_16  and  S1_17 
REMARK    5  A    between atoms: S1_17  and  N6_18 
ROOT
HETATM    1  C3  UNL     1       0.089   0.820  -0.788  1.00  0.00     0.702 A 
HETATM    2  N4  UNL     1      -0.223   1.171  -2.050  1.00  0.00    -0.130 N 
ATOM      3  H4  UNL     1       0.416   1.597  -2.721  1.00  0.00     0.205 HD
HETATM    4  N5  UNL     1      -1.499   0.873  -2.281  1.00  0.00    -0.260 N 
ATOM      5  H5  UNL     1      -1.992   1.035  -3.159  1.00  0.00     0.190 HD
HETATM    6  C4  UNL     1      -2.039   0.325  -1.178  1.00  0.00     0.253 A 
HETATM    7  N7  UNL     1      -1.042   0.304  -0.274  1.00  0.00    -0.162 N 
ATOM      8  H7  UNL     1      -1.132  -0.056   0.676  1.00  0.00     0.186 HD
ENDROOT
BRANCH   1   9
HETATM    9  N3  UNL     1       1.253   0.973  -0.238  1.00  0.00    -0.153 N 
HETATM   10  C2  UNL     1       1.563   0.605   1.072  1.00  0.00     0.276 C 
HETATM   11  O1  UNL     1       0.752   0.879   1.989  1.00  0.00    -0.266 OA
ATOM     12  H3  UNL     1       1.993   1.391  -0.802  1.00  0.00     0.187 HD
BRANCH  10  13
HETATM   13  C1  UNL     1       2.787  -0.086   1.434  1.00  0.00     0.181 C 
HETATM   14  N2  UNL     1       3.635  -0.380   0.518  1.00  0.00    -0.313 N 
ATOM     15  H2  UNL     1       3.428  -0.121  -0.447  1.00  0.00     0.185 HD
BRANCH  14  16
HETATM   16  N1  UNL     1       4.835  -1.045   0.798  1.00  0.00    -0.345 N 
ATOM     17  H12 UNL     1       5.026  -1.297   1.768  1.00  0.00     0.176 HD
ATOM     18  H11 UNL     1       5.509  -1.279   0.069  1.00  0.00     0.176 HD
ENDBRANCH  14  16
ENDBRANCH  10  13
ENDBRANCH   1   9
BRANCH   6  19
HETATM   19  S1  UNL     1      -3.698  -0.243  -0.961  1.00  0.00     0.290 S 
HETATM   20  O2  UNL     1      -4.023  -1.335  -1.921  1.00  0.00    -0.198 OA
HETATM   21  O3  UNL     1      -4.658   0.880  -1.092  1.00  0.00    -0.198 OA
BRANCH  19  22
HETATM   22  N6  UNL     1      -3.834  -0.854   0.662  1.00  0.00    -0.322 N 
ATOM     23  H62 UNL     1      -3.083  -0.874   1.352  1.00  0.00     0.169 HD
ATOM     24  H61 UNL     1      -4.792  -1.182   0.787  1.00  0.00     0.169 HD
ENDBRANCH  19  22
ENDBRANCH   6  19
TORSDOF 5
