REMARK  3 active torsions:
REMARK  status: ('A' for Active; 'I' for Inactive)
REMARK       I    between atoms: C1_4  and  N3_6 
REMARK    1  A    between atoms: N3_6  and  C2_8 
REMARK    2  A    between atoms: C3_13  and  S1_14 
REMARK    3  A    between atoms: S1_14  and  N6_15 
ROOT
HETATM    1  C2  UNL     1      -1.056  -0.493   0.509  1.00  0.00     0.699 A 
HETATM    2  N4  UNL     1      -0.964   0.654  -0.182  1.00  0.00    -0.131 N 
ATOM      3  H4  UNL     1      -1.809   1.142  -0.478  1.00  0.00     0.205 HD
HETATM    4  N5  UNL     1       0.216   1.145  -0.476  1.00  0.00    -0.273 N 
ATOM      5  H5  UNL     1       0.260   2.017  -1.003  1.00  0.00     0.188 HD
HETATM    6  C3  UNL     1       1.371   0.556  -0.118  1.00  0.00     0.179 A 
HETATM    7  C4  UNL     1       1.268  -0.619   0.590  1.00  0.00     0.151 A 
HETATM    8  N7  UNL     1       0.065  -1.104   0.879  1.00  0.00    -0.197 N 
ATOM      9  H7  UNL     1      -0.001  -1.976   1.404  1.00  0.00     0.183 HD
ENDROOT
BRANCH   1  10
HETATM   10  N3  UNL     1      -2.220  -1.014   0.820  1.00  0.00    -0.162 N 
HETATM   11  C1  UNL     1      -3.367  -0.299   0.386  1.00  0.00     0.200 C 
HETATM   12  N1  UNL     1      -3.592   0.871   0.824  1.00  0.00    -0.373 N 
HETATM   13  N2  UNL     1      -4.227  -0.941  -0.536  1.00  0.00    -0.063 NA
ATOM     14  H12 UNL     1      -4.416   1.385   0.512  1.00  0.00     0.158 HD
ATOM     15  H11 UNL     1      -2.972   1.334   1.489  1.00  0.00     0.158 HD
ATOM     16  H3  UNL     1      -2.296  -1.885   1.345  1.00  0.00     0.187 HD
ENDBRANCH   1  10
BRANCH   6  17
HETATM   17  S1  UNL     1       2.946   1.203  -0.505  1.00  0.00     0.275 S 
HETATM   18  O1  UNL     1       3.038   2.552   0.186  1.00  0.00    -0.199 OA
HETATM   19  O2  UNL     1       3.008   1.430  -1.983  1.00  0.00    -0.199 OA
BRANCH  17  20
HETATM   20  N6  UNL     1       4.134   0.196   0.105  1.00  0.00    -0.323 N 
ATOM     21  H62 UNL     1       3.950  -0.663   0.623  1.00  0.00     0.169 HD
ATOM     22  H61 UNL     1       5.054   0.574  -0.121  1.00  0.00     0.169 HD
ENDBRANCH  17  20
ENDBRANCH   6  17
TORSDOF 3
