REMARK  7 active torsions:
REMARK  status: ('A' for Active; 'I' for Inactive)
REMARK    1  A    between atoms: C2_2  and  S1_3 
REMARK    2  A    between atoms: S1_3  and  C3_4 
REMARK    3  A    between atoms: C3_4  and  C4_5 
REMARK    4  A    between atoms: C4_5  and  C5_6 
REMARK    5  A    between atoms: C8_12  and  N2_13 
REMARK       I    between atoms: N2_13  and  C9_15 
REMARK       I    between atoms: C9_15  and  N4_19 
REMARK    6  A    between atoms: N4_19  and  N5_21 
REMARK    7  A    between atoms: C12_32  and  N9_33 
ROOT
HETATM    1  C5  UNL     1       0.768   0.218  -0.606  1.00  0.00     0.125 A 
HETATM    2  N1  UNL     1       0.335  -0.984  -0.217  1.00  0.00    -0.337 N 
ATOM      3  H1  UNL     1       0.947  -1.758   0.039  1.00  0.00     0.168 HD
HETATM    4  C6  UNL     1      -1.006  -1.047  -0.205  1.00  0.00     0.090 A 
HETATM    5  C7  UNL     1      -1.393   0.233  -0.625  1.00  0.00     0.149 A 
HETATM    6  O1  UNL     1      -0.316   0.948  -0.851  1.00  0.00    -0.291 OA
HETATM    7  C8  UNL     1      -2.749   0.453  -0.705  1.00  0.00     0.159 A 
HETATM    8  N6  UNL     1      -3.652  -0.494  -0.403  1.00  0.00    -0.325 N 
ATOM      9  H6  UNL     1      -4.645  -0.275  -0.481  1.00  0.00     0.169 HD
HETATM   10  C10 UNL     1      -3.279  -1.734   0.003  1.00  0.00     0.124 A 
HETATM   11  N7  UNL     1      -4.187  -2.682   0.306  1.00  0.00    -0.338 N 
ATOM     12  H7  UNL     1      -5.178  -2.455   0.226  1.00  0.00     0.168 HD
HETATM   13  C11 UNL     1      -3.839  -3.909   0.708  1.00  0.00     0.183 A 
HETATM   14  N8  UNL     1      -2.544  -4.210   0.815  1.00  0.00    -0.338 N 
ATOM     15  H8  UNL     1      -2.272  -5.144   1.122  1.00  0.00     0.168 HD
HETATM   16  C12 UNL     1      -1.562  -3.280   0.518  1.00  0.00     0.116 A 
HETATM   17  C13 UNL     1      -1.931  -2.022   0.106  1.00  0.00     0.081 A 
ENDROOT
BRANCH   7  18
HETATM   18  N2  UNL     1      -3.182   1.602  -1.081  1.00  0.00    -0.173 N 
HETATM   19  C9  UNL     1      -2.391   2.703  -1.433  1.00  0.00     0.691 C 
HETATM   20  N3  UNL     1      -1.915   2.787  -2.625  1.00  0.00    -0.233 N 
HETATM   21  N4  UNL     1      -2.071   3.764  -0.531  1.00  0.00    -0.139 N 
ATOM     22  H32 UNL     1      -2.143   2.030  -3.269  1.00  0.00     0.174 HD
ATOM     23  H31 UNL     1      -1.339   3.589  -2.881  1.00  0.00     0.174 HD
ATOM     24  H4  UNL     1      -1.300   4.405  -0.720  1.00  0.00     0.205 HD
ATOM     25  H2  UNL     1      -4.194   1.724  -1.128  1.00  0.00     0.186 HD
BRANCH  21  26
HETATM   26  N5  UNL     1      -2.849   3.890   0.614  1.00  0.00    -0.331 N 
ATOM     27  H52 UNL     1      -3.616   3.241   0.789  1.00  0.00     0.177 HD
ATOM     28  H51 UNL     1      -2.621   4.647   1.258  1.00  0.00     0.177 HD
ENDBRANCH  21  26
ENDBRANCH   7  18
BRANCH   1  29
HETATM   29  C4  UNL     1       2.166   0.703  -0.755  1.00  0.00     0.095 C 
BRANCH  29  30
HETATM   30  C3  UNL     1       2.720   1.323   0.489  1.00  0.00     0.082 C 
BRANCH  30  31
HETATM   31  S1  UNL     1       4.420   1.854   0.122  1.00  0.00    -0.169 SA
BRANCH  31  32
HETATM   32  C2  UNL     1       5.501   0.456  -0.195  1.00  0.00     0.069 C 
HETATM   33  C1  UNL     1       5.643  -0.341   1.085  1.00  0.00     0.016 C 
ENDBRANCH  31  32
ENDBRANCH  30  31
ENDBRANCH  29  30
ENDBRANCH   1  29
BRANCH  16  34
HETATM   34  N9  UNL     1      -0.359  -3.611   0.635  1.00  0.00    -0.385 N 
ATOM     35  H92 UNL     1      -0.085  -4.545   0.941  1.00  0.00     0.157 HD
ATOM     36  H91 UNL     1       0.364  -2.926   0.416  1.00  0.00     0.157 HD
ENDBRANCH  16  34
TORSDOF 7
