REMARK  5 active torsions:
REMARK  status: ('A' for Active; 'I' for Inactive)
REMARK    1  A    between atoms: C2_3  and  C3_4 
REMARK    2  A    between atoms: C3_4  and  N2_5 
REMARK    3  A    between atoms: N3_8  and  N4_9 
REMARK    4  A    between atoms: C6_10  and  C7_11 
REMARK    5  A    between atoms: C11_21  and  N8_22 
ROOT
HETATM    1  N1  UNL     1       7.058  -1.640   0.304  1.00  0.00    -0.197 NA
HETATM    2  C1  UNL     1       6.213  -0.872   0.401  1.00  0.00     0.060 C 
HETATM    3  C2  UNL     1       5.117   0.090   0.524  1.00  0.00     0.154 C 
ENDROOT
BRANCH   3   4
HETATM    4  C3  UNL     1       3.976  -0.298  -0.387  1.00  0.00     0.286 C 
BRANCH   4   5
HETATM    5  N2  UNL     1       2.879   0.610  -0.311  1.00  0.00     0.092 N 
HETATM    6  C4  UNL     1       2.244   0.514   0.962  1.00  0.00     0.293 C 
HETATM    7  C5  UNL     1       0.984  -0.331   0.809  1.00  0.00     0.173 C 
HETATM    8  N3  UNL     1       0.037   0.265  -0.126  1.00  0.00    -0.314 N 
HETATM    9  C14 UNL     1       0.646   1.115  -1.132  1.00  0.00     0.173 C 
HETATM   10  C15 UNL     1       1.991   0.427  -1.444  1.00  0.00     0.293 C 
BRANCH   8  11
HETATM   11  N4  UNL     1      -1.332  -0.005  -0.051  1.00  0.00    -0.219 N 
HETATM   12  C6  UNL     1      -2.323   0.775   0.384  1.00  0.00     0.174 A 
HETATM   13  N7  UNL     1      -3.510   0.090   0.252  1.00  0.00    -0.332 N 
HETATM   14  C10 UNL     1      -3.283  -1.117  -0.260  1.00  0.00     0.125 A 
ATOM     15  H7  UNL     1      -4.428   0.454   0.509  1.00  0.00     0.168 HD
HETATM   16  C11 UNL     1      -4.107  -2.175  -0.570  1.00  0.00     0.145 A 
HETATM   17  C13 UNL     1      -1.918  -1.179  -0.449  1.00  0.00     0.175 A 
HETATM   18  N9  UNL     1      -3.527  -3.275  -1.065  1.00  0.00    -0.175 N 
HETATM   19  C12 UNL     1      -2.168  -3.324  -1.247  1.00  0.00     0.679 A 
ATOM     20  H9  UNL     1      -4.100  -4.083  -1.309  1.00  0.00     0.186 HD
HETATM   21  N10 UNL     1      -1.665  -4.405  -1.718  1.00  0.00    -0.234 N 
HETATM   22  N11 UNL     1      -1.365  -2.296  -0.947  1.00  0.00    -0.173 N 
ATOM     23 2H10 UNL     1      -2.277  -5.188  -1.947  1.00  0.00     0.174 HD
ATOM     24 1H10 UNL     1      -0.655  -4.441  -1.853  1.00  0.00     0.174 HD
ATOM     25  H11 UNL     1      -0.358  -2.360  -1.093  1.00  0.00     0.186 HD
BRANCH  12  26
HETATM   26  C7  UNL     1      -2.213   2.134   0.915  1.00  0.00     0.152 A 
HETATM   27  N5  UNL     1      -1.161   2.906   1.133  1.00  0.00    -0.348 N 
HETATM   28  C8  UNL     1      -1.533   4.078   1.663  1.00  0.00     0.107 A 
ATOM     29  H5  UNL     1      -0.197   2.644   0.925  1.00  0.00     0.167 HD
HETATM   30  C9  UNL     1      -2.895   4.043   1.783  1.00  0.00     0.107 A 
HETATM   31  N6  UNL     1      -3.297   2.852   1.324  1.00  0.00    -0.348 N 
ATOM     32  H6  UNL     1      -4.265   2.531   1.286  1.00  0.00     0.167 HD
ENDBRANCH  12  26
BRANCH  16  33
HETATM   33  N8  UNL     1      -5.376  -2.135  -0.417  1.00  0.00    -0.383 N 
ATOM     34  H82 UNL     1      -5.818  -1.297  -0.040  1.00  0.00     0.157 HD
ATOM     35  H81 UNL     1      -5.987  -2.919  -0.647  1.00  0.00     0.157 HD
ENDBRANCH  16  33
ENDBRANCH   8  11
ENDBRANCH   4   5
ENDBRANCH   3   4
TORSDOF 5
