REMARK  7 active torsions:
REMARK  status: ('A' for Active; 'I' for Inactive)
REMARK    1  A    between atoms: C4_8  and  N4_9 
REMARK    2  A    between atoms: C5_14  and  N6_15 
REMARK    3  A    between atoms: N6_15  and  N7_17 
REMARK    4  A    between atoms: C6_19  and  C7_20 
REMARK    5  A    between atoms: C10_25  and  N9_26 
REMARK    6  A    between atoms: N9_26  and  C11_28 
REMARK    7  A    between atoms: C11_28  and  C12_29 
ROOT
HETATM    1  N1  UNL     1       4.314   3.193  -1.037  1.00  0.00    -0.191 NA
HETATM    2  C1  UNL     1       4.629   2.156  -0.639  1.00  0.00     0.107 C 
HETATM    3  C2  UNL     1       5.022   0.862  -0.135  1.00  0.00     0.132 A 
HETATM    4  C3  UNL     1       6.294   0.357  -0.394  1.00  0.00     0.156 A 
HETATM    5  N2  UNL     1       7.215   1.107  -1.155  1.00  0.00    -0.080 NA
HETATM    6  N3  UNL     1       6.607  -0.861   0.104  1.00  0.00    -0.177 N 
ATOM      7  H3  UNL     1       7.537  -1.236  -0.083  1.00  0.00     0.185 HD
HETATM    8  C4  UNL     1       5.759  -1.600   0.830  1.00  0.00     0.678 A 
HETATM    9  N5  UNL     1       4.540  -1.115   1.078  1.00  0.00    -0.174 N 
ATOM     10  H5  UNL     1       3.882  -1.666   1.630  1.00  0.00     0.186 HD
HETATM   11  C5  UNL     1       4.168   0.086   0.612  1.00  0.00     0.159 A 
ENDROOT
BRANCH  11  12
HETATM   12  N6  UNL     1       2.981   0.534   0.866  1.00  0.00    -0.284 N 
ATOM     13  H6  UNL     1       2.703   1.448   0.509  1.00  0.00     0.188 HD
BRANCH  12  14
HETATM   14  N7  UNL     1       2.106  -0.187   1.594  1.00  0.00    -0.308 N 
HETATM   15  C6  UNL     1       0.891  -0.375   1.434  1.00  0.00     0.137 C 
ATOM     16  H7  UNL     1       2.508  -0.653   2.407  1.00  0.00     0.186 HD
BRANCH  15  17
HETATM   17  C7  UNL     1       0.037   0.126   0.410  1.00  0.00     0.067 A 
HETATM   18  C8  UNL     1       0.387   0.932  -0.625  1.00  0.00     0.049 A 
HETATM   19  C9  UNL     1      -0.541   1.367  -1.580  1.00  0.00     0.108 A 
HETATM   20  N8  UNL     1      -1.808   0.978  -1.469  1.00  0.00    -0.202 N 
HETATM   21  C10 UNL     1      -2.191   0.170  -0.442  1.00  0.00     0.678 A 
ATOM     22  H8  UNL     1      -2.496   1.286  -2.156  1.00  0.00     0.183 HD
HETATM   23  N10 UNL     1      -1.287  -0.233   0.458  1.00  0.00    -0.191 N 
ATOM     24  H10 UNL     1      -1.597  -0.838   1.219  1.00  0.00     0.184 HD
BRANCH  21  25
HETATM   25  N9  UNL     1      -3.404  -0.193  -0.350  1.00  0.00    -0.224 N 
ATOM     26  H9  UNL     1      -4.046   0.146  -1.067  1.00  0.00     0.177 HD
BRANCH  25  27
HETATM   27  C11 UNL     1      -3.951  -1.034   0.667  1.00  0.00     0.170 C 
BRANCH  27  28
HETATM   28  C12 UNL     1      -5.483  -0.977   0.671  1.00  0.00     0.139 C 
HETATM   29  C13 UNL     1      -5.876   0.457   0.896  1.00  0.00     0.035 C 
HETATM   30  C14 UNL     1      -6.179   0.942  -0.496  1.00  0.00     0.029 C 
HETATM   31  C15 UNL     1      -6.207  -0.299  -1.333  1.00  0.00     0.168 C 
HETATM   32  O1  UNL     1      -6.016  -1.385  -0.520  1.00  0.00    -0.384 OA
ENDBRANCH  27  28
ENDBRANCH  25  27
ENDBRANCH  21  25
ENDBRANCH  15  17
ENDBRANCH  12  14
ENDBRANCH  11  12
BRANCH   8  33
HETATM   33  N4  UNL     1       6.113  -2.755   1.279  1.00  0.00    -0.234 N 
ATOM     34  H42 UNL     1       7.044  -3.126   1.090  1.00  0.00     0.174 HD
ATOM     35  H41 UNL     1       5.467  -3.318   1.832  1.00  0.00     0.174 HD
ENDBRANCH   8  33
TORSDOF 7
