REMARK  2 active torsions:
REMARK  status: ('A' for Active; 'I' for Inactive)
REMARK    1  A    between atoms: C2_5  and  N3_6 
REMARK    2  A    between atoms: N3_6  and  N4_8 
ROOT
HETATM    1  N1  UNL     1       4.895   1.189  -0.396  1.00  0.00    -0.172 NA
HETATM    2  C1  UNL     1       4.680   0.263   0.234  1.00  0.00     0.182 C 
HETATM    3  N2  UNL     1       4.417  -0.857   1.024  1.00  0.00    -0.289 N 
ATOM      4  H2  UNL     1       5.145  -1.218   1.641  1.00  0.00     0.178 HD
HETATM    5  C2  UNL     1       3.274  -1.440   0.987  1.00  0.00     0.207 C 
ENDROOT
BRANCH   5   6
HETATM    6  N3  UNL     1       2.259  -0.934   0.128  1.00  0.00    -0.296 N 
ATOM      7  H3  UNL     1       2.037  -1.435  -0.732  1.00  0.00     0.187 HD
BRANCH   6   8
HETATM    8  N4  UNL     1       1.563   0.229   0.436  1.00  0.00    -0.308 N 
HETATM    9  C3  UNL     1       0.283   0.201   0.462  1.00  0.00     0.004 C 
HETATM   10  C4  UNL     1      -0.298   1.544   0.811  1.00  0.00     0.054 C 
HETATM   11  C9  UNL     1      -0.320  -1.091   0.157  1.00  0.00     0.054 C 
HETATM   12  C5  UNL     1      -1.731   1.654   0.419  1.00  0.00     0.006 C 
HETATM   13  C6  UNL     1      -1.877   1.080  -0.985  1.00  0.00     0.000 C 
HETATM   14  C7  UNL     1      -2.484  -0.295  -0.828  1.00  0.00     0.000 C 
HETATM   15  C8  UNL     1      -1.812  -1.109   0.231  1.00  0.00     0.006 C 
ATOM     16  H4  UNL     1       2.065   1.093   0.639  1.00  0.00     0.186 HD
ENDBRANCH   6   8
ENDBRANCH   5   6
TORSDOF 2
