REMARK  4 active torsions:
REMARK  status: ('A' for Active; 'I' for Inactive)
REMARK    1  A    between atoms: C4_7  and  N3_8 
REMARK    2  A    between atoms: N3_8  and  N4_10 
REMARK    3  A    between atoms: N4_10  and  N5_11 
REMARK    4  A    between atoms: N4_10  and  N6_14 
REMARK       I    between atoms: N6_14  and  C5_16 
ROOT
HETATM    1  N4  UNL     1       1.177  -1.562  -0.065  1.00  0.00    -0.030 NA
ENDROOT
BRANCH   1   2
HETATM    2  N3  UNL     1       0.294  -0.680  -0.703  1.00  0.00    -0.115 N 
ATOM      3  H3  UNL     1       0.544  -0.260  -1.598  1.00  0.00     0.203 HD
BRANCH   2   4
HETATM    4  C4  UNL     1      -0.967  -0.373  -0.085  1.00  0.00     0.689 C 
HETATM    5  N1  UNL     1      -1.735   0.786  -0.380  1.00  0.00    -0.220 N 
HETATM    6  C1  UNL     1      -1.245   2.002  -0.957  1.00  0.00     0.168 C 
HETATM    7  C2  UNL     1      -3.083   0.462   0.026  1.00  0.00     0.161 C 
HETATM    8  C3  UNL     1      -2.817  -0.462   1.194  1.00  0.00     0.158 C 
HETATM    9  N2  UNL     1      -1.570  -1.090   0.807  1.00  0.00    -0.224 N 
ATOM     10  H2  UNL     1      -1.218  -1.970   1.184  1.00  0.00     0.177 HD
ENDBRANCH   2   4
ENDBRANCH   1   2
BRANCH   1  11
HETATM   11  N5  UNL     1       1.209  -2.806  -0.728  1.00  0.00    -0.327 NA
ATOM     12  H52 UNL     1       0.270  -3.196  -0.649  1.00  0.00     0.174 HD
ATOM     13  H51 UNL     1       1.852  -3.448  -0.264  1.00  0.00     0.174 HD
ENDBRANCH   1  11
BRANCH   1  14
HETATM   14  N6  UNL     1       2.467  -1.026  -0.174  1.00  0.00    -0.256 N 
HETATM   15  C5  UNL     1       2.878   0.006   0.675  1.00  0.00     0.199 C 
HETATM   16  N7  UNL     1       3.563  -0.270   1.738  1.00  0.00    -0.373 N 
HETATM   17  N8  UNL     1       2.576   1.367   0.424  1.00  0.00    -0.063 NA
ATOM     18  H72 UNL     1       3.780  -1.250   1.919  1.00  0.00     0.158 HD
ATOM     19  H71 UNL     1       3.863   0.483   2.357  1.00  0.00     0.158 HD
ATOM     20  H6  UNL     1       3.110  -1.391  -0.877  1.00  0.00     0.187 HD
ENDBRANCH   1  14
TORSDOF 4
