REMARK  0 active torsions:
REMARK  status: ('A' for Active; 'I' for Inactive)
ROOT
HETATM    1  C1  UNL     1      -3.073   0.413   0.523  1.00  0.00     0.023 C 
HETATM    2  C2  UNL     1      -1.995  -0.184  -0.384  1.00  0.00     0.053 C 
HETATM    3  C3  UNL     1      -1.283   0.991  -1.142  1.00  0.00     0.042 C 
HETATM    4  C4  UNL     1      -0.070   1.514  -0.490  1.00  0.00    -0.027 C 
HETATM    5  C5  UNL     1       1.251   0.912  -0.496  1.00  0.00    -0.007 C 
HETATM    6  C6  UNL     1       1.613  -0.436  -0.087  1.00  0.00     0.096 C 
HETATM    7  C7  UNL     1       3.169  -0.380   0.079  1.00  0.00     0.036 C 
HETATM    8  N1  UNL     1       1.198  -1.141   1.028  1.00  0.00    -0.405 N 
ATOM      9  H1  UNL     1       1.808  -1.243   1.839  1.00  0.00     0.154 HD
HETATM   10  C8  UNL     1      -0.167  -1.750   1.016  1.00  0.00     0.195 C 
HETATM   11  C9  UNL     1      -0.953  -0.854   0.274  1.00  0.00    -0.159 C 
ENDROOT
TORSDOF 0
