REMARK  1 active torsions:
REMARK  status: ('A' for Active; 'I' for Inactive)
REMARK    1  A    between atoms: C2_2  and  C3_3 
ROOT
HETATM    1  C3  UNL     1       0.674  -0.563   0.017  1.00  0.00     0.123 C 
HETATM    2  C4  UNL     1       1.193  -1.973  -0.227  1.00  0.00     0.046 C 
HETATM    3  C5  UNL     1       0.453   0.162  -1.269  1.00  0.00     0.041 C 
HETATM    4  C6  UNL     1      -0.831   0.931  -1.056  1.00  0.00     0.040 C 
HETATM    5  C7  UNL     1      -1.464   0.343   0.162  1.00  0.00     0.119 C 
HETATM    6  C8  UNL     1      -2.831  -0.227  -0.237  1.00  0.00     0.046 C 
HETATM    7  C9  UNL     1      -1.773   1.419   1.208  1.00  0.00     0.046 C 
HETATM    8  N1  UNL     1      -0.595  -0.674   0.669  1.00  0.00    -0.059 N 
ATOM      9  H11 UNL     1      -0.515  -0.647   1.685  1.00  0.00     0.279 HD
ATOM     10  H12 UNL     1      -0.997  -1.608   0.584  1.00  0.00     0.279 HD
ENDROOT
BRANCH   1  11
HETATM   11  C2  UNL     1       1.703   0.155   0.866  1.00  0.00     0.034 C 
HETATM   12  C1  UNL     1       3.039   0.238   0.210  1.00  0.00     0.007 C 
ENDBRANCH   1  11
TORSDOF 1
