REMARK  0 active torsions:
REMARK  status: ('A' for Active; 'I' for Inactive)
ROOT
HETATM    1  C1  UNL     1      -2.125  -0.832   0.592  1.00  0.00     0.048 C 
HETATM    2  C2  UNL     1      -1.309   0.183  -0.174  1.00  0.00     0.100 C 
HETATM    3  C3  UNL     1      -2.118   1.326  -0.683  1.00  0.00     0.048 C 
HETATM    4  N1  UNL     1      -0.458  -0.405  -1.159  1.00  0.00    -0.078 NA
HETATM    5  O1  UNL     1       0.554  -1.021  -0.657  1.00  0.00    -0.264 OA
HETATM    6  C4  UNL     1       1.318  -0.245   0.171  1.00  0.00     0.127 C 
HETATM    7  C5  UNL     1       2.246   0.699  -0.492  1.00  0.00     0.060 C 
HETATM    8  C6  UNL     1       2.039  -1.103   1.154  1.00  0.00     0.060 C 
HETATM    9  S1  UNL     1       0.004   0.751   0.990  1.00  0.00    -0.101 SA
ENDROOT
TORSDOF 0
