REMARK  7 active torsions:
REMARK  status: ('A' for Active; 'I' for Inactive)
REMARK       I    between atoms: C2_2  and  N1_4 
REMARK    1  A    between atoms: N1_4  and  C3_6 
REMARK    2  A    between atoms: C3_6  and  C5_8 
REMARK    3  A    between atoms: C5_8  and  C6_9 
REMARK    4  A    between atoms: C6_9  and  C7_11 
REMARK    5  A    between atoms: C7_11  and  C8_12 
REMARK    6  A    between atoms: C7_11  and  N2_16 
REMARK    7  A    between atoms: C8_12  and  C9_13 
REMARK       I    between atoms: N2_16  and  C12_18 
ROOT
HETATM    1  C6  UNL     1       0.484   0.131  -0.318  1.00  0.00     0.151 C 
HETATM    2  O2  UNL     1       1.056  -0.757  -0.912  1.00  0.00    -0.296 OA
ENDROOT
BRANCH   1   3
HETATM    3  C5  UNL     1       1.271   1.345   0.020  1.00  0.00     0.105 C 
BRANCH   3   4
HETATM    4  C3  UNL     1       2.692   1.275  -0.409  1.00  0.00     0.087 C 
HETATM    5  C4  UNL     1       3.367   2.550   0.139  1.00  0.00     0.032 C 
BRANCH   4   6
HETATM    6  N1  UNL     1       3.373   0.156   0.219  1.00  0.00    -0.357 N 
HETATM    7  C2  UNL     1       4.183  -0.754  -0.493  1.00  0.00     0.213 C 
HETATM    8  C1  UNL     1       4.854  -1.876   0.177  1.00  0.00     0.117 C 
HETATM    9  O1  UNL     1       4.318  -0.579  -1.735  1.00  0.00    -0.274 OA
ATOM     10  H1  UNL     1       3.260   0.022   1.224  1.00  0.00     0.162 HD
ENDBRANCH   4   6
ENDBRANCH   3   4
ENDBRANCH   1   3
BRANCH   1  11
HETATM   11  C7  UNL     1      -0.974   0.011   0.067  1.00  0.00     0.154 C 
BRANCH  11  12
HETATM   12  C8  UNL     1      -1.676   1.207  -0.434  1.00  0.00     0.037 C 
BRANCH  12  13
HETATM   13  C9  UNL     1      -3.135   1.325  -0.184  1.00  0.00    -0.020 C 
HETATM   14  C10 UNL     1      -3.557   1.326   1.234  1.00  0.00     0.009 C 
HETATM   15  C11 UNL     1      -3.919   0.291  -0.954  1.00  0.00     0.009 C 
ENDBRANCH  12  13
ENDBRANCH  11  12
BRANCH  11  16
HETATM   16  N2  UNL     1      -1.418  -1.258  -0.402  1.00  0.00    -0.350 N 
HETATM   17  C12 UNL     1      -1.733  -2.276   0.569  1.00  0.00     0.214 C 
HETATM   18  C13 UNL     1      -2.202  -3.628   0.176  1.00  0.00     0.117 C 
HETATM   19  O3  UNL     1      -1.619  -2.053   1.801  1.00  0.00    -0.274 OA
ATOM     20  H2  UNL     1      -1.511  -1.442  -1.401  1.00  0.00     0.163 HD
ENDBRANCH  11  16
ENDBRANCH   1  11
TORSDOF 7
