REMARK  6 active torsions:
REMARK  status: ('A' for Active; 'I' for Inactive)
REMARK    1  A    between atoms: C2_2  and  N1_3 
REMARK       I    between atoms: N1_3  and  C3_5 
REMARK    2  A    between atoms: C3_5  and  C4_7 
REMARK    3  A    between atoms: C4_7  and  N2_8 
REMARK    4  A    between atoms: N2_8  and  S1_10 
REMARK    5  A    between atoms: S1_10  and  N3_13 
REMARK    6  A    between atoms: N3_13  and  C6_15 
ROOT
HETATM    1  N2  UNL     1      -0.165   0.039  -0.915  1.00  0.00    -0.290 N 
HETATM    2  C5  UNL     1      -1.015  -0.683  -1.789  1.00  0.00     0.165 C 
ENDROOT
BRANCH   1   3
HETATM    3  C4  UNL     1       0.993  -0.643  -0.458  1.00  0.00     0.238 C 
BRANCH   3   4
HETATM    4  C3  UNL     1       2.253   0.109  -0.668  1.00  0.00     0.236 C 
HETATM    5  N1  UNL     1       3.466  -0.480  -0.249  1.00  0.00    -0.360 N 
ATOM      6  H1  UNL     1       3.468  -1.402   0.188  1.00  0.00     0.162 HD
HETATM    7  O1  UNL     1       2.269   1.241  -1.202  1.00  0.00    -0.272 OA
BRANCH   5   8
HETATM    8  C2  UNL     1       4.706   0.239  -0.446  1.00  0.00     0.118 C 
HETATM    9  C1  UNL     1       5.891  -0.538   0.059  1.00  0.00     0.026 C 
ENDBRANCH   5   8
ENDBRANCH   3   4
ENDBRANCH   1   3
BRANCH   1  10
HETATM   10  S1  UNL     1      -0.929   1.041   0.209  1.00  0.00     0.317 S 
HETATM   11  O2  UNL     1      -1.491   2.243  -0.535  1.00  0.00    -0.183 OA
HETATM   12  O3  UNL     1       0.121   1.602   1.144  1.00  0.00    -0.183 OA
BRANCH  10  13
HETATM   13  N3  UNL     1      -2.130   0.296   1.148  1.00  0.00    -0.299 N 
ATOM     14  H3  UNL     1      -1.932  -0.156   2.041  1.00  0.00     0.174 HD
BRANCH  13  15
HETATM   15  C6  UNL     1      -3.451   0.354   0.581  1.00  0.00     0.086 C 
HETATM   16  C7  UNL     1      -3.965  -1.076   0.496  1.00  0.00     0.032 C 
HETATM   17  C8  UNL     1      -4.427   1.087   1.510  1.00  0.00     0.032 C 
ENDBRANCH  13  15
ENDBRANCH  10  13
ENDBRANCH   1  10
TORSDOF 6
