REMARK  1 active torsions:
REMARK  status: ('A' for Active; 'I' for Inactive)
REMARK    1  A    between atoms: N2_4  and  C1_6 
ROOT
HETATM    1  C1  UNL     1       0.527   0.211  -0.068  1.00  0.00     0.099 A 
HETATM    2  N3  UNL     1      -0.305   1.142  -0.256  1.00  0.00    -0.358 N 
ATOM      3  H3  UNL     1      -0.179   2.134  -0.457  1.00  0.00     0.166 HD
HETATM    4  C2  UNL     1      -1.453   0.367  -0.098  1.00  0.00     0.070 A 
HETATM    5  C3  UNL     1      -0.519  -0.763   0.131  1.00  0.00     0.122 A 
ENDROOT
BRANCH   1   6
HETATM    6  N2  UNL     1       1.992   0.227  -0.072  1.00  0.00    -0.295 N 
HETATM    7  N1  UNL     1       2.566   1.194   0.522  1.00  0.00    -0.344 N 
ATOM      8  H12 UNL     1       2.014   1.921   0.978  1.00  0.00     0.176 HD
ATOM      9  H11 UNL     1       3.586   1.205   0.519  1.00  0.00     0.176 HD
ATOM     10  H2  UNL     1       2.530  -0.507  -0.532  1.00  0.00     0.187 HD
ENDBRANCH   1   6
TORSDOF 1
