REMARK  2 active torsions:
REMARK  status: ('A' for Active; 'I' for Inactive)
REMARK    1  A    between atoms: N1_1  and  C1_5 
REMARK    2  A    between atoms: C1_5  and  C2_6 
ROOT
HETATM    1  C2  UNL     1      -0.181   0.178  -0.258  1.00  0.00     0.350 C 
HETATM    2  N2  UNL     1      -0.967  -0.077   0.954  1.00  0.00    -0.026 N 
ATOM      3  H21 UNL     1      -0.843   0.422   1.835  1.00  0.00     0.282 HD
ATOM      4  H22 UNL     1      -0.886  -0.918   1.525  1.00  0.00     0.282 HD
HETATM    5  C3  UNL     1      -2.062   0.178   0.004  1.00  0.00     0.405 C 
HETATM    6  O1  UNL     1      -1.221  -0.428  -0.962  1.00  0.00    -0.330 OA
ENDROOT
BRANCH   1   7
HETATM    7  C1  UNL     1       1.139  -0.526  -0.315  1.00  0.00     0.290 C 
BRANCH   7   8
HETATM    8  N1  UNL     1       2.076   0.276   0.484  1.00  0.00    -0.075 N 
ATOM      9  H13 UNL     1       2.126   1.251   0.189  1.00  0.00     0.274 HD
ATOM     10  H12 UNL     1       1.751   0.447   1.435  1.00  0.00     0.274 HD
ATOM     11  H11 UNL     1       2.975  -0.204   0.445  1.00  0.00     0.274 HD
ENDBRANCH   7   8
ENDBRANCH   1   7
TORSDOF 2
