REMARK  11 active torsions:
REMARK  status: ('A' for Active; 'I' for Inactive)
REMARK       I    between atoms: N1_2  and  C2_4 
REMARK       I    between atoms: C2_4  and  N3_19 
REMARK       I    between atoms: N2_5  and  C3_7 
REMARK    1  A    between atoms: C3_7  and  C4_9 
REMARK    2  A    between atoms: C4_9  and  C5_10 
REMARK    3  A    between atoms: C5_10  and  C6_11 
REMARK    4  A    between atoms: C6_11  and  C7_12 
REMARK    5  A    between atoms: C7_12  and  C8_13 
REMARK    6  A    between atoms: C8_13  and  C9_14 
REMARK    7  A    between atoms: C9_14  and  C10_15 
REMARK    8  A    between atoms: C10_15  and  C11_16 
REMARK    9  A    between atoms: C11_16  and  C12_17 
REMARK       I    between atoms: N3_19  and  C13_21 
REMARK       I    between atoms: C13_21  and  N4_23 
REMARK   10  A    between atoms: N4_23  and  C14_25 
REMARK   11  A    between atoms: C14_25  and  C15_26 
ROOT
HETATM    1  C1  UNL     1      -2.137  -0.716   1.206  1.00  0.00     0.165 C 
HETATM    2  N1  UNL     1      -3.058  -0.412   0.116  1.00  0.00    -0.230 N 
ATOM      3  H1  UNL     1      -3.687  -1.126  -0.251  1.00  0.00     0.177 HD
HETATM    4  C2  UNL     1      -3.056   0.900  -0.420  1.00  0.00     0.684 C 
HETATM    5  N2  UNL     1      -2.157   1.339  -1.214  1.00  0.00    -0.160 N 
ATOM      6  H2  UNL     1      -2.219   2.297  -1.559  1.00  0.00     0.187 HD
HETATM    7  C3  UNL     1      -1.080   0.526  -1.624  1.00  0.00     0.235 C 
HETATM    8  O1  UNL     1      -1.284  -0.708  -1.732  1.00  0.00    -0.273 OA
HETATM    9  N3  UNL     1      -4.099   1.844  -0.094  1.00  0.00    -0.141 N 
ATOM     10  H3  UNL     1      -4.090   2.791  -0.473  1.00  0.00     0.189 HD
HETATM   11  C13 UNL     1      -5.132   1.413   0.767  1.00  0.00     0.334 C 
HETATM   12  O2  UNL     1      -5.156   0.236   1.236  1.00  0.00    -0.246 OA
HETATM   13  N4  UNL     1      -6.165   2.321   1.112  1.00  0.00    -0.335 N 
ATOM     14  H4  UNL     1      -6.151   3.276   0.754  1.00  0.00     0.164 HD
ENDROOT
BRANCH   7  15
HETATM   15  C4  UNL     1       0.214   1.149  -1.906  1.00  0.00     0.103 C 
BRANCH  15  16
HETATM   16  C5  UNL     1       1.327   0.135  -2.018  1.00  0.00     0.009 C 
BRANCH  16  17
HETATM   17  C6  UNL     1       1.514  -0.582  -0.722  1.00  0.00     0.000 C 
BRANCH  17  18
HETATM   18  C7  UNL     1       2.595  -1.619  -0.796  1.00  0.00     0.000 C 
BRANCH  18  19
HETATM   19  C8  UNL     1       3.905  -1.010  -1.173  1.00  0.00     0.000 C 
BRANCH  19  20
HETATM   20  C9  UNL     1       4.310   0.048  -0.209  1.00  0.00     0.000 C 
BRANCH  20  21
HETATM   21  C10 UNL     1       4.414  -0.493   1.183  1.00  0.00     0.001 C 
BRANCH  21  22
HETATM   22  C11 UNL     1       5.422  -1.608   1.208  1.00  0.00     0.015 C 
BRANCH  22  23
HETATM   23  C12 UNL     1       6.786  -1.145   0.763  1.00  0.00     0.114 C 
HETATM   24 CL1  UNL     1       7.864  -2.559   0.847  1.00  0.00    -0.130 Cl
ENDBRANCH  22  23
ENDBRANCH  21  22
ENDBRANCH  20  21
ENDBRANCH  19  20
ENDBRANCH  18  19
ENDBRANCH  17  18
ENDBRANCH  16  17
ENDBRANCH  15  16
ENDBRANCH   7  15
BRANCH  13  25
HETATM   25  C14 UNL     1      -7.233   1.883   1.971  1.00  0.00     0.215 C 
BRANCH  25  26
HETATM   26  C15 UNL     1      -7.977   0.787   1.315  1.00  0.00     0.212 C 
HETATM   27  O3  UNL     1      -7.760   0.349   0.204  1.00  0.00    -0.283 OA
HETATM   28 BR1  UNL     1      -9.413  -0.015   2.307  1.00  0.00    -0.007 Br
ENDBRANCH  25  26
ENDBRANCH  13  25
TORSDOF 11
