REMARK  9 active torsions:
REMARK  status: ('A' for Active; 'I' for Inactive)
REMARK    1  A    between atoms: C2_2  and  C3_3 
REMARK    2  A    between atoms: C3_3  and  C4_4 
REMARK    3  A    between atoms: C5_5  and  C6_6 
REMARK    4  A    between atoms: C16_18  and  C17_19 
REMARK    5  A    between atoms: C17_19  and  O3_20 
REMARK    6  A    between atoms: C18_23  and  C19_24 
REMARK    7  A    between atoms: C19_24  and  O5_25 
REMARK    8  A    between atoms: C20_27  and  O6_28 
REMARK    9  A    between atoms: C21_30  and  O7_31 
ROOT
HETATM    1  C6  UNL     1       2.819  -1.318  -0.458  1.00  0.00    -0.059 C 
HETATM    2  C7  UNL     1       2.740  -1.901  -1.654  1.00  0.00    -0.016 C 
HETATM    3  C8  UNL     1       1.768  -2.424  -2.576  1.00  0.00     0.057 C 
HETATM    4  C9  UNL     1       0.406  -1.888  -2.542  1.00  0.00     0.014 C 
HETATM    5  C10 UNL     1      -0.365  -0.986  -1.907  1.00  0.00     0.072 C 
HETATM    6  O1  UNL     1      -0.060  -0.104  -0.883  1.00  0.00    -0.335 OA
HETATM    7  C11 UNL     1       0.923   0.250   0.012  1.00  0.00     0.122 C 
HETATM    8  C12 UNL     1       1.691   1.491  -0.253  1.00  0.00     0.210 C 
HETATM    9  O2  UNL     1       1.708   1.735   1.101  1.00  0.00    -0.376 OA
HETATM   10  C13 UNL     1       0.517   1.010   1.206  1.00  0.00     0.181 C 
HETATM   11  C14 UNL     1      -0.685   1.838   1.125  1.00  0.00     0.009 C 
HETATM   12  C15 UNL     1      -1.939   1.533   1.220  1.00  0.00     0.042 C 
HETATM   13  C16 UNL     1      -2.640   0.263   1.443  1.00  0.00     0.208 C 
HETATM   14  O4  UNL     1      -3.981   0.507   1.750  1.00  0.00    -0.340 OA
HETATM   15  C18 UNL     1      -4.828   0.735   0.724  1.00  0.00     0.183 C 
HETATM   16  C20 UNL     1      -4.240   0.497  -0.640  1.00  0.00     0.215 C 
HETATM   17  C21 UNL     1      -3.280  -0.717  -0.563  1.00  0.00     0.214 C 
HETATM   18  C22 UNL     1      -2.855  -0.964  -1.929  1.00  0.00     0.053 C 
HETATM   19  C23 UNL     1      -1.690  -1.080  -2.511  1.00  0.00    -0.027 C 
HETATM   20  C24 UNL     1      -1.696  -1.351  -4.005  1.00  0.00     0.051 C 
HETATM   21  O8  UNL     1      -2.409  -0.626   0.439  1.00  0.00    -0.307 OA
HETATM   22  C25 UNL     1       1.734  -0.973   0.461  1.00  0.00     0.082 C 
ENDROOT
BRANCH   1  23
HETATM   23  C5  UNL     1       4.181  -1.024  -0.076  1.00  0.00     0.003 C 
HETATM   24  C4  UNL     1       4.565  -0.450   1.045  1.00  0.00    -0.026 C 
BRANCH  24  25
HETATM   25  C3  UNL     1       6.002  -0.187   1.351  1.00  0.00     0.027 C 
BRANCH  25  26
HETATM   26  C2  UNL     1       6.165   1.313   1.533  1.00  0.00    -0.001 C 
HETATM   27  C1  UNL     1       7.599   1.672   1.852  1.00  0.00     0.005 C 
ENDBRANCH  25  26
ENDBRANCH  24  25
ENDBRANCH   1  23
BRANCH  13  28
HETATM   28  C17 UNL     1      -2.170  -0.468   2.723  1.00  0.00     0.237 C 
BRANCH  28  29
HETATM   29  O3  UNL     1      -2.990  -1.623   2.886  1.00  0.00    -0.395 OA
ATOM     30  H3  UNL     1      -2.701  -2.072   3.672  1.00  0.00     0.209 HD
ENDBRANCH  28  29
ENDBRANCH  13  28
BRANCH  17  31
HETATM   31  O7  UNL     1      -4.189  -1.767  -0.205  1.00  0.00    -0.360 OA
ATOM     32  H7  UNL     1      -3.600  -2.511  -0.158  1.00  0.00     0.213 HD
ENDBRANCH  17  31
BRANCH  16  33
HETATM   33  O6  UNL     1      -5.252   0.110  -1.517  1.00  0.00    -0.387 OA
ATOM     34  H6  UNL     1      -4.881  -0.040  -2.378  1.00  0.00     0.210 HD
ENDBRANCH  16  33
BRANCH  15  35
HETATM   35  C19 UNL     1      -5.544   2.064   0.768  1.00  0.00     0.199 C 
BRANCH  35  36
HETATM   36  O5  UNL     1      -6.315   2.173   1.946  1.00  0.00    -0.398 OA
ATOM     37  H5  UNL     1      -6.765   3.009   1.974  1.00  0.00     0.209 HD
ENDBRANCH  35  36
ENDBRANCH  15  35
TORSDOF 9
