REMARK  11 active torsions:
REMARK  status: ('A' for Active; 'I' for Inactive)
REMARK    1  A    between atoms: N1_2  and  C4_5 
REMARK    2  A    between atoms: C4_5  and  C5_6 
REMARK    3  A    between atoms: C5_6  and  C6_7 
REMARK    4  A    between atoms: C6_7  and  C7_8 
REMARK       I    between atoms: C7_8  and  N2_10 
REMARK    5  A    between atoms: C12_21  and  O3_22 
REMARK    6  A    between atoms: N6_27  and  N7_29 
REMARK    7  A    between atoms: N9_34  and  C14_35 
REMARK    8  A    between atoms: C14_35  and  C15_36 
REMARK    9  A    between atoms: C15_36  and  C16_37 
REMARK   10  A    between atoms: C16_37  and  C17_38 
REMARK   11  A    between atoms: C17_38  and  C18_39 
ROOT
HETATM    1  C18 UNL     1      -4.896   4.434  -1.117  1.00  0.00     0.124 C 
HETATM    2  C19 UNL     1      -3.790   5.333  -0.748  1.00  0.00     0.059 C 
HETATM    3  N10 UNL     1      -2.913   6.038  -0.477  1.00  0.00    -0.197 NA
ENDROOT
BRANCH   1   4
HETATM    4  C17 UNL     1      -4.446   3.042  -0.682  1.00  0.00     0.014 C 
BRANCH   4   5
HETATM    5  C16 UNL     1      -3.175   2.641  -1.376  1.00  0.00     0.002 C 
BRANCH   5   6
HETATM    6  C15 UNL     1      -2.756   1.280  -0.960  1.00  0.00     0.022 C 
BRANCH   6   7
HETATM    7  C14 UNL     1      -2.486   1.153   0.516  1.00  0.00     0.167 C 
BRANCH   7   8
HETATM    8  N9  UNL     1      -2.037  -0.221   0.861  1.00  0.00    -0.012 N 
HETATM    9  C8  UNL     1      -0.691  -0.542   0.436  1.00  0.00     0.704 C 
HETATM   10  N2  UNL     1       0.028   0.411  -0.055  1.00  0.00    -0.159 N 
HETATM   11  N3  UNL     1      -0.064  -1.802   0.563  1.00  0.00    -0.159 N 
HETATM   12  C7  UNL     1       1.354   0.254  -0.451  1.00  0.00     0.235 C 
ATOM     13  H2  UNL     1      -0.399   1.331  -0.159  1.00  0.00     0.187 HD
HETATM   14  O1  UNL     1       1.849  -0.824  -0.890  1.00  0.00    -0.273 OA
HETATM   15  C9  UNL     1      -0.494  -3.058   0.074  1.00  0.00     0.237 C 
ATOM     16  H3  UNL     1       0.817  -1.807   1.076  1.00  0.00     0.187 HD
HETATM   17  O2  UNL     1      -0.604  -4.035   0.859  1.00  0.00    -0.273 OA
HETATM   18  C10 UNL     1      -0.844  -3.330  -1.367  1.00  0.00     0.123 C 
HETATM   19  C11 UNL     1      -2.172  -4.044  -1.309  1.00  0.00     0.132 C 
HETATM   20  N4  UNL     1      -3.189  -3.029  -1.208  1.00  0.00    -0.355 N 
HETATM   21  C12 UNL     1      -4.000  -2.705  -0.097  1.00  0.00     0.231 C 
ATOM     22  H4  UNL     1      -3.344  -2.471  -2.048  1.00  0.00     0.163 HD
HETATM   23  N5  UNL     1      -3.590  -2.240   1.172  1.00  0.00    -0.153 N 
HETATM   24  C13 UNL     1      -2.948  -1.039   1.564  1.00  0.00     0.717 C 
ATOM     25  H5  UNL     1      -3.791  -2.880   1.940  1.00  0.00     0.188 HD
HETATM   26  N6  UNL     1      -3.255  -0.586   2.806  1.00  0.00    -0.117 N 
ATOM     27  H6  UNL     1      -2.817   0.275   3.133  1.00  0.00     0.207 HD
BRANCH  12  28
HETATM   28  C6  UNL     1       2.260   1.421  -0.358  1.00  0.00     0.105 C 
BRANCH  28  29
HETATM   29  C5  UNL     1       3.694   1.130  -0.595  1.00  0.00     0.037 C 
BRANCH  29  30
HETATM   30  C4  UNL     1       4.308   0.170   0.382  1.00  0.00     0.236 C 
BRANCH  30  31
HETATM   31  N1  UNL     1       5.713  -0.061   0.085  1.00  0.00    -0.079 N 
HETATM   32  C1  UNL     1       6.494   1.030   0.651  1.00  0.00     0.271 C 
HETATM   33  C2  UNL     1       6.123  -1.285   0.727  1.00  0.00     0.271 C 
HETATM   34  C3  UNL     1       5.984  -0.164  -1.318  1.00  0.00     0.271 C 
ENDBRANCH  30  31
ENDBRANCH  29  30
ENDBRANCH  28  29
ENDBRANCH  12  28
BRANCH  21  35
HETATM   35  O3  UNL     1      -5.277  -2.883  -0.345  1.00  0.00    -0.332 OA
ATOM     36  H3  UNL     1      -5.822  -2.665   0.402  1.00  0.00     0.220 HD
ENDBRANCH  21  35
BRANCH  26  37
HETATM   37  N7  UNL     1      -4.122  -1.231   3.634  1.00  0.00    -0.235 N 
HETATM   38  N8  UNL     1      -5.349  -0.934   3.656  1.00  0.00    -0.330 N 
ATOM     39  H82 UNL     1      -5.680  -0.195   3.036  1.00  0.00     0.178 HD
ATOM     40  H81 UNL     1      -5.999  -1.417   4.276  1.00  0.00     0.178 HD
ATOM     41  H7  UNL     1      -3.774  -1.968   4.248  1.00  0.00     0.208 HD
ENDBRANCH  26  37
ENDBRANCH   7   8
ENDBRANCH   6   7
ENDBRANCH   5   6
ENDBRANCH   4   5
ENDBRANCH   1   4
TORSDOF 11
