REMARK  14 active torsions:
REMARK  status: ('A' for Active; 'I' for Inactive)
REMARK    1  A    between atoms: C5_8  and  C6_9 
REMARK    2  A    between atoms: N2_10  and  N3_12 
REMARK    3  A    between atoms: N5_19  and  C9_20 
REMARK    4  A    between atoms: C9_20  and  C10_21 
REMARK    5  A    between atoms: C10_21  and  C11_22 
REMARK    6  A    between atoms: C11_22  and  C12_23 
REMARK    7  A    between atoms: C12_23  and  N8_29 
REMARK    8  A    between atoms: N6_24  and  N7_26 
REMARK    9  A    between atoms: N8_29  and  C14_31 
REMARK   10  A    between atoms: N8_29  and  C17_38 
REMARK   11  A    between atoms: C14_31  and  C15_32 
REMARK   12  A    between atoms: C15_32  and  C16_33 
REMARK   13  A    between atoms: C16_33  and  N9_34 
REMARK   14  A    between atoms: C17_38  and  C18_39 
ROOT
HETATM    1  C10 UNL     1       0.367   0.664   1.443  1.00  0.00     0.052 C 
ENDROOT
BRANCH   1   2
HETATM    2  C9  UNL     1       1.724   0.171   1.904  1.00  0.00     0.071 C 
BRANCH   2   3
HETATM    3  N5  UNL     1       2.835   0.535   1.123  1.00  0.00    -0.321 N 
HETATM    4  C8  UNL     1       3.215   1.872   1.062  1.00  0.00     0.099 A 
HETATM    5  C7  UNL     1       4.123   2.398   0.224  1.00  0.00     0.033 A 
HETATM    6  C5  UNL     1       4.743   1.565  -0.661  1.00  0.00     0.013 A 
HETATM    7  C4  UNL     1       4.417   0.237  -0.653  1.00  0.00     0.092 A 
HETATM    8  N1  UNL     1       5.046  -0.572  -1.510  1.00  0.00    -0.318 N 
HETATM    9  C24 UNL     1       3.453  -0.271   0.260  1.00  0.00     0.141 A 
HETATM   10  C3  UNL     1       4.796  -1.868  -1.538  1.00  0.00     0.268 A 
ATOM     11  H1  UNL     1       5.733  -0.181  -2.155  1.00  0.00     0.169 HD
HETATM   12  C2  UNL     1       3.872  -2.365  -0.659  1.00  0.00     0.077 A 
HETATM   13  O1  UNL     1       5.354  -2.683  -2.325  1.00  0.00    -0.266 OA
HETATM   14  C1  UNL     1       3.551  -3.834  -0.672  1.00  0.00     0.074 C 
HETATM   15  N10 UNL     1       3.189  -1.594   0.250  1.00  0.00    -0.334 N 
HETATM   16  C25 UNL     1       2.348  -2.175   1.219  1.00  0.00     0.158 C 
BRANCH   6  17
HETATM   17  C6  UNL     1       5.737   2.127  -1.591  1.00  0.00     0.122 C 
HETATM   18  N2  UNL     1       6.003   3.389  -1.551  1.00  0.00    -0.297 N 
ATOM     19  H2  UNL     1       5.523   3.983  -0.875  1.00  0.00     0.187 HD
BRANCH  18  20
HETATM   20  N3  UNL     1       6.948   3.957  -2.428  1.00  0.00    -0.250 N 
HETATM   21  N4  UNL     1       7.835   4.734  -1.986  1.00  0.00    -0.331 N 
ATOM     22  H42 UNL     1       7.855   4.942  -0.988  1.00  0.00     0.178 HD
ATOM     23  H41 UNL     1       8.519   5.145  -2.621  1.00  0.00     0.178 HD
ATOM     24  H3  UNL     1       6.914   3.738  -3.424  1.00  0.00     0.207 HD
ENDBRANCH  18  20
ENDBRANCH   6  17
ENDBRANCH   2   3
ENDBRANCH   1   2
BRANCH   1  25
HETATM   25  C11 UNL     1      -0.130   0.353   0.117  1.00  0.00     0.091 C 
BRANCH  25  26
HETATM   26  C12 UNL     1      -1.464   0.876  -0.262  1.00  0.00     0.198 C 
HETATM   27  N6  UNL     1      -1.479   2.072  -0.808  1.00  0.00    -0.289 N 
ATOM     28  H6  UNL     1      -2.361   2.496  -1.094  1.00  0.00     0.187 HD
BRANCH  27  29
HETATM   29  N7  UNL     1      -0.284   2.752  -0.991  1.00  0.00    -0.344 N 
ATOM     30  H72 UNL     1       0.590   2.314  -0.699  1.00  0.00     0.176 HD
ATOM     31  H71 UNL     1      -0.296   3.680  -1.415  1.00  0.00     0.176 HD
ENDBRANCH  27  29
BRANCH  26  32
HETATM   32  N8  UNL     1      -2.701   0.191  -0.082  1.00  0.00    -0.025 N 
HETATM   33  C13 UNL     1      -3.761   1.167  -0.276  1.00  0.00     0.281 C 
BRANCH  32  34
HETATM   34  C14 UNL     1      -2.796  -0.278   1.256  1.00  0.00     0.247 C 
BRANCH  34  35
HETATM   35  C15 UNL     1      -4.170  -0.794   1.625  1.00  0.00     0.055 C 
BRANCH  35  36
HETATM   36  C16 UNL     1      -4.102  -1.262   3.084  1.00  0.00     0.231 C 
BRANCH  36  37
HETATM   37  N9  UNL     1      -3.731  -0.142   3.917  1.00  0.00    -0.079 N 
ATOM     38  H93 UNL     1      -2.865   0.302   3.610  1.00  0.00     0.274 HD
ATOM     39  H92 UNL     1      -4.352   0.658   3.793  1.00  0.00     0.274 HD
ATOM     40  H91 UNL     1      -3.686  -0.453   4.887  1.00  0.00     0.274 HD
ENDBRANCH  36  37
ENDBRANCH  35  36
ENDBRANCH  34  35
ENDBRANCH  32  34
BRANCH  32  41
HETATM   41  C17 UNL     1      -2.758  -0.868  -1.068  1.00  0.00     0.283 C 
BRANCH  41  42
HETATM   42  C18 UNL     1      -3.710  -0.643  -2.154  1.00  0.00    -0.032 A 
HETATM   43  C19 UNL     1      -4.953  -1.226  -2.105  1.00  0.00     0.009 A 
HETATM   44  C20 UNL     1      -5.920  -1.077  -3.069  1.00  0.00     0.001 A 
HETATM   45  C21 UNL     1      -5.601  -0.287  -4.144  1.00  0.00     0.000 A 
HETATM   46  C22 UNL     1      -4.360   0.312  -4.220  1.00  0.00     0.001 A 
HETATM   47  C23 UNL     1      -3.413   0.142  -3.237  1.00  0.00     0.009 A 
ENDBRANCH  41  42
ENDBRANCH  32  41
ENDBRANCH  26  32
ENDBRANCH  25  26
ENDBRANCH   1  25
TORSDOF 14
