REMARK  12 active torsions:
REMARK  status: ('A' for Active; 'I' for Inactive)
REMARK    1  A    between atoms: C2_5  and  N3_6 
REMARK    2  A    between atoms: C3_11  and  C4_12 
REMARK    3  A    between atoms: N5_15  and  C7_16 
REMARK    4  A    between atoms: C7_16  and  C8_17 
REMARK    5  A    between atoms: C8_17  and  C9_18 
REMARK    6  A    between atoms: N6_21  and  C12_22 
REMARK    7  A    between atoms: C12_22  and  C13_23 
REMARK    8  A    between atoms: C13_23  and  N7_24 
REMARK    9  A    between atoms: C16_27  and  C17_28 
REMARK   10  A    between atoms: C17_28  and  N8_29 
REMARK   11  A    between atoms: C23_38  and  C24_39 
REMARK   12  A    between atoms: C24_39  and  C25_40 
ROOT
HETATM    1  C4  UNL     1      -5.003   0.228  -0.238  1.00  0.00     0.019 A 
HETATM    2  C5  UNL     1      -4.531   0.843   0.927  1.00  0.00     0.033 A 
HETATM    3  C6  UNL     1      -3.239   1.327   1.031  1.00  0.00     0.091 A 
HETATM    4  N5  UNL     1      -2.369   1.234   0.021  1.00  0.00    -0.366 N 
HETATM    5  C22 UNL     1      -2.791   0.657  -1.095  1.00  0.00     0.099 A 
HETATM    6  C23 UNL     1      -4.092   0.142  -1.268  1.00  0.00    -0.019 A 
ENDROOT
BRANCH   4   7
HETATM    7  C7  UNL     1      -1.018   1.737   0.130  1.00  0.00     0.132 C 
BRANCH   7   8
HETATM    8  C8  UNL     1      -0.126   0.622   0.660  1.00  0.00     0.058 C 
BRANCH   8   9
HETATM    9  C9  UNL     1       1.277   1.096   0.789  1.00  0.00    -0.054 A 
HETATM   10  C10 UNL     1       1.689   1.663   1.974  1.00  0.00     0.024 A 
HETATM   11  C11 UNL     1       2.986   2.107   2.113  1.00  0.00     0.091 A 
HETATM   12  N6  UNL     1       3.905   2.018   1.129  1.00  0.00    -0.365 N 
HETATM   13  C20 UNL     1       3.501   1.464  -0.027  1.00  0.00     0.091 A 
HETATM   14  C21 UNL     1       2.206   0.998  -0.225  1.00  0.00     0.024 A 
BRANCH  12  15
HETATM   15  C12 UNL     1       5.251   2.476   1.260  1.00  0.00     0.148 C 
BRANCH  15  16
HETATM   16  C13 UNL     1       6.234   1.481   1.772  1.00  0.00     0.148 C 
BRANCH  16  17
HETATM   17  N7  UNL     1       6.366   0.303   0.942  1.00  0.00    -0.365 N 
HETATM   18  C14 UNL     1       7.280   0.287  -0.060  1.00  0.00     0.091 A 
HETATM   19  C15 UNL     1       7.461  -0.801  -0.887  1.00  0.00     0.026 A 
HETATM   20  C16 UNL     1       6.691  -1.936  -0.709  1.00  0.00    -0.030 A 
HETATM   21  C18 UNL     1       5.766  -1.928   0.300  1.00  0.00     0.026 A 
HETATM   22  C19 UNL     1       5.625  -0.798   1.109  1.00  0.00     0.091 A 
BRANCH  20  23
HETATM   23  C17 UNL     1       6.915  -3.083  -1.618  1.00  0.00     0.268 C 
BRANCH  23  24
HETATM   24  N8  UNL     1       8.229  -2.976  -2.242  1.00  0.00    -0.075 N 
ATOM     25  H83 UNL     1       8.355  -2.082  -2.716  1.00  0.00     0.274 HD
ATOM     26  H82 UNL     1       8.974  -2.885  -1.551  1.00  0.00     0.274 HD
ATOM     27  H81 UNL     1       8.383  -3.766  -2.868  1.00  0.00     0.274 HD
ENDBRANCH  23  24
ENDBRANCH  20  23
ENDBRANCH  16  17
ENDBRANCH  15  16
ENDBRANCH  12  15
ENDBRANCH   8   9
ENDBRANCH   7   8
ENDBRANCH   4   7
BRANCH   6  28
HETATM   28  C24 UNL     1      -4.447  -0.493  -2.560  1.00  0.00     0.154 C 
BRANCH  28  29
HETATM   29  C25 UNL     1      -4.556  -1.963  -2.381  1.00  0.00     0.177 C 
HETATM   30  O1  UNL     1      -4.335  -2.500  -1.282  1.00  0.00    -0.648 OA
HETATM   31  O2  UNL     1      -4.917  -2.706  -3.512  1.00  0.00    -0.648 OA
ENDBRANCH  28  29
ENDBRANCH   6  28
BRANCH   1  32
HETATM   32  C3  UNL     1      -6.338  -0.365  -0.252  1.00  0.00     0.148 A 
HETATM   33  N1  UNL     1      -6.894  -0.999   0.797  1.00  0.00    -0.266 N 
HETATM   34  C1  UNL     1      -6.413  -1.223   2.133  1.00  0.00     0.180 C 
HETATM   35  N2  UNL     1      -8.088  -1.510   0.412  1.00  0.00    -0.129 N 
HETATM   36  C2  UNL     1      -8.311  -1.220  -0.857  1.00  0.00     0.692 A 
ATOM     37  H2  UNL     1      -8.720  -2.039   1.012  1.00  0.00     0.206 HD
HETATM   38  N4  UNL     1      -7.218  -0.508  -1.261  1.00  0.00    -0.173 N 
ATOM     39  H4  UNL     1      -7.086  -0.135  -2.201  1.00  0.00     0.186 HD
BRANCH  36  40
HETATM   40  N3  UNL     1      -9.317  -1.525  -1.577  1.00  0.00    -0.233 N 
ATOM     41  H32 UNL     1     -10.133  -2.057  -1.275  1.00  0.00     0.174 HD
ATOM     42  H31 UNL     1      -9.489  -1.301  -2.557  1.00  0.00     0.174 HD
ENDBRANCH  36  40
ENDBRANCH   1  32
TORSDOF 12
