REMARK  14 active torsions:
REMARK  status: ('A' for Active; 'I' for Inactive)
REMARK    1  A    between atoms: C2_4  and  N2_5 
REMARK    2  A    between atoms: C2_4  and  C17_41 
REMARK    3  A    between atoms: N2_5  and  C3_7 
REMARK    4  A    between atoms: C5_13  and  C6_14 
REMARK    5  A    between atoms: C6_14  and  C7_15 
REMARK    6  A    between atoms: C7_15  and  N5_16 
REMARK    7  A    between atoms: N6_20  and  N7_22 
REMARK    8  A    between atoms: C12_28  and  C13_29 
REMARK    9  A    between atoms: C13_29  and  C14_30 
REMARK   10  A    between atoms: C14_30  and  C15_31 
REMARK   11  A    between atoms: C15_31  and  C16_32 
REMARK   12  A    between atoms: C16_32  and  N9_33 
REMARK   13  A    between atoms: N9_33  and  S1_35 
REMARK   14  A    between atoms: S1_35  and  N10_36 
ROOT
HETATM    1  C3  UNL     1      -1.347  -1.999   0.388  1.00  0.00     0.133 A 
HETATM    2  N3  UNL     1      -0.594  -2.898   0.994  1.00  0.00    -0.284 N 
ATOM      3  H3  UNL     1      -0.949  -3.744   1.439  1.00  0.00     0.188 HD
HETATM    4  N4  UNL     1       0.662  -2.561   0.949  1.00  0.00    -0.299 N 
ATOM      5  H4  UNL     1       1.439  -3.090   1.345  1.00  0.00     0.187 HD
HETATM    6  C4  UNL     1       0.761  -1.348   0.264  1.00  0.00     0.058 A 
HETATM    7  C5  UNL     1       1.942  -0.846   0.106  1.00  0.00     0.007 C 
HETATM    8  C12 UNL     1      -0.497  -0.954  -0.111  1.00  0.00     0.033 A 
ENDROOT
BRANCH   7   9
HETATM    9  C6  UNL     1       2.543   0.323  -0.498  1.00  0.00     0.059 C 
BRANCH   9  10
HETATM   10  C7  UNL     1       4.079   0.260  -0.322  1.00  0.00     0.276 C 
BRANCH  10  11
HETATM   11  N5  UNL     1       4.736   1.385  -0.909  1.00  0.00     0.094 N 
HETATM   12  C8  UNL     1       4.492   2.595  -0.211  1.00  0.00     0.278 C 
HETATM   13  C9  UNL     1       5.636   2.625   0.814  1.00  0.00     0.086 C 
HETATM   14  C10 UNL     1       6.765   2.110   0.005  1.00  0.00     0.035 C 
HETATM   15  N6  UNL     1       8.011   2.395   0.125  1.00  0.00    -0.293 N 
HETATM   16  C11 UNL     1       6.154   1.187  -0.985  1.00  0.00     0.326 C 
ATOM     17  H6  UNL     1       8.665   1.949  -0.519  1.00  0.00     0.188 HD
BRANCH  15  18
HETATM   18  N7  UNL     1       8.525   3.261   1.063  1.00  0.00    -0.249 N 
HETATM   19  N8  UNL     1       9.348   4.162   0.687  1.00  0.00    -0.331 N 
ATOM     20  H82 UNL     1       9.610   4.225  -0.297  1.00  0.00     0.178 HD
ATOM     21  H81 UNL     1       9.729   4.804   1.382  1.00  0.00     0.178 HD
ATOM     22  H7  UNL     1       8.253   3.184   2.043  1.00  0.00     0.207 HD
ENDBRANCH  15  18
ENDBRANCH  10  11
ENDBRANCH   9  10
ENDBRANCH   7   9
BRANCH   8  23
HETATM   23  C13 UNL     1      -1.016   0.053  -0.757  1.00  0.00    -0.009 C 
BRANCH  23  24
HETATM   24  C14 UNL     1      -0.467   1.227  -1.366  1.00  0.00     0.030 C 
BRANCH  24  25
HETATM   25  C15 UNL     1      -1.575   2.162  -1.940  1.00  0.00     0.024 C 
BRANCH  25  26
HETATM   26  C16 UNL     1      -2.419   2.599  -0.785  1.00  0.00     0.134 C 
BRANCH  26  27
HETATM   27  N9  UNL     1      -3.496   3.498  -1.225  1.00  0.00    -0.303 N 
ATOM     28  H9  UNL     1      -3.665   3.797  -2.185  1.00  0.00     0.173 HD
BRANCH  27  29
HETATM   29  S1  UNL     1      -4.417   3.958   0.136  1.00  0.00     0.312 S 
HETATM   30  O1  UNL     1      -5.834   4.279  -0.175  1.00  0.00    -0.183 OA
HETATM   31  O2  UNL     1      -4.393   2.889   1.192  1.00  0.00    -0.183 OA
BRANCH  29  32
HETATM   32  N10 UNL     1      -3.701   5.403   0.793  1.00  0.00    -0.312 N 
ATOM     33 2H10 UNL     1      -2.879   5.877   0.420  1.00  0.00     0.170 HD
ATOM     34 1H10 UNL     1      -4.251   5.678   1.606  1.00  0.00     0.170 HD
ENDBRANCH  29  32
ENDBRANCH  27  29
ENDBRANCH  26  27
ENDBRANCH  25  26
ENDBRANCH  24  25
ENDBRANCH  23  24
ENDBRANCH   8  23
BRANCH   1  35
HETATM   35  N2  UNL     1      -2.638  -2.004   0.240  1.00  0.00    -0.330 N 
ATOM     36  H2  UNL     1      -3.116  -1.248  -0.250  1.00  0.00     0.168 HD
BRANCH  35  37
HETATM   37  C2  UNL     1      -3.386  -3.136   0.803  1.00  0.00     0.081 C 
HETATM   38  N1  UNL     1      -3.927  -2.957   1.895  1.00  0.00    -0.384 N 
HETATM   39  C1  UNL     1      -4.706  -3.623   2.830  1.00  0.00     0.147 C 
ATOM     40  H1  UNL     1      -3.741  -2.007   2.218  1.00  0.00     0.160 HD
BRANCH  37  41
HETATM   41  C17 UNL     1      -3.433  -4.377   0.024  1.00  0.00     0.045 C 
HETATM   42  C18 UNL     1      -4.074  -5.555   0.655  1.00  0.00     0.017 C 
HETATM   43  C19 UNL     1      -4.175  -4.150  -1.310  1.00  0.00     0.017 C 
ENDBRANCH  37  41
ENDBRANCH  35  37
ENDBRANCH   1  35
TORSDOF 14
