REMARK  13 active torsions:
REMARK  status: ('A' for Active; 'I' for Inactive)
REMARK       I    between atoms: C2_2  and  N1_4 
REMARK    1  A    between atoms: N1_4  and  C3_6 
REMARK    2  A    between atoms: C5_15  and  C6_16 
REMARK    3  A    between atoms: C6_16  and  C7_24 
REMARK    4  A    between atoms: N5_17  and  N6_19 
REMARK    5  A    between atoms: N6_19  and  N7_21 
REMARK    6  A    between atoms: N8_27  and  C10_28 
REMARK    7  A    between atoms: C10_28  and  C11_29 
REMARK    8  A    between atoms: C11_29  and  C12_30 
REMARK    9  A    between atoms: C12_30  and  C13_31 
REMARK   10  A    between atoms: C13_31  and  C14_32 
REMARK   11  A    between atoms: C14_32  and  C15_33 
REMARK   12  A    between atoms: C15_33  and  N9_34 
REMARK   13  A    between atoms: C23_43  and  O2_44 
ROOT
HETATM    1  C6  UNL     1      -3.593   0.722  -0.340  1.00  0.00     0.091 C 
HETATM    2  N5  UNL     1      -4.568   1.404  -0.834  1.00  0.00    -0.284 N 
ATOM      3  H5  UNL     1      -5.503   1.170  -0.501  1.00  0.00     0.188 HD
ENDROOT
BRANCH   1   4
HETATM    4  C5  UNL     1      -4.052  -0.300   0.639  1.00  0.00     0.115 A 
HETATM    5  N4  UNL     1      -3.233  -0.982   1.434  1.00  0.00    -0.187 N 
HETATM    6  C4  UNL     1      -3.731  -1.866   2.370  1.00  0.00     0.678 A 
ATOM      7  H4  UNL     1      -2.225  -0.850   1.351  1.00  0.00     0.184 HD
HETATM    8  N2  UNL     1      -5.039  -2.085   2.530  1.00  0.00    -0.174 N 
HETATM    9  N3  UNL     1      -2.906  -2.512   3.124  1.00  0.00    -0.234 N 
HETATM   10  C3  UNL     1      -5.929  -1.413   1.744  1.00  0.00     0.159 A 
ATOM     11  H2  UNL     1      -5.369  -2.747   3.232  1.00  0.00     0.186 HD
HETATM   12  C23 UNL     1      -5.411  -0.545   0.826  1.00  0.00     0.140 A 
ATOM     13  H32 UNL     1      -3.274  -3.165   3.816  1.00  0.00     0.174 HD
ATOM     14  H31 UNL     1      -1.907  -2.345   3.002  1.00  0.00     0.174 HD
BRANCH  10  15
HETATM   15  N1  UNL     1      -7.163  -1.666   1.947  1.00  0.00    -0.311 N 
HETATM   16  C2  UNL     1      -8.194  -1.058   1.221  1.00  0.00     0.219 C 
HETATM   17  C1  UNL     1      -8.772  -1.660  -0.010  1.00  0.00     0.117 C 
HETATM   18  O1  UNL     1      -8.670   0.042   1.602  1.00  0.00    -0.274 OA
ATOM     19  H1  UNL     1      -7.409  -2.341   2.671  1.00  0.00     0.170 HD
ENDBRANCH  10  15
BRANCH  12  20
HETATM   20  O2  UNL     1      -6.295   0.150   0.015  1.00  0.00    -0.355 OA
ATOM     21  H2  UNL     1      -5.935   0.754  -0.624  1.00  0.00     0.218 HD
ENDBRANCH  12  20
ENDBRANCH   1   4
BRANCH   1  22
HETATM   22  C7  UNL     1      -2.213   0.986  -0.654  1.00  0.00     0.013 A 
HETATM   23  C8  UNL     1      -1.205   0.041  -0.717  1.00  0.00     0.034 A 
HETATM   24  C9  UNL     1       0.097   0.410  -0.916  1.00  0.00     0.111 A 
HETATM   25  N8  UNL     1       0.491   1.686  -1.064  1.00  0.00    -0.302 N 
HETATM   26  N10 UNL     1      -0.457   2.594  -1.007  1.00  0.00    -0.305 N 
HETATM   27  C21 UNL     1      -0.095   3.994  -1.164  1.00  0.00     0.177 C 
HETATM   28  C22 UNL     1      -1.772   2.297  -0.810  1.00  0.00     0.123 A 
BRANCH  25  29
HETATM   29  C10 UNL     1       1.877   2.027  -1.274  1.00  0.00     0.148 C 
BRANCH  29  30
HETATM   30  C11 UNL     1       2.612   2.258   0.027  1.00  0.00     0.022 C 
BRANCH  30  31
HETATM   31  C12 UNL     1       4.046   2.615  -0.175  1.00  0.00     0.002 C 
BRANCH  31  32
HETATM   32  C13 UNL     1       4.859   1.588  -0.891  1.00  0.00     0.002 C 
BRANCH  32  33
HETATM   33  C14 UNL     1       4.896   0.263  -0.176  1.00  0.00     0.020 C 
BRANCH  33  34
HETATM   34  C15 UNL     1       5.746  -0.731  -0.971  1.00  0.00     0.128 C 
BRANCH  34  35
HETATM   35  N9  UNL     1       5.731  -1.966  -0.225  1.00  0.00    -0.366 N 
HETATM   36  C16 UNL     1       6.634  -2.268   0.721  1.00  0.00     0.090 A 
HETATM   37  C17 UNL     1       6.608  -3.449   1.423  1.00  0.00     0.017 A 
HETATM   38  C18 UNL     1       5.600  -4.352   1.129  1.00  0.00     0.003 A 
HETATM   39  C19 UNL     1       4.662  -4.064   0.164  1.00  0.00     0.017 A 
HETATM   40  C20 UNL     1       4.755  -2.858  -0.498  1.00  0.00     0.090 A 
ENDBRANCH  34  35
ENDBRANCH  33  34
ENDBRANCH  32  33
ENDBRANCH  31  32
ENDBRANCH  30  31
ENDBRANCH  29  30
ENDBRANCH  25  29
ENDBRANCH   1  22
BRANCH   2  41
HETATM   41  N6  UNL     1      -4.482   2.395  -1.745  1.00  0.00    -0.249 N 
ATOM     42  H6  UNL     1      -4.642   3.367  -1.479  1.00  0.00     0.207 HD
BRANCH  41  43
HETATM   43  N7  UNL     1      -4.191   2.079  -2.963  1.00  0.00    -0.331 N 
ATOM     44  H72 UNL     1      -4.034   1.103  -3.213  1.00  0.00     0.178 HD
ATOM     45  H71 UNL     1      -4.126   2.828  -3.652  1.00  0.00     0.178 HD
ENDBRANCH  41  43
ENDBRANCH   2  41
TORSDOF 13
