REMARK  8 active torsions:
REMARK  status: ('A' for Active; 'I' for Inactive)
REMARK    1  A    between atoms: C2_2  and  C3_3 
REMARK    2  A    between atoms: C4_5  and  N1_6 
REMARK    3  A    between atoms: C6_8  and  C7_9 
REMARK    4  A    between atoms: C9_12  and  C10_13 
REMARK    5  A    between atoms: C10_13  and  O2_14 
REMARK    6  A    between atoms: C11_16  and  C12_17 
REMARK    7  A    between atoms: C15_27  and  O3_28 
REMARK    8  A    between atoms: C15_27  and  C16_30 
ROOT
HETATM    1  N1  UNL     1      -0.316   0.911   0.467  1.00  0.00    -0.229 N 
HETATM    2  C5  UNL     1       0.673  -0.006   0.606  1.00  0.00     0.147 A 
HETATM    3  C6  UNL     1       1.897   0.617   0.491  1.00  0.00     0.049 A 
HETATM    4  N3  UNL     1       1.608   1.919   0.283  1.00  0.00    -0.288 N 
ATOM      5  H3  UNL     1       2.289   2.667   0.155  1.00  0.00     0.188 HD
HETATM    6  N4  UNL     1       0.287   2.063   0.273  1.00  0.00    -0.234 N 
ATOM      7  H4  UNL     1      -0.196   2.951   0.133  1.00  0.00     0.209 HD
ENDROOT
BRANCH   1   8
HETATM    8  C4  UNL     1      -1.717   0.708   0.514  1.00  0.00     0.168 C 
HETATM    9  O1  UNL     1      -2.558   1.794   0.347  1.00  0.00    -0.303 OA
HETATM   10  C3  UNL     1      -3.961   1.661   0.443  1.00  0.00     0.271 C 
HETATM   11  O4  UNL     1      -4.414   0.403   0.154  1.00  0.00    -0.321 OA
HETATM   12  C15 UNL     1      -3.723  -0.625   0.752  1.00  0.00     0.195 C 
HETATM   13  C14 UNL     1      -2.261  -0.480   0.713  1.00  0.00     0.099 C 
BRANCH  10  14
HETATM   14  C2  UNL     1      -4.548   2.603  -0.619  1.00  0.00     0.057 C 
HETATM   15  C1  UNL     1      -4.114   4.037  -0.334  1.00  0.00     0.010 C 
ENDBRANCH  10  14
BRANCH  12  16
HETATM   16  O3  UNL     1      -4.117  -0.781   2.099  1.00  0.00    -0.361 OA
ATOM     17  H3  UNL     1      -5.062  -0.875   2.124  1.00  0.00     0.213 HD
ENDBRANCH  12  16
BRANCH  12  18
HETATM   18  C16 UNL     1      -4.164  -1.910   0.054  1.00  0.00     0.009 C 
HETATM   19  C17 UNL     1      -3.571  -3.128   0.705  1.00  0.00     0.020 C 
HETATM   20  C18 UNL     1      -5.655  -1.980   0.027  1.00  0.00     0.020 C 
HETATM   21  C19 UNL     1      -3.662  -1.799  -1.389  1.00  0.00     0.020 C 
ENDBRANCH  12  18
ENDBRANCH   1   8
BRANCH   3  22
HETATM   22  C7  UNL     1       3.267  -0.003   0.578  1.00  0.00     0.048 C 
HETATM   23  C8  UNL     1       3.924   0.552   1.792  1.00  0.00     0.085 C 
HETATM   24  S1  UNL     1       5.523  -0.332   1.976  1.00  0.00    -0.161 SA
HETATM   25  C9  UNL     1       6.121  -0.590   0.284  1.00  0.00     0.079 C 
HETATM   26  C11 UNL     1       5.425   0.323  -0.694  1.00  0.00     0.040 C 
HETATM   27  C13 UNL     1       3.948   0.202  -0.705  1.00  0.00     0.022 C 
BRANCH  25  28
HETATM   28  C10 UNL     1       6.025  -2.044  -0.121  1.00  0.00     0.179 C 
BRANCH  28  29
HETATM   29  O2  UNL     1       6.486  -2.236  -1.422  1.00  0.00    -0.400 OA
ATOM     30  H2  UNL     1       6.426  -3.149  -1.676  1.00  0.00     0.209 HD
ENDBRANCH  28  29
ENDBRANCH  25  28
BRANCH  26  31
HETATM   31  C12 UNL     1       5.904   1.715  -0.535  1.00  0.00     0.058 C 
HETATM   32  N2  UNL     1       5.499   2.620  -1.322  1.00  0.00    -0.411 N 
ATOM     33  H22 UNL     1       4.842   2.373  -2.062  1.00  0.00     0.155 HD
ATOM     34  H21 UNL     1       5.829   3.579  -1.212  1.00  0.00     0.155 HD
ENDBRANCH  26  31
ENDBRANCH   3  22
TORSDOF 8
