REMARK  9 active torsions:
REMARK  status: ('A' for Active; 'I' for Inactive)
REMARK    1  A    between atoms: C2_2  and  C3_3 
REMARK    2  A    between atoms: C2_2  and  C4_6 
REMARK    3  A    between atoms: C3_3  and  O1_4 
REMARK    4  A    between atoms: C9_15  and  C10_16 
REMARK    5  A    between atoms: C10_16  and  O6_17 
REMARK    6  A    between atoms: O6_17  and  C11_18 
REMARK    7  A    between atoms: C11_18  and  C12_20 
REMARK    8  A    between atoms: C14_22  and  O8_23 
REMARK    9  A    between atoms: C17_27  and  O9_28 
ROOT
HETATM    1  O6  UNL     1       0.630  -0.693   1.428  1.00  0.00    -0.312 OA
ENDROOT
BRANCH   1   2
HETATM    2  C10 UNL     1       1.792  -1.322   1.847  1.00  0.00     0.251 C 
BRANCH   2   3
HETATM    3  C9  UNL     1       2.961  -1.302   0.932  1.00  0.00     0.224 C 
HETATM    4  C6  UNL     1       2.696  -2.046  -0.369  1.00  0.00     0.230 C 
HETATM    5  C5  UNL     1       3.425  -1.195  -1.372  1.00  0.00     0.114 C 
HETATM    6  O2  UNL     1       3.213  -3.318  -0.239  1.00  0.00    -0.225 OA
HETATM    7  C4  UNL     1       4.341  -0.377  -0.462  1.00  0.00     0.202 C 
HETATM    8  O4  UNL     1       5.380  -1.220  -0.093  1.00  0.00    -0.289 OA
HETATM    9  O10 UNL     1       3.491  -0.092   0.600  1.00  0.00    -0.309 OA
HETATM   10  C7  UNL     1       4.982  -2.282   0.673  1.00  0.00     0.312 C 
HETATM   11  O3  UNL     1       4.523  -3.292  -0.187  1.00  0.00    -0.171 OA
HETATM   12  C8  UNL     1       6.188  -2.784   1.471  1.00  0.00     0.118 C 
HETATM   13  O5  UNL     1       3.984  -2.018   1.575  1.00  0.00    -0.289 OA
BRANCH   7  14
HETATM   14  C2  UNL     1       4.866   0.823  -1.130  1.00  0.00    -0.004 C 
HETATM   15  C1  UNL     1       6.165   0.993  -1.280  1.00  0.00     0.022 C 
BRANCH  14  16
HETATM   16  C3  UNL     1       3.944   1.865  -1.648  1.00  0.00     0.203 C 
BRANCH  16  17
HETATM   17  O1  UNL     1       4.652   2.909  -2.240  1.00  0.00    -0.397 OA
ATOM     18  H1  UNL     1       4.062   3.576  -2.571  1.00  0.00     0.209 HD
ENDBRANCH  16  17
ENDBRANCH  14  16
ENDBRANCH   7  14
ENDBRANCH   2   3
ENDBRANCH   1   2
BRANCH   1  19
HETATM   19  C11 UNL     1       0.364   0.613   1.161  1.00  0.00     0.296 C 
HETATM   20  O7  UNL     1       1.325   1.440   1.320  1.00  0.00    -0.259 OA
BRANCH  19  21
HETATM   21  C12 UNL     1      -0.943   1.097   0.709  1.00  0.00     0.076 A 
HETATM   22  C13 UNL     1      -1.108   2.434   0.433  1.00  0.00     0.057 A 
HETATM   23  C14 UNL     1      -2.343   2.856  -0.008  1.00  0.00     0.073 A 
HETATM   24  C15 UNL     1      -3.411   1.960  -0.177  1.00  0.00    -0.015 A 
HETATM   25  C16 UNL     1      -3.214   0.629   0.108  1.00  0.00    -0.011 A 
HETATM   26  C24 UNL     1      -4.706   2.493  -0.658  1.00  0.00     0.042 C 
HETATM   27  C17 UNL     1      -1.982   0.211   0.548  1.00  0.00     0.091 A 
HETATM   28  C19 UNL     1      -4.368  -0.279  -0.091  1.00  0.00     0.022 C 
HETATM   29  C20 UNL     1      -5.408  -0.123   1.017  1.00  0.00     0.015 C 
HETATM   30  C21 UNL     1      -4.982   0.171  -1.428  1.00  0.00    -0.010 C 
HETATM   31  C22 UNL     1      -5.870  -0.883  -2.000  1.00  0.00     0.010 C 
HETATM   32  C23 UNL     1      -5.663   1.467  -1.162  1.00  0.00     0.009 C 
BRANCH  23  33
HETATM   33  O8  UNL     1      -2.551   4.201  -0.298  1.00  0.00    -0.360 OA
ATOM     34  H8  UNL     1      -3.403   4.492  -0.602  1.00  0.00     0.217 HD
ENDBRANCH  23  33
BRANCH  27  35
HETATM   35  O9  UNL     1      -1.869  -1.151   0.814  1.00  0.00    -0.354 OA
HETATM   36  C18 UNL     1      -2.201  -1.582   2.137  1.00  0.00     0.210 C 
ENDBRANCH  27  35
ENDBRANCH  19  21
ENDBRANCH   1  19
TORSDOF 9
