REMARK  6 active torsions:
REMARK  status: ('A' for Active; 'I' for Inactive)
REMARK    1  A    between atoms: O1_2  and  C2_3 
REMARK    2  A    between atoms: C11_13  and  O3_14 
REMARK    3  A    between atoms: C12_16  and  C13_17 
REMARK    4  A    between atoms: C13_17  and  O4_18 
REMARK    5  A    between atoms: C13_17  and  C14_20 
REMARK    6  A    between atoms: C14_20  and  N1_22 
ROOT
HETATM    1  C2  UNL     1      -3.775   2.582  -0.273  1.00  0.00     0.280 C 
HETATM    2  C3  UNL     1      -4.900   2.287  -1.256  1.00  0.00     0.115 C 
HETATM    3  O2  UNL     1      -2.596   2.137  -0.917  1.00  0.00    -0.323 OA
HETATM    4  C4  UNL     1      -2.638   0.777  -0.601  1.00  0.00     0.183 C 
HETATM    5  C5  UNL     1      -1.351   0.072  -0.814  1.00  0.00     0.049 C 
HETATM    6  C6  UNL     1      -0.812  -0.596   0.437  1.00  0.00     0.057 C 
HETATM    7  C7  UNL     1       0.128  -1.623   0.039  1.00  0.00    -0.026 A 
HETATM    8  C8  UNL     1      -0.348  -2.894  -0.244  1.00  0.00    -0.014 A 
HETATM    9  C9  UNL     1       0.499  -3.913  -0.721  1.00  0.00     0.114 A 
HETATM   10  C10 UNL     1       1.812  -3.598  -0.891  1.00  0.00     0.139 A 
HETATM   11  C11 UNL     1       2.280  -2.322  -0.602  1.00  0.00     0.115 A 
HETATM   12  C12 UNL     1       1.472  -1.311  -0.134  1.00  0.00     0.038 A 
HETATM   13  O5  UNL     1       2.445  -4.765  -1.371  1.00  0.00    -0.320 OA
HETATM   14  C19 UNL     1       1.578  -5.874  -1.083  1.00  0.00     0.352 C 
HETATM   15  O6  UNL     1       0.318  -5.246  -1.083  1.00  0.00    -0.322 OA
HETATM   16  C20 UNL     1      -1.730  -3.375  -0.050  1.00  0.00     0.045 C 
HETATM   17  C21 UNL     1      -2.693  -2.252   0.102  1.00  0.00     0.043 C 
HETATM   18  C22 UNL     1      -2.095  -1.264   1.025  1.00  0.00     0.068 C 
HETATM   19  C23 UNL     1      -1.632  -1.960   2.283  1.00  0.00     0.047 C 
HETATM   20  O7  UNL     1      -2.990  -0.288   1.435  1.00  0.00    -0.347 OA
HETATM   21  C24 UNL     1      -2.801   0.946   0.917  1.00  0.00     0.295 C 
HETATM   22  O8  UNL     1      -3.907   1.786   0.888  1.00  0.00    -0.299 OA
ENDROOT
BRANCH  12  23
HETATM   23  C13 UNL     1       2.010  -0.067   0.278  1.00  0.00     0.079 C 
BRANCH  23  24
HETATM   24  O4  UNL     1       1.265   1.057   0.433  1.00  0.00    -0.362 OA
ATOM     25  H4  UNL     1       1.626   1.891   0.709  1.00  0.00     0.217 HD
ENDBRANCH  23  24
BRANCH  23  26
HETATM   26  C14 UNL     1       3.290   0.495  -0.286  1.00  0.00     0.135 C 
HETATM   27  C15 UNL     1       3.009   1.312  -1.543  1.00  0.00     0.039 C 
BRANCH  26  28
HETATM   28  N1  UNL     1       3.753   1.440   0.687  1.00  0.00    -0.387 N 
HETATM   29  C16 UNL     1       4.521   2.387   0.674  1.00  0.00    -0.025 C 
HETATM   30  C17 UNL     1       5.314   2.922  -0.490  1.00  0.00     0.062 C 
HETATM   31  C18 UNL     1       4.728   3.122   1.989  1.00  0.00     0.062 C 
ATOM     32  H1  UNL     1       3.343   1.283   1.608  1.00  0.00     0.159 HD
ENDBRANCH  26  28
ENDBRANCH  23  26
ENDBRANCH  12  23
BRANCH  11  33
HETATM   33  O3  UNL     1       3.622  -2.186  -0.831  1.00  0.00    -0.357 OA
ATOM     34  H3  UNL     1       3.942  -1.314  -0.633  1.00  0.00     0.217 HD
ENDBRANCH  11  33
BRANCH   1  35
HETATM   35  O1  UNL     1      -3.679   3.904   0.083  1.00  0.00    -0.338 OA
HETATM   36  C1  UNL     1      -4.828   4.316   0.705  1.00  0.00     0.208 C 
ENDBRANCH   1  35
TORSDOF 6
