REMARK  8 active torsions:
REMARK  status: ('A' for Active; 'I' for Inactive)
REMARK    1  A    between atoms: C2_2  and  O1_3 
REMARK    2  A    between atoms: O1_3  and  C3_4 
REMARK    3  A    between atoms: C3_4  and  N1_5 
REMARK    4  A    between atoms: C3_4  and  O5_14 
REMARK    5  A    between atoms: N1_5  and  C4_7 
REMARK    6  A    between atoms: O5_14  and  C8_15 
REMARK    7  A    between atoms: C12_19  and  O6_20 
REMARK    8  A    between atoms: C18_27  and  O7_28 
ROOT
HETATM    1  C8  UNL     1       0.344   1.022   0.030  1.00  0.00     0.139 C 
HETATM    2  C9  UNL     1       0.327   2.417   0.585  1.00  0.00     0.014 C 
HETATM    3  C10 UNL     1       1.012   2.448   1.950  1.00  0.00     0.012 C 
HETATM    4  C11 UNL     1      -0.955   3.132   0.619  1.00  0.00     0.039 C 
HETATM    5  C12 UNL     1      -2.196   2.305   0.638  1.00  0.00     0.123 C 
HETATM    6  C13 UNL     1      -2.077   0.982  -0.036  1.00  0.00     0.026 C 
HETATM    7  C14 UNL     1      -3.288   0.163   0.434  1.00  0.00     0.019 C 
HETATM    8  C15 UNL     1      -3.390  -1.022  -0.460  1.00  0.00    -0.021 C 
HETATM    9  C16 UNL     1      -4.370  -0.651  -1.584  1.00  0.00     0.017 C 
HETATM   10  C17 UNL     1      -4.077  -2.133   0.321  1.00  0.00     0.017 C 
HETATM   11  C18 UNL     1      -2.128  -1.451  -1.094  1.00  0.00     0.130 C 
HETATM   12  C19 UNL     1      -0.862  -1.116  -0.359  1.00  0.00     0.022 C 
HETATM   13  C20 UNL     1      -0.511  -2.270   0.570  1.00  0.00     0.013 C 
HETATM   14  C21 UNL     1      -0.860   0.211   0.346  1.00  0.00    -0.006 C 
HETATM   15  C22 UNL     1      -0.854  -0.059   1.847  1.00  0.00     0.019 C 
ENDROOT
BRANCH   1  16
HETATM   16  O5  UNL     1       1.555   0.445   0.482  1.00  0.00    -0.338 OA
BRANCH  16  17
HETATM   17  C3  UNL     1       2.456   0.199  -0.531  1.00  0.00     0.371 C 
BRANCH  17  18
HETATM   18  O1  UNL     1       3.628   0.959  -0.378  1.00  0.00    -0.344 OA
BRANCH  18  19
HETATM   19  C2  UNL     1       3.823   1.838  -1.425  1.00  0.00     0.168 C 
HETATM   20  C1  UNL     1       3.948   1.174  -2.763  1.00  0.00     0.033 C 
ENDBRANCH  18  19
ENDBRANCH  17  18
BRANCH  17  21
HETATM   21  N1  UNL     1       2.901  -1.171  -0.631  1.00  0.00    -0.337 N 
ATOM     22  H1  UNL     1       2.683  -1.696  -1.478  1.00  0.00     0.164 HD
BRANCH  21  23
HETATM   23  C4  UNL     1       3.632  -1.819   0.406  1.00  0.00     0.111 A 
HETATM   24  C5  UNL     1       4.237  -1.280   1.451  1.00  0.00     0.179 A 
HETATM   25  O2  UNL     1       4.848  -2.233   2.247  1.00  0.00    -0.282 OA
HETATM   26  C6  UNL     1       4.635  -3.508   1.691  1.00  0.00     0.340 A 
HETATM   27  O3  UNL     1       5.051  -4.602   2.155  1.00  0.00    -0.255 OA
HETATM   28  C7  UNL     1       3.849  -3.249   0.499  1.00  0.00     0.275 A 
HETATM   29  O4  UNL     1       3.443  -4.126  -0.292  1.00  0.00    -0.279 OA
ENDBRANCH  21  23
ENDBRANCH  17  21
ENDBRANCH  16  17
ENDBRANCH   1  16
BRANCH   5  30
HETATM   30  O6  UNL     1      -3.238   3.000  -0.027  1.00  0.00    -0.395 OA
ATOM     31  H6  UNL     1      -4.028   2.473  -0.015  1.00  0.00     0.210 HD
ENDBRANCH   5  30
BRANCH  11  32
HETATM   32  O7  UNL     1      -2.032  -1.044  -2.434  1.00  0.00    -0.394 OA
ATOM     33  H7  UNL     1      -1.220  -1.320  -2.842  1.00  0.00     0.210 HD
ENDBRANCH  11  32
TORSDOF 8
