REMARK  5 active torsions:
REMARK  status: ('A' for Active; 'I' for Inactive)
REMARK    1  A    between atoms: C4_4  and  C5_5 
REMARK    2  A    between atoms: C5_5  and  O2_7 
REMARK    3  A    between atoms: O2_7  and  C6_8 
REMARK    4  A    between atoms: C7_9  and  C8_10 
REMARK    5  A    between atoms: C12_16  and  O5_17 
ROOT
HETATM    1  C6  UNL     1      -0.373   0.136   0.059  1.00  0.00     0.191 C 
HETATM    2  C7  UNL     1      -1.368  -0.958   0.120  1.00  0.00     0.114 C 
HETATM    3  O3  UNL     1      -2.389  -0.619   1.041  1.00  0.00    -0.303 OA
HETATM    4  C11 UNL     1      -2.916   0.657   1.034  1.00  0.00     0.296 C 
HETATM    5  O4  UNL     1      -4.133   0.862   1.249  1.00  0.00    -0.262 OA
HETATM    6  C12 UNL     1      -2.027   1.784   0.769  1.00  0.00     0.164 C 
HETATM    7  C13 UNL     1      -2.644   2.997   0.168  1.00  0.00     0.050 C 
HETATM    8  C14 UNL     1      -1.452   3.662  -0.533  1.00  0.00     0.005 C 
HETATM    9  C15 UNL     1      -0.397   2.556  -0.695  1.00  0.00     0.027 C 
HETATM   10  C16 UNL     1      -1.145   1.342  -0.398  1.00  0.00     0.079 C 
HETATM   11  S1  UNL     1      -2.088   0.664  -1.770  1.00  0.00    -0.145 SA
HETATM   12  C17 UNL     1      -2.033  -1.092  -1.232  1.00  0.00     0.082 C 
HETATM   13  C18 UNL     1      -3.474  -1.543  -1.121  1.00  0.00     0.024 C 
ENDROOT
BRANCH   1  14
HETATM   14  O2  UNL     1       0.760  -0.104  -0.734  1.00  0.00    -0.308 OA
BRANCH  14  15
HETATM   15  C5  UNL     1       2.062   0.039  -0.275  1.00  0.00     0.283 C 
HETATM   16  O1  UNL     1       2.218   0.410   0.912  1.00  0.00    -0.260 OA
BRANCH  15  17
HETATM   17  C4  UNL     1       3.222  -0.213  -1.083  1.00  0.00     0.084 C 
HETATM   18  C2  UNL     1       4.439  -0.070  -0.624  1.00  0.00    -0.082 C 
HETATM   19  C1  UNL     1       5.602  -0.359  -1.550  1.00  0.00     0.043 C 
HETATM   20  C3  UNL     1       4.813   0.354   0.733  1.00  0.00     0.043 C 
ENDBRANCH  15  17
ENDBRANCH  14  15
ENDBRANCH   1  14
BRANCH   2  21
HETATM   21  C8  UNL     1      -0.698  -2.249   0.483  1.00  0.00     0.016 C 
HETATM   22  C9  UNL     1      -0.025  -2.227   1.809  1.00  0.00     0.012 C 
HETATM   23  C10 UNL     1      -1.627  -3.438   0.437  1.00  0.00     0.012 C 
ENDBRANCH   2  21
BRANCH   6  24
HETATM   24  O5  UNL     1      -1.174   2.073   1.832  1.00  0.00    -0.378 OA
ATOM     25  H5  UNL     1      -0.595   2.806   1.660  1.00  0.00     0.211 HD
ENDBRANCH   6  24
TORSDOF 5
