REMARK  5 active torsions:
REMARK  status: ('A' for Active; 'I' for Inactive)
REMARK    1  A    between atoms: C3_3  and  N1_4 
REMARK    2  A    between atoms: C3_3  and  C4_8 
REMARK    3  A    between atoms: C4_8  and  N2_9 
REMARK    4  A    between atoms: C4_8  and  C5_13 
REMARK    5  A    between atoms: N2_9  and  N3_10 
ROOT
HETATM    1  C1  UNL     1      -3.276   1.782  -0.877  1.00  0.00     0.014 C 
HETATM    2  C2  UNL     1      -2.110   1.475  -0.800  1.00  0.00    -0.082 C 
HETATM    3  C3  UNL     1      -0.683   1.092  -0.719  1.00  0.00     0.289 C 
ENDROOT
BRANCH   3   4
HETATM    4  N1  UNL     1       0.127   2.198  -0.268  1.00  0.00    -0.062 N 
ATOM      5  H13 UNL     1      -0.008   3.024  -0.851  1.00  0.00     0.275 HD
ATOM      6  H12 UNL     1      -0.212   2.575   0.617  1.00  0.00     0.275 HD
ATOM      7  H11 UNL     1       1.111   1.934  -0.212  1.00  0.00     0.275 HD
ENDBRANCH   3   4
BRANCH   3   8
HETATM    8  C4  UNL     1      -0.525  -0.033   0.249  1.00  0.00     0.209 C 
BRANCH   8   9
HETATM    9  N2  UNL     1      -1.289  -1.213  -0.144  1.00  0.00    -0.132 NA
BRANCH   9  10
HETATM   10  N3  UNL     1      -1.109  -2.231   0.788  1.00  0.00    -0.348 N 
ATOM     11  H32 UNL     1      -0.525  -2.149   1.620  1.00  0.00     0.172 HD
ATOM     12  H31 UNL     1      -1.643  -3.056   0.513  1.00  0.00     0.172 HD
ENDBRANCH   9  10
ENDBRANCH   8   9
BRANCH   8  13
HETATM   13  C5  UNL     1       0.927  -0.389   0.302  1.00  0.00     0.121 A 
HETATM   14  N4  UNL     1       1.485  -1.490   0.851  1.00  0.00    -0.338 N 
HETATM   15  C6  UNL     1       2.817  -1.420   0.682  1.00  0.00     0.198 A 
ATOM     16  H4  UNL     1       0.981  -2.246   1.315  1.00  0.00     0.168 HD
HETATM   17  N5  UNL     1       3.100  -0.293   0.036  1.00  0.00    -0.295 N 
HETATM   18  N6  UNL     1       1.954   0.326  -0.192  1.00  0.00    -0.286 N 
ATOM     19  H5  UNL     1       4.028   0.033  -0.233  1.00  0.00     0.187 HD
ATOM     20  H6  UNL     1       1.862   1.220  -0.675  1.00  0.00     0.188 HD
ENDBRANCH   8  13
ENDBRANCH   3   8
TORSDOF 5
