REMARK  4 active torsions:
REMARK  status: ('A' for Active; 'I' for Inactive)
REMARK    1  A    between atoms: C2_2  and  C3_3 
REMARK    2  A    between atoms: C3_3  and  N1_4 
REMARK    3  A    between atoms: N1_4  and  N2_5 
REMARK    4  A    between atoms: N2_5  and  C4_7 
ROOT
HETATM    1  C4  UNL     1       1.461   0.876   0.070  1.00  0.00     0.204 C 
HETATM    2  N3  UNL     1       2.050   0.679   1.207  1.00  0.00    -0.345 N 
ATOM      3  H3  UNL     1       1.791   1.127   2.086  1.00  0.00     0.163 HD
HETATM    4  C5  UNL     1       3.122  -0.264   1.047  1.00  0.00     0.259 C 
HETATM    5  N4  UNL     1       2.758  -0.956  -0.176  1.00  0.00    -0.119 NA
HETATM    6  N5  UNL     1       2.128   0.059  -0.903  1.00  0.00    -0.273 N 
ATOM      7  H5  UNL     1       2.140   0.191  -1.914  1.00  0.00     0.185 HD
ENDROOT
BRANCH   1   8
HETATM    8  N2  UNL     1       0.357   1.729  -0.216  1.00  0.00    -0.274 N 
ATOM      9  H2  UNL     1       0.537   2.719  -0.380  1.00  0.00     0.185 HD
BRANCH   8  10
HETATM   10  N1  UNL     1      -0.963   1.272  -0.283  1.00  0.00    -0.139 NA
BRANCH  10  11
HETATM   11  C3  UNL     1      -0.960   0.007  -0.996  1.00  0.00     0.135 C 
BRANCH  11  12
HETATM   12  C2  UNL     1      -2.381  -0.509  -1.082  1.00  0.00     0.013 C 
HETATM   13  C1  UNL     1      -2.873  -0.688   0.336  1.00  0.00     0.006 C 
ENDBRANCH  11  12
ENDBRANCH  10  11
ENDBRANCH   8  10
ENDBRANCH   1   8
TORSDOF 4
