REMARK  4 active torsions:
REMARK  status: ('A' for Active; 'I' for Inactive)
REMARK    1  A    between atoms: O1_1  and  C1_3 
REMARK    2  A    between atoms: C4_6  and  O2_7 
REMARK    3  A    between atoms: N1_9  and  C5_10 
REMARK    4  A    between atoms: C5_10  and  C6_11 
ROOT
HETATM    1  C1  UNL     1       1.296  -0.171   1.124  1.00  0.00     0.151 A 
HETATM    2  C2  UNL     1       0.023  -0.313   0.596  1.00  0.00     0.008 A 
HETATM    3  C3  UNL     1      -0.002   0.197  -0.687  1.00  0.00     0.008 A 
HETATM    4  C4  UNL     1       1.279   0.649  -0.922  1.00  0.00     0.151 A 
HETATM    5  N1  UNL     1       2.039   0.420   0.172  1.00  0.00    -0.307 N 
HETATM    6  C7  UNL     1      -1.296   0.123  -1.405  1.00  0.00     0.024 C 
HETATM    7  C8  UNL     1      -2.223   1.175  -0.901  1.00  0.00     0.009 C 
HETATM    8  C9  UNL     1      -2.984   0.804   0.330  1.00  0.00     0.001 C 
HETATM    9  C10 UNL     1      -2.165   0.274   1.444  1.00  0.00     0.009 C 
HETATM   10  C11 UNL     1      -1.258  -0.871   1.098  1.00  0.00     0.024 C 
HETATM   11  C12 UNL     1      -1.872  -1.821   0.107  1.00  0.00     0.010 C 
HETATM   12  C13 UNL     1      -1.802  -1.271  -1.273  1.00  0.00     0.010 C 
ENDROOT
BRANCH   5  13
HETATM   13  C5  UNL     1       3.437   0.778   0.251  1.00  0.00     0.148 C 
BRANCH  13  14
HETATM   14  C6  UNL     1       4.292  -0.397  -0.245  1.00  0.00     0.135 C 
HETATM   15 CL1  UNL     1       6.017   0.016  -0.159  1.00  0.00    -0.129 Cl
ENDBRANCH  13  14
ENDBRANCH   5  13
BRANCH   1  16
HETATM   16  O1  UNL     1       1.652  -0.584   2.395  1.00  0.00    -0.345 OA
ATOM     17  H1  UNL     1       2.525  -0.487   2.757  1.00  0.00     0.219 HD
ENDBRANCH   1  16
BRANCH   4  18
HETATM   18  O2  UNL     1       1.649   1.239  -2.131  1.00  0.00    -0.345 OA
ATOM     19  H2  UNL     1       2.532   1.550  -2.293  1.00  0.00     0.219 HD
ENDBRANCH   4  18
TORSDOF 4
