REMARK  4 active torsions:
REMARK  status: ('A' for Active; 'I' for Inactive)
REMARK    1  A    between atoms: C1_4  and  C2_5 
REMARK    2  A    between atoms: C1_4  and  N2_9 
REMARK    3  A    between atoms: N3_11  and  C4_13 
REMARK    4  A    between atoms: C6_15  and  C7_16 
ROOT
HETATM    1  N2  UNL     1      -1.533  -0.274   0.682  1.00  0.00    -0.285 N 
ATOM      2  H2  UNL     1      -1.202   0.442   0.035  1.00  0.00     0.188 HD
HETATM    3  N3  UNL     1      -0.674  -1.064   1.193  1.00  0.00    -0.292 N 
ATOM      4  H3  UNL     1      -0.930  -1.804   1.847  1.00  0.00     0.187 HD
ENDROOT
BRANCH   1   5
HETATM    5  C1  UNL     1      -2.909  -0.332   0.958  1.00  0.00     0.115 C 
HETATM    6  N1  UNL     1      -3.455  -1.405   1.424  1.00  0.00    -0.384 N 
ATOM      7  H12 UNL     1      -4.454  -1.447   1.624  1.00  0.00     0.157 HD
ATOM      8  H11 UNL     1      -2.852  -2.211   1.586  1.00  0.00     0.157 HD
BRANCH   5   9
HETATM    9  C2  UNL     1      -3.765   0.812   0.728  1.00  0.00     0.085 C 
HETATM   10  C3  UNL     1      -3.311   1.953   0.256  1.00  0.00     0.107 C 
HETATM   11 CL1  UNL     1      -4.427   3.310   0.001  1.00  0.00    -0.071 Cl
HETATM   12 CL2  UNL     1      -1.623   2.199  -0.142  1.00  0.00    -0.071 Cl
ENDBRANCH   5   9
ENDBRANCH   1   5
BRANCH   3  13
HETATM   13  C4  UNL     1       0.699  -0.831   0.774  1.00  0.00     0.089 A 
HETATM   14  C5  UNL     1       1.130  -0.577  -0.498  1.00  0.00     0.057 A 
HETATM   15  C6  UNL     1       2.458  -0.387  -0.680  1.00  0.00     0.050 A 
HETATM   16  C8  UNL     1       3.244  -0.470   0.447  1.00  0.00     0.070 A 
HETATM   17  S1  UNL     1       2.128  -0.802   1.688  1.00  0.00    -0.082 SA
BRANCH  15  18
HETATM   18  C7  UNL     1       3.103  -0.100  -2.000  1.00  0.00     0.209 C 
HETATM   19  O1  UNL     1       2.390  -0.024  -3.026  1.00  0.00    -0.644 OA
HETATM   20  O2  UNL     1       4.443   0.086  -2.147  1.00  0.00    -0.644 OA
ENDBRANCH  15  18
ENDBRANCH   3  13
TORSDOF 4
