REMARK  6 active torsions:
REMARK  status: ('A' for Active; 'I' for Inactive)
REMARK    1  A    between atoms: C3_6  and  C4_7 
REMARK       I    between atoms: C4_7  and  N2_9 
REMARK    2  A    between atoms: C9_14  and  O2_15 
REMARK    3  A    between atoms: O2_15  and  C10_16 
REMARK    4  A    between atoms: C10_16  and  S1_18 
REMARK    5  A    between atoms: S1_18  and  C11_19 
REMARK    6  A    between atoms: C18_26  and  C19_27 
ROOT
HETATM    1  C4  UNL     1      -1.473  -0.724   0.975  1.00  0.00     0.251 C 
HETATM    2  O1  UNL     1      -1.052  -1.850   1.330  1.00  0.00    -0.271 OA
HETATM    3  N2  UNL     1      -0.547   0.305   0.750  1.00  0.00    -0.338 N 
HETATM    4  C5  UNL     1      -0.644   1.632   0.163  1.00  0.00     0.090 C 
HETATM    5  C6  UNL     1      -0.002   2.527   1.167  1.00  0.00     0.028 C 
HETATM    6  C7  UNL     1       1.015   1.614   1.822  1.00  0.00     0.030 C 
HETATM    7  C8  UNL     1       0.847   0.308   1.105  1.00  0.00     0.117 C 
HETATM    8  C9  UNL     1       1.455   0.555  -0.307  1.00  0.00     0.157 C 
HETATM    9  C15 UNL     1       0.419   1.421  -0.938  1.00  0.00     0.060 C 
ENDROOT
BRANCH   1  10
HETATM   10  C3  UNL     1      -2.938  -0.559   0.806  1.00  0.00     0.277 C 
HETATM   11  N1  UNL     1      -3.305  -0.342  -0.582  1.00  0.00    -0.058 N 
HETATM   12  C2  UNL     1      -4.700   0.049  -0.596  1.00  0.00     0.195 C 
ATOM     13  H12 UNL     1      -3.108  -1.146  -1.179  1.00  0.00     0.278 HD
ATOM     14  H11 UNL     1      -2.697   0.325  -1.057  1.00  0.00     0.278 HD
HETATM   15  C1  UNL     1      -4.846   1.391   0.079  1.00  0.00     0.041 C 
HETATM   16  C18 UNL     1      -5.578  -0.996   0.016  1.00  0.00     0.105 C 
HETATM   17  C17 UNL     1      -4.835  -2.211   0.446  1.00  0.00     0.018 C 
HETATM   18  C16 UNL     1      -3.465  -2.011   0.990  1.00  0.00     0.043 C 
BRANCH  16  19
HETATM   19  C19 UNL     1      -6.582  -1.400  -0.992  1.00  0.00     0.237 C 
HETATM   20  N3  UNL     1      -7.938  -0.982  -1.014  1.00  0.00    -0.062 NA
HETATM   21  O4  UNL     1      -6.212  -2.179  -1.900  1.00  0.00    -0.276 OA
ENDBRANCH  16  19
ENDBRANCH   1  10
BRANCH   8  22
HETATM   22  O2  UNL     1       2.684   1.178  -0.101  1.00  0.00    -0.305 OA
BRANCH  22  23
HETATM   23  C10 UNL     1       3.862   0.444  -0.391  1.00  0.00     0.323 C 
HETATM   24  O3  UNL     1       3.720  -0.718  -0.868  1.00  0.00    -0.252 OA
BRANCH  23  25
HETATM   25  S1  UNL     1       5.451   1.127  -0.064  1.00  0.00    -0.053 SA
BRANCH  25  26
HETATM   26  C11 UNL     1       6.813   0.011  -0.303  1.00  0.00     0.007 C 
HETATM   27  C12 UNL     1       6.656  -1.265   0.511  1.00  0.00     0.026 C 
HETATM   28  C13 UNL     1       8.038   0.688   0.384  1.00  0.00     0.026 C 
HETATM   29  C14 UNL     1       7.219  -0.285  -1.686  1.00  0.00     0.026 C 
ENDBRANCH  25  26
ENDBRANCH  23  25
ENDBRANCH  22  23
ENDBRANCH   8  22
TORSDOF 6
