REMARK  1 active torsions:
REMARK  status: ('A' for Active; 'I' for Inactive)
REMARK    1  A    between atoms: O1_1  and  N1_3 
ROOT
HETATM    1  N1  UNL     1       2.163   0.674   0.672  1.00  0.00    -0.174 NA
HETATM    2  C1  UNL     1       2.238   0.336  -0.705  1.00  0.00     0.149 C 
HETATM    3  C2  UNL     1       0.972  -0.170  -1.311  1.00  0.00     0.188 C 
HETATM    4  O2  UNL     1      -0.144   0.583  -1.017  1.00  0.00    -0.354 OA
HETATM    5  C3  UNL     1      -0.821  -0.001   0.016  1.00  0.00     0.165 C 
HETATM    6  C4  UNL     1      -1.773  -1.116  -0.331  1.00  0.00     0.069 C 
HETATM    7  C5  UNL     1      -2.636  -0.614   0.835  1.00  0.00     0.011 C 
HETATM    8  C6  UNL     1      -2.008   0.762   0.565  1.00  0.00     0.069 C 
HETATM    9  O3  UNL     1       0.075  -0.272   1.040  1.00  0.00    -0.339 OA
HETATM   10  C7  UNL     1       0.857   0.897   1.188  1.00  0.00     0.291 C 
ENDROOT
BRANCH   1  11
HETATM   11  O1  UNL     1       2.836  -0.152   1.493  1.00  0.00    -0.311 OA
ATOM     12  H1  UNL     1       2.786   0.074   2.414  1.00  0.00     0.237 HD
ENDBRANCH   1  11
TORSDOF 1
