REMARK  16 active torsions:
REMARK  status: ('A' for Active; 'I' for Inactive)
REMARK    1  A    between atoms: C2_2  and  C3_3 
REMARK    2  A    between atoms: C3_3  and  N1_4 
REMARK    3  A    between atoms: C6_7  and  O1_8 
REMARK    4  A    between atoms: O1_8  and  C7_9 
REMARK    5  A    between atoms: C7_9  and  C8_10 
REMARK    6  A    between atoms: C8_10  and  N2_11 
REMARK       I    between atoms: N2_11  and  C9_13 
REMARK    7  A    between atoms: C9_13  and  C10_15 
REMARK    8  A    between atoms: C12_17  and  C13_18 
REMARK    9  A    between atoms: C13_18  and  C14_19 
REMARK   10  A    between atoms: C14_19  and  C15_20 
REMARK   11  A    between atoms: C18_24  and  O4_25 
REMARK   12  A    between atoms: C18_24  and  C19_27 
REMARK   13  A    between atoms: C19_27  and  O5_28 
REMARK   14  A    between atoms: C20_30  and  O6_31 
REMARK   15  A    between atoms: C21_33  and  O7_34 
REMARK   16  A    between atoms: C22_36  and  O8_37 
ROOT
HETATM    1  C10 UNL     1      -2.039  -0.077  -0.191  1.00  0.00     0.100 C 
HETATM    2  C11 UNL     1      -3.046   1.022  -0.606  1.00  0.00     0.056 C 
HETATM    3  C12 UNL     1      -4.052   0.902   0.491  1.00  0.00     0.123 C 
HETATM    4  O3  UNL     1      -4.028  -0.475   0.833  1.00  0.00    -0.376 OA
HETATM    5  C17 UNL     1      -2.656  -0.636   1.018  1.00  0.00     0.181 C 
HETATM    6  C18 UNL     1      -2.356  -2.083   1.304  1.00  0.00     0.134 C 
HETATM    7  C20 UNL     1      -2.453  -2.989   0.133  1.00  0.00     0.188 C 
HETATM    8  C21 UNL     1      -2.639  -2.320  -1.187  1.00  0.00     0.180 C 
HETATM    9  C22 UNL     1      -1.928  -1.021  -1.356  1.00  0.00     0.170 C 
ENDROOT
BRANCH   1  10
HETATM   10  C9  UNL     1      -0.747   0.636   0.061  1.00  0.00     0.231 C 
HETATM   11  N2  UNL     1      -0.026   1.232  -0.981  1.00  0.00    -0.358 N 
ATOM     12  H2  UNL     1      -0.410   1.165  -1.923  1.00  0.00     0.162 HD
HETATM   13  O2  UNL     1      -0.278   0.717   1.226  1.00  0.00    -0.273 OA
BRANCH  11  14
HETATM   14  C8  UNL     1       1.213   1.929  -0.815  1.00  0.00     0.149 C 
BRANCH  14  15
HETATM   15  C7  UNL     1       2.326   1.090  -0.230  1.00  0.00     0.195 C 
BRANCH  15  16
HETATM   16  O1  UNL     1       3.470   1.936  -0.142  1.00  0.00    -0.349 OA
BRANCH  16  17
HETATM   17  C6  UNL     1       4.690   1.569   0.343  1.00  0.00     0.071 A 
HETATM   18  C5  UNL     1       5.718   2.477   0.377  1.00  0.00     0.054 A 
HETATM   19  C4  UNL     1       6.975   2.117   0.872  1.00  0.00     0.093 A 
HETATM   20  N1  UNL     1       7.189   0.875   1.321  1.00  0.00    -0.363 N 
HETATM   21  C24 UNL     1       6.207  -0.043   1.304  1.00  0.00     0.093 A 
HETATM   22  C23 UNL     1       4.937   0.301   0.810  1.00  0.00     0.054 A 
BRANCH  20  23
HETATM   23  C3  UNL     1       8.507   0.489   1.848  1.00  0.00     0.154 C 
BRANCH  23  24
HETATM   24  C2  UNL     1       9.390  -0.045   0.770  1.00  0.00    -0.017 C 
HETATM   25  C1  UNL     1       9.895  -1.258   0.786  1.00  0.00     0.008 C 
ENDBRANCH  23  24
ENDBRANCH  20  23
ENDBRANCH  16  17
ENDBRANCH  15  16
ENDBRANCH  14  15
ENDBRANCH  11  14
ENDBRANCH   1  10
BRANCH   9  26
HETATM   26  O8  UNL     1      -0.567  -1.319  -1.596  1.00  0.00    -0.392 OA
ATOM     27  H8  UNL     1      -0.497  -1.915  -2.332  1.00  0.00     0.210 HD
ENDBRANCH   9  26
BRANCH   3  28
HETATM   28  C13 UNL     1      -5.395   1.438   0.340  1.00  0.00     0.032 C 
BRANCH  28  29
HETATM   29  C14 UNL     1      -6.343   0.986  -0.675  1.00  0.00     0.002 C 
BRANCH  29  30
HETATM   30  C15 UNL     1      -6.061   1.135  -2.117  1.00  0.00    -0.004 C 
HETATM   31  C16 UNL     1      -5.817   2.568  -2.537  1.00  0.00     0.005 C 
ENDBRANCH  29  30
ENDBRANCH  28  29
ENDBRANCH   3  28
BRANCH   6  32
HETATM   32  O4  UNL     1      -3.302  -2.447   2.294  1.00  0.00    -0.382 OA
ATOM     33  H4  UNL     1      -3.113  -3.360   2.475  1.00  0.00     0.210 HD
ENDBRANCH   6  32
BRANCH   6  34
HETATM   34  C19 UNL     1      -1.004  -2.279   1.974  1.00  0.00     0.207 C 
BRANCH  34  35
HETATM   35  O5  UNL     1      -0.902  -3.623   2.358  1.00  0.00    -0.398 OA
ATOM     36  H5  UNL     1      -0.058  -3.745   2.776  1.00  0.00     0.209 HD
ENDBRANCH  34  35
ENDBRANCH   6  34
BRANCH   8  37
HETATM   37  O7  UNL     1      -4.008  -2.228  -1.453  1.00  0.00    -0.390 OA
ATOM     38  H7  UNL     1      -4.126  -1.802  -2.294  1.00  0.00     0.210 HD
ENDBRANCH   8  37
BRANCH   7  39
HETATM   39  O6  UNL     1      -1.365  -3.870   0.041  1.00  0.00    -0.390 OA
ATOM     40  H6  UNL     1      -1.427  -4.450  -0.709  1.00  0.00     0.210 HD
ENDBRANCH   7  39
TORSDOF 16
