REMARK  10 active torsions:
REMARK  status: ('A' for Active; 'I' for Inactive)
REMARK    1  A    between atoms: C2_2  and  C3_3 
REMARK    2  A    between atoms: C3_3  and  C4_4 
REMARK    3  A    between atoms: C4_4  and  C5_5 
REMARK    4  A    between atoms: C5_5  and  N1_6 
REMARK    5  A    between atoms: C9_15  and  O2_16 
REMARK    6  A    between atoms: C15_23  and  N2_24 
REMARK    7  A    between atoms: N2_24  and  C16_26 
REMARK    8  A    between atoms: C16_26  and  C17_27 
REMARK    9  A    between atoms: C16_26  and  C18_29 
REMARK   10  A    between atoms: C18_29  and  C19_32 
ROOT
HETATM    1  C1  UNL     1      -4.574   2.362  -1.066  1.00  0.00     0.024 C 
HETATM    2  C2  UNL     1      -4.461   0.875  -0.571  1.00  0.00     0.029 C 
HETATM    3  C6  UNL     1      -4.976   0.114  -1.721  1.00  0.00     0.175 C 
HETATM    4  O1  UNL     1      -6.207   0.135  -2.026  1.00  0.00    -0.291 OA
HETATM    5  C7  UNL     1      -4.124  -0.705  -2.582  1.00  0.00     0.056 C 
HETATM    6 BR1  UNL     1      -4.644  -1.265  -4.320  1.00  0.00    -0.047 Br
HETATM    7  C8  UNL     1      -2.946  -1.047  -2.096  1.00  0.00     0.034 C 
HETATM    8  C9  UNL     1      -2.447  -0.663  -0.774  1.00  0.00     0.086 C 
HETATM    9  C10 UNL     1      -0.933  -0.586  -0.854  1.00  0.00     0.029 C 
HETATM   10  C11 UNL     1      -0.314  -1.896  -0.376  1.00  0.00     0.014 C 
HETATM   11  C12 UNL     1       1.108  -1.467  -0.090  1.00  0.00    -0.004 C 
HETATM   12  C13 UNL     1       1.832  -1.490  -1.416  1.00  0.00     0.007 C 
HETATM   13  C14 UNL     1       2.188  -0.063  -1.728  1.00  0.00     0.026 C 
HETATM   14  C15 UNL     1       2.043   0.729  -0.450  1.00  0.00     0.086 C 
HETATM   15  C25 UNL     1       1.040  -0.008   0.339  1.00  0.00    -0.016 C 
HETATM   16  C26 UNL     1       1.377   0.055   1.836  1.00  0.00     0.018 C 
HETATM   17  C27 UNL     1      -0.396   0.351   0.171  1.00  0.00     0.003 C 
HETATM   18  C28 UNL     1      -0.756   1.748  -0.075  1.00  0.00     0.006 C 
HETATM   19  C29 UNL     1      -2.174   1.807  -0.639  1.00  0.00     0.009 C 
HETATM   20  C30 UNL     1      -3.020   0.613  -0.237  1.00  0.00     0.040 C 
ENDROOT
BRANCH  14  21
HETATM   21  N2  UNL     1       3.263   0.837   0.287  1.00  0.00    -0.401 N 
ATOM     22  H2  UNL     1       3.360   0.424   1.215  1.00  0.00     0.154 HD
BRANCH  21  23
HETATM   23  C16 UNL     1       4.330   1.538  -0.319  1.00  0.00     0.217 C 
BRANCH  23  24
HETATM   24  C17 UNL     1       4.084   2.981  -0.539  1.00  0.00     0.262 C 
HETATM   25  O3  UNL     1       3.098   3.544  -0.135  1.00  0.00    -0.304 OA
ENDBRANCH  23  24
BRANCH  23  26
HETATM   26  C18 UNL     1       5.555   1.474   0.591  1.00  0.00     0.296 C 
HETATM   27  F1  UNL     1       5.289   1.998   1.849  1.00  0.00    -0.198 F 
HETATM   28  F2  UNL     1       6.520   2.379   0.078  1.00  0.00    -0.198 F 
BRANCH  26  29
HETATM   29  C19 UNL     1       6.202   0.181   0.719  1.00  0.00     0.015 A 
HETATM   30  C20 UNL     1       7.505  -0.003   0.253  1.00  0.00     0.013 A 
HETATM   31  C21 UNL     1       8.170  -1.195   0.354  1.00  0.00     0.001 A 
HETATM   32  C22 UNL     1       7.529  -2.262   0.941  1.00  0.00     0.000 A 
HETATM   33  C23 UNL     1       6.248  -2.127   1.413  1.00  0.00     0.001 A 
HETATM   34  C24 UNL     1       5.589  -0.892   1.297  1.00  0.00     0.013 A 
ENDBRANCH  26  29
ENDBRANCH  23  26
ENDBRANCH  21  23
ENDBRANCH  14  21
BRANCH   8  35
HETATM   35  O2  UNL     1      -2.787  -1.709   0.115  1.00  0.00    -0.385 OA
ATOM     36  H2  UNL     1      -2.463  -1.460   0.973  1.00  0.00     0.211 HD
ENDBRANCH   8  35
BRANCH   2  37
HETATM   37  C3  UNL     1      -5.324   0.880   0.646  1.00  0.00     0.019 C 
BRANCH  37  38
HETATM   38  C4  UNL     1      -5.545  -0.341   1.424  1.00  0.00     0.028 C 
BRANCH  38  39
HETATM   39  C5  UNL     1      -6.249  -1.476   0.690  1.00  0.00     0.229 C 
BRANCH  39  40
HETATM   40  N1  UNL     1      -6.358  -2.563   1.685  1.00  0.00    -0.079 N 
ATOM     41  H13 UNL     1      -5.467  -2.831   2.104  1.00  0.00     0.274 HD
ATOM     42  H12 UNL     1      -6.816  -2.285   2.553  1.00  0.00     0.274 HD
ATOM     43  H11 UNL     1      -6.829  -3.323   1.194  1.00  0.00     0.274 HD
ENDBRANCH  39  40
ENDBRANCH  38  39
ENDBRANCH  37  38
ENDBRANCH   2  37
TORSDOF 10
