REMARK  10 active torsions:
REMARK  status: ('A' for Active; 'I' for Inactive)
REMARK    1  A    between atoms: C2_2  and  N1_3 
REMARK    2  A    between atoms: N1_3  and  C3_5 
REMARK    3  A    between atoms: C3_5  and  C4_6 
REMARK    4  A    between atoms: C4_6  and  C5_7 
REMARK    5  A    between atoms: C5_7  and  O1_8 
REMARK       I    between atoms: N2_11  and  C7_12 
REMARK       I    between atoms: C7_12  and  N3_14 
REMARK    6  A    between atoms: N3_14  and  C8_16 
REMARK    7  A    between atoms: C9_19  and  O3_20 
REMARK    8  A    between atoms: C12_24  and  O4_25 
REMARK    9  A    between atoms: O4_25  and  C13_26 
REMARK   10  A    between atoms: C13_26  and  C14_27 
ROOT
HETATM    1  C8  UNL     1       1.290  -0.480  -0.528  1.00  0.00     0.119 A 
HETATM    2  N4  UNL     1       1.231  -1.781  -0.200  1.00  0.00    -0.321 N 
ATOM      3  H4  UNL     1       0.393  -2.314  -0.432  1.00  0.00     0.169 HD
HETATM    4  C9  UNL     1       2.242  -2.395   0.423  1.00  0.00     0.164 A 
HETATM    5  C11 UNL     1       3.387  -1.660   0.738  1.00  0.00     0.096 A 
HETATM    6 BR1  UNL     1       4.824  -2.529   1.625  1.00  0.00    -0.043 Br
HETATM    7  C12 UNL     1       3.490  -0.330   0.422  1.00  0.00     0.100 A 
HETATM    8  C20 UNL     1       2.436   0.271  -0.217  1.00  0.00     0.017 A 
HETATM    9  C21 UNL     1       2.518   1.703  -0.574  1.00  0.00     0.055 C 
ENDROOT
BRANCH   1  10
HETATM   10  N3  UNL     1       0.369   0.158  -1.117  1.00  0.00    -0.294 N 
HETATM   11  C7  UNL     1      -0.883  -0.310  -1.553  1.00  0.00     0.324 C 
HETATM   12  N2  UNL     1      -2.091  -0.164  -0.808  1.00  0.00    -0.330 N 
HETATM   13  O2  UNL     1      -0.883  -0.892  -2.692  1.00  0.00    -0.247 OA
HETATM   14  C6  UNL     1      -3.301  -0.673  -1.372  1.00  0.00     0.158 C 
HETATM   15  C22 UNL     1      -2.082   0.475   0.467  1.00  0.00     0.153 C 
HETATM   16  C3  UNL     1      -4.523  -0.294  -0.482  1.00  0.00     0.045 C 
HETATM   17  C25 UNL     1      -4.222  -0.787   0.939  1.00  0.00     0.059 C 
HETATM   18  C23 UNL     1      -2.897  -0.307   1.436  1.00  0.00     0.052 C 
HETATM   19  C24 UNL     1      -2.032  -1.481   1.921  1.00  0.00     0.034 C 
HETATM   20 CL2  UNL     1      -3.098   0.732   2.896  1.00  0.00    -0.118 Cl
ATOM     21  H3  UNL     1       0.561   1.143  -1.300  1.00  0.00     0.172 HD
BRANCH  16  22
HETATM   22  N1  UNL     1      -4.652   1.076  -0.587  1.00  0.00    -0.411 N 
ATOM     23  H1  UNL     1      -3.956   1.555  -1.159  1.00  0.00     0.154 HD
BRANCH  22  24
HETATM   24  C2  UNL     1      -5.619   1.870  -0.003  1.00  0.00     0.110 C 
HETATM   25  C1  UNL     1      -5.277   3.340  -0.385  1.00  0.00     0.026 C 
ENDBRANCH  22  24
ENDBRANCH  16  22
BRANCH  16  26
HETATM   26  C4  UNL     1      -5.630  -1.084  -1.095  1.00  0.00     0.058 C 
BRANCH  26  27
HETATM   27  C5  UNL     1      -7.007  -0.919  -0.611  1.00  0.00     0.166 C 
BRANCH  27  28
HETATM   28  O1  UNL     1      -7.204  -1.173   0.743  1.00  0.00    -0.401 OA
ATOM     29  H1  UNL     1      -8.095  -1.066   1.056  1.00  0.00     0.209 HD
ENDBRANCH  27  28
ENDBRANCH  26  27
ENDBRANCH  16  26
ENDBRANCH   1  10
BRANCH   4  30
HETATM   30  O3  UNL     1       2.145  -3.736   0.744  1.00  0.00    -0.340 OA
HETATM   31  C10 UNL     1       2.475  -4.757  -0.212  1.00  0.00     0.211 C 
ENDBRANCH   4  30
BRANCH   7  32
HETATM   32  O4  UNL     1       4.624   0.375   0.741  1.00  0.00    -0.344 OA
BRANCH  32  33
HETATM   33  C13 UNL     1       5.678   0.431  -0.200  1.00  0.00     0.214 C 
BRANCH  33  34
HETATM   34  C14 UNL     1       6.810   1.226   0.304  1.00  0.00    -0.034 A 
HETATM   35  C15 UNL     1       7.868   1.462  -0.548  1.00  0.00     0.011 A 
HETATM   36  C16 UNL     1       8.943   2.203  -0.106  1.00  0.00     0.024 A 
HETATM   37  C17 UNL     1       8.909   2.684   1.195  1.00  0.00     0.034 A 
HETATM   38 CL1  UNL     1      10.260   3.630   1.781  1.00  0.00    -0.084 Cl
HETATM   39  C18 UNL     1       7.849   2.445   2.041  1.00  0.00     0.024 A 
HETATM   40  C19 UNL     1       6.788   1.706   1.586  1.00  0.00     0.011 A 
ENDBRANCH  33  34
ENDBRANCH  32  33
ENDBRANCH   7  32
TORSDOF 10
