REMARK  16 active torsions:
REMARK  status: ('A' for Active; 'I' for Inactive)
REMARK    1  A    between atoms: O1_2  and  C2_3 
REMARK    2  A    between atoms: C2_3  and  C3_5 
REMARK    3  A    between atoms: C3_5  and  C4_6 
REMARK    4  A    between atoms: C4_6  and  C5_7 
REMARK    5  A    between atoms: C4_6  and  C10_16 
REMARK    6  A    between atoms: C5_7  and  C6_8 
REMARK       I    between atoms: C6_8  and  N1_10 
REMARK    7  A    between atoms: N1_10  and  C7_12 
REMARK    8  A    between atoms: C7_12  and  C8_13 
REMARK    9  A    between atoms: C8_13  and  C9_14 
REMARK   10  A    between atoms: C10_16  and  C11_17 
REMARK   11  A    between atoms: C10_16  and  N2_21 
REMARK   12  A    between atoms: C11_17  and  C12_18 
REMARK       I    between atoms: N2_21  and  C15_23 
REMARK   13  A    between atoms: C15_23  and  C16_25 
REMARK   14  A    between atoms: C17_26  and  O5_27 
REMARK   15  A    between atoms: C18_29  and  C19_30 
REMARK   16  A    between atoms: C19_30  and  O6_33 
ROOT
HETATM    1  C10 UNL     1       0.596  -0.735  -0.311  1.00  0.00     0.118 C 
ENDROOT
BRANCH   1   2
HETATM    2  C4  UNL     1       1.544  -0.073  -1.259  1.00  0.00    -0.024 C 
BRANCH   2   3
HETATM    3  C3  UNL     1       1.960  -0.754  -2.475  1.00  0.00     0.091 C 
BRANCH   3   4
HETATM    4  C2  UNL     1       3.201  -1.492  -2.614  1.00  0.00     0.283 C 
HETATM    5  O2  UNL     1       4.222  -1.137  -3.267  1.00  0.00    -0.260 OA
BRANCH   4   6
HETATM    6  O1  UNL     1       3.357  -2.719  -1.997  1.00  0.00    -0.323 OA
HETATM    7  C1  UNL     1       4.532  -3.505  -2.081  1.00  0.00     0.213 C 
ENDBRANCH   4   6
ENDBRANCH   3   4
ENDBRANCH   2   3
BRANCH   2   8
HETATM    8  C5  UNL     1       2.337   1.003  -0.653  1.00  0.00     0.083 C 
BRANCH   8   9
HETATM    9  C6  UNL     1       3.679   0.890  -0.183  1.00  0.00     0.241 C 
HETATM   10  O3  UNL     1       4.502  -0.040  -0.229  1.00  0.00    -0.269 OA
HETATM   11  N1  UNL     1       4.234   2.059   0.486  1.00  0.00    -0.357 N 
ATOM     12  H1  UNL     1       3.648   2.888   0.585  1.00  0.00     0.162 HD
BRANCH  11  13
HETATM   13  C7  UNL     1       5.565   2.097   1.010  1.00  0.00     0.125 C 
BRANCH  13  14
HETATM   14  C8  UNL     1       5.799   3.436   1.645  1.00  0.00     0.051 C 
BRANCH  14  15
HETATM   15  C9  UNL     1       7.202   3.515   2.206  1.00  0.00     0.224 C 
HETATM   16  F1  UNL     1       8.118   3.346   1.197  1.00  0.00    -0.255 F 
ENDBRANCH  14  15
ENDBRANCH  13  14
ENDBRANCH  11  13
ENDBRANCH   8   9
ENDBRANCH   2   8
ENDBRANCH   1   2
BRANCH   1  17
HETATM   17  C11 UNL     1       0.823  -1.988   0.356  1.00  0.00     0.034 C 
BRANCH  17  18
HETATM   18  C12 UNL     1       1.986  -2.141   1.302  1.00  0.00    -0.021 C 
HETATM   19  C13 UNL     1       1.985  -3.580   1.887  1.00  0.00     0.009 C 
HETATM   20  C14 UNL     1       1.889  -1.254   2.505  1.00  0.00     0.009 C 
ENDBRANCH  17  18
ENDBRANCH   1  17
BRANCH   1  21
HETATM   21  N2  UNL     1      -0.764  -0.780  -0.914  1.00  0.00    -0.352 N 
HETATM   22  C15 UNL     1      -1.811   0.071  -0.539  1.00  0.00     0.226 C 
HETATM   23  O4  UNL     1      -1.551   0.915   0.377  1.00  0.00    -0.273 OA
ATOM     24  H2  UNL     1      -0.944  -1.471  -1.643  1.00  0.00     0.163 HD
BRANCH  22  25
HETATM   25  C16 UNL     1      -3.153   0.005  -1.164  1.00  0.00     0.125 C 
HETATM   26  C17 UNL     1      -3.984   1.175  -0.837  1.00  0.00     0.149 C 
HETATM   27  C18 UNL     1      -4.883   0.962   0.293  1.00  0.00     0.111 C 
HETATM   28  S1  UNL     1      -5.325  -0.810   0.110  1.00  0.00    -0.148 SA
HETATM   29  C22 UNL     1      -3.804  -1.266  -0.808  1.00  0.00     0.016 C 
HETATM   30  C23 UNL     1      -4.195  -2.075  -2.056  1.00  0.00     0.028 C 
HETATM   31  C24 UNL     1      -3.044  -2.198   0.077  1.00  0.00     0.028 C 
BRANCH  26  32
HETATM   32  O5  UNL     1      -3.179   2.286  -0.608  1.00  0.00    -0.393 OA
ATOM     33  H5  UNL     1      -3.715   3.041  -0.397  1.00  0.00     0.210 HD
ENDBRANCH  26  32
BRANCH  27  34
HETATM   34  C19 UNL     1      -6.173   1.725   0.268  1.00  0.00     0.065 C 
HETATM   35  C20 UNL     1      -5.983   3.216   0.239  1.00  0.00     0.047 C 
HETATM   36  C21 UNL     1      -6.982   1.395   1.516  1.00  0.00     0.047 C 
BRANCH  34  37
HETATM   37  O6  UNL     1      -6.971   1.368  -0.819  1.00  0.00    -0.389 OA
ATOM     38  H6  UNL     1      -7.789   1.852  -0.835  1.00  0.00     0.210 HD
ENDBRANCH  34  37
ENDBRANCH  27  34
ENDBRANCH  22  25
ENDBRANCH   1  21
TORSDOF 16
