REMARK  3 active torsions:
REMARK  status: ('A' for Active; 'I' for Inactive)
REMARK    1  A    between atoms: C4_4  and  C5_5 
REMARK    2  A    between atoms: C5_5  and  N1_6 
REMARK    3  A    between atoms: N1_6  and  C6_8 
ROOT
HETATM    1  C6  UNL     1      -0.779   0.179   0.061  1.00  0.00     0.101 A 
HETATM    2  C7  UNL     1      -1.271  -1.114  -0.056  1.00  0.00     0.049 A 
HETATM    3  C8  UNL     1      -2.633  -1.321  -0.025  1.00  0.00     0.017 A 
HETATM    4  C9  UNL     1      -3.533  -0.284   0.120  1.00  0.00    -0.007 A 
HETATM    5  C10 UNL     1      -4.900  -0.461   0.155  1.00  0.00     0.030 A 
HETATM    6  C11 UNL     1      -5.759   0.623   0.303  1.00  0.00     0.088 A 
HETATM    7  N2  UNL     1      -5.210   1.844   0.410  1.00  0.00    -0.373 N 
ATOM      8  H2  UNL     1      -5.825   2.651   0.519  1.00  0.00     0.164 HD
HETATM    9  C12 UNL     1      -3.869   2.045   0.378  1.00  0.00     0.117 A 
HETATM   10  C13 UNL     1      -3.009   0.977   0.232  1.00  0.00     0.059 A 
HETATM   11  N3  UNL     1      -1.679   1.168   0.200  1.00  0.00    -0.341 N 
ATOM     12  H3  UNL     1      -1.331   2.123   0.287  1.00  0.00     0.167 HD
ENDROOT
BRANCH   1  13
HETATM   13  N1  UNL     1       0.641   0.455   0.035  1.00  0.00    -0.371 N 
ATOM     14  H1  UNL     1       1.003   1.405   0.119  1.00  0.00     0.161 HD
BRANCH  13  15
HETATM   15  C5  UNL     1       1.506  -0.661  -0.113  1.00  0.00     0.178 C 
BRANCH  15  16
HETATM   16  C4  UNL     1       2.935  -0.411  -0.139  1.00  0.00     0.026 A 
HETATM   17  C3  UNL     1       3.490   0.800   0.167  1.00  0.00     0.027 A 
HETATM   18  C2  UNL     1       4.877   0.987   0.121  1.00  0.00     0.003 A 
HETATM   19  C1  UNL     1       5.634  -0.094  -0.241  1.00  0.00     0.017 A 
HETATM   20  C14 UNL     1       5.085  -1.319  -0.551  1.00  0.00     0.088 A 
HETATM   21  N4  UNL     1       3.750  -1.453  -0.494  1.00  0.00    -0.368 N 
ATOM     22  H4  UNL     1       3.332  -2.355  -0.721  1.00  0.00     0.165 HD
ENDBRANCH  15  16
ENDBRANCH  13  15
ENDBRANCH   1  13
TORSDOF 3
