REMARK  3 active torsions:
REMARK  status: ('A' for Active; 'I' for Inactive)
REMARK    1  A    between atoms: C4_4  and  O1_5 
REMARK    2  A    between atoms: O1_5  and  C5_6 
REMARK    3  A    between atoms: C9_10  and  C10_11 
ROOT
HETATM    1  C5  UNL     1      -0.110  -1.531  -0.465  1.00  0.00     0.077 A 
HETATM    2  C6  UNL     1       0.491  -2.730  -0.826  1.00  0.00     0.037 A 
HETATM    3  C7  UNL     1       1.862  -2.877  -0.872  1.00  0.00     0.004 A 
HETATM    4  C8  UNL     1       2.669  -1.795  -0.546  1.00  0.00     0.015 A 
HETATM    5  C9  UNL     1       2.104  -0.593  -0.184  1.00  0.00     0.013 A 
HETATM    6  C11 UNL     1       0.733  -0.484  -0.150  1.00  0.00     0.052 A 
ENDROOT
BRANCH   5   7
HETATM    7  C10 UNL     1       2.961   0.538   0.155  1.00  0.00     0.147 A 
HETATM    8  N1  UNL     1       4.302   0.510   0.146  1.00  0.00    -0.268 N 
HETATM    9  N2  UNL     1       4.737   1.696   0.503  1.00  0.00    -0.227 N 
ATOM     10  H1  UNL     1       4.883  -0.293  -0.096  1.00  0.00     0.190 HD
HETATM   11  N3  UNL     1       3.701   2.476   0.739  1.00  0.00    -0.227 N 
ATOM     12  H2  UNL     1       5.716   1.969   0.584  1.00  0.00     0.210 HD
HETATM   13  N4  UNL     1       2.599   1.778   0.529  1.00  0.00    -0.268 N 
ATOM     14  H3  UNL     1       3.743   3.452   1.033  1.00  0.00     0.210 HD
ATOM     15  H4  UNL     1       1.643   2.119   0.632  1.00  0.00     0.190 HD
ENDBRANCH   5   7
BRANCH   1  16
HETATM   16  O1  UNL     1      -1.474  -1.473  -0.446  1.00  0.00    -0.311 OA
BRANCH  16  17
HETATM   17  C4  UNL     1      -2.239  -0.390  -0.119  1.00  0.00     0.076 A 
HETATM   18  C3  UNL     1      -2.629  -0.174   1.173  1.00  0.00     0.037 A 
HETATM   19  C2  UNL     1      -3.411   0.930   1.519  1.00  0.00     0.003 A 
HETATM   20  C1  UNL     1      -3.789   1.809   0.531  1.00  0.00     0.000 A 
HETATM   21  C13 UNL     1      -3.410   1.618  -0.781  1.00  0.00     0.003 A 
HETATM   22  C12 UNL     1      -2.628   0.501  -1.086  1.00  0.00     0.037 A 
ENDBRANCH  16  17
ENDBRANCH   1  16
TORSDOF 3
