REMARK  3 active torsions:
REMARK  status: ('A' for Active; 'I' for Inactive)
REMARK    1  A    between atoms: C6_7  and  O1_8 
REMARK    2  A    between atoms: O1_8  and  C7_9 
REMARK    3  A    between atoms: C7_9  and  C8_10 
ROOT
HETATM    1  N1  UNL     1       0.704  -2.828  -0.277  1.00  0.00    -0.099 NA
HETATM    2  C1  UNL     1       1.546  -1.692  -0.279  1.00  0.00     0.082 A 
HETATM    3  C2  UNL     1       2.910  -1.883  -0.445  1.00  0.00     0.069 A 
HETATM    4  C3  UNL     1       3.713  -0.763  -0.444  1.00  0.00     0.107 A 
HETATM    5  C4  UNL     1       3.171   0.494  -0.284  1.00  0.00     0.107 A 
HETATM    6  C5  UNL     1       1.798   0.671  -0.118  1.00  0.00     0.078 A 
HETATM    7  C6  UNL     1       0.994  -0.443  -0.119  1.00  0.00     0.096 A 
HETATM    8  O2  UNL     1       4.217   1.429  -0.324  1.00  0.00    -0.323 OA
HETATM    9  C14 UNL     1       5.417   0.707  -0.358  1.00  0.00     0.352 C 
HETATM   10  O3  UNL     1       5.090  -0.637  -0.586  1.00  0.00    -0.323 OA
ENDROOT
BRANCH   7  11
HETATM   11  O1  UNL     1      -0.379  -0.327   0.042  1.00  0.00    -0.345 OA
BRANCH  11  12
HETATM   12  C7  UNL     1      -0.947   0.941   0.206  1.00  0.00     0.214 C 
BRANCH  12  13
HETATM   13  C8  UNL     1      -2.430   0.790   0.358  1.00  0.00    -0.034 A 
HETATM   14  C9  UNL     1      -3.247   1.894   0.536  1.00  0.00     0.009 A 
HETATM   15  C10 UNL     1      -4.616   1.798   0.679  1.00  0.00     0.001 A 
HETATM   16  C11 UNL     1      -5.209   0.550   0.645  1.00  0.00     0.000 A 
HETATM   17  C12 UNL     1      -4.396  -0.566   0.466  1.00  0.00     0.001 A 
HETATM   18  C13 UNL     1      -3.034  -0.453   0.325  1.00  0.00     0.009 A 
ENDBRANCH  12  13
ENDBRANCH  11  12
ENDBRANCH   7  11
TORSDOF 3
