REMARK  4 active torsions:
REMARK  status: ('A' for Active; 'I' for Inactive)
REMARK    1  A    between atoms: C2_3  and  C3_4 
REMARK       I    between atoms: C3_4  and  N2_6 
REMARK    2  A    between atoms: N2_6  and  N3_8 
REMARK       I    between atoms: N3_8  and  C4_10 
REMARK    3  A    between atoms: C5_15  and  C6_16 
REMARK    4  A    between atoms: N6_17  and  N7_19 
ROOT
HETATM    1  C1  UNL     1      -3.093  -1.817  -0.036  1.00  0.00     0.161 C 
HETATM    2  N1  UNL     1      -1.698  -2.170  -0.124  1.00  0.00    -0.298 N 
HETATM    3  C2  UNL     1      -0.747  -1.203  -0.022  1.00  0.00     0.125 A 
HETATM    4  C5  UNL     1       0.564  -1.597  -0.060  1.00  0.00     0.082 A 
HETATM    5  C8  UNL     1       0.861  -2.951  -0.199  1.00  0.00     0.263 A 
HETATM    6  O2  UNL     1       2.060  -3.305  -0.232  1.00  0.00    -0.267 OA
HETATM    7  N10 UNL     1      -0.083  -3.888  -0.299  1.00  0.00    -0.275 N 
ATOM      8  H10 UNL     1       0.158  -4.874  -0.401  1.00  0.00     0.173 HD
HETATM    9  C9  UNL     1      -1.351  -3.488  -0.260  1.00  0.00     0.329 A 
HETATM   10  O3  UNL     1      -2.311  -4.319  -0.350  1.00  0.00    -0.246 OA
ENDROOT
BRANCH   3  11
HETATM   11  C3  UNL     1      -1.073   0.209   0.065  1.00  0.00     0.288 C 
HETATM   12  O1  UNL     1      -0.528   0.963   0.945  1.00  0.00    -0.264 OA
HETATM   13  N2  UNL     1      -2.001   0.784  -0.832  1.00  0.00    -0.262 N 
ATOM     14  H2  UNL     1      -2.445   0.207  -1.546  1.00  0.00     0.190 HD
BRANCH  13  15
HETATM   15  N3  UNL     1      -2.309   2.142  -0.740  1.00  0.00    -0.271 N 
HETATM   16  C4  UNL     1      -2.642   2.701   0.507  1.00  0.00     0.200 C 
HETATM   17  N4  UNL     1      -3.557   2.165   1.233  1.00  0.00    -0.372 N 
HETATM   18  N5  UNL     1      -1.974   3.867   0.988  1.00  0.00    -0.062 NA
ATOM     19  H42 UNL     1      -4.034   1.332   0.889  1.00  0.00     0.158 HD
ATOM     20  H41 UNL     1      -3.798   2.570   2.137  1.00  0.00     0.158 HD
ATOM     21  H3  UNL     1      -2.293   2.728  -1.575  1.00  0.00     0.189 HD
ENDBRANCH  13  15
ENDBRANCH   3  11
BRANCH   4  22
HETATM   22  C6  UNL     1       1.670  -0.642  -0.004  1.00  0.00     0.126 C 
HETATM   23  N6  UNL     1       2.872  -1.050  -0.035  1.00  0.00    -0.309 N 
ATOM     24  H6  UNL     1       2.989  -2.061  -0.100  1.00  0.00     0.186 HD
BRANCH  23  25
HETATM   25  N7  UNL     1       3.987  -0.356   0.005  1.00  0.00    -0.276 N 
HETATM   26  C7  UNL     1       4.355   0.818   0.107  1.00  0.00     0.215 C 
HETATM   27  N8  UNL     1       5.773   1.091   0.100  1.00  0.00    -0.065 NA
HETATM   28  N9  UNL     1       3.457   1.903   0.230  1.00  0.00    -0.065 NA
ATOM     29  H7  UNL     1       4.794  -0.976  -0.071  1.00  0.00     0.189 HD
ENDBRANCH  23  25
ENDBRANCH   4  22
TORSDOF 4
