REMARK  16 active torsions:
REMARK  status: ('A' for Active; 'I' for Inactive)
REMARK    1  A    between atoms: O1_2  and  C2_3 
REMARK    2  A    between atoms: C2_3  and  C3_5 
REMARK    3  A    between atoms: C3_5  and  C4_6 
REMARK    4  A    between atoms: C4_6  and  N1_7 
REMARK    5  A    between atoms: C4_6  and  C29_43 
REMARK       I    between atoms: N1_7  and  C5_9 
REMARK    6  A    between atoms: C5_9  and  C6_11 
REMARK    7  A    between atoms: C6_11  and  N2_12 
REMARK    8  A    between atoms: C6_11  and  C26_40 
REMARK       I    between atoms: N2_12  and  C7_14 
REMARK    9  A    between atoms: C7_14  and  C8_16 
REMARK       I    between atoms: C8_16  and  N3_18 
REMARK   10  A    between atoms: N3_18  and  C9_20 
REMARK   11  A    between atoms: C9_20  and  C10_21 
REMARK   12  A    between atoms: C9_20  and  C17_28 
REMARK   13  A    between atoms: C10_21  and  C11_22 
REMARK   14  A    between atoms: C17_28  and  N4_29 
REMARK   15  A    between atoms: C17_28  and  C22_36 
REMARK       I    between atoms: N4_29  and  C18_31 
REMARK   16  A    between atoms: C18_31  and  C19_33 
ROOT
HETATM    1  C8  UNL     1      -0.529  -0.312  -0.822  1.00  0.00     0.313 C 
HETATM    2  O5  UNL     1      -0.522  -1.486  -1.317  1.00  0.00    -0.262 OA
HETATM    3  N3  UNL     1      -1.751   0.276  -0.401  1.00  0.00    -0.321 N 
ATOM      4  H3  UNL     1      -1.701   1.216  -0.009  1.00  0.00     0.169 HD
ENDROOT
BRANCH   1   5
HETATM    5  C7  UNL     1       0.745   0.341  -0.726  1.00  0.00     0.310 C 
HETATM    6  N2  UNL     1       1.971  -0.246  -1.114  1.00  0.00    -0.339 N 
ATOM      7  H2  UNL     1       1.962  -1.195  -1.487  1.00  0.00     0.163 HD
HETATM    8  O4  UNL     1       0.784   1.517  -0.267  1.00  0.00    -0.262 OA
BRANCH   6   9
HETATM    9  C6  UNL     1       3.268   0.461  -1.001  1.00  0.00     0.180 C 
BRANCH   9  10
HETATM   10  C5  UNL     1       4.040  -0.059   0.111  1.00  0.00     0.241 C 
HETATM   11  N1  UNL     1       5.300   0.396   0.526  1.00  0.00    -0.354 N 
ATOM     12  H1  UNL     1       5.749   1.153   0.011  1.00  0.00     0.162 HD
HETATM   13  O3  UNL     1       3.534  -1.020   0.791  1.00  0.00    -0.271 OA
BRANCH  11  14
HETATM   14  C4  UNL     1       6.000  -0.198   1.700  1.00  0.00     0.097 C 
BRANCH  14  15
HETATM   15  C3  UNL     1       6.402   0.981   2.532  1.00  0.00     0.136 C 
BRANCH  15  16
HETATM   16  C2  UNL     1       7.108   0.668   3.772  1.00  0.00     0.260 C 
HETATM   17  O2  UNL     1       7.322  -0.526   4.089  1.00  0.00    -0.265 OA
BRANCH  16  18
HETATM   18  O1  UNL     1       7.558   1.654   4.627  1.00  0.00    -0.326 OA
HETATM   19  C1  UNL     1       8.249   1.336   5.841  1.00  0.00     0.213 C 
ENDBRANCH  16  18
ENDBRANCH  15  16
ENDBRANCH  14  15
BRANCH  14  20
HETATM   20  C29 UNL     1       7.153  -0.961   1.098  1.00  0.00     0.001 C 
HETATM   21  C30 UNL     1       8.001  -0.151   0.169  1.00  0.00     0.011 C 
HETATM   22  C31 UNL     1       6.574  -2.134   0.330  1.00  0.00     0.011 C 
ENDBRANCH  14  20
ENDBRANCH  11  14
ENDBRANCH   9  10
BRANCH   9  23
HETATM   23  C26 UNL     1       3.913   0.546  -2.340  1.00  0.00     0.009 C 
HETATM   24  C27 UNL     1       5.145   1.405  -2.417  1.00  0.00     0.012 C 
HETATM   25  C28 UNL     1       4.155  -0.779  -3.020  1.00  0.00     0.012 C 
ENDBRANCH   9  23
ENDBRANCH   6   9
ENDBRANCH   1   5
BRANCH   3  26
HETATM   26  C9  UNL     1      -3.054  -0.331  -0.476  1.00  0.00     0.032 C 
BRANCH  26  27
HETATM   27  C10 UNL     1      -3.865   0.180  -1.608  1.00  0.00     0.005 C 
BRANCH  27  28
HETATM   28  C11 UNL     1      -4.181   1.598  -1.766  1.00  0.00     0.010 C 
HETATM   29  C12 UNL     1      -5.041   1.737  -3.052  1.00  0.00     0.008 C 
HETATM   30  C13 UNL     1      -5.658   3.092  -3.125  1.00  0.00     0.001 C 
HETATM   31  C14 UNL     1      -4.854   4.115  -2.325  1.00  0.00     0.000 C 
HETATM   32  C15 UNL     1      -4.812   3.794  -0.877  1.00  0.00     0.001 C 
HETATM   33  C16 UNL     1      -4.938   2.284  -0.688  1.00  0.00     0.008 C 
ENDBRANCH  27  28
ENDBRANCH  26  27
BRANCH  26  34
HETATM   34  C17 UNL     1      -3.715  -0.720   0.781  1.00  0.00     0.141 C 
BRANCH  34  35
HETATM   35  N4  UNL     1      -5.016  -1.323   0.527  1.00  0.00    -0.350 N 
HETATM   36  C18 UNL     1      -6.245  -0.910   1.064  1.00  0.00     0.222 C 
HETATM   37  O6  UNL     1      -6.268   0.070   1.844  1.00  0.00    -0.273 OA
ATOM     38  H4  UNL     1      -5.036  -2.125  -0.103  1.00  0.00     0.163 HD
BRANCH  36  39
HETATM   39  C19 UNL     1      -7.507  -1.590   0.744  1.00  0.00     0.078 A 
HETATM   40  C20 UNL     1      -7.551  -3.031   0.359  1.00  0.00     0.015 A 
HETATM   41  C21 UNL     1      -7.790  -1.993  -0.688  1.00  0.00     0.015 A 
ENDBRANCH  36  39
ENDBRANCH  34  35
BRANCH  34  42
HETATM   42  C22 UNL     1      -2.992  -1.706   1.652  1.00  0.00    -0.025 C 
HETATM   43  C23 UNL     1      -1.652  -1.355   2.168  1.00  0.00     0.017 C 
HETATM   44  C24 UNL     1      -3.901  -1.898   2.885  1.00  0.00     0.017 C 
HETATM   45  C25 UNL     1      -2.879  -3.078   1.024  1.00  0.00     0.017 C 
ENDBRANCH  34  42
ENDBRANCH  26  34
ENDBRANCH   3  26
TORSDOF 16
