REMARK  7 active torsions:
REMARK  status: ('A' for Active; 'I' for Inactive)
REMARK    1  A    between atoms: C4_4  and  C5_5 
REMARK    2  A    between atoms: C5_5  and  O1_6 
REMARK    3  A    between atoms: C6_9  and  C7_10 
REMARK    4  A    between atoms: C7_10  and  O3_11 
REMARK    5  A    between atoms: C8_13  and  O4_14 
REMARK    6  A    between atoms: C9_16  and  O5_17 
REMARK    7  A    between atoms: C10_19  and  O6_20 
ROOT
HETATM    1  C5  UNL     1      -0.165   0.360  -0.100  1.00  0.00     0.211 C 
HETATM    2  O2  UNL     1       0.817   1.055   0.566  1.00  0.00    -0.339 OA
HETATM    3  C6  UNL     1       2.111   0.675   0.381  1.00  0.00     0.180 C 
HETATM    4  C8  UNL     1       2.363  -0.783   0.312  1.00  0.00     0.180 C 
HETATM    5  C9  UNL     1       1.163  -1.618   0.695  1.00  0.00     0.183 C 
HETATM    6  C10 UNL     1      -0.051  -1.116  -0.046  1.00  0.00     0.215 C 
ENDROOT
BRANCH   1   7
HETATM    7  C4  UNL     1      -1.481   0.739   0.514  1.00  0.00     0.045 C 
HETATM    8  C2  UNL     1      -2.647   0.391   0.003  1.00  0.00    -0.086 C 
HETATM    9  C1  UNL     1      -3.879   0.859   0.751  1.00  0.00     0.043 C 
HETATM   10  C3  UNL     1      -2.899  -0.397  -1.204  1.00  0.00     0.043 C 
ENDBRANCH   1   7
BRANCH   1  11
HETATM   11  O1  UNL     1      -0.208   0.877  -1.407  1.00  0.00    -0.360 OA
ATOM     12  H1  UNL     1       0.625   0.637  -1.796  1.00  0.00     0.213 HD
ENDBRANCH   1  11
BRANCH   6  13
HETATM   13  O6  UNL     1       0.065  -1.638  -1.356  1.00  0.00    -0.387 OA
ATOM     14  H6  UNL     1       0.138  -2.585  -1.321  1.00  0.00     0.210 HD
ENDBRANCH   6  13
BRANCH   3  15
HETATM   15  C7  UNL     1       2.739   1.285  -0.875  1.00  0.00     0.198 C 
BRANCH  15  16
HETATM   16  O3  UNL     1       2.738   2.667  -0.826  1.00  0.00    -0.398 OA
ATOM     17  H3  UNL     1       3.128   3.046  -1.605  1.00  0.00     0.209 HD
ENDBRANCH  15  16
ENDBRANCH   3  15
BRANCH   5  18
HETATM   18  O5  UNL     1       1.002  -1.599   2.079  1.00  0.00    -0.390 OA
ATOM     19  H5  UNL     1       0.248  -2.124   2.320  1.00  0.00     0.210 HD
ENDBRANCH   5  18
BRANCH   4  20
HETATM   20  O4  UNL     1       3.395  -1.100   1.194  1.00  0.00    -0.390 OA
ATOM     21  H4  UNL     1       3.557  -2.035   1.150  1.00  0.00     0.210 HD
ENDBRANCH   4  20
TORSDOF 7
