REMARK  9 active torsions:
REMARK  status: ('A' for Active; 'I' for Inactive)
REMARK       I    between atoms: C2_2  and  N1_4 
REMARK    1  A    between atoms: N1_4  and  C3_6 
REMARK    2  A    between atoms: C3_6  and  C4_7 
REMARK    3  A    between atoms: C3_6  and  C20_30 
REMARK       I    between atoms: C4_7  and  N2_9 
REMARK    4  A    between atoms: C5_10  and  C6_11 
REMARK    5  A    between atoms: C12_17  and  C13_18 
REMARK       I    between atoms: C13_18  and  N3_20 
REMARK    6  A    between atoms: N3_20  and  C14_22 
REMARK    7  A    between atoms: C14_22  and  C15_23 
REMARK    8  A    between atoms: C14_22  and  C19_27 
REMARK    9  A    between atoms: C15_23  and  C16_24 
ROOT
HETATM    1  C4  UNL     1      -1.968   0.507  -0.634  1.00  0.00     0.248 C 
HETATM    2  O2  UNL     1      -3.184   0.830  -0.396  1.00  0.00    -0.271 OA
HETATM    3  N2  UNL     1      -1.475  -0.795  -0.489  1.00  0.00    -0.305 N 
HETATM    4  C5  UNL     1      -2.128  -2.004  -0.155  1.00  0.00     0.018 C 
HETATM    5  C9  UNL     1      -1.073  -3.061   0.140  1.00  0.00     0.064 C 
HETATM    6  C10 UNL     1      -0.012  -2.646  -0.847  1.00  0.00     0.020 C 
HETATM    7  C11 UNL     1      -0.359  -2.909  -2.268  1.00  0.00     0.013 C 
HETATM    8  C12 UNL     1      -0.060  -1.124  -0.638  1.00  0.00     0.189 C 
ENDROOT
BRANCH   8   9
HETATM    9  C13 UNL     1       0.727  -0.869   0.602  1.00  0.00     0.242 C 
HETATM   10  O3  UNL     1       0.259  -0.297   1.610  1.00  0.00    -0.271 OA
HETATM   11  N3  UNL     1       2.063  -1.306   0.618  1.00  0.00    -0.345 N 
ATOM     12  H3  UNL     1       2.461  -1.768  -0.200  1.00  0.00     0.163 HD
BRANCH  11  13
HETATM   13  C14 UNL     1       2.883  -1.094   1.818  1.00  0.00     0.185 C 
BRANCH  13  14
HETATM   14  C15 UNL     1       4.234  -0.611   1.412  1.00  0.00     0.040 C 
BRANCH  14  15
HETATM   15  C16 UNL     1       4.152   0.679   0.664  1.00  0.00    -0.020 C 
HETATM   16  C17 UNL     1       3.537   1.789   1.475  1.00  0.00     0.009 C 
HETATM   17  C18 UNL     1       5.547   1.140   0.218  1.00  0.00     0.009 C 
ENDBRANCH  14  15
ENDBRANCH  13  14
BRANCH  13  18
HETATM   18  C19 UNL     1       3.057  -2.423   2.512  1.00  0.00     0.196 C 
HETATM   19  O4  UNL     1       2.535  -3.453   2.033  1.00  0.00    -0.646 OA
HETATM   20  O5  UNL     1       3.788  -2.505   3.672  1.00  0.00    -0.646 OA
ENDBRANCH  13  18
ENDBRANCH  11  13
ENDBRANCH   8   9
BRANCH   1  21
HETATM   21  C3  UNL     1      -1.172   1.700  -1.079  1.00  0.00     0.180 C 
BRANCH  21  22
HETATM   22  N1  UNL     1      -1.535   2.860  -0.274  1.00  0.00    -0.348 N 
HETATM   23  C2  UNL     1      -0.646   3.735   0.356  1.00  0.00     0.214 C 
HETATM   24  C1  UNL     1      -1.069   4.899   1.168  1.00  0.00     0.117 C 
HETATM   25  O1  UNL     1       0.584   3.541   0.239  1.00  0.00    -0.274 OA
ATOM     26  H1  UNL     1      -2.531   3.051  -0.160  1.00  0.00     0.163 HD
ENDBRANCH  21  22
BRANCH  21  27
HETATM   27  C20 UNL     1      -1.450   2.031  -2.545  1.00  0.00     0.009 C 
HETATM   28  C21 UNL     1      -1.123   0.923  -3.474  1.00  0.00     0.012 C 
HETATM   29  C22 UNL     1      -2.811   2.589  -2.793  1.00  0.00     0.012 C 
ENDBRANCH  21  27
ENDBRANCH   1  21
BRANCH   4  30
HETATM   30  C6  UNL     1      -3.275  -2.059   0.755  1.00  0.00    -0.065 C 
HETATM   31  C7  UNL     1      -3.100  -1.521   2.137  1.00  0.00     0.045 C 
HETATM   32  C8  UNL     1      -4.632  -1.730   0.226  1.00  0.00     0.045 C 
ENDBRANCH   4  30
TORSDOF 9
