REMARK  10 active torsions:
REMARK  status: ('A' for Active; 'I' for Inactive)
REMARK    1  A    between atoms: C2_2  and  O2_4 
REMARK    2  A    between atoms: O2_4  and  C3_5 
REMARK    3  A    between atoms: C9_11  and  C10_12 
REMARK    4  A    between atoms: C11_13  and  C12_14 
REMARK    5  A    between atoms: C13_15  and  O3_16 
REMARK    6  A    between atoms: C16_20  and  C17_21 
REMARK    7  A    between atoms: C17_21  and  C18_22 
REMARK    8  A    between atoms: C18_22  and  C19_23 
REMARK    9  A    between atoms: C19_23  and  N1_24 
REMARK       I    between atoms: N1_24  and  C20_26 
REMARK   10  A    between atoms: N3_28  and  C21_30 
ROOT
HETATM    1  C12 UNL     1      -0.075  -1.821  -0.112  1.00  0.00     0.041 C 
HETATM    2  C13 UNL     1      -0.325  -2.643  -1.365  1.00  0.00     0.126 C 
HETATM    3  C14 UNL     1       1.135  -2.958  -1.728  1.00  0.00     0.033 C 
HETATM    4  C15 UNL     1       1.788  -1.608  -1.616  1.00  0.00     0.008 C 
HETATM    5  C16 UNL     1       1.038  -0.878  -0.546  1.00  0.00    -0.004 C 
ENDROOT
BRANCH   1   6
HETATM    6  C11 UNL     1      -1.251  -1.126   0.405  1.00  0.00    -0.023 C 
HETATM    7  C10 UNL     1      -2.488  -1.191  -0.046  1.00  0.00    -0.024 C 
BRANCH   7   8
HETATM    8  C9  UNL     1      -3.586  -0.422   0.583  1.00  0.00     0.022 C 
HETATM    9  C6  UNL     1      -4.588  -1.299   1.270  1.00  0.00    -0.040 C 
HETATM   10  C5  UNL     1      -6.015  -0.821   1.095  1.00  0.00     0.012 C 
HETATM   11  C7  UNL     1      -4.495  -2.752   0.831  1.00  0.00     0.015 C 
HETATM   12  C8  UNL     1      -4.324  -1.313   2.778  1.00  0.00     0.015 C 
HETATM   13  C4  UNL     1      -5.991   0.683   1.316  1.00  0.00     0.034 C 
HETATM   14  C3  UNL     1      -5.363   1.279   0.083  1.00  0.00     0.136 C 
HETATM   15  C24 UNL     1      -4.193   0.509  -0.438  1.00  0.00     0.019 C 
HETATM   16  C25 UNL     1      -4.462  -0.199  -1.752  1.00  0.00     0.013 C 
BRANCH  14  17
HETATM   17  O2  UNL     1      -5.120   2.664   0.176  1.00  0.00    -0.316 OA
BRANCH  17  18
HETATM   18  C2  UNL     1      -5.739   3.643  -0.559  1.00  0.00     0.255 C 
HETATM   19  C1  UNL     1      -5.438   5.089  -0.417  1.00  0.00     0.126 C 
HETATM   20  O1  UNL     1      -6.593   3.288  -1.380  1.00  0.00    -0.266 OA
ENDBRANCH  17  18
ENDBRANCH  14  17
ENDBRANCH   7   8
ENDBRANCH   1   6
BRANCH   2  21
HETATM   21  O3  UNL     1      -0.793  -1.838  -2.388  1.00  0.00    -0.395 OA
ATOM     22  H3  UNL     1      -0.949  -2.352  -3.171  1.00  0.00     0.210 HD
ENDBRANCH   2  21
BRANCH   5  23
HETATM   23  C17 UNL     1       1.892  -0.550   0.637  1.00  0.00     0.007 C 
BRANCH  23  24
HETATM   24  C18 UNL     1       3.027   0.381   0.269  1.00  0.00     0.020 C 
BRANCH  24  25
HETATM   25  C19 UNL     1       3.873   0.710   1.454  1.00  0.00     0.122 C 
BRANCH  25  26
HETATM   26  N1  UNL     1       4.991   1.565   1.194  1.00  0.00    -0.365 N 
HETATM   27  C20 UNL     1       6.144   1.180   0.462  1.00  0.00     0.184 C 
HETATM   28  N2  UNL     1       6.142  -0.072  -0.208  1.00  0.00    -0.064 NA
HETATM   29  N3  UNL     1       7.201   1.914   0.383  1.00  0.00    -0.361 N 
ATOM     30  H3  UNL     1       7.237   2.816   0.857  1.00  0.00     0.162 HD
ATOM     31  H1  UNL     1       4.957   2.516   1.560  1.00  0.00     0.162 HD
BRANCH  29  32
HETATM   32  C21 UNL     1       8.343   1.445  -0.388  1.00  0.00     0.076 C 
HETATM   33  C22 UNL     1       8.808   0.124   0.237  1.00  0.00     0.032 C 
HETATM   34  C23 UNL     1       9.460   2.459  -0.340  1.00  0.00     0.032 C 
ENDBRANCH  29  32
ENDBRANCH  25  26
ENDBRANCH  24  25
ENDBRANCH  23  24
ENDBRANCH   5  23
TORSDOF 10
