REMARK  13 active torsions:
REMARK  status: ('A' for Active; 'I' for Inactive)
REMARK       I    between atoms: C2_2  and  N1_4 
REMARK    1  A    between atoms: N1_4  and  C3_6 
REMARK    2  A    between atoms: C3_6  and  C4_7 
REMARK    3  A    between atoms: C3_6  and  C23_36 
REMARK    4  A    between atoms: C4_7  and  O2_8 
REMARK    5  A    between atoms: C4_7  and  N2_10 
REMARK    6  A    between atoms: C5_11  and  C6_12 
REMARK    7  A    between atoms: C6_12  and  C7_13 
REMARK    8  A    between atoms: C6_12  and  N3_17 
REMARK    9  A    between atoms: C7_13  and  C8_14 
REMARK       I    between atoms: N3_17  and  C11_19 
REMARK   10  A    between atoms: C11_19  and  C12_21 
REMARK   11  A    between atoms: C12_21  and  O4_22 
REMARK   12  A    between atoms: C12_21  and  C13_24 
REMARK   13  A    between atoms: C13_24  and  N4_25 
ROOT
HETATM    1  N2  UNL     1      -2.176   1.350  -0.119  1.00  0.00    -0.339 N 
HETATM    2  C5  UNL     1      -0.753   1.212  -0.382  1.00  0.00     0.119 C 
HETATM    3  C19 UNL     1      -0.108   2.564  -0.340  1.00  0.00     0.103 C 
HETATM    4  S1  UNL     1      -0.875   3.158   1.223  1.00  0.00    -0.136 SA
HETATM    5  C20 UNL     1      -2.443   2.177   1.003  1.00  0.00     0.076 C 
HETATM    6  C21 UNL     1      -3.487   3.267   0.752  1.00  0.00     0.050 C 
HETATM    7  C22 UNL     1      -2.754   1.550   2.299  1.00  0.00     0.050 C 
ENDROOT
BRANCH   2   8
HETATM    8  C6  UNL     1      -0.049   0.260   0.599  1.00  0.00     0.108 C 
BRANCH   8   9
HETATM    9  C7  UNL     1      -0.686  -1.081   0.460  1.00  0.00     0.031 C 
BRANCH   9  10
HETATM   10  C8  UNL     1      -0.236  -2.194   1.309  1.00  0.00    -0.021 C 
HETATM   11  C9  UNL     1       1.192  -2.608   1.164  1.00  0.00     0.009 C 
HETATM   12  C10 UNL     1      -1.172  -3.388   1.028  1.00  0.00     0.009 C 
ENDBRANCH   9  10
ENDBRANCH   8   9
BRANCH   8  13
HETATM   13  N3  UNL     1       1.361   0.244   0.282  1.00  0.00    -0.352 N 
HETATM   14  C11 UNL     1       2.351   0.709   1.189  1.00  0.00     0.248 C 
HETATM   15  O3  UNL     1       1.999   1.131   2.312  1.00  0.00    -0.271 OA
ATOM     16  H3  UNL     1       1.656  -0.114  -0.626  1.00  0.00     0.163 HD
BRANCH  14  17
HETATM   17  C12 UNL     1       3.799   0.718   0.849  1.00  0.00     0.238 C 
BRANCH  17  18
HETATM   18  O4  UNL     1       4.471   1.230   1.986  1.00  0.00    -0.384 OA
ATOM     19  H4  UNL     1       5.396   1.236   1.769  1.00  0.00     0.210 HD
ENDBRANCH  17  18
BRANCH  17  20
HETATM   20  C13 UNL     1       4.359  -0.615   0.540  1.00  0.00     0.313 C 
BRANCH  20  21
HETATM   21  N4  UNL     1       5.759  -0.653   0.286  1.00  0.00     0.091 N 
HETATM   22  C14 UNL     1       6.216  -2.014   0.018  1.00  0.00     0.272 C 
HETATM   23  C15 UNL     1       7.637  -1.994  -0.468  1.00  0.00     0.030 C 
HETATM   24  C16 UNL     1       8.401  -0.799   0.064  1.00  0.00     0.003 C 
HETATM   25  C17 UNL     1       7.787   0.446  -0.500  1.00  0.00     0.030 C 
HETATM   26  C18 UNL     1       6.277   0.291  -0.630  1.00  0.00     0.272 C 
ENDBRANCH  20  21
ENDBRANCH  17  20
ENDBRANCH  14  17
ENDBRANCH   8  13
ENDBRANCH   2   8
BRANCH   1  27
HETATM   27  C4  UNL     1      -3.154   0.752  -0.963  1.00  0.00     0.139 C 
BRANCH  27  28
HETATM   28  C3  UNL     1      -4.606   0.706  -0.858  1.00  0.00     0.162 C 
BRANCH  28  29
HETATM   29  N1  UNL     1      -5.188   1.029  -2.207  1.00  0.00    -0.349 N 
HETATM   30  C2  UNL     1      -6.101   2.092  -2.368  1.00  0.00     0.214 C 
HETATM   31  C1  UNL     1      -6.674   2.414  -3.686  1.00  0.00     0.117 C 
HETATM   32  O1  UNL     1      -6.429   2.781  -1.347  1.00  0.00    -0.274 OA
ATOM     33  H1  UNL     1      -4.918   0.471  -3.017  1.00  0.00     0.163 HD
ENDBRANCH  28  29
BRANCH  28  34
HETATM   34  C23 UNL     1      -5.185  -0.659  -0.526  1.00  0.00     0.008 C 
HETATM   35  C24 UNL     1      -4.829  -1.739  -1.479  1.00  0.00     0.012 C 
HETATM   36  C25 UNL     1      -5.017  -1.111   0.883  1.00  0.00     0.012 C 
ENDBRANCH  28  34
ENDBRANCH  27  28
BRANCH  27  37
HETATM   37  O2  UNL     1      -2.611   0.154  -2.006  1.00  0.00    -0.348 OA
ATOM     38  H2  UNL     1      -1.664   0.184  -2.074  1.00  0.00     0.219 HD
ENDBRANCH  27  37
ENDBRANCH   1  27
TORSDOF 13
