REMARK  10 active torsions:
REMARK  status: ('A' for Active; 'I' for Inactive)
REMARK       I    between atoms: C2_5  and  N4_7 
REMARK    1  A    between atoms: N4_7  and  C3_9 
REMARK    2  A    between atoms: C3_9  and  C4_10 
REMARK    3  A    between atoms: C4_10  and  C5_11 
REMARK    4  A    between atoms: C5_11  and  C6_12 
REMARK    5  A    between atoms: C6_12  and  C7_13 
REMARK    6  A    between atoms: C7_13  and  C8_14 
REMARK    7  A    between atoms: C8_14  and  C9_15 
REMARK    8  A    between atoms: C9_15  and  C10_16 
REMARK    9  A    between atoms: C10_16  and  C11_17 
REMARK   10  A    between atoms: C11_17  and  C12_18 
REMARK       I    between atoms: C12_18  and  N5_20 
ROOT
HETATM    1  N1  UNL     1      -9.314  -2.135  -2.244  1.00  0.00    -0.172 NA
HETATM    2  C1  UNL     1      -8.374  -1.491  -2.448  1.00  0.00     0.184 C 
HETATM    3  N2  UNL     1      -7.247  -0.713  -2.718  1.00  0.00    -0.268 N 
ATOM      4  H2  UNL     1      -6.859  -0.756  -3.660  1.00  0.00     0.180 HD
HETATM    5  C2  UNL     1      -6.662   0.053  -1.870  1.00  0.00     0.197 C 
HETATM    6  N3  UNL     1      -5.522   0.783  -2.299  1.00  0.00    -0.063 NA
HETATM    7  N4  UNL     1      -7.109   0.195  -0.542  1.00  0.00    -0.364 N 
ATOM      8  H4  UNL     1      -7.574   1.064  -0.279  1.00  0.00     0.162 HD
ENDROOT
BRANCH   7   9
HETATM    9  C3  UNL     1      -6.944  -0.825   0.466  1.00  0.00     0.122 C 
BRANCH   9  10
HETATM   10  C4  UNL     1      -5.492  -1.011   0.852  1.00  0.00     0.020 C 
BRANCH  10  11
HETATM   11  C5  UNL     1      -4.994   0.308   1.395  1.00  0.00     0.002 C 
BRANCH  11  12
HETATM   12  C6  UNL     1      -3.538   0.193   1.811  1.00  0.00     0.000 C 
BRANCH  12  13
HETATM   13  C7  UNL     1      -2.638  -0.191   0.687  1.00  0.00     0.000 C 
BRANCH  13  14
HETATM   14  C8  UNL     1      -1.219  -0.290   1.178  1.00  0.00     0.000 C 
BRANCH  14  15
HETATM   15  C9  UNL     1      -0.692   1.006   1.745  1.00  0.00     0.000 C 
BRANCH  15  16
HETATM   16  C10 UNL     1       0.731   0.875   2.226  1.00  0.00     0.009 C 
BRANCH  16  17
HETATM   17  C11 UNL     1       1.692   0.472   1.159  1.00  0.00     0.103 C 
BRANCH  17  18
HETATM   18  C12 UNL     1       3.053   0.375   1.739  1.00  0.00     0.219 C 
HETATM   19  O1  UNL     1       3.195   0.666   2.973  1.00  0.00    -0.273 OA
HETATM   20  N5  UNL     1       4.159  -0.028   0.949  1.00  0.00    -0.351 N 
HETATM   21  C13 UNL     1       5.519  -0.149   1.421  1.00  0.00     0.126 C 
HETATM   22  C19 UNL     1       4.098  -0.383  -0.448  1.00  0.00     0.137 C 
HETATM   23  C14 UNL     1       6.392  -0.192   0.202  1.00  0.00     0.032 C 
HETATM   24  C15 UNL     1       5.484  -0.273  -0.971  1.00  0.00     0.003 C 
HETATM   25  C16 UNL     1       5.849  -1.432  -1.888  1.00  0.00     0.040 C 
HETATM   26  C18 UNL     1       5.657   0.902  -1.921  1.00  0.00     0.243 C 
HETATM   27  C17 UNL     1       7.010  -0.825  -2.666  1.00  0.00     0.233 C 
HETATM   28  N6  UNL     1       6.394   0.450  -3.059  1.00  0.00    -0.074 N 
ATOM     29  H62 UNL     1       7.065   1.135  -3.407  1.00  0.00     0.277 HD
ATOM     30  H61 UNL     1       5.832   0.385  -3.907  1.00  0.00     0.277 HD
ENDBRANCH  17  18
ENDBRANCH  16  17
ENDBRANCH  15  16
ENDBRANCH  14  15
ENDBRANCH  13  14
ENDBRANCH  12  13
ENDBRANCH  11  12
ENDBRANCH  10  11
ENDBRANCH   9  10
ENDBRANCH   7   9
TORSDOF 10
