REMARK  1 active torsions:
REMARK  status: ('A' for Active; 'I' for Inactive)
REMARK    1  A    between atoms: C7_8  and  O2_9 
ROOT
HETATM    1  C1  UNL     1      -3.070   0.608  -1.553  1.00  0.00     0.048 C 
HETATM    2  C2  UNL     1      -2.721   0.522  -0.045  1.00  0.00     0.083 C 
HETATM    3  C3  UNL     1      -3.499   1.726   0.533  1.00  0.00     0.048 C 
HETATM    4  O1  UNL     1      -1.453   0.787   0.093  1.00  0.00    -0.339 OA
HETATM    5  C4  UNL     1      -0.581  -0.015   0.869  1.00  0.00     0.204 C 
HETATM    6  C5  UNL     1      -1.406  -0.741   1.831  1.00  0.00     0.074 C 
HETATM    7  C6  UNL     1      -2.409  -1.660   1.169  1.00  0.00     0.040 C 
HETATM    8  C7  UNL     1      -3.342  -0.742   0.413  1.00  0.00     0.152 C 
HETATM    9  O3  UNL     1       0.168   0.952   1.510  1.00  0.00    -0.197 OA
HETATM   10  O4  UNL     1       1.096   0.594   2.293  1.00  0.00    -0.201 OA
HETATM   11  C8  UNL     1       2.297   1.137   1.845  1.00  0.00     0.323 C 
HETATM   12  C9  UNL     1       1.943   2.320   1.022  1.00  0.00     0.032 C 
HETATM   13  C10 UNL     1       2.160   2.488  -0.268  1.00  0.00    -0.025 C 
HETATM   14  C11 UNL     1       2.784   1.606  -1.227  1.00  0.00     0.031 C 
HETATM   15  C12 UNL     1       2.042   0.334  -1.588  1.00  0.00    -0.010 C 
HETATM   16  C13 UNL     1       2.915  -0.846  -1.264  1.00  0.00     0.017 C 
HETATM   17  C14 UNL     1       2.555  -1.602  -0.073  1.00  0.00     0.076 C 
HETATM   18  C15 UNL     1       2.992  -1.010   1.262  1.00  0.00     0.279 C 
HETATM   19  O5  UNL     1       2.042  -1.550   2.146  1.00  0.00    -0.288 OA
HETATM   20  C16 UNL     1       1.163  -2.415   1.459  1.00  0.00     0.286 C 
HETATM   21  O6  UNL     1       0.652  -3.415   2.022  1.00  0.00    -0.263 OA
HETATM   22  C17 UNL     1       1.073  -1.850   0.115  1.00  0.00     0.141 C 
HETATM   23 CL1  UNL     1       0.749  -3.276  -0.963  1.00  0.00    -0.107 Cl
HETATM   24  C18 UNL     1       0.167  -0.781  -0.200  1.00  0.00     0.085 C 
HETATM   25  C19 UNL     1       0.634   0.259  -1.200  1.00  0.00     0.017 C 
HETATM   26  O7  UNL     1       3.090   0.317   1.151  1.00  0.00    -0.324 OA
ENDROOT
BRANCH   8  27
HETATM   27  O2  UNL     1      -4.397  -0.452   1.306  1.00  0.00    -0.393 OA
ATOM     28  H2  UNL     1      -4.795  -1.263   1.600  1.00  0.00     0.210 HD
ENDBRANCH   8  27
TORSDOF 1
