REMARK  11 active torsions:
REMARK  status: ('A' for Active; 'I' for Inactive)
REMARK    1  A    between atoms: O1_2  and  C2_3 
REMARK    2  A    between atoms: C14_17  and  C15_18 
REMARK    3  A    between atoms: C15_18  and  C16_19 
REMARK    4  A    between atoms: C16_19  and  C17_20 
REMARK    5  A    between atoms: C17_20  and  O2_21 
REMARK    6  A    between atoms: C17_20  and  C18_23 
REMARK    7  A    between atoms: C18_23  and  O4_25 
REMARK    8  A    between atoms: O4_25  and  C19_26 
REMARK    9  A    between atoms: C19_26  and  C20_27 
REMARK   10  A    between atoms: C19_26  and  N2_31 
REMARK   11  A    between atoms: C20_27  and  C21_28 
REMARK       I    between atoms: N2_31  and  C24_33 
REMARK       I    between atoms: C24_33  and  N3_35 
ROOT
HETATM    1  C2  UNL     1      -5.126   1.692  -1.667  1.00  0.00     0.164 C 
HETATM    2  C3  UNL     1      -5.392   2.572  -0.448  1.00  0.00     0.073 C 
HETATM    3  C4  UNL     1      -5.789   1.586   0.622  1.00  0.00    -0.008 C 
HETATM    4  C5  UNL     1      -5.345   1.921   1.996  1.00  0.00     0.010 C 
HETATM    5  C6  UNL     1      -5.462   0.248   0.110  1.00  0.00     0.008 C 
HETATM    6  C7  UNL     1      -5.868   0.379  -1.369  1.00  0.00     0.074 C 
HETATM    7  C8  UNL     1      -4.042  -0.203   0.118  1.00  0.00     0.022 A 
HETATM    8  C9  UNL     1      -3.915  -1.615   0.569  1.00  0.00     0.024 C 
HETATM    9  C10 UNL     1      -2.561  -2.206   0.681  1.00  0.00     0.033 C 
HETATM   10  C11 UNL     1      -2.337  -3.077  -0.516  1.00  0.00     0.120 C 
HETATM   11  N1  UNL     1      -1.021  -3.595  -0.667  1.00  0.00    -0.421 N 
ATOM     12  H1  UNL     1      -0.565  -3.671  -1.576  1.00  0.00     0.153 HD
HETATM   13  C12 UNL     1      -0.380  -4.003   0.551  1.00  0.00     0.114 C 
HETATM   14  C13 UNL     1       0.402  -2.793   1.076  1.00  0.00     0.026 C 
HETATM   15  C14 UNL     1      -0.147  -1.538   0.432  1.00  0.00     0.017 C 
HETATM   16  C25 UNL     1      -1.517  -1.233   1.027  1.00  0.00     0.132 C 
HETATM   17  O6  UNL     1      -1.758   0.072   0.864  1.00  0.00    -0.376 OA
HETATM   18  C26 UNL     1      -2.888   0.594   0.412  1.00  0.00     0.163 A 
HETATM   19  C27 UNL     1      -3.337   0.325  -1.055  1.00  0.00     0.166 A 
HETATM   20  O7  UNL     1      -3.807   1.407  -1.698  1.00  0.00    -0.346 OA
ENDROOT
BRANCH  15  21
HETATM   21  C15 UNL     1       0.772  -0.351   0.694  1.00  0.00     0.010 C 
BRANCH  21  22
HETATM   22  C16 UNL     1       0.962  -0.038   2.127  1.00  0.00     0.042 C 
BRANCH  22  23
HETATM   23  C17 UNL     1       1.874   1.150   2.297  1.00  0.00     0.217 C 
BRANCH  23  24
HETATM   24  O2  UNL     1       1.972   1.374   3.706  1.00  0.00    -0.386 OA
ATOM     25  H2  UNL     1       2.547   2.123   3.813  1.00  0.00     0.210 HD
ENDBRANCH  23  24
BRANCH  23  26
HETATM   26  C18 UNL     1       3.248   0.950   1.833  1.00  0.00     0.289 C 
HETATM   27  O3  UNL     1       4.208   0.915   2.683  1.00  0.00    -0.262 OA
BRANCH  26  28
HETATM   28  O4  UNL     1       3.626   0.789   0.508  1.00  0.00    -0.293 OA
BRANCH  28  29
HETATM   29  C19 UNL     1       5.015   0.600   0.161  1.00  0.00     0.234 C 
BRANCH  29  30
HETATM   30  C20 UNL     1       5.385   1.772  -0.711  1.00  0.00     0.058 C 
BRANCH  30  31
HETATM   31  C21 UNL     1       6.819   1.718  -1.155  1.00  0.00    -0.019 C 
HETATM   32  C22 UNL     1       7.082   2.940  -2.038  1.00  0.00     0.009 C 
HETATM   33  C23 UNL     1       7.759   1.850   0.033  1.00  0.00     0.009 C 
ENDBRANCH  30  31
ENDBRANCH  29  30
BRANCH  29  34
HETATM   34  N2  UNL     1       5.104  -0.654  -0.569  1.00  0.00    -0.315 N 
HETATM   35  C24 UNL     1       5.855  -1.716  -0.041  1.00  0.00     0.332 C 
HETATM   36  O5  UNL     1       6.462  -1.621   1.061  1.00  0.00    -0.246 OA
HETATM   37  N3  UNL     1       5.952  -2.942  -0.745  1.00  0.00    -0.250 N 
HETATM   38 CL1  UNL     1       6.869  -4.261  -0.116  1.00  0.00     0.015 Cl
ATOM     39  H3  UNL     1       5.472  -3.046  -1.639  1.00  0.00     0.185 HD
ATOM     40  H2  UNL     1       4.622  -0.762  -1.462  1.00  0.00     0.166 HD
ENDBRANCH  29  34
ENDBRANCH  28  29
ENDBRANCH  26  28
ENDBRANCH  23  26
ENDBRANCH  22  23
ENDBRANCH  21  22
ENDBRANCH  15  21
BRANCH   1  41
HETATM   41  O1  UNL     1      -5.637   2.308  -2.790  1.00  0.00    -0.360 OA
HETATM   42  C1  UNL     1      -5.490   1.567  -3.935  1.00  0.00     0.205 C 
ENDBRANCH   1  41
TORSDOF 11
