REMARK  10 active torsions:
REMARK  status: ('A' for Active; 'I' for Inactive)
REMARK    1  A    between atoms: C2_2  and  C3_3 
REMARK    2  A    between atoms: C6_7  and  N2_8 
REMARK    3  A    between atoms: C10_17  and  C11_18 
REMARK    4  A    between atoms: C13_20  and  C14_21 
REMARK    5  A    between atoms: C14_21  and  N5_22 
REMARK    6  A    between atoms: N5_22  and  C15_23 
REMARK    7  A    between atoms: N5_22  and  C18_27 
REMARK    8  A    between atoms: C15_23  and  C16_24 
REMARK    9  A    between atoms: C18_27  and  C19_28 
REMARK   10  A    between atoms: C23_36  and  O3_37 
ROOT
HETATM    1  C3  UNL     1      -6.020   0.772   0.690  1.00  0.00    -0.005 A 
HETATM    2  C4  UNL     1      -6.809   1.899   0.535  1.00  0.00     0.096 A 
HETATM    3  C5  UNL     1      -8.224   1.759   0.691  1.00  0.00     0.104 C 
HETATM    4  N1  UNL     1      -9.396   1.638   0.786  1.00  0.00    -0.191 NA
HETATM    5  C6  UNL     1      -6.187   3.091   0.224  1.00  0.00     0.121 A 
HETATM    6  N3  UNL     1      -4.850   3.098   0.084  1.00  0.00    -0.338 N 
ATOM      7  H3  UNL     1      -4.403   3.985  -0.147  1.00  0.00     0.167 HD
HETATM    8  C7  UNL     1      -4.069   2.032   0.225  1.00  0.00     0.084 A 
HETATM    9  C8  UNL     1      -2.708   1.730   0.056  1.00  0.00     0.101 A 
HETATM   10  C9  UNL     1      -1.728   2.686  -0.286  1.00  0.00     0.104 C 
HETATM   11  N4  UNL     1      -0.941   3.491  -0.590  1.00  0.00    -0.191 NA
HETATM   12  C10 UNL     1      -2.489   0.391   0.260  1.00  0.00     0.069 A 
HETATM   13  N9  UNL     1      -3.719  -0.124   0.563  1.00  0.00    -0.352 N 
ATOM     14  H9  UNL     1      -3.901  -1.104   0.778  1.00  0.00     0.166 HD
HETATM   15  C27 UNL     1      -4.652   0.836   0.538  1.00  0.00     0.069 A 
ENDROOT
BRANCH   1  16
HETATM   16  C2  UNL     1      -6.618  -0.562   0.914  1.00  0.00     0.038 C 
HETATM   17  C1  UNL     1      -6.992  -1.181  -0.446  1.00  0.00     0.010 C 
ENDBRANCH   1  16
BRANCH   5  18
HETATM   18  N2  UNL     1      -6.926   4.165   0.099  1.00  0.00    -0.384 N 
ATOM     19  H22 UNL     1      -7.940   4.160   0.205  1.00  0.00     0.157 HD
ATOM     20  H21 UNL     1      -6.466   5.046  -0.131  1.00  0.00     0.157 HD
ENDBRANCH   5  18
BRANCH  12  21
HETATM   21  C11 UNL     1      -1.318  -0.426  -0.048  1.00  0.00     0.032 A 
HETATM   22  C12 UNL     1      -0.010  -0.032  -0.002  1.00  0.00     0.028 A 
HETATM   23  C13 UNL     1       1.030  -0.770  -0.495  1.00  0.00    -0.010 A 
HETATM   24  C23 UNL     1       0.648  -2.023  -1.081  1.00  0.00     0.078 A 
HETATM   25  C25 UNL     1      -0.628  -2.442  -1.137  1.00  0.00     0.080 A 
HETATM   26  C26 UNL     1      -1.645  -1.686  -0.635  1.00  0.00     0.131 A 
HETATM   27  F1  UNL     1      -2.920  -2.100  -0.723  1.00  0.00    -0.205 F 
BRANCH  23  28
HETATM   28  C14 UNL     1       2.440  -0.501  -0.707  1.00  0.00     0.136 C 
BRANCH  28  29
HETATM   29  N5  UNL     1       3.311  -0.524   0.450  1.00  0.00    -0.285 NA
BRANCH  29  30
HETATM   30  C15 UNL     1       4.477  -1.334   0.028  1.00  0.00     0.109 C 
BRANCH  30  31
HETATM   31  C16 UNL     1       4.968  -2.139   1.186  1.00  0.00     0.138 C 
HETATM   32  C17 UNL     1       6.109  -2.965   0.711  1.00  0.00     0.060 C 
HETATM   33  N6  UNL     1       7.007  -3.614   0.304  1.00  0.00    -0.197 NA
ENDBRANCH  30  31
ENDBRANCH  29  30
BRANCH  29  34
HETATM   34  C18 UNL     1       3.688   0.605   1.111  1.00  0.00     0.094 C 
BRANCH  34  35
HETATM   35  C19 UNL     1       4.606   1.643   0.674  1.00  0.00     0.088 C 
HETATM   36  C20 UNL     1       6.077   1.465   0.770  1.00  0.00     0.212 C 
HETATM   37  N7  UNL     1       6.624   1.996  -0.484  1.00  0.00    -0.224 N 
HETATM   38  C21 UNL     1       7.980   2.147  -0.722  1.00  0.00     0.189 C 
HETATM   39  C22 UNL     1       5.535   2.286  -1.323  1.00  0.00     0.381 C 
HETATM   40  N8  UNL     1       9.120   2.301  -0.935  1.00  0.00    -0.172 NA
HETATM   41  O1  UNL     1       5.583   2.524  -2.548  1.00  0.00    -0.237 OA
HETATM   42  O2  UNL     1       4.391   2.269  -0.555  1.00  0.00    -0.262 OA
ENDBRANCH  34  35
ENDBRANCH  29  34
ENDBRANCH  28  29
ENDBRANCH  23  28
BRANCH  24  43
HETATM   43  O3  UNL     1       1.630  -2.803  -1.587  1.00  0.00    -0.355 OA
HETATM   44  C24 UNL     1       1.607  -4.048  -2.193  1.00  0.00     0.210 C 
ENDBRANCH  24  43
ENDBRANCH  12  21
TORSDOF 10
