REMARK  4 active torsions:
REMARK  status: ('A' for Active; 'I' for Inactive)
REMARK    1  A    between atoms: C2_2  and  C4_4 
REMARK    2  A    between atoms: C17_21  and  N2_22 
REMARK    3  A    between atoms: N2_22  and  C18_24 
REMARK    4  A    between atoms: C18_24  and  N3_26 
ROOT
HETATM    1  C4  UNL     1      -0.524   3.364  -0.261  1.00  0.00     0.180 C 
HETATM    2  N1  UNL     1       0.623   3.098  -1.104  1.00  0.00    -0.347 N 
ATOM      3  H1  UNL     1       0.612   3.513  -2.036  1.00  0.00     0.163 HD
HETATM    4  C5  UNL     1       1.754   2.324  -0.770  1.00  0.00     0.227 C 
HETATM    5  O1  UNL     1       2.173   1.461  -1.612  1.00  0.00    -0.273 OA
HETATM    6  C6  UNL     1       2.532   2.406   0.488  1.00  0.00     0.176 C 
HETATM    7  S1  UNL     1       3.284   0.817   0.926  1.00  0.00    -0.160 SA
HETATM    8  C7  UNL     1       4.798   0.489   0.022  1.00  0.00     0.074 C 
HETATM    9  C8  UNL     1       5.301  -0.882   0.422  1.00  0.00     0.010 C 
HETATM   10  C9  UNL     1       5.311  -1.824  -0.756  1.00  0.00     0.001 C 
HETATM   11  C10 UNL     1       3.976  -1.911  -1.442  1.00  0.00     0.000 C 
HETATM   12  C11 UNL     1       3.400  -3.308  -1.439  1.00  0.00     0.000 C 
HETATM   13  C12 UNL     1       2.814  -3.689  -0.095  1.00  0.00     0.000 C 
HETATM   14  C13 UNL     1       1.308  -3.680  -0.106  1.00  0.00     0.000 C 
HETATM   15  C14 UNL     1       0.768  -2.724   0.942  1.00  0.00     0.000 C 
HETATM   16  C15 UNL     1      -0.572  -2.138   0.495  1.00  0.00     0.004 C 
HETATM   17  C16 UNL     1      -0.363  -0.953  -0.418  1.00  0.00     0.047 C 
HETATM   18  C17 UNL     1      -1.226   0.225  -0.078  1.00  0.00     0.186 C 
HETATM   19  N4  UNL     1      -0.554   1.078   0.873  1.00  0.00    -0.338 N 
ATOM     20  H4  UNL     1       0.031   0.624   1.575  1.00  0.00     0.164 HD
HETATM   21  C23 UNL     1      -0.638   2.492   0.915  1.00  0.00     0.242 C 
HETATM   22  O2  UNL     1      -0.823   3.023   2.040  1.00  0.00    -0.271 OA
ENDROOT
BRANCH  18  23
HETATM   23  N2  UNL     1      -2.559  -0.135   0.344  1.00  0.00    -0.346 N 
ATOM     24  H2  UNL     1      -2.842   0.144   1.284  1.00  0.00     0.164 HD
BRANCH  23  25
HETATM   25  C18 UNL     1      -3.491  -0.829  -0.420  1.00  0.00     0.171 C 
HETATM   26  S2  UNL     1      -3.111  -1.305  -1.928  1.00  0.00    -0.041 SA
BRANCH  25  27
HETATM   27  N3  UNL     1      -4.773  -1.129   0.099  1.00  0.00    -0.358 N 
HETATM   28  C19 UNL     1      -5.867  -1.849  -0.572  1.00  0.00     0.125 C 
HETATM   29  C20 UNL     1      -6.589  -2.578   0.520  1.00  0.00     0.021 C 
HETATM   30  C21 UNL     1      -5.945  -2.135   1.819  1.00  0.00     0.021 C 
HETATM   31  C22 UNL     1      -5.327  -0.805   1.405  1.00  0.00     0.125 C 
ENDBRANCH  25  27
ENDBRANCH  23  25
ENDBRANCH  18  23
BRANCH   1  32
HETATM   32  C2  UNL     1      -0.671   4.825   0.060  1.00  0.00     0.009 C 
HETATM   33  C1  UNL     1       0.475   5.444   0.771  1.00  0.00     0.012 C 
HETATM   34  C3  UNL     1      -0.822   5.556  -1.281  1.00  0.00     0.012 C 
ENDBRANCH   1  32
TORSDOF 4
