REMARK  3 active torsions:
REMARK  status: ('A' for Active; 'I' for Inactive)
REMARK    1  A    between atoms: O1_2  and  C2_3 
REMARK    2  A    between atoms: C4_5  and  O2_6 
REMARK    3  A    between atoms: C8_11  and  C10_13 
ROOT
HETATM    1  C2  UNL     1      -1.098   0.514  -0.224  1.00  0.00     0.133 C 
HETATM    2  C3  UNL     1      -1.943  -0.458  -1.088  1.00  0.00     0.065 C 
HETATM    3  C4  UNL     1      -1.367  -1.781  -0.721  1.00  0.00     0.125 C 
HETATM    4  C5  UNL     1       0.080  -1.516  -0.479  1.00  0.00     0.026 C 
HETATM    5  C6  UNL     1       0.491  -2.052   0.842  1.00  0.00     0.009 C 
HETATM    6  C7  UNL     1       0.792  -0.838   1.677  1.00  0.00     0.021 C 
HETATM    7  C8  UNL     1       1.225   0.168   0.657  1.00  0.00     0.055 C 
HETATM    8  C9  UNL     1       1.247   1.578   1.212  1.00  0.00     0.027 C 
HETATM    9  C11 UNL     1       0.261  -0.014  -0.454  1.00  0.00     0.005 C 
HETATM   10  C12 UNL     1       0.790   0.440  -1.796  1.00  0.00     0.020 C 
ENDROOT
BRANCH   7  11
HETATM   11  C10 UNL     1       2.609  -0.133   0.240  1.00  0.00     0.182 C 
HETATM   12  O3  UNL     1       3.223  -1.067   0.799  1.00  0.00    -0.647 OA
HETATM   13  O4  UNL     1       3.292   0.563  -0.750  1.00  0.00    -0.647 OA
ENDBRANCH   7  11
BRANCH   1  14
HETATM   14  O1  UNL     1      -1.386   1.757  -0.730  1.00  0.00    -0.390 OA
HETATM   15  C1  UNL     1      -2.133   2.475   0.190  1.00  0.00     0.202 C 
ENDBRANCH   1  14
BRANCH   3  16
HETATM   16  O2  UNL     1      -2.004  -2.235   0.424  1.00  0.00    -0.395 OA
ATOM     17  H2  UNL     1      -1.636  -3.079   0.658  1.00  0.00     0.210 HD
ENDBRANCH   3  16
TORSDOF 3
