REMARK  9 active torsions:
REMARK  status: ('A' for Active; 'I' for Inactive)
REMARK    1  A    between atoms: C2_2  and  C3_3 
REMARK    2  A    between atoms: C3_3  and  N1_4 
REMARK    3  A    between atoms: C5_6  and  C6_7 
REMARK    4  A    between atoms: C7_9  and  C8_10 
REMARK    5  A    between atoms: C8_10  and  O2_11 
REMARK    6  A    between atoms: C9_13  and  O3_14 
REMARK    7  A    between atoms: C10_16  and  O4_17 
REMARK    8  A    between atoms: C11_19  and  O5_20 
REMARK    9  A    between atoms: C12_22  and  C13_23 
ROOT
HETATM    1  N1  UNL     1       1.949  -0.815   0.745  1.00  0.00    -0.302 N 
HETATM    2  C4  UNL     1       0.849  -1.260   0.065  1.00  0.00     0.122 A 
HETATM    3  C5  UNL     1      -0.056  -0.239  -0.071  1.00  0.00     0.015 A 
HETATM    4  C12 UNL     1       0.522   0.840   0.545  1.00  0.00     0.040 A 
HETATM    5  N2  UNL     1       1.733   0.437   1.021  1.00  0.00    -0.302 N 
ATOM      6  H2  UNL     1       2.384   1.038   1.527  1.00  0.00     0.186 HD
ENDROOT
BRANCH   3   7
HETATM    7  C6  UNL     1      -1.415  -0.246  -0.726  1.00  0.00     0.190 C 
HETATM    8  O1  UNL     1      -2.308  -0.036   0.322  1.00  0.00    -0.368 OA
HETATM    9  C7  UNL     1      -3.631  -0.108  -0.006  1.00  0.00     0.177 C 
HETATM   10  C9  UNL     1      -4.003  -1.502  -0.424  1.00  0.00     0.180 C 
HETATM   11  C10 UNL     1      -2.804  -2.331  -0.815  1.00  0.00     0.181 C 
HETATM   12  C11 UNL     1      -1.720  -1.499  -1.456  1.00  0.00     0.183 C 
BRANCH   9  13
HETATM   13  C8  UNL     1      -4.389   0.221   1.293  1.00  0.00     0.198 C 
BRANCH  13  14
HETATM   14  O2  UNL     1      -3.960  -0.789   2.190  1.00  0.00    -0.398 OA
ATOM     15  H2  UNL     1      -4.428  -0.586   2.992  1.00  0.00     0.209 HD
ENDBRANCH  13  14
ENDBRANCH   9  13
BRANCH  10  16
HETATM   16  O3  UNL     1      -4.936  -1.422  -1.456  1.00  0.00    -0.390 OA
ATOM     17  H3  UNL     1      -5.171  -2.304  -1.720  1.00  0.00     0.210 HD
ENDBRANCH  10  16
BRANCH  11  18
HETATM   18  O4  UNL     1      -3.240  -3.249  -1.767  1.00  0.00    -0.390 OA
ATOM     19  H4  UNL     1      -2.485  -3.771  -2.013  1.00  0.00     0.210 HD
ENDBRANCH  11  18
BRANCH  12  20
HETATM   20  O5  UNL     1      -2.046  -1.200  -2.799  1.00  0.00    -0.390 OA
ATOM     21  H5  UNL     1      -2.242  -2.003  -3.267  1.00  0.00     0.210 HD
ENDBRANCH  12  20
ENDBRANCH   3   7
BRANCH   4  22
HETATM   22  C13 UNL     1       0.019   2.224   0.714  1.00  0.00     0.038 C 
HETATM   23  C14 UNL     1       0.950   3.027   1.613  1.00  0.00     0.011 C 
HETATM   24  C15 UNL     1       0.814   4.460   1.162  1.00  0.00     0.001 C 
HETATM   25  C16 UNL     1       0.170   4.418  -0.191  1.00  0.00     0.001 C 
HETATM   26  C17 UNL     1       0.024   2.979  -0.569  1.00  0.00     0.011 C 
ENDBRANCH   4  22
BRANCH   1  27
HETATM   27  C3  UNL     1       3.099  -1.630   1.069  1.00  0.00     0.158 C 
BRANCH  27  28
HETATM   28  C2  UNL     1       4.150  -1.600   0.016  1.00  0.00    -0.008 A 
HETATM   29  C1  UNL     1       3.820  -2.072  -1.395  1.00  0.00     0.018 C 
HETATM   30  C18 UNL     1       5.555  -1.942   0.546  1.00  0.00     0.033 A 
HETATM   31  C19 UNL     1       5.266  -0.574   0.098  1.00  0.00     0.093 A 
HETATM   32 CL1  UNL     1       6.012  -0.075  -1.448  1.00  0.00    -0.124 Cl
ENDBRANCH  27  28
ENDBRANCH   1  27
TORSDOF 9
