REMARK  9 active torsions:
REMARK  status: ('A' for Active; 'I' for Inactive)
REMARK    1  A    between atoms: C5_5  and  O1_6 
REMARK    2  A    between atoms: C8_10  and  O2_11 
REMARK    3  A    between atoms: C9_13  and  O3_14 
REMARK    4  A    between atoms: O3_14  and  C10_15 
REMARK    5  A    between atoms: C10_15  and  C11_16 
REMARK    6  A    between atoms: C11_16  and  C12_17 
REMARK    7  A    between atoms: C12_17  and  C13_18 
REMARK    8  A    between atoms: C13_18  and  O4_19 
REMARK    9  A    between atoms: C18_28  and  O7_29 
ROOT
HETATM    1  C1  UNL     1      -3.578   0.723   1.786  1.00  0.00     0.018 C 
HETATM    2  C2  UNL     1      -3.470  -0.345   0.730  1.00  0.00    -0.009 C 
HETATM    3  C3  UNL     1      -4.031  -1.618   1.408  1.00  0.00     0.018 C 
HETATM    4  C4  UNL     1      -4.537  -0.015  -0.299  1.00  0.00     0.044 C 
HETATM    5  C5  UNL     1      -4.284  -0.720  -1.584  1.00  0.00     0.119 C 
HETATM    6  C6  UNL     1      -3.020  -0.129  -2.161  1.00  0.00     0.042 C 
HETATM    7  C7  UNL     1      -1.872  -0.137  -1.232  1.00  0.00     0.060 C 
HETATM    8  C8  UNL     1      -1.170   1.203  -1.315  1.00  0.00     0.158 C 
HETATM    9  C9  UNL     1       0.189   0.996  -0.673  1.00  0.00     0.174 C 
HETATM   10  C16 UNL     1      -0.033   0.591   0.715  1.00  0.00     0.030 C 
HETATM   11  C17 UNL     1      -1.065  -0.117   1.093  1.00  0.00     0.046 C 
HETATM   12 CL1  UNL     1      -1.218  -0.545   2.796  1.00  0.00    -0.086 Cl
HETATM   13  C18 UNL     1      -2.135  -0.595   0.164  1.00  0.00     0.108 C 
ENDROOT
BRANCH   9  14
HETATM   14  O3  UNL     1       1.068   1.989  -0.919  1.00  0.00    -0.379 OA
BRANCH  14  15
HETATM   15  C10 UNL     1       2.140   1.798  -1.704  1.00  0.00     0.169 C 
BRANCH  15  16
HETATM   16  C11 UNL     1       3.101   0.796  -1.129  1.00  0.00     0.034 C 
BRANCH  16  17
HETATM   17  C12 UNL     1       3.706   1.169   0.185  1.00  0.00     0.104 C 
BRANCH  17  18
HETATM   18  C13 UNL     1       4.635   0.009   0.570  1.00  0.00     0.280 C 
HETATM   19  O5  UNL     1       5.580  -0.137  -0.456  1.00  0.00    -0.331 OA
HETATM   20  C14 UNL     1       6.516  -0.981   0.129  1.00  0.00     0.200 C 
HETATM   21  C15 UNL     1       6.397  -0.691   1.609  1.00  0.00     0.200 C 
HETATM   22  O6  UNL     1       5.415   0.319   1.664  1.00  0.00    -0.331 OA
BRANCH  18  23
HETATM   23  O4  UNL     1       3.948  -1.176   0.686  1.00  0.00    -0.343 OA
ATOM     24  H4  UNL     1       4.523  -1.894   0.924  1.00  0.00     0.215 HD
ENDBRANCH  18  23
ENDBRANCH  17  18
ENDBRANCH  16  17
ENDBRANCH  15  16
ENDBRANCH  14  15
ENDBRANCH   9  14
BRANCH   8  25
HETATM   25  O2  UNL     1      -1.948   2.164  -0.767  1.00  0.00    -0.392 OA
ATOM     26  H2  UNL     1      -1.508   3.004  -0.819  1.00  0.00     0.210 HD
ENDBRANCH   8  25
BRANCH  13  27
HETATM   27  O7  UNL     1      -1.939  -2.006   0.157  1.00  0.00    -0.383 OA
ATOM     28  H7  UNL     1      -1.077  -2.167  -0.208  1.00  0.00     0.211 HD
ENDBRANCH  13  27
BRANCH   5  29
HETATM   29  O1  UNL     1      -4.288  -2.086  -1.520  1.00  0.00    -0.396 OA
ATOM     30  H1  UNL     1      -4.126  -2.536  -2.341  1.00  0.00     0.210 HD
ENDBRANCH   5  29
TORSDOF 9
