REMARK  1 active torsions:
REMARK  status: ('A' for Active; 'I' for Inactive)
REMARK       I    between atoms: C1_4  and  N3_6 
REMARK    1  A    between atoms: N3_6  and  N4_8 
ROOT
HETATM    1  N4  UNL     1      -0.221  -0.133  -0.906  1.00  0.00    -0.267 N 
ATOM      2  H4  UNL     1      -0.625  -0.781  -1.582  1.00  0.00     0.190 HD
HETATM    3  C2  UNL     1       1.074  -0.103  -0.694  1.00  0.00     0.220 C 
HETATM    4  N5  UNL     1       1.958   0.637   0.137  1.00  0.00    -0.236 N 
ATOM      5  H5  UNL     1       2.022   1.605   0.451  1.00  0.00     0.183 HD
HETATM    6  S1  UNL     1       2.875  -0.801   0.388  1.00  0.00     0.328 S 
HETATM    7  O1  UNL     1       4.346  -0.619   0.476  1.00  0.00    -0.182 OA
HETATM    8  O2  UNL     1       2.262  -1.767   1.335  1.00  0.00    -0.182 OA
HETATM    9  N6  UNL     1       2.212  -0.791  -1.197  1.00  0.00    -0.236 N 
ATOM     10  H6  UNL     1       2.509  -1.133  -2.111  1.00  0.00     0.183 HD
ENDROOT
BRANCH   1  11
HETATM   11  N3  UNL     1      -1.032   0.746  -0.182  1.00  0.00    -0.271 N 
HETATM   12  C1  UNL     1      -2.359   0.447   0.179  1.00  0.00     0.200 C 
HETATM   13  N1  UNL     1      -3.241   1.382   0.150  1.00  0.00    -0.372 N 
HETATM   14  N2  UNL     1      -2.764  -0.852   0.575  1.00  0.00    -0.062 NA
ATOM     15  H12 UNL     1      -4.203   1.165   0.412  1.00  0.00     0.158 HD
ATOM     16  H11 UNL     1      -2.949   2.317  -0.135  1.00  0.00     0.158 HD
ATOM     17  H3  UNL     1      -0.644   1.647   0.098  1.00  0.00     0.189 HD
ENDBRANCH   1  11
TORSDOF 1
