REMARK  6 active torsions:
REMARK  status: ('A' for Active; 'I' for Inactive)
REMARK    1  A    between atoms: N1_1  and  N2_4 
REMARK    2  A    between atoms: N2_4  and  C1_6 
REMARK    3  A    between atoms: C1_6  and  O1_7 
REMARK    4  A    between atoms: C1_6  and  N3_9 
REMARK    5  A    between atoms: N3_9  and  N4_11 
REMARK    6  A    between atoms: N4_11  and  C2_13 
ROOT
HETATM    1  N4  UNL     1       0.323   0.356   0.147  1.00  0.00    -0.127 N 
ATOM      2  H4  UNL     1       0.755   1.261  -0.040  1.00  0.00     0.205 HD
ENDROOT
BRANCH   1   3
HETATM    3  N3  UNL     1       1.149  -0.644   0.607  1.00  0.00    -0.250 N 
ATOM      4  H3  UNL     1       0.941  -1.624   0.417  1.00  0.00     0.191 HD
BRANCH   3   5
HETATM    5  C1  UNL     1       2.301  -0.273   1.355  1.00  0.00     0.251 C 
BRANCH   5   6
HETATM    6  N2  UNL     1       3.354   0.080   0.704  1.00  0.00    -0.271 N 
ATOM      7  H2  UNL     1       4.182   0.346   1.237  1.00  0.00     0.190 HD
BRANCH   6   8
HETATM    8  N1  UNL     1       3.427   0.119  -0.684  1.00  0.00    -0.342 N 
ATOM      9  H12 UNL     1       2.590  -0.150  -1.201  1.00  0.00     0.176 HD
ATOM     10  H11 UNL     1       4.261   0.399  -1.200  1.00  0.00     0.176 HD
ENDBRANCH   6   8
ENDBRANCH   5   6
BRANCH   5  11
HETATM   11  O1  UNL     1       2.366  -0.266   2.739  1.00  0.00    -0.330 OA
ATOM     12  H1  UNL     1       1.589  -0.527   3.219  1.00  0.00     0.221 HD
ENDBRANCH   5  11
ENDBRANCH   3   5
ENDBRANCH   1   3
BRANCH   1  13
HETATM   13  C2  UNL     1      -0.928   0.260  -0.067  1.00  0.00     0.715 A 
HETATM   14  N5  UNL     1      -1.684   1.283  -0.520  1.00  0.00    -0.127 N 
HETATM   15  N6  UNL     1      -2.938   0.883  -0.643  1.00  0.00    -0.237 N 
ATOM     16  H5  UNL     1      -1.341   2.219  -0.734  1.00  0.00     0.206 HD
HETATM   17  C3  UNL     1      -2.949  -0.407  -0.258  1.00  0.00     0.353 A 
ATOM     18  H6  UNL     1      -3.732   1.437  -0.963  1.00  0.00     0.192 HD
HETATM   19  O2  UNL     1      -4.008  -1.120  -0.249  1.00  0.00    -0.245 OA
HETATM   20  N7  UNL     1      -1.718  -0.809   0.101  1.00  0.00    -0.137 N 
ATOM     21  H7  UNL     1      -1.443  -1.734   0.432  1.00  0.00     0.189 HD
ENDBRANCH   1  13
TORSDOF 6
