REMARK  9 active torsions:
REMARK  status: ('A' for Active; 'I' for Inactive)
REMARK    1  A    between atoms: N1_1  and  C1_4 
REMARK    2  A    between atoms: N4_14  and  C5_15 
REMARK    3  A    between atoms: C5_15  and  C6_16 
REMARK    4  A    between atoms: C6_16  and  C7_17 
REMARK    5  A    between atoms: C6_16  and  C8_20 
REMARK    6  A    between atoms: C6_16  and  C9_23 
REMARK    7  A    between atoms: C7_17  and  O3_18 
REMARK    8  A    between atoms: C8_20  and  O4_21 
REMARK    9  A    between atoms: C9_23  and  O5_24 
ROOT
HETATM    1  C1  UNL     1       3.637  -1.455   0.948  1.00  0.00     0.171 C 
HETATM    2  N2  UNL     1       4.211  -0.301   0.552  1.00  0.00    -0.303 N 
ATOM      3  H2  UNL     1       5.202  -0.230   0.781  1.00  0.00     0.171 HD
HETATM    4  C2  UNL     1       3.715   0.778  -0.092  1.00  0.00     0.277 C 
HETATM    5  O1  UNL     1       4.475   1.728  -0.382  1.00  0.00    -0.265 OA
HETATM    6  C3  UNL     1       2.403   0.999  -0.504  1.00  0.00     0.150 A 
HETATM    7  N3  UNL     1       1.862   2.133  -0.928  1.00  0.00    -0.301 N 
ATOM      8  H3  UNL     1       2.368   3.015  -1.008  1.00  0.00     0.171 HD
HETATM    9  C4  UNL     1       0.563   1.977  -1.240  1.00  0.00     0.328 A 
HETATM   10  O2  UNL     1      -0.162   2.932  -1.673  1.00  0.00    -0.246 OA
HETATM   11  N4  UNL     1       0.255   0.689  -1.006  1.00  0.00    -0.282 N 
HETATM   12  C10 UNL     1       1.379   0.068  -0.552  1.00  0.00     0.147 A 
HETATM   13  N5  UNL     1       1.479  -1.237  -0.226  1.00  0.00    -0.304 N 
ATOM     14  H5  UNL     1       0.748  -1.830  -0.620  1.00  0.00     0.171 HD
HETATM   15  C11 UNL     1       2.378  -1.888   0.530  1.00  0.00     0.290 C 
HETATM   16  O6  UNL     1       2.117  -3.043   0.949  1.00  0.00    -0.264 OA
ENDROOT
BRANCH  11  17
HETATM   17  C5  UNL     1      -1.007   0.083  -1.197  1.00  0.00     0.151 C 
BRANCH  17  18
HETATM   18  C6  UNL     1      -1.982   0.045  -0.091  1.00  0.00     0.040 C 
BRANCH  18  19
HETATM   19  C7  UNL     1      -1.520  -0.680   1.152  1.00  0.00     0.179 C 
BRANCH  19  20
HETATM   20  O3  UNL     1      -2.533  -0.660   2.138  1.00  0.00    -0.400 OA
ATOM     21  H3  UNL     1      -2.243  -1.116   2.919  1.00  0.00     0.209 HD
ENDBRANCH  19  20
ENDBRANCH  18  19
BRANCH  18  22
HETATM   22  C8  UNL     1      -3.236  -0.733  -0.535  1.00  0.00     0.179 C 
BRANCH  22  23
HETATM   23  O4  UNL     1      -3.768  -0.063  -1.635  1.00  0.00    -0.400 OA
ATOM     24  H4  UNL     1      -4.541  -0.543  -1.909  1.00  0.00     0.209 HD
ENDBRANCH  22  23
ENDBRANCH  18  22
BRANCH  18  25
HETATM   25  C9  UNL     1      -2.482   1.429   0.235  1.00  0.00     0.179 C 
BRANCH  25  26
HETATM   26  O5  UNL     1      -3.432   1.369   1.289  1.00  0.00    -0.400 OA
ATOM     27  H5  UNL     1      -3.747   2.241   1.494  1.00  0.00     0.209 HD
ENDBRANCH  25  26
ENDBRANCH  18  25
ENDBRANCH  17  18
ENDBRANCH  11  17
BRANCH   1  28
HETATM   28  N1  UNL     1       4.280  -2.218   1.766  1.00  0.00    -0.381 N 
ATOM     29  H12 UNL     1       5.200  -1.902   2.072  1.00  0.00     0.157 HD
ATOM     30  H11 UNL     1       3.846  -3.091   2.066  1.00  0.00     0.157 HD
ENDBRANCH   1  28
TORSDOF 9
