REMARK  10 active torsions:
REMARK  status: ('A' for Active; 'I' for Inactive)
REMARK    1  A    between atoms: O1_2  and  C2_3 
REMARK    2  A    between atoms: C2_3  and  C3_5 
REMARK    3  A    between atoms: C4_6  and  O3_7 
REMARK    4  A    between atoms: C6_9  and  O4_10 
REMARK    5  A    between atoms: C8_12  and  O5_13 
REMARK    6  A    between atoms: C9_15  and  O6_16 
REMARK    7  A    between atoms: C10_18  and  C11_19 
REMARK       I    between atoms: C11_19  and  N1_21 
REMARK    8  A    between atoms: N1_21  and  N2_22 
REMARK    9  A    between atoms: N2_22  and  C12_24 
REMARK   10  A    between atoms: C13_27  and  N4_28 
ROOT
HETATM    1  C11 UNL     1      -0.417   1.329  -0.013  1.00  0.00     0.350 C 
HETATM    2  O7  UNL     1      -0.800   2.493  -0.354  1.00  0.00    -0.249 OA
HETATM    3  N1  UNL     1       0.866   1.087   0.422  1.00  0.00    -0.266 NA
ENDROOT
BRANCH   1   4
HETATM    4  C10 UNL     1      -1.444   0.272  -0.119  1.00  0.00     0.103 A 
HETATM    5  C3  UNL     1      -2.690   0.573  -0.572  1.00  0.00     0.095 A 
HETATM    6  C4  UNL     1      -3.662  -0.440  -0.683  1.00  0.00     0.121 A 
HETATM    7  C6  UNL     1      -3.379  -1.750  -0.340  1.00  0.00     0.139 A 
HETATM    8  C8  UNL     1      -2.106  -2.055   0.123  1.00  0.00     0.136 A 
HETATM    9  C9  UNL     1      -1.150  -1.038   0.229  1.00  0.00     0.120 A 
BRANCH   5  10
HETATM   10  C2  UNL     1      -3.059   1.916  -0.947  1.00  0.00     0.297 C 
HETATM   11  O2  UNL     1      -2.946   2.415  -2.099  1.00  0.00    -0.259 OA
BRANCH  10  12
HETATM   12  O1  UNL     1      -3.599   2.763   0.036  1.00  0.00    -0.322 OA
HETATM   13  C1  UNL     1      -4.003   4.093  -0.232  1.00  0.00     0.213 C 
ENDBRANCH  10  12
ENDBRANCH   5  10
BRANCH   6  14
HETATM   14  O3  UNL     1      -4.905  -0.093  -1.145  1.00  0.00    -0.352 OA
HETATM   15  C5  UNL     1      -6.005   0.321  -0.401  1.00  0.00     0.210 C 
ENDBRANCH   6  14
BRANCH   7  16
HETATM   16  O4  UNL     1      -4.294  -2.763  -0.434  1.00  0.00    -0.351 OA
HETATM   17  C7  UNL     1      -5.169  -3.178   0.566  1.00  0.00     0.210 C 
ENDBRANCH   7  16
BRANCH   8  18
HETATM   18  O5  UNL     1      -1.844  -3.367   0.460  1.00  0.00    -0.356 OA
ATOM     19  H5  UNL     1      -0.973  -3.576   0.777  1.00  0.00     0.218 HD
ENDBRANCH   8  18
BRANCH   9  20
HETATM   20  O6  UNL     1       0.093  -1.365   0.689  1.00  0.00    -0.357 OA
ATOM     21  H6  UNL     1       0.742  -0.675   0.761  1.00  0.00     0.218 HD
ENDBRANCH   9  20
ENDBRANCH   1   4
BRANCH   3  22
HETATM   22  N2  UNL     1       2.075   0.860   0.832  1.00  0.00    -0.061 N 
ATOM     23  H2  UNL     1       2.230   1.029   1.826  1.00  0.00     0.221 HD
BRANCH  22  24
HETATM   24  C12 UNL     1       3.108   0.456   0.186  1.00  0.00     0.710 A 
HETATM   25  N3  UNL     1       3.055   0.194  -1.125  1.00  0.00    -0.174 N 
HETATM   26  C13 UNL     1       4.155  -0.224  -1.812  1.00  0.00     0.130 A 
ATOM     27  H3  UNL     1       2.171   0.310  -1.621  1.00  0.00     0.186 HD
HETATM   28  C14 UNL     1       5.324  -0.365  -1.098  1.00  0.00     0.071 A 
HETATM   29  C15 UNL     1       6.606  -0.755  -1.448  1.00  0.00     0.126 A 
HETATM   30  C17 UNL     1       5.407  -0.097   0.274  1.00  0.00     0.152 A 
HETATM   31  N5  UNL     1       7.368  -0.712  -0.348  1.00  0.00    -0.307 N 
HETATM   32  N6  UNL     1       6.667  -0.319   0.698  1.00  0.00    -0.280 N 
ATOM     33  H5  UNL     1       8.359  -0.951  -0.322  1.00  0.00     0.186 HD
HETATM   34  C16 UNL     1       7.124  -0.137   2.073  1.00  0.00     0.179 C 
HETATM   35  N7  UNL     1       4.269   0.307   0.853  1.00  0.00    -0.172 N 
ATOM     36  H7  UNL     1       4.282   0.513   1.852  1.00  0.00     0.186 HD
BRANCH  26  37
HETATM   37  N4  UNL     1       4.118  -0.485  -3.073  1.00  0.00    -0.384 N 
ATOM     38  H42 UNL     1       3.252  -0.381  -3.602  1.00  0.00     0.157 HD
ATOM     39  H41 UNL     1       4.941  -0.798  -3.587  1.00  0.00     0.157 HD
ENDBRANCH  26  37
ENDBRANCH  22  24
ENDBRANCH   3  22
TORSDOF 10
