REMARK  12 active torsions:
REMARK  status: ('A' for Active; 'I' for Inactive)
REMARK    1  A    between atoms: O1_2  and  C2_3 
REMARK    2  A    between atoms: C3_6  and  N2_7 
REMARK    3  A    between atoms: N9_30  and  C11_31 
REMARK    4  A    between atoms: C11_31  and  O2_32 
REMARK    5  A    between atoms: C11_31  and  C12_34 
REMARK    6  A    between atoms: C12_34  and  C13_36 
REMARK    7  A    between atoms: C13_36  and  O4_37 
REMARK    8  A    between atoms: C13_36  and  C14_39 
REMARK    9  A    between atoms: C14_39  and  O5_40 
REMARK   10  A    between atoms: C14_39  and  C15_42 
REMARK   11  A    between atoms: C15_42  and  N10_43 
REMARK   12  A    between atoms: C15_42  and  N11_47 
ROOT
HETATM    1  C2  UNL     1      -0.328  -2.825   0.184  1.00  0.00     0.187 A 
HETATM    2  N1  UNL     1      -0.926  -3.976   0.569  1.00  0.00    -0.168 N 
ATOM      3  H1  UNL     1      -0.370  -4.826   0.657  1.00  0.00     0.186 HD
HETATM    4  C3  UNL     1      -2.241  -4.015   0.837  1.00  0.00     0.678 A 
HETATM    5  N3  UNL     1      -3.017  -2.923   0.735  1.00  0.00    -0.187 N 
ATOM      6  H3  UNL     1      -4.014  -2.975   0.942  1.00  0.00     0.184 HD
HETATM    7  C4  UNL     1      -2.464  -1.772   0.359  1.00  0.00     0.111 A 
HETATM    8  C5  UNL     1      -3.035  -0.514   0.180  1.00  0.00     0.109 A 
HETATM    9  N4  UNL     1      -4.275  -0.052   0.319  1.00  0.00    -0.335 N 
ATOM     10  H4  UNL     1      -5.043  -0.656   0.610  1.00  0.00     0.168 HD
HETATM   11  C6  UNL     1      -4.464   1.269   0.052  1.00  0.00     0.150 A 
HETATM   12  N5  UNL     1      -5.693   1.794   0.174  1.00  0.00    -0.175 N 
ATOM     13  H5  UNL     1      -6.475   1.207   0.464  1.00  0.00     0.186 HD
HETATM   14  C7  UNL     1      -5.890   3.114  -0.092  1.00  0.00     0.677 A 
HETATM   15  N6  UNL     1      -7.050   3.656   0.013  1.00  0.00    -0.234 N 
ATOM     16  H61 UNL     1      -7.198   4.645  -0.186  1.00  0.00     0.174 HD
ATOM     17  H62 UNL     1      -7.828   3.063   0.302  1.00  0.00     0.174 HD
HETATM   18  N7  UNL     1      -4.863   3.897  -0.474  1.00  0.00    -0.200 N 
ATOM     19  H7  UNL     1      -5.045   4.882  -0.664  1.00  0.00     0.183 HD
HETATM   20  C8  UNL     1      -3.611   3.436  -0.615  1.00  0.00     0.139 A 
HETATM   21  C9  UNL     1      -3.419   2.077  -0.340  1.00  0.00     0.095 A 
HETATM   22  N8  UNL     1      -2.172   1.594  -0.475  1.00  0.00    -0.336 N 
ATOM     23  H8  UNL     1      -1.398   2.191  -0.765  1.00  0.00     0.168 HD
HETATM   24  C10 UNL     1      -1.990   0.283  -0.209  1.00  0.00     0.145 A 
HETATM   25  N9  UNL     1      -0.825  -0.439  -0.272  1.00  0.00    -0.266 N 
HETATM   26  C16 UNL     1      -1.108  -1.703   0.076  1.00  0.00     0.124 A 
ENDROOT
BRANCH  25  27
HETATM   27  C11 UNL     1       0.458   0.078  -0.644  1.00  0.00     0.199 C 
BRANCH  27  28
HETATM   28  O2  UNL     1       1.060  -0.548  -1.730  1.00  0.00    -0.343 OA
ATOM     29  H2  UNL     1       1.911  -0.205  -1.977  1.00  0.00     0.219 HD
ENDBRANCH  27  28
BRANCH  27  30
HETATM   30  C12 UNL     1       1.351   0.425   0.465  1.00  0.00     0.231 C 
HETATM   31  O3  UNL     1       0.852   0.878   1.479  1.00  0.00    -0.286 OA
BRANCH  30  32
HETATM   32  C13 UNL     1       2.814   0.262   0.431  1.00  0.00     0.228 C 
BRANCH  32  33
HETATM   33  O4  UNL     1       3.179  -0.258  -0.805  1.00  0.00    -0.385 OA
ATOM     34  H4  UNL     1       4.123  -0.363  -0.827  1.00  0.00     0.210 HD
ENDBRANCH  32  33
BRANCH  32  35
HETATM   35  C14 UNL     1       3.551   1.579   0.569  1.00  0.00     0.212 C 
BRANCH  35  36
HETATM   36  O5  UNL     1       3.210   2.464  -0.438  1.00  0.00    -0.389 OA
ATOM     37  H5  UNL     1       3.672   3.290  -0.351  1.00  0.00     0.210 HD
ENDBRANCH  35  36
BRANCH  35  38
HETATM   38  C15 UNL     1       5.041   1.259   0.410  1.00  0.00     0.409 C 
BRANCH  38  39
HETATM   39  N10 UNL     1       5.832   2.474   0.521  1.00  0.00    -0.048 N 
ATOM     40 3H10 UNL     1       5.524   3.190  -0.137  1.00  0.00     0.276 HD
ATOM     41 2H10 UNL     1       5.641   2.975   1.389  1.00  0.00     0.276 HD
ATOM     42 1H10 UNL     1       6.824   2.261   0.415  1.00  0.00     0.276 HD
ENDBRANCH  38  39
BRANCH  38  43
HETATM   43  N11 UNL     1       5.478   0.299   1.397  1.00  0.00    -0.048 N 
ATOM     44 3H11 UNL     1       5.260   0.609   2.344  1.00  0.00     0.276 HD
ATOM     45 2H11 UNL     1       4.909  -0.547   1.375  1.00  0.00     0.276 HD
ATOM     46 1H11 UNL     1       6.470   0.086   1.291  1.00  0.00     0.276 HD
ENDBRANCH  38  43
ENDBRANCH  35  38
ENDBRANCH  32  35
ENDBRANCH  30  32
ENDBRANCH  27  30
ENDBRANCH  25  27
BRANCH   1  47
HETATM   47  O1  UNL     1       1.039  -2.801  -0.089  1.00  0.00    -0.339 OA
HETATM   48  C1  UNL     1       1.760  -4.008   0.050  1.00  0.00     0.211 C 
ENDBRANCH   1  47
BRANCH   4  49
HETATM   49  N2  UNL     1      -2.743  -5.135   1.196  1.00  0.00    -0.234 N 
ATOM     50  H22 UNL     1      -2.154  -5.964   1.273  1.00  0.00     0.174 HD
ATOM     51  H21 UNL     1      -3.742  -5.165   1.400  1.00  0.00     0.174 HD
ENDBRANCH   4  49
TORSDOF 12
