REMARK  13 active torsions:
REMARK  status: ('A' for Active; 'I' for Inactive)
REMARK    1  A    between atoms: N1_1  and  C1_5 
REMARK    2  A    between atoms: C3_8  and  O2_9 
REMARK    3  A    between atoms: O2_9  and  C4_10 
REMARK    4  A    between atoms: C5_11  and  N2_12 
REMARK    5  A    between atoms: C7_17  and  N3_18 
REMARK    6  A    between atoms: C8_22  and  O3_23 
REMARK    7  A    between atoms: O3_23  and  C9_24 
REMARK    8  A    between atoms: C12_30  and  O5_31 
REMARK    9  A    between atoms: O5_31  and  C13_32 
REMARK   10  A    between atoms: C15_37  and  N6_38 
REMARK   11  A    between atoms: N6_38  and  O6_39 
REMARK   12  A    between atoms: C16_41  and  O7_42 
REMARK   13  A    between atoms: C17_44  and  N7_45 
ROOT
HETATM    1  C4  UNL     1       0.521   1.007   0.297  1.00  0.00     0.186 C 
HETATM    2  C5  UNL     1       0.273   2.246   1.085  1.00  0.00     0.217 C 
HETATM    3  C6  UNL     1      -1.167   2.463   1.454  1.00  0.00     0.071 C 
HETATM    4  C7  UNL     1      -2.122   2.276   0.323  1.00  0.00     0.217 C 
HETATM    5  C8  UNL     1      -1.608   1.436  -0.798  1.00  0.00     0.186 C 
HETATM    6  C12 UNL     1      -0.757   0.330  -0.160  1.00  0.00     0.184 C 
ENDROOT
BRANCH   1   7
HETATM    7  O2  UNL     1       1.247   0.077   1.026  1.00  0.00    -0.349 OA
BRANCH   7   8
HETATM    8  C3  UNL     1       2.434  -0.287   0.479  1.00  0.00     0.290 C 
HETATM    9  O1  UNL     1       3.551   0.003   1.254  1.00  0.00    -0.357 OA
HETATM   10  C2  UNL     1       4.650   0.012   0.428  1.00  0.00     0.203 C 
HETATM   11  C1  UNL     1       4.883  -1.244  -0.329  1.00  0.00     0.209 C 
HETATM   12  C18 UNL     1       3.652  -1.892  -0.875  1.00  0.00     0.072 C 
HETATM   13  C17 UNL     1       2.525  -1.767   0.130  1.00  0.00     0.240 C 
BRANCH  11  14
HETATM   14  N1  UNL     1       5.733  -0.907  -1.483  1.00  0.00    -0.073 N 
ATOM     15  H13 UNL     1       5.346  -0.160  -2.059  1.00  0.00     0.274 HD
ATOM     16  H12 UNL     1       6.597  -0.435  -1.218  1.00  0.00     0.274 HD
ATOM     17  H11 UNL     1       5.893  -1.770  -2.003  1.00  0.00     0.274 HD
ENDBRANCH  11  14
BRANCH  13  18
HETATM   18  N7  UNL     1       2.915  -2.549   1.296  1.00  0.00    -0.070 N 
ATOM     19  H73 UNL     1       3.781  -2.204   1.709  1.00  0.00     0.274 HD
ATOM     20  H72 UNL     1       2.292  -2.385   2.087  1.00  0.00     0.274 HD
ATOM     21  H71 UNL     1       2.976  -3.540   1.062  1.00  0.00     0.274 HD
ENDBRANCH  13  18
ENDBRANCH   7   8
ENDBRANCH   1   7
BRANCH   2  22
HETATM   22  N2  UNL     1       0.809   3.446   0.435  1.00  0.00    -0.072 N 
ATOM     23  H23 UNL     1       1.802   3.337   0.227  1.00  0.00     0.274 HD
ATOM     24  H22 UNL     1       0.450   3.539  -0.515  1.00  0.00     0.274 HD
ATOM     25  H21 UNL     1       0.639   4.295   0.975  1.00  0.00     0.274 HD
ENDBRANCH   2  22
BRANCH   6  26
HETATM   26  O5  UNL     1      -1.497  -0.191   0.872  1.00  0.00    -0.371 OA
BRANCH  26  27
HETATM   27  C13 UNL     1      -1.809  -1.517   0.741  1.00  0.00     0.180 C 
HETATM   28  C14 UNL     1      -1.178  -2.272   1.901  1.00  0.00     0.268 C 
HETATM   29  N5  UNL     1      -1.865  -3.554   1.797  1.00  0.00    -0.050 N 
HETATM   30  C15 UNL     1      -3.245  -3.166   1.645  1.00  0.00     0.335 C 
ATOM     31  H52 UNL     1      -1.512  -4.169   1.064  1.00  0.00     0.279 HD
ATOM     32  H51 UNL     1      -1.685  -4.198   2.567  1.00  0.00     0.279 HD
HETATM   33  C16 UNL     1      -3.271  -1.830   0.946  1.00  0.00     0.197 C 
BRANCH  30  34
HETATM   34  N6  UNL     1      -3.959  -3.121   2.907  1.00  0.00    -0.067 NA
BRANCH  34  35
HETATM   35  O6  UNL     1      -3.920  -4.352   3.461  1.00  0.00    -0.294 OA
ATOM     36  H6  UNL     1      -4.388  -4.323   4.287  1.00  0.00     0.238 HD
ENDBRANCH  34  35
ENDBRANCH  30  34
BRANCH  33  37
HETATM   37  O7  UNL     1      -3.971  -1.972  -0.239  1.00  0.00    -0.389 OA
ATOM     38  H7  UNL     1      -4.891  -2.169  -0.110  1.00  0.00     0.210 HD
ENDBRANCH  33  37
ENDBRANCH  26  27
ENDBRANCH   6  26
BRANCH   5  39
HETATM   39  O3  UNL     1      -0.848   2.131  -1.717  1.00  0.00    -0.349 OA
BRANCH  39  40
HETATM   40  C9  UNL     1      -1.332   2.102  -3.000  1.00  0.00     0.285 C 
HETATM   41  C10 UNL     1      -1.686   3.514  -3.504  1.00  0.00     0.181 C 
HETATM   42  N4  UNL     1      -1.510   3.296  -4.941  1.00  0.00    -0.376 N 
HETATM   43  C11 UNL     1      -0.755   2.293  -5.176  1.00  0.00     0.225 C 
ATOM     44  H4  UNL     1      -1.937   3.874  -5.665  1.00  0.00     0.160 HD
HETATM   45  O4  UNL     1      -0.363   1.757  -3.966  1.00  0.00    -0.315 OA
ENDBRANCH  39  40
ENDBRANCH   5  39
BRANCH   4  46
HETATM   46  N3  UNL     1      -2.652   3.560  -0.151  1.00  0.00    -0.072 N 
ATOM     47  H33 UNL     1      -3.074   4.093   0.609  1.00  0.00     0.274 HD
ATOM     48  H32 UNL     1      -1.902   4.205  -0.399  1.00  0.00     0.274 HD
ATOM     49  H31 UNL     1      -3.305   3.432  -0.924  1.00  0.00     0.274 HD
ENDBRANCH   4  46
TORSDOF 13
