REMARK  3 active torsions:
REMARK  status: ('A' for Active; 'I' for Inactive)
REMARK    1  A    between atoms: C1_2  and  N1_3 
REMARK    2  A    between atoms: N1_3  and  C2_5 
REMARK    3  A    between atoms: C2_5  and  C3_6 
ROOT
HETATM    1  C3  UNL     1       0.634  -0.571   0.222  1.00  0.00     0.032 C 
HETATM    2  C4  UNL     1       0.197   0.072  -1.030  1.00  0.00     0.012 C 
HETATM    3  C5  UNL     1      -1.185   0.634  -1.037  1.00  0.00    -0.011 C 
HETATM    4  C6  UNL     1      -2.182  -0.494  -0.935  1.00  0.00     0.035 C 
HETATM    5  C7  UNL     1      -2.089  -1.176   0.406  1.00  0.00     0.272 C 
HETATM    6  N2  UNL     1      -1.542  -0.273   1.351  1.00  0.00     0.088 N 
HETATM    7  C8  UNL     1      -2.099   1.050   1.224  1.00  0.00     0.272 C 
HETATM    8  C9  UNL     1      -1.447   1.677  -0.014  1.00  0.00     0.035 C 
HETATM    9  C10 UNL     1      -0.131  -0.231   1.452  1.00  0.00     0.278 C 
ENDROOT
BRANCH   1  10
HETATM   10  C2  UNL     1       2.087  -0.211   0.475  1.00  0.00     0.126 C 
BRANCH  10  11
HETATM   11  N1  UNL     1       2.941  -0.661  -0.602  1.00  0.00    -0.390 N 
ATOM     12  H1  UNL     1       2.559  -1.155  -1.409  1.00  0.00     0.159 HD
BRANCH  11  13
HETATM   13  C1  UNL     1       4.327  -0.391  -0.496  1.00  0.00     0.165 C 
HETATM   14  S1  UNL     1       5.257  -0.025  -1.790  1.00  0.00    -0.075 SA
ENDBRANCH  11  13
ENDBRANCH  10  11
ENDBRANCH   1  10
TORSDOF 3
