REMARK  1 active torsions:
REMARK  status: ('A' for Active; 'I' for Inactive)
REMARK    1  A    between atoms: C2_2  and  C3_3 
ROOT
HETATM    1  C3  UNL     1       1.102  -0.526   0.565  1.00  0.00     0.126 C 
HETATM    2  N1  UNL     1       0.301   0.562   1.026  1.00  0.00    -0.386 N 
ATOM      3  H1  UNL     1       0.541   0.981   1.925  1.00  0.00     0.160 HD
HETATM    4  C4  UNL     1      -0.690   1.045   0.394  1.00  0.00     0.002 C 
HETATM    5  C5  UNL     1      -1.441   2.174   0.976  1.00  0.00     0.064 C 
HETATM    6  C6  UNL     1      -1.039   0.432  -0.917  1.00  0.00     0.183 C 
HETATM    7  C7  UNL     1      -2.371   0.862  -1.328  1.00  0.00     0.075 C 
HETATM    8  N2  UNL     1      -3.406   1.203  -1.660  1.00  0.00    -0.196 NA
HETATM    9  C8  UNL     1      -0.942  -1.033  -0.734  1.00  0.00     0.023 C 
HETATM   10  N3  UNL     1      -1.930  -1.754  -1.066  1.00  0.00    -0.403 N 
ATOM     11  H31 UNL     1      -1.863  -2.764  -0.940  1.00  0.00     0.155 HD
ATOM     12  H32 UNL     1      -2.796  -1.380  -1.455  1.00  0.00     0.155 HD
HETATM   13  C9  UNL     1       0.311  -1.574  -0.171  1.00  0.00     0.165 C 
HETATM   14  C10 UNL     1       0.008  -2.729   0.693  1.00  0.00     0.072 C 
HETATM   15  N4  UNL     1      -0.230  -3.653   1.364  1.00  0.00    -0.196 NA
ENDROOT
BRANCH   1  16
HETATM   16  C2  UNL     1       2.263  -0.078  -0.242  1.00  0.00    -0.011 C 
HETATM   17  C1  UNL     1       3.162   0.743   0.240  1.00  0.00     0.009 C 
ENDBRANCH   1  16
TORSDOF 1
