REMARK  3 active torsions:
REMARK  status: ('A' for Active; 'I' for Inactive)
REMARK    1  A    between atoms: C2_2  and  O1_4 
REMARK    2  A    between atoms: O1_4  and  N1_5 
REMARK    3  A    between atoms: N2_10  and  O2_12 
ROOT
HETATM    1  N1  UNL     1      -0.102   0.023   0.473  1.00  0.00    -0.182 NA
HETATM    2  C4  UNL     1      -0.501  -1.223  -0.039  1.00  0.00     0.089 C 
HETATM    3  C5  UNL     1      -1.663  -1.725   0.793  1.00  0.00     0.028 C 
HETATM    4  C6  UNL     1      -2.786  -0.689   0.827  1.00  0.00     0.058 C 
HETATM    5  C7  UNL     1      -2.346   0.610   0.296  1.00  0.00     0.030 C 
HETATM    6  N2  UNL     1      -3.071   1.637   0.408  1.00  0.00    -0.276 N 
ATOM      7  H2  UNL     1      -3.965   1.509   0.882  1.00  0.00     0.193 HD
HETATM    8  C8  UNL     1      -1.035   0.686  -0.372  1.00  0.00     0.135 C 
HETATM    9  C9  UNL     1      -1.015  -0.564  -1.268  1.00  0.00     0.050 C 
ENDROOT
BRANCH   1  10
HETATM   10  O1  UNL     1       1.099   0.401   0.636  1.00  0.00    -0.298 OA
BRANCH  10  11
HETATM   11  C2  UNL     1       2.085   0.054  -0.215  1.00  0.00     0.137 C 
HETATM   12  C1  UNL     1       2.694   1.341  -0.789  1.00  0.00     0.041 C 
HETATM   13  C3  UNL     1       3.258  -0.646   0.487  1.00  0.00     0.041 C 
ENDBRANCH  10  11
ENDBRANCH   1  10
BRANCH   6  14
HETATM   14  O2  UNL     1      -2.798   2.888  -0.028  1.00  0.00    -0.290 OA
ATOM     15  H2  UNL     1      -3.344   3.661   0.056  1.00  0.00     0.244 HD
ENDBRANCH   6  14
TORSDOF 3
