REMARK  8 active torsions:
REMARK  status: ('A' for Active; 'I' for Inactive)
REMARK    1  A    between atoms: N1_1  and  C1_5 
REMARK    2  A    between atoms: C1_5  and  C2_6 
REMARK    3  A    between atoms: C2_6  and  S1_7 
REMARK    4  A    between atoms: S1_7  and  N2_10 
REMARK    5  A    between atoms: N2_10  and  C3_12 
REMARK    6  A    between atoms: C9_18  and  C10_19 
REMARK    7  A    between atoms: C10_19  and  O3_20 
REMARK    8  A    between atoms: C10_19  and  C11_22 
ROOT
HETATM    1  C3  UNL     1       2.123  -0.135  -0.584  1.00  0.00     0.097 C 
HETATM    2  C4  UNL     1       0.881   0.408  -1.296  1.00  0.00     0.031 C 
HETATM    3  C5  UNL     1       0.176  -0.839  -0.890  1.00  0.00     0.000 C 
HETATM    4  C6  UNL     1       1.189  -1.005   0.231  1.00  0.00     0.013 C 
HETATM    5  C7  UNL     1       0.582  -0.311   1.422  1.00  0.00     0.007 C 
HETATM    6  C8  UNL     1      -0.928  -0.343   1.182  1.00  0.00     0.008 C 
HETATM    7  C9  UNL     1      -1.170  -0.738  -0.226  1.00  0.00     0.019 C 
ENDROOT
BRANCH   1   8
HETATM    8  N2  UNL     1       3.095  -0.724  -1.354  1.00  0.00    -0.314 N 
ATOM      9  H2  UNL     1       2.781  -1.434  -2.016  1.00  0.00     0.172 HD
BRANCH   8  10
HETATM   10  S1  UNL     1       4.710  -0.413  -1.328  1.00  0.00     0.228 S 
HETATM   11  O1  UNL     1       5.509  -1.223  -2.359  1.00  0.00    -0.206 OA
HETATM   12  O2  UNL     1       5.086   1.019  -1.647  1.00  0.00    -0.206 OA
BRANCH  10  13
HETATM   13  C2  UNL     1       5.445  -0.789   0.226  1.00  0.00     0.190 C 
BRANCH  13  14
HETATM   14  C1  UNL     1       4.935  -0.024   1.399  1.00  0.00     0.246 C 
BRANCH  14  15
HETATM   15  N1  UNL     1       5.155   1.406   1.192  1.00  0.00    -0.078 N 
ATOM     16  H13 UNL     1       6.132   1.618   0.991  1.00  0.00     0.274 HD
ATOM     17  H12 UNL     1       4.749   1.733   0.315  1.00  0.00     0.274 HD
ATOM     18  H11 UNL     1       4.806   1.930   1.995  1.00  0.00     0.274 HD
ENDBRANCH  14  15
ENDBRANCH  13  14
ENDBRANCH  10  13
ENDBRANCH   8  10
ENDBRANCH   1   8
BRANCH   7  19
HETATM   19  C10 UNL     1      -2.176   0.019  -0.999  1.00  0.00     0.126 C 
BRANCH  19  20
HETATM   20  O3  UNL     1      -1.870   1.347  -1.265  1.00  0.00    -0.395 OA
ATOM     21  H3  UNL     1      -2.517   1.834  -1.762  1.00  0.00     0.210 HD
ENDBRANCH  19  20
BRANCH  19  22
HETATM   22  C11 UNL     1      -3.568  -0.166  -0.501  1.00  0.00     0.015 C 
HETATM   23  C12 UNL     1      -4.573   0.618  -1.332  1.00  0.00     0.007 C 
HETATM   24  C13 UNL     1      -5.799   0.684  -0.464  1.00  0.00     0.000 C 
HETATM   25  C14 UNL     1      -5.389   0.309   0.919  1.00  0.00     0.000 C 
HETATM   26  C15 UNL     1      -3.853   0.339   0.870  1.00  0.00     0.007 C 
ENDBRANCH  19  22
ENDBRANCH   7  19
TORSDOF 8
