REMARK  2 active torsions:
REMARK  status: ('A' for Active; 'I' for Inactive)
REMARK    1  A    between atoms: N1_1  and  C1_4 
REMARK    2  A    between atoms: C3_8  and  C4_9 
ROOT
HETATM    1  C4  UNL     1       0.069   0.822   0.014  1.00  0.00     0.021 A 
HETATM    2  C5  UNL     1       0.057   2.171   0.257  1.00  0.00     0.099 A 
HETATM    3  N3  UNL     1       1.081   3.071   0.725  1.00  0.00    -0.093 NA
HETATM    4  S1  UNL     1      -1.550   2.641  -0.119  1.00  0.00    -0.078 SA
HETATM    5  C6  UNL     1      -2.164   1.137  -0.570  1.00  0.00     0.001 A 
HETATM    6  C7  UNL     1      -1.107   0.278  -0.424  1.00  0.00    -0.029 A 
HETATM    7  C8  UNL     1      -1.452  -1.154  -0.805  1.00  0.00     0.051 C 
HETATM    8  C9  UNL     1      -2.445  -1.714   0.219  1.00  0.00     0.079 C 
HETATM    9  S2  UNL     1      -3.981  -0.691   0.135  1.00  0.00    -0.164 SA
HETATM   10  C10 UNL     1      -3.525   0.644  -1.039  1.00  0.00     0.120 C 
ENDROOT
BRANCH   1  11
HETATM   11  C3  UNL     1       1.333   0.042   0.226  1.00  0.00     0.037 A 
HETATM   12  C2  UNL     1       2.579   0.472   0.515  1.00  0.00     0.110 A 
HETATM   13  N2  UNL     1       3.532  -0.420   0.635  1.00  0.00    -0.346 N 
HETATM   14  C1  UNL     1       3.235  -1.704   0.468  1.00  0.00     0.142 A 
ATOM     15  H2  UNL     1       4.486  -0.133   0.853  1.00  0.00     0.167 HD
HETATM   16  S3  UNL     1       1.569  -1.646   0.133  1.00  0.00    -0.052 SA
BRANCH  14  17
HETATM   17  N1  UNL     1       4.051  -2.737   0.548  1.00  0.00    -0.380 N 
ATOM     18  H12 UNL     1       5.050  -2.772   0.749  1.00  0.00     0.158 HD
ATOM     19  H11 UNL     1       3.823  -3.723   0.420  1.00  0.00     0.158 HD
ENDBRANCH  14  17
ENDBRANCH   1  11
TORSDOF 2
