REMARK  14 active torsions:
REMARK  status: ('A' for Active; 'I' for Inactive)
REMARK    1  A    between atoms: C2_2  and  C3_3 
REMARK       I    between atoms: C3_3  and  N1_5 
REMARK    2  A    between atoms: N1_5  and  C4_7 
REMARK    3  A    between atoms: C9_12  and  C10_13 
REMARK    4  A    between atoms: C14_19  and  C15_20 
REMARK    5  A    between atoms: C15_20  and  C16_21 
REMARK    6  A    between atoms: C17_22  and  C18_23 
REMARK    7  A    between atoms: C18_23  and  S1_24 
REMARK    8  A    between atoms: S1_24  and  N3_25 
REMARK    9  A    between atoms: N4_32  and  C20_33 
REMARK   10  A    between atoms: C20_33  and  C21_34 
REMARK   11  A    between atoms: C21_34  and  C22_35 
REMARK   12  A    between atoms: C22_35  and  C23_36 
REMARK   13  A    between atoms: C23_36  and  S2_37 
REMARK   14  A    between atoms: S2_37  and  C24_38 
ROOT
HETATM    1  C10 UNL     1       2.663  -0.907   0.193  1.00  0.00    -0.007 A 
HETATM    2  C11 UNL     1       3.558  -0.018   0.740  1.00  0.00     0.016 A 
HETATM    3  C12 UNL     1       3.091   1.224   1.124  1.00  0.00     0.033 A 
HETATM    4  C13 UNL     1       1.792   1.647   1.000  1.00  0.00     0.059 A 
HETATM    5  N2  UNL     1       1.399   2.887   1.398  1.00  0.00    -0.353 N 
ATOM      6  H2  UNL     1       2.087   3.524   1.800  1.00  0.00     0.166 HD
HETATM    7  C14 UNL     1       0.132   3.287   1.273  1.00  0.00     0.082 A 
HETATM    8  C19 UNL     1      -0.756   2.389   0.723  1.00  0.00     0.271 A 
HETATM    9  O4  UNL     1      -1.961   2.717   0.583  1.00  0.00    -0.266 OA
HETATM   10  N4  UNL     1      -0.378   1.152   0.323  1.00  0.00    -0.311 N 
HETATM   11  C29 UNL     1       0.907   0.746   0.451  1.00  0.00     0.065 A 
HETATM   12  C30 UNL     1       1.327  -0.521   0.047  1.00  0.00     0.045 A 
ENDROOT
BRANCH  10  13
HETATM   13  C20 UNL     1      -1.371   0.272  -0.230  1.00  0.00     0.133 C 
BRANCH  13  14
HETATM   14  C21 UNL     1      -2.014  -0.563   0.857  1.00  0.00     0.021 C 
BRANCH  14  15
HETATM   15  C22 UNL     1      -3.073  -1.502   0.287  1.00  0.00     0.012 C 
BRANCH  15  16
HETATM   16  C23 UNL     1      -3.710  -2.319   1.374  1.00  0.00     0.082 C 
BRANCH  16  17
HETATM   17  S2  UNL     1      -4.951  -3.401   0.670  1.00  0.00    -0.094 SA
BRANCH  17  18
HETATM   18  C24 UNL     1      -6.381  -2.571   0.049  1.00  0.00     0.147 A 
HETATM   19  N5  UNL     1      -7.327  -3.329  -0.576  1.00  0.00    -0.341 N 
HETATM   20  C25 UNL     1      -8.444  -2.828  -1.098  1.00  0.00     0.012 A 
ATOM     21  H5  UNL     1      -7.170  -4.334  -0.647  1.00  0.00     0.167 HD
HETATM   22  C26 UNL     1      -9.470  -3.644  -1.774  1.00  0.00     0.068 C 
HETATM   23  C27 UNL     1      -8.657  -1.461  -1.001  1.00  0.00     0.099 A 
HETATM   24  C28 UNL     1      -7.702  -0.698  -0.370  1.00  0.00     0.249 A 
HETATM   25  O5  UNL     1      -7.846   0.552  -0.253  1.00  0.00    -0.268 OA
HETATM   26  N6  UNL     1      -6.584  -1.259   0.144  1.00  0.00    -0.304 N 
ATOM     27  H6  UNL     1      -5.891  -0.672   0.608  1.00  0.00     0.171 HD
ENDBRANCH  17  18
ENDBRANCH  16  17
ENDBRANCH  15  16
ENDBRANCH  14  15
ENDBRANCH  13  14
ENDBRANCH  10  13
BRANCH   7  28
HETATM   28  C15 UNL     1      -0.424   4.594   1.689  1.00  0.00     0.090 C 
BRANCH  28  29
HETATM   29  C16 UNL     1      -0.756   5.543   0.627  1.00  0.00    -0.020 C 
HETATM   30  C17 UNL     1       0.177   6.091  -0.327  1.00  0.00     0.010 C 
BRANCH  30  31
HETATM   31  C18 UNL     1       1.310   6.964  -0.048  1.00  0.00     0.131 C 
BRANCH  31  32
HETATM   32  S1  UNL     1       2.703   6.479   0.856  1.00  0.00     0.246 S 
HETATM   33  O2  UNL     1       2.491   6.118   2.275  1.00  0.00    -0.202 OA
HETATM   34  O3  UNL     1       3.470   5.353   0.164  1.00  0.00    -0.202 OA
BRANCH  32  35
HETATM   35  N3  UNL     1       3.852   7.844   0.940  1.00  0.00    -0.325 N 
ATOM     36  H32 UNL     1       3.697   8.759   0.517  1.00  0.00     0.169 HD
ATOM     37  H31 UNL     1       4.673   7.558   1.473  1.00  0.00     0.169 HD
ENDBRANCH  32  35
ENDBRANCH  31  32
ENDBRANCH  30  31
ENDBRANCH  28  29
ENDBRANCH   7  28
BRANCH   1  38
HETATM   38  C9  UNL     1       3.059  -2.245  -0.242  1.00  0.00     0.044 A 
HETATM   39  C8  UNL     1       2.172  -3.096  -0.857  1.00  0.00     0.037 A 
HETATM   40  C6  UNL     1       2.559  -4.367  -1.287  1.00  0.00    -0.056 A 
HETATM   41  C5  UNL     1       3.849  -4.765  -1.087  1.00  0.00     0.055 A 
HETATM   42  C7  UNL     1       1.593  -5.289  -1.955  1.00  0.00     0.048 C 
HETATM   43  C4  UNL     1       4.772  -3.892  -0.452  1.00  0.00     0.108 A 
HETATM   44  N7  UNL     1       4.326  -2.685  -0.067  1.00  0.00    -0.342 N 
ATOM     45  H7  UNL     1       4.988  -2.057   0.389  1.00  0.00     0.167 HD
BRANCH  43  46
HETATM   46  N1  UNL     1       5.926  -4.358  -0.331  1.00  0.00    -0.310 N 
HETATM   47  C3  UNL     1       7.053  -3.788   0.234  1.00  0.00     0.245 C 
HETATM   48  O1  UNL     1       7.092  -2.838   1.066  1.00  0.00    -0.268 OA
ATOM     49  H1  UNL     1       6.056  -5.298  -0.704  1.00  0.00     0.170 HD
BRANCH  47  50
HETATM   50  C2  UNL     1       8.378  -4.327  -0.156  1.00  0.00     0.064 C 
HETATM   51  C1  UNL     1       9.464  -3.812   0.366  1.00  0.00     0.017 C 
ENDBRANCH  47  50
ENDBRANCH  43  46
ENDBRANCH   1  38
TORSDOF 14
