REMARK  8 active torsions:
REMARK  status: ('A' for Active; 'I' for Inactive)
REMARK    1  A    between atoms: C4_8  and  N3_9 
REMARK    2  A    between atoms: C5_10  and  O1_11 
REMARK    3  A    between atoms: C6_13  and  C7_14 
REMARK    4  A    between atoms: C7_14  and  N4_15 
REMARK    5  A    between atoms: C7_14  and  N7_25 
REMARK    6  A    between atoms: N4_15  and  C8_17 
REMARK    7  A    between atoms: N7_25  and  N8_26 
REMARK       I    between atoms: N8_26  and  C12_28 
REMARK    8  A    between atoms: C12_28  and  C13_30 
ROOT
HETATM    1  C7  UNL     1      -1.122  -0.552   1.139  1.00  0.00     0.241 C 
ENDROOT
BRANCH   1   2
HETATM    2  C6  UNL     1       0.010   0.423   1.071  1.00  0.00     0.101 A 
HETATM    3  C5  UNL     1       1.016   0.198   0.175  1.00  0.00     0.167 A 
HETATM    4  N3  UNL     1       2.047   1.057   0.096  1.00  0.00    -0.226 N 
HETATM    5  C15 UNL     1       2.089   2.136   0.895  1.00  0.00     0.337 A 
HETATM    6  N13 UNL     1       1.120   2.393   1.789  1.00  0.00    -0.274 N 
HETATM    7  O4  UNL     1       3.066   2.961   0.827  1.00  0.00    -0.246 OA
HETATM    8  C14 UNL     1       0.087   1.538   1.873  1.00  0.00     0.263 A 
ATOM      9  H13 UNL     1       1.167   3.217   2.389  1.00  0.00     0.173 HD
HETATM   10  O3  UNL     1      -0.850   1.741   2.702  1.00  0.00    -0.267 OA
BRANCH   3  11
HETATM   11  O1  UNL     1       0.983  -0.929  -0.668  1.00  0.00    -0.345 OA
ATOM     12  H1  UNL     1       0.254  -1.536  -0.612  1.00  0.00     0.219 HD
ENDBRANCH   3  11
BRANCH   4  13
HETATM   13  C4  UNL     1       3.118   0.844  -0.833  1.00  0.00     0.140 A 
HETATM   14  C2  UNL     1       4.332   0.293  -0.459  1.00  0.00     0.001 A 
HETATM   15  C1  UNL     1       4.764  -0.157   0.870  1.00  0.00     0.054 C 
HETATM   16  C3  UNL     1       5.095   0.244  -1.612  1.00  0.00     0.117 A 
HETATM   17  N1  UNL     1       4.385   0.735  -2.626  1.00  0.00    -0.310 N 
HETATM   18  N2  UNL     1       3.213   1.085  -2.136  1.00  0.00    -0.285 N 
ATOM     19  H1  UNL     1       4.690   0.823  -3.595  1.00  0.00     0.186 HD
ATOM     20  H2  UNL     1       2.464   1.495  -2.694  1.00  0.00     0.188 HD
ENDBRANCH   4  13
ENDBRANCH   1   2
BRANCH   1  21
HETATM   21  N4  UNL     1      -0.626  -1.911   1.130  1.00  0.00    -0.352 N 
ATOM     22  H4  UNL     1       0.377  -2.074   1.224  1.00  0.00     0.163 HD
BRANCH  21  23
HETATM   23  C8  UNL     1      -1.416  -2.922   1.006  1.00  0.00     0.104 A 
HETATM   24  C9  UNL     1      -0.944  -4.224   0.997  1.00  0.00     0.065 A 
HETATM   25  C10 UNL     1      -1.852  -5.251   0.859  1.00  0.00     0.092 A 
HETATM   26  N5  UNL     1      -3.181  -5.027   0.733  1.00  0.00    -0.362 N 
HETATM   27  C11 UNL     1      -3.566  -3.736   0.749  1.00  0.00     0.181 A 
ATOM     28  H5  UNL     1      -3.851  -5.790   0.632  1.00  0.00     0.165 HD
HETATM   29  N6  UNL     1      -2.737  -2.701   0.879  1.00  0.00    -0.339 N 
ATOM     30  H6  UNL     1      -3.101  -1.748   0.882  1.00  0.00     0.168 HD
ENDBRANCH  21  23
ENDBRANCH   1  21
BRANCH   1  31
HETATM   31  N7  UNL     1      -1.995  -0.394  -0.000  1.00  0.00    -0.107 NA
BRANCH  31  32
HETATM   32  N8  UNL     1      -2.552   0.894  -0.059  1.00  0.00    -0.265 N 
HETATM   33  C12 UNL     1      -2.499   1.644  -1.272  1.00  0.00     0.303 C 
HETATM   34  O2  UNL     1      -1.955   1.168  -2.312  1.00  0.00    -0.263 OA
ATOM     35  H8  UNL     1      -2.996   1.295   0.768  1.00  0.00     0.185 HD
BRANCH  33  36
HETATM   36  C13 UNL     1      -3.093   2.978  -1.278  1.00  0.00     0.204 A 
HETATM   37  N9  UNL     1      -3.703   3.639  -0.300  1.00  0.00    -0.267 N 
HETATM   38  N10 UNL     1      -4.069   4.810  -0.786  1.00  0.00    -0.225 N 
ATOM     39  H9  UNL     1      -3.859   3.303   0.650  1.00  0.00     0.190 HD
HETATM   40  N11 UNL     1      -3.708   4.918  -2.057  1.00  0.00    -0.005 NA
ATOM     41  H10 UNL     1      -4.561   5.531  -0.258  1.00  0.00     0.205 HD
HETATM   42  N12 UNL     1      -3.103   3.778  -2.355  1.00  0.00    -0.262 N 
ATOM     43  H12 UNL     1      -2.705   3.544  -3.265  1.00  0.00     0.186 HD
ENDBRANCH  33  36
ENDBRANCH  31  32
ENDBRANCH   1  31
TORSDOF 8
