REMARK  9 active torsions:
REMARK  status: ('A' for Active; 'I' for Inactive)
REMARK    1  A    between atoms: N2_5  and  C3_6 
REMARK    2  A    between atoms: C3_6  and  C4_7 
REMARK    3  A    between atoms: C7_10  and  N3_11 
REMARK    4  A    between atoms: C9_13  and  C10_14 
REMARK    5  A    between atoms: C10_14  and  O1_15 
REMARK    6  A    between atoms: O1_15  and  C11_16 
REMARK    7  A    between atoms: C12_17  and  N4_18 
REMARK    8  A    between atoms: N4_18  and  N5_20 
REMARK    9  A    between atoms: C13_25  and  N7_26 
ROOT
HETATM    1  N3  UNL     1      -0.436  -1.682  -0.440  1.00  0.00    -0.251 N 
HETATM    2  C8  UNL     1      -1.159  -1.404   0.659  1.00  0.00     0.146 A 
HETATM    3  C9  UNL     1      -2.520  -1.540   0.376  1.00  0.00     0.069 A 
HETATM    4  N10 UNL     1      -2.551  -1.904  -0.920  1.00  0.00    -0.286 N 
ATOM      5  H10 UNL     1      -3.396  -2.090  -1.460  1.00  0.00     0.188 HD
HETATM    6  N11 UNL     1      -1.301  -1.983  -1.389  1.00  0.00    -0.236 N 
ATOM      7  H11 UNL     1      -1.052  -2.239  -2.344  1.00  0.00     0.209 HD
ENDROOT
BRANCH   3   8
HETATM    8  C10 UNL     1      -3.641  -1.326   1.307  1.00  0.00     0.236 C 
BRANCH   8   9
HETATM    9  O1  UNL     1      -4.222  -0.069   1.331  1.00  0.00    -0.338 OA
BRANCH   9  10
HETATM   10  C11 UNL     1      -4.798   0.518   0.222  1.00  0.00     0.159 A 
HETATM   11  C12 UNL     1      -6.130   0.220  -0.116  1.00  0.00     0.172 A 
HETATM   12  N6  UNL     1      -6.698   0.785  -1.191  1.00  0.00    -0.173 N 
HETATM   13  C13 UNL     1      -6.052   1.647  -1.991  1.00  0.00     0.679 A 
ATOM     14  H6  UNL     1      -7.666   0.549  -1.411  1.00  0.00     0.186 HD
HETATM   15  N8  UNL     1      -4.788   1.941  -1.684  1.00  0.00    -0.174 N 
HETATM   16  C14 UNL     1      -4.146   1.400  -0.598  1.00  0.00     0.152 A 
ATOM     17  H8  UNL     1      -4.278   2.594  -2.280  1.00  0.00     0.186 HD
HETATM   18  N9  UNL     1      -2.954   1.784  -0.353  1.00  0.00    -0.383 N 
ATOM     19  H92 UNL     1      -2.477   1.382   0.454  1.00  0.00     0.157 HD
ATOM     20  H91 UNL     1      -2.468   2.441  -0.964  1.00  0.00     0.157 HD
BRANCH  11  21
HETATM   21  N4  UNL     1      -6.803  -0.686   0.730  1.00  0.00    -0.289 N 
ATOM     22  H4  UNL     1      -6.768  -1.687   0.537  1.00  0.00     0.188 HD
BRANCH  21  23
HETATM   23  N5  UNL     1      -7.517  -0.211   1.833  1.00  0.00    -0.344 N 
ATOM     24  H52 UNL     1      -7.542   0.793   2.012  1.00  0.00     0.176 HD
ATOM     25  H51 UNL     1      -8.004  -0.866   2.445  1.00  0.00     0.176 HD
ENDBRANCH  21  23
ENDBRANCH  11  21
BRANCH  13  26
HETATM   26  N7  UNL     1      -6.610   2.184  -3.024  1.00  0.00    -0.234 N 
ATOM     27  H72 UNL     1      -7.577   1.959  -3.259  1.00  0.00     0.174 HD
ATOM     28  H71 UNL     1      -6.119   2.839  -3.632  1.00  0.00     0.174 HD
ENDBRANCH  13  26
ENDBRANCH   9  10
ENDBRANCH   8   9
ENDBRANCH   3   8
BRANCH   1  29
HETATM   29  C7  UNL     1       0.995  -1.646  -0.524  1.00  0.00     0.057 A 
HETATM   30  C6  UNL     1       1.654  -1.670  -1.721  1.00  0.00     0.032 A 
HETATM   31  C5  UNL     1       3.052  -1.635  -1.804  1.00  0.00     0.011 A 
HETATM   32  C4  UNL     1       3.787  -1.575  -0.653  1.00  0.00    -0.038 A 
HETATM   33  C16 UNL     1       3.113  -1.550   0.576  1.00  0.00     0.011 A 
HETATM   34  C15 UNL     1       1.739  -1.585   0.643  1.00  0.00     0.032 A 
BRANCH  32  35
HETATM   35  C3  UNL     1       5.268  -1.529  -0.697  1.00  0.00     0.192 C 
BRANCH  35  36
HETATM   36  N2  UNL     1       5.796  -0.175  -0.591  1.00  0.00    -0.238 N 
HETATM   37  N1  UNL     1       6.037   0.341   0.629  1.00  0.00    -0.293 N 
HETATM   38  C2  UNL     1       6.516   1.587   0.774  1.00  0.00     0.090 A 
ATOM     39  H1  UNL     1       5.852  -0.224   1.458  1.00  0.00     0.187 HD
HETATM   40  C1  UNL     1       6.796   2.194   2.109  1.00  0.00     0.076 C 
HETATM   41  C18 UNL     1       6.745   2.301  -0.386  1.00  0.00     0.273 A 
HETATM   42  N12 UNL     1       6.503   1.784  -1.605  1.00  0.00    -0.273 N 
HETATM   43  O3  UNL     1       7.193   3.469  -0.268  1.00  0.00    -0.266 OA
HETATM   44  C17 UNL     1       6.016   0.512  -1.709  1.00  0.00     0.344 A 
ATOM     45  H12 UNL     1       6.682   2.337  -2.443  1.00  0.00     0.173 HD
HETATM   46  O2  UNL     1       5.793   0.032  -2.847  1.00  0.00    -0.245 OA
ENDBRANCH  35  36
ENDBRANCH  32  35
ENDBRANCH   1  29
TORSDOF 9
