REMARK  18 active torsions:
REMARK  status: ('A' for Active; 'I' for Inactive)
REMARK    1  A    between atoms: C2_3  and  C3_4 
REMARK    2  A    between atoms: C3_4  and  O1_5 
REMARK    3  A    between atoms: O1_5  and  C4_6 
REMARK    4  A    between atoms: C4_6  and  C5_7 
REMARK    5  A    between atoms: C6_11  and  C7_12 
REMARK    6  A    between atoms: C7_12  and  O2_13 
REMARK    7  A    between atoms: O2_13  and  C8_14 
REMARK    8  A    between atoms: C8_14  and  C9_15 
REMARK    9  A    between atoms: C9_15  and  O3_16 
REMARK   10  A    between atoms: O3_16  and  C10_17 
REMARK   11  A    between atoms: C10_17  and  C11_18 
REMARK   12  A    between atoms: C11_18  and  O4_19 
REMARK   13  A    between atoms: O4_19  and  C12_20 
REMARK   14  A    between atoms: C18_28  and  O5_29 
REMARK   15  A    between atoms: O5_29  and  C19_30 
REMARK   16  A    between atoms: C19_30  and  C20_31 
REMARK   17  A    between atoms: C26_37  and  O6_38 
REMARK   18  A    between atoms: C27_40  and  O7_41 
ROOT
HETATM    1  C5  UNL     1      -1.429  -0.859  -1.087  1.00  0.00     0.241 C 
HETATM    2  N2  UNL     1      -0.149  -0.235  -0.799  1.00  0.00    -0.058 N 
ATOM      3  H21 UNL     1       0.595  -0.620  -1.381  1.00  0.00     0.278 HD
ATOM      4  H22 UNL     1       0.207  -0.514   0.115  1.00  0.00     0.278 HD
HETATM    5  C6  UNL     1      -0.227   1.203  -0.921  1.00  0.00     0.241 C 
HETATM    6  C18 UNL     1      -1.324   1.823  -0.134  1.00  0.00     0.185 C 
HETATM    7  C26 UNL     1      -2.639   1.103  -0.432  1.00  0.00     0.180 C 
HETATM    8  C27 UNL     1      -2.385  -0.396  -0.059  1.00  0.00     0.182 C 
ENDROOT
BRANCH   5   9
HETATM    9  C7  UNL     1       1.130   1.762  -0.633  1.00  0.00     0.203 C 
BRANCH   9  10
HETATM   10  O2  UNL     1       1.525   1.404   0.646  1.00  0.00    -0.387 OA
BRANCH  10  11
HETATM   11  C8  UNL     1       2.767   1.883   1.005  1.00  0.00     0.193 C 
BRANCH  11  12
HETATM   12  C9  UNL     1       3.875   1.416   0.102  1.00  0.00     0.193 C 
BRANCH  12  13
HETATM   13  O3  UNL     1       3.986   0.049   0.075  1.00  0.00    -0.387 OA
BRANCH  13  14
HETATM   14  C10 UNL     1       4.261  -0.482   1.322  1.00  0.00     0.194 C 
BRANCH  14  15
HETATM   15  C11 UNL     1       4.435  -1.993   1.242  1.00  0.00     0.202 C 
BRANCH  15  16
HETATM   16  O4  UNL     1       5.435  -2.436   0.435  1.00  0.00    -0.346 OA
BRANCH  16  17
HETATM   17  C12 UNL     1       6.765  -2.332   0.378  1.00  0.00     0.107 A 
HETATM   18  C13 UNL     1       7.522  -1.656   1.286  1.00  0.00     0.043 A 
HETATM   19  C14 UNL     1       8.910  -1.570   1.196  1.00  0.00     0.045 A 
HETATM   20  C15 UNL     1       9.554  -2.193   0.150  1.00  0.00     0.119 A 
HETATM   21  F1  UNL     1      10.902  -2.112   0.060  1.00  0.00    -0.206 F 
HETATM   22  C16 UNL     1       8.823  -2.893  -0.795  1.00  0.00     0.087 A 
HETATM   23  C17 UNL     1       7.459  -2.953  -0.673  1.00  0.00     0.152 A 
HETATM   24  F2  UNL     1       6.763  -3.645  -1.612  1.00  0.00    -0.203 F 
ENDBRANCH  16  17
ENDBRANCH  15  16
ENDBRANCH  14  15
ENDBRANCH  13  14
ENDBRANCH  12  13
ENDBRANCH  11  12
ENDBRANCH  10  11
ENDBRANCH   9  10
ENDBRANCH   5   9
BRANCH   6  25
HETATM   25  O5  UNL     1      -1.528   3.147  -0.471  1.00  0.00    -0.381 OA
BRANCH  25  26
HETATM   26  C19 UNL     1      -1.412   3.982   0.631  1.00  0.00     0.172 C 
BRANCH  26  27
HETATM   27  C20 UNL     1      -1.627   5.428   0.302  1.00  0.00     0.009 C 
HETATM   28  C21 UNL     1      -3.003   5.692  -0.274  1.00  0.00     0.007 C 
HETATM   29  C22 UNL     1      -3.215   7.184  -0.255  1.00  0.00     0.000 C 
HETATM   30  C23 UNL     1      -2.150   7.948  -0.976  1.00  0.00     0.000 C 
HETATM   31  C24 UNL     1      -0.759   7.473  -0.700  1.00  0.00     0.000 C 
HETATM   32  C25 UNL     1      -0.622   5.975  -0.668  1.00  0.00     0.007 C 
ENDBRANCH  26  27
ENDBRANCH  25  26
ENDBRANCH   6  25
BRANCH   1  33
HETATM   33  C4  UNL     1      -1.312  -2.271  -1.450  1.00  0.00     0.203 C 
BRANCH  33  34
HETATM   34  O1  UNL     1      -0.783  -3.207  -0.686  1.00  0.00    -0.382 OA
BRANCH  34  35
HETATM   35  C3  UNL     1      -1.234  -3.671   0.474  1.00  0.00     0.244 C 
BRANCH  35  36
HETATM   36  C2  UNL     1      -2.585  -4.292   0.430  1.00  0.00     0.108 A 
HETATM   37  N1  UNL     1      -2.921  -5.495  -0.097  1.00  0.00    -0.337 N 
HETATM   38  C1  UNL     1      -1.974  -6.374  -0.722  1.00  0.00     0.158 C 
HETATM   39  C33 UNL     1      -4.253  -5.689   0.075  1.00  0.00     0.062 A 
HETATM   40  C28 UNL     1      -4.753  -4.572   0.727  1.00  0.00     0.060 A 
HETATM   41  C32 UNL     1      -5.075  -6.734  -0.277  1.00  0.00     0.032 A 
HETATM   42  N3  UNL     1      -3.691  -3.752   0.919  1.00  0.00    -0.342 N 
HETATM   43  C29 UNL     1      -6.100  -4.528   1.019  1.00  0.00     0.032 A 
ATOM     44  H3  UNL     1      -3.737  -2.842   1.378  1.00  0.00     0.167 HD
HETATM   45  C30 UNL     1      -6.932  -5.582   0.665  1.00  0.00     0.002 A 
HETATM   46  C31 UNL     1      -6.423  -6.700   0.010  1.00  0.00     0.002 A 
ENDBRANCH  35  36
ENDBRANCH  34  35
ENDBRANCH  33  34
ENDBRANCH   1  33
BRANCH   7  47
HETATM   47  O6  UNL     1      -3.710   1.602   0.257  1.00  0.00    -0.390 OA
ATOM     48  H6  UNL     1      -4.527   1.155   0.072  1.00  0.00     0.210 HD
ENDBRANCH   7  47
BRANCH   8  49
HETATM   49  O7  UNL     1      -1.806  -0.249   1.234  1.00  0.00    -0.391 OA
ATOM     50  H7  UNL     1      -2.420   0.049   1.895  1.00  0.00     0.210 HD
ENDBRANCH   8  49
TORSDOF 18
