REMARK  16 active torsions:
REMARK  status: ('A' for Active; 'I' for Inactive)
REMARK    1  A    between atoms: C2_2  and  C3_3 
REMARK    2  A    between atoms: C3_3  and  C4_4 
REMARK    3  A    between atoms: C4_4  and  C5_5 
REMARK    4  A    between atoms: C5_5  and  O1_6 
REMARK    5  A    between atoms: C5_5  and  C8_10 
REMARK    6  A    between atoms: O1_6  and  C6_7 
REMARK       I    between atoms: C8_10  and  N1_12 
REMARK       I    between atoms: N1_12  and  C9_14 
REMARK    7  A    between atoms: C9_14  and  C10_16 
REMARK    8  A    between atoms: C11_17  and  C12_18 
REMARK    9  A    between atoms: C12_18  and  N2_19 
REMARK       I    between atoms: N2_19  and  C13_21 
REMARK   10  A    between atoms: C13_21  and  C14_23 
REMARK   11  A    between atoms: C14_23  and  C15_24 
REMARK   12  A    between atoms: C14_23  and  N3_28 
REMARK   13  A    between atoms: C15_24  and  C16_25 
REMARK       I    between atoms: N3_28  and  C19_30 
REMARK   14  A    between atoms: C19_30  and  C20_32 
REMARK   15  A    between atoms: N4_40  and  C27_41 
REMARK   16  A    between atoms: C27_41  and  C28_42 
ROOT
HETATM    1  C10 UNL     1       2.064  -2.399  -1.151  1.00  0.00     0.322 C 
HETATM    2  C11 UNL     1       0.678  -2.042  -0.775  1.00  0.00     0.079 C 
HETATM    3  C25 UNL     1       0.304  -3.282  -1.545  1.00  0.00     0.228 C 
HETATM    4  C26 UNL     1      -0.924  -3.004  -2.386  1.00  0.00     0.043 C 
HETATM    5  N4  UNL     1       1.553  -3.204  -2.230  1.00  0.00     0.107 N 
ENDROOT
BRANCH   2   6
HETATM    6  C12 UNL     1       0.331  -2.194   0.694  1.00  0.00     0.132 C 
BRANCH   6   7
HETATM    7  N2  UNL     1      -1.017  -1.828   0.991  1.00  0.00    -0.359 N 
HETATM    8  C13 UNL     1      -1.565  -0.548   0.792  1.00  0.00     0.240 C 
HETATM    9  O5  UNL     1      -0.849   0.361   0.324  1.00  0.00    -0.271 OA
ATOM     10  H2  UNL     1      -1.628  -2.548   1.376  1.00  0.00     0.162 HD
BRANCH   8  11
HETATM   11  C14 UNL     1      -3.001  -0.200   1.117  1.00  0.00     0.177 C 
BRANCH  11  12
HETATM   12  C15 UNL     1      -3.196  -0.566   2.536  1.00  0.00     0.038 C 
BRANCH  12  13
HETATM   13  C16 UNL     1      -4.536  -0.343   3.133  1.00  0.00    -0.020 C 
HETATM   14  C17 UNL     1      -5.638  -1.104   2.425  1.00  0.00     0.009 C 
HETATM   15  C18 UNL     1      -4.915   1.081   3.375  1.00  0.00     0.009 C 
ENDBRANCH  12  13
ENDBRANCH  11  12
BRANCH  11  16
HETATM   16  N3  UNL     1      -3.258   1.176   0.816  1.00  0.00    -0.347 N 
HETATM   17  C19 UNL     1      -4.099   1.614  -0.244  1.00  0.00     0.222 C 
HETATM   18  O6  UNL     1      -4.630   0.680  -0.921  1.00  0.00    -0.273 OA
ATOM     19  H3  UNL     1      -2.811   1.885   1.397  1.00  0.00     0.163 HD
BRANCH  17  20
HETATM   20  C20 UNL     1      -4.370   3.028  -0.582  1.00  0.00     0.082 C 
HETATM   21  C21 UNL     1      -4.998   3.802   0.504  1.00  0.00     0.040 C 
HETATM   22  C22 UNL     1      -6.497   3.803   0.502  1.00  0.00     0.168 C 
HETATM   23  O7  UNL     1      -7.040   3.852  -0.771  1.00  0.00    -0.391 OA
HETATM   24  C23 UNL     1      -6.627   2.834  -1.602  1.00  0.00     0.168 C 
HETATM   25  C24 UNL     1      -5.149   3.051  -1.879  1.00  0.00     0.040 C 
ENDBRANCH  17  20
ENDBRANCH  11  16
ENDBRANCH   8  11
ENDBRANCH   6   7
ENDBRANCH   2   6
BRANCH   1  26
HETATM   26  C9  UNL     1       2.944  -1.282  -1.570  1.00  0.00     0.258 C 
HETATM   27  N1  UNL     1       3.446  -0.408  -0.577  1.00  0.00    -0.294 N 
HETATM   28  C8  UNL     1       4.277   0.675  -0.902  1.00  0.00     0.254 C 
ATOM     29  H1  UNL     1       3.198  -0.569   0.399  1.00  0.00     0.171 HD
HETATM   30  O3  UNL     1       4.612   0.904  -2.087  1.00  0.00    -0.270 OA
HETATM   31  O4  UNL     1       3.263  -1.076  -2.765  1.00  0.00    -0.271 OA
BRANCH  28  32
HETATM   32  C5  UNL     1       4.795   1.601   0.153  1.00  0.00     0.224 C 
BRANCH  32  33
HETATM   33  C4  UNL     1       4.329   2.984  -0.141  1.00  0.00     0.042 C 
BRANCH  33  34
HETATM   34  C3  UNL     1       4.816   4.004   0.832  1.00  0.00     0.003 C 
BRANCH  34  35
HETATM   35  C2  UNL     1       6.319   4.126   0.850  1.00  0.00    -0.004 C 
HETATM   36  C1  UNL     1       6.717   5.184   1.875  1.00  0.00     0.005 C 
ENDBRANCH  34  35
ENDBRANCH  33  34
ENDBRANCH  32  33
BRANCH  32  37
HETATM   37  O1  UNL     1       4.331   1.206   1.413  1.00  0.00    -0.307 OA
BRANCH  37  38
HETATM   38  C6  UNL     1       5.081   0.773   2.478  1.00  0.00     0.255 C 
HETATM   39  C7  UNL     1       4.394   0.401   3.744  1.00  0.00     0.126 C 
HETATM   40  O2  UNL     1       6.322   0.702   2.355  1.00  0.00    -0.266 OA
ENDBRANCH  37  38
ENDBRANCH  32  37
ENDBRANCH  28  32
ENDBRANCH   1  26
BRANCH   5  41
HETATM   41  C27 UNL     1       2.303  -4.440  -2.315  1.00  0.00     0.278 C 
BRANCH  41  42
HETATM   42  C28 UNL     1       1.827  -5.354  -3.418  1.00  0.00     0.006 C 
HETATM   43  C29 UNL     1       1.926  -4.743  -4.790  1.00  0.00     0.011 C 
HETATM   44  C30 UNL     1       2.705  -6.587  -3.390  1.00  0.00     0.011 C 
ENDBRANCH  41  42
ENDBRANCH   5  41
TORSDOF 16
