REMARK  17 active torsions:
REMARK  status: ('A' for Active; 'I' for Inactive)
REMARK       I    between atoms: C1_2  and  N1_3 
REMARK       I    between atoms: C1_2  and  N3_20 
REMARK    1  A    between atoms: N1_3  and  C2_5 
REMARK    2  A    between atoms: C2_5  and  C3_6 
REMARK    3  A    between atoms: C2_5  and  C13_17 
REMARK    4  A    between atoms: C3_6  and  C4_7 
REMARK    5  A    between atoms: C4_7  and  C5_8 
REMARK    6  A    between atoms: C5_8  and  C6_9 
REMARK    7  A    between atoms: C6_9  and  C7_10 
REMARK    8  A    between atoms: C7_10  and  N2_11 
REMARK    9  A    between atoms: N3_20  and  C14_22 
REMARK   10  A    between atoms: C14_22  and  C15_23 
REMARK   11  A    between atoms: C14_22  and  C19_27 
REMARK   12  A    between atoms: C15_23  and  C16_24 
REMARK   13  A    between atoms: C19_27  and  O4_28 
REMARK   14  A    between atoms: C19_27  and  N4_30 
REMARK   15  A    between atoms: C23_34  and  C24_35 
REMARK       I    between atoms: C24_35  and  N5_37 
REMARK   16  A    between atoms: C25_39  and  C26_40 
REMARK   17  A    between atoms: C26_40  and  C27_41 
ROOT
HETATM    1  C14 UNL     1      -2.369   0.671  -1.237  1.00  0.00     0.161 C 
ENDROOT
BRANCH   1   2
HETATM    2  N3  UNL     1      -0.983   1.178  -1.141  1.00  0.00    -0.331 N 
HETATM    3  C1  UNL     1      -0.161   0.914  -0.018  1.00  0.00     0.317 C 
HETATM    4  O1  UNL     1      -0.654   0.229   0.906  1.00  0.00    -0.247 OA
HETATM    5  N1  UNL     1       1.166   1.379   0.102  1.00  0.00    -0.329 N 
ATOM      6  H1  UNL     1       1.537   1.937  -0.667  1.00  0.00     0.165 HD
ATOM      7  H3  UNL     1      -0.607   1.736  -1.908  1.00  0.00     0.165 HD
BRANCH   5   8
HETATM    8  C2  UNL     1       2.044   1.130   1.225  1.00  0.00     0.187 C 
BRANCH   8   9
HETATM    9  C3  UNL     1       2.317  -0.328   1.315  1.00  0.00     0.036 C 
BRANCH   9  10
HETATM   10  C4  UNL     1       3.216  -0.773   2.411  1.00  0.00     0.002 C 
BRANCH  10  11
HETATM   11  C5  UNL     1       4.600  -0.202   2.394  1.00  0.00     0.002 C 
BRANCH  11  12
HETATM   12  C6  UNL     1       5.345  -0.564   1.099  1.00  0.00     0.030 C 
BRANCH  12  13
HETATM   13  C7  UNL     1       6.716   0.062   1.224  1.00  0.00     0.272 C 
BRANCH  13  14
HETATM   14  N2  UNL     1       7.525  -0.185   0.074  1.00  0.00     0.088 N 
HETATM   15  C8  UNL     1       8.809   0.477   0.317  1.00  0.00     0.272 C 
HETATM   16  C9  UNL     1       9.952  -0.294  -0.340  1.00  0.00     0.030 C 
HETATM   17  C10 UNL     1      10.123  -1.643   0.285  1.00  0.00     0.003 C 
HETATM   18  C11 UNL     1       8.766  -2.114   0.767  1.00  0.00     0.030 C 
HETATM   19  C12 UNL     1       7.757  -1.557  -0.237  1.00  0.00     0.272 C 
ENDBRANCH  13  14
ENDBRANCH  12  13
ENDBRANCH  11  12
ENDBRANCH  10  11
ENDBRANCH   9  10
ENDBRANCH   8   9
BRANCH   8  20
HETATM   20  C13 UNL     1       1.457   1.754   2.409  1.00  0.00     0.196 C 
HETATM   21  O2  UNL     1       0.385   2.401   2.465  1.00  0.00    -0.646 OA
HETATM   22  O3  UNL     1       2.136   1.642   3.639  1.00  0.00    -0.646 OA
ENDBRANCH   8  20
ENDBRANCH   5   8
ENDBRANCH   1   2
BRANCH   1  23
HETATM   23  C15 UNL     1      -3.251   1.898  -1.267  1.00  0.00     0.038 C 
BRANCH  23  24
HETATM   24  C16 UNL     1      -2.973   2.793  -2.442  1.00  0.00    -0.012 A 
HETATM   25  C17 UNL     1      -3.838   4.027  -2.514  1.00  0.00     0.005 A 
HETATM   26  C18 UNL     1      -2.386   4.166  -2.168  1.00  0.00     0.005 A 
ENDBRANCH  23  24
ENDBRANCH   1  23
BRANCH   1  27
HETATM   27  C19 UNL     1      -2.493  -0.222  -2.389  1.00  0.00     0.137 C 
BRANCH  27  28
HETATM   28  O4  UNL     1      -1.428  -0.367  -3.128  1.00  0.00    -0.348 OA
ATOM     29  H4  UNL     1      -1.509  -0.947  -3.876  1.00  0.00     0.219 HD
ENDBRANCH  27  28
BRANCH  27  30
HETATM   30  N4  UNL     1      -3.613  -0.950  -2.808  1.00  0.00    -0.350 N 
HETATM   31  C20 UNL     1      -3.569  -1.810  -4.011  1.00  0.00     0.126 C 
HETATM   32  C21 UNL     1      -4.988  -1.714  -4.541  1.00  0.00     0.022 C 
HETATM   33  C22 UNL     1      -5.784  -1.725  -3.272  1.00  0.00     0.037 C 
HETATM   34  C23 UNL     1      -4.922  -1.045  -2.253  1.00  0.00     0.178 C 
BRANCH  34  35
HETATM   35  C24 UNL     1      -4.952  -1.798  -0.957  1.00  0.00     0.244 C 
HETATM   36  O5  UNL     1      -3.906  -2.349  -0.572  1.00  0.00    -0.271 OA
HETATM   37  N5  UNL     1      -6.179  -1.835  -0.245  1.00  0.00    -0.339 N 
HETATM   38  C25 UNL     1      -6.876  -0.746  -0.037  1.00  0.00     0.070 C 
ATOM     39  H5  UNL     1      -6.524  -2.726   0.111  1.00  0.00     0.167 HD
BRANCH  38  40
HETATM   40  C26 UNL     1      -8.149  -0.775   0.699  1.00  0.00     0.103 C 
BRANCH  40  41
HETATM   41  C27 UNL     1      -7.888  -0.829   2.161  1.00  0.00     0.029 A 
HETATM   42  C28 UNL     1      -7.771  -2.027   2.812  1.00  0.00     0.113 A 
HETATM   43  N6  UNL     1      -7.533  -2.095   4.151  1.00  0.00    -0.372 N 
HETATM   44  C29 UNL     1      -7.407  -0.965   4.869  1.00  0.00     0.104 A 
ATOM     45  H6  UNL     1      -7.450  -3.003   4.609  1.00  0.00     0.164 HD
HETATM   46  C30 UNL     1      -7.525   0.249   4.216  1.00  0.00     0.105 A 
HETATM   47  N7  UNL     1      -7.763   0.300   2.874  1.00  0.00    -0.366 N 
ATOM     48  H7  UNL     1      -7.847   1.204   2.409  1.00  0.00     0.165 HD
ENDBRANCH  40  41
ENDBRANCH  38  40
ENDBRANCH  34  35
ENDBRANCH  27  30
ENDBRANCH   1  27
TORSDOF 17
