REMARK  7 active torsions:
REMARK  status: ('A' for Active; 'I' for Inactive)
REMARK    1  A    between atoms: C2_2  and  O1_5 
REMARK    2  A    between atoms: O1_5  and  C5_6 
REMARK       I    between atoms: C5_6  and  N1_8 
REMARK    3  A    between atoms: N1_8  and  C6_10 
REMARK    4  A    between atoms: N2_14  and  C9_15 
REMARK    5  A    between atoms: C9_15  and  C10_16 
REMARK    6  A    between atoms: C10_16  and  C11_17 
REMARK    7  A    between atoms: C12_18  and  C13_19 
ROOT
HETATM    1  C6  UNL     1      -0.846   0.779  -0.958  1.00  0.00     0.113 C 
HETATM    2  C7  UNL     1      -0.343   1.510  -2.197  1.00  0.00     0.129 C 
HETATM    3  C8  UNL     1       0.978   2.054  -1.818  1.00  0.00     0.221 C 
HETATM    4  O3  UNL     1       1.716   2.705  -2.600  1.00  0.00    -0.273 OA
HETATM    5  N2  UNL     1       1.197   1.688  -0.457  1.00  0.00    -0.350 N 
HETATM    6  C18 UNL     1      -0.116   1.467   0.174  1.00  0.00     0.151 C 
ENDROOT
BRANCH   5   7
HETATM    7  C9  UNL     1       2.507   1.570   0.142  1.00  0.00     0.130 C 
BRANCH   7   8
HETATM    8  C10 UNL     1       3.058   0.164  -0.002  1.00  0.00     0.062 C 
BRANCH   8   9
HETATM    9  C11 UNL     1       4.386  -0.010   0.596  1.00  0.00    -0.003 A 
HETATM   10  C12 UNL     1       4.611  -0.176   1.946  1.00  0.00     0.018 A 
HETATM   11  C14 UNL     1       5.898  -0.316   2.478  1.00  0.00     0.058 A 
HETATM   12  C15 UNL     1       6.969  -0.288   1.626  1.00  0.00     0.158 A 
HETATM   13  F3  UNL     1       8.220  -0.422   2.127  1.00  0.00    -0.203 F 
HETATM   14  C16 UNL     1       6.787  -0.125   0.265  1.00  0.00     0.193 A 
HETATM   15  F4  UNL     1       7.882  -0.106  -0.526  1.00  0.00    -0.200 F 
HETATM   16  C17 UNL     1       5.522   0.009  -0.223  1.00  0.00     0.165 A 
HETATM   17  F5  UNL     1       5.343   0.169  -1.551  1.00  0.00    -0.202 F 
BRANCH  10  18
HETATM   18  C13 UNL     1       3.502  -0.238   2.898  1.00  0.00     0.387 C 
HETATM   19  F1  UNL     1       3.618   0.724   3.900  1.00  0.00    -0.209 F 
HETATM   20  F2  UNL     1       3.600  -1.464   3.562  1.00  0.00    -0.209 F 
ENDBRANCH  10  18
ENDBRANCH   8   9
ENDBRANCH   7   8
ENDBRANCH   5   7
BRANCH   1  21
HETATM   21  N1  UNL     1      -2.261   0.904  -0.901  1.00  0.00    -0.330 N 
HETATM   22  C5  UNL     1      -3.174  -0.184  -0.898  1.00  0.00     0.361 C 
HETATM   23  O2  UNL     1      -2.681  -1.340  -0.950  1.00  0.00    -0.238 OA
ATOM     24  H1  UNL     1      -2.650   1.846  -0.859  1.00  0.00     0.165 HD
BRANCH  22  25
HETATM   25  O1  UNL     1      -4.534  -0.049  -0.843  1.00  0.00    -0.294 OA
BRANCH  25  26
HETATM   26  C2  UNL     1      -5.452  -1.123  -0.840  1.00  0.00     0.061 C 
HETATM   27  C1  UNL     1      -6.848  -0.529  -0.770  1.00  0.00     0.046 C 
HETATM   28  C3  UNL     1      -5.323  -2.020  -2.028  1.00  0.00     0.046 C 
HETATM   29  C4  UNL     1      -5.287  -1.986   0.416  1.00  0.00     0.046 C 
ENDBRANCH  25  26
ENDBRANCH  22  25
ENDBRANCH   1  21
TORSDOF 7
