REMARK  2 active torsions:
REMARK  status: ('A' for Active; 'I' for Inactive)
REMARK    1  A    between atoms: C9_12  and  C10_13 
REMARK    2  A    between atoms: C10_13  and  O1_17 
ROOT
HETATM    1  C1  UNL     1      -0.286   3.008  -0.185  1.00  0.00     0.036 C 
HETATM    2  C2  UNL     1      -0.482   1.573  -0.693  1.00  0.00     0.101 A 
HETATM    3  C3  UNL     1       0.749   0.842  -0.480  1.00  0.00     0.011 A 
HETATM    4  C4  UNL     1       0.831  -0.357   0.158  1.00  0.00    -0.009 A 
HETATM    5  C5  UNL     1       1.937  -1.100   0.396  1.00  0.00    -0.013 A 
HETATM    6  C6  UNL     1       3.333  -0.675  -0.042  1.00  0.00     0.127 A 
HETATM    7 BR1  UNL     1       4.634  -1.956   0.458  1.00  0.00    -0.086 Br
HETATM    8  C7  UNL     1       1.770  -2.280   1.061  1.00  0.00     0.059 A 
HETATM    9 BR2  UNL     1       3.123  -3.566   1.557  1.00  0.00    -0.048 Br
HETATM   10  S1  UNL     1       0.094  -2.340   1.344  1.00  0.00    -0.079 SA
HETATM   11  C8  UNL     1      -0.352  -0.867   0.611  1.00  0.00     0.047 A 
HETATM   12  C9  UNL     1      -1.545  -0.266   0.463  1.00  0.00     0.097 A 
HETATM   13  N2  UNL     1      -1.677   0.992  -0.199  1.00  0.00    -0.378 N 
ATOM     14  H2  UNL     1      -2.582   1.448  -0.311  1.00  0.00     0.160 HD
ENDROOT
BRANCH  12  15
HETATM   15  C10 UNL     1      -2.710  -0.920   0.992  1.00  0.00     0.162 C 
HETATM   16  N1  UNL     1      -3.860  -0.380   0.870  1.00  0.00    -0.378 N 
ATOM     17  H12 UNL     1      -3.944   0.519   0.395  1.00  0.00     0.158 HD
ATOM     18  H11 UNL     1      -4.687  -0.844   1.246  1.00  0.00     0.158 HD
BRANCH  15  19
HETATM   19  O1  UNL     1      -2.596  -2.139   1.636  1.00  0.00    -0.345 OA
ATOM     20  H1  UNL     1      -3.366  -2.571   1.986  1.00  0.00     0.219 HD
ENDBRANCH  15  19
ENDBRANCH  12  15
TORSDOF 2
