REMARK  12 active torsions:
REMARK  status: ('A' for Active; 'I' for Inactive)
REMARK    1  A    between atoms: N2_5  and  C4_6 
REMARK    2  A    between atoms: C4_6  and  C5_7 
REMARK    3  A    between atoms: C5_7  and  C6_8 
REMARK    4  A    between atoms: C6_8  and  N3_9 
REMARK    5  A    between atoms: N3_9  and  C7_11 
REMARK    6  A    between atoms: C7_11  and  N4_12 
REMARK    7  A    between atoms: C7_11  and  S1_21 
REMARK    8  A    between atoms: N4_12  and  C8_14 
REMARK    9  A    between atoms: C8_14  and  C9_15 
REMARK   10  A    between atoms: C9_15  and  C10_16 
REMARK   11  A    between atoms: C10_16  and  N5_17 
REMARK   12  A    between atoms: S1_21  and  C11_22 
ROOT
HETATM    1  C7  UNL     1      -1.919  -0.700  -0.209  1.00  0.00     0.137 C 
ENDROOT
BRANCH   1   2
HETATM    2  N3  UNL     1      -0.712   0.027  -0.607  1.00  0.00    -0.371 N 
ATOM      3  H3  UNL     1      -0.233  -0.284  -1.452  1.00  0.00     0.161 HD
BRANCH   2   4
HETATM    4  C6  UNL     1      -0.156   1.131   0.091  1.00  0.00     0.123 C 
BRANCH   4   5
HETATM    5  C5  UNL     1       0.553   0.753   1.369  1.00  0.00     0.039 C 
BRANCH   5   6
HETATM    6  C4  UNL     1       1.710  -0.178   1.052  1.00  0.00     0.118 C 
BRANCH   6   7
HETATM    7  N2  UNL     1       2.680   0.376   0.185  1.00  0.00    -0.409 N 
HETATM    8  C3  UNL     1       3.452   1.446   0.698  1.00  0.00     0.136 C 
HETATM    9  C2  UNL     1       4.902   1.357   0.431  1.00  0.00     0.135 C 
HETATM   10  N1  UNL     1       5.281   0.861  -0.842  1.00  0.00    -0.414 N 
HETATM   11  C1  UNL     1       6.549   0.191  -0.834  1.00  0.00     0.143 C 
HETATM   12  C13 UNL     1       4.256   0.236  -1.606  1.00  0.00     0.135 C 
HETATM   13  C12 UNL     1       3.353  -0.536  -0.670  1.00  0.00     0.136 C 
ENDBRANCH   6   7
ENDBRANCH   5   6
ENDBRANCH   4   5
ENDBRANCH   2   4
ENDBRANCH   1   2
BRANCH   1  14
HETATM   14  N4  UNL     1      -2.592  -0.237   0.916  1.00  0.00    -0.371 N 
ATOM     15  H4  UNL     1      -2.149   0.566   1.362  1.00  0.00     0.161 HD
BRANCH  14  16
HETATM   16  C8  UNL     1      -3.784  -0.673   1.564  1.00  0.00     0.123 C 
BRANCH  16  17
HETATM   17  C9  UNL     1      -5.065  -0.336   0.890  1.00  0.00     0.047 C 
BRANCH  17  18
HETATM   18  C10 UNL     1      -5.259   1.171   0.755  1.00  0.00     0.231 C 
BRANCH  18  19
HETATM   19  N5  UNL     1      -6.519   1.430   0.093  1.00  0.00    -0.079 N 
ATOM     20  H53 UNL     1      -6.592   0.948  -0.803  1.00  0.00     0.274 HD
ATOM     21  H52 UNL     1      -7.304   0.979   0.563  1.00  0.00     0.274 HD
ATOM     22  H51 UNL     1      -6.649   2.438   0.003  1.00  0.00     0.274 HD
ENDBRANCH  18  19
ENDBRANCH  17  18
ENDBRANCH  16  17
ENDBRANCH  14  16
ENDBRANCH   1  14
BRANCH   1  23
HETATM   23  S1  UNL     1      -2.286  -1.983  -1.092  1.00  0.00    -0.080 SA
BRANCH  23  24
HETATM   24  C11 UNL     1      -3.640  -3.149  -0.969  1.00  0.00     0.197 C 
HETATM   25 CL1  UNL     1      -4.797  -2.990  -2.318  1.00  0.00    -0.119 Cl
ENDBRANCH  23  24
ENDBRANCH   1  23
TORSDOF 12
