REMARK  12 active torsions:
REMARK  status: ('A' for Active; 'I' for Inactive)
REMARK    1  A    between atoms: S1_2  and  C2_3 
REMARK    2  A    between atoms: C2_3  and  C3_4 
REMARK    3  A    between atoms: C2_3  and  C16_41 
REMARK       I    between atoms: C3_4  and  N1_6 
REMARK    4  A    between atoms: N1_6  and  C4_8 
REMARK    5  A    between atoms: C6_11  and  C7_12 
REMARK    6  A    between atoms: C7_12  and  C8_13 
REMARK    7  A    between atoms: C8_13  and  C9_18 
REMARK    8  A    between atoms: N2_14  and  O2_16 
REMARK       I    between atoms: C9_18  and  N3_20 
REMARK    9  A    between atoms: N3_20  and  C10_22 
REMARK   10  A    between atoms: C10_22  and  C11_23 
REMARK   11  A    between atoms: N7_32  and  N8_33 
REMARK       I    between atoms: N8_33  and  C13_35 
REMARK   12  A    between atoms: C15_38  and  O5_39 
ROOT
HETATM    1  C8  UNL     1      -2.116  -1.808   0.228  1.00  0.00     0.104 C 
HETATM    2  N2  UNL     1      -1.761  -2.534  -0.720  1.00  0.00    -0.268 N 
ATOM      3  H2  UNL     1      -2.527  -2.702  -1.372  1.00  0.00     0.194 HD
ENDROOT
BRANCH   1   4
HETATM    4  C7  UNL     1      -1.282  -1.373   1.327  1.00  0.00     0.114 C 
BRANCH   4   5
HETATM    5  C6  UNL     1       0.147  -1.774   1.119  1.00  0.00     0.024 A 
HETATM    6  S2  UNL     1       0.989  -3.078   1.799  1.00  0.00    -0.101 SA
HETATM    7  C5  UNL     1       2.516  -2.823   1.079  1.00  0.00     0.082 A 
HETATM    8  C4  UNL     1       2.331  -1.708   0.313  1.00  0.00     0.075 A 
HETATM    9  C15 UNL     1       1.083  -1.160   0.337  1.00  0.00     0.106 A 
BRANCH   8  10
HETATM   10  N1  UNL     1       3.385  -1.116  -0.497  1.00  0.00    -0.323 N 
HETATM   11  C3  UNL     1       4.695  -1.578  -0.585  1.00  0.00     0.240 C 
HETATM   12  O1  UNL     1       5.118  -2.566   0.032  1.00  0.00    -0.272 OA
ATOM     13  H1  UNL     1       3.143  -0.292  -1.047  1.00  0.00     0.169 HD
BRANCH  11  14
HETATM   14  C2  UNL     1       5.701  -0.887  -1.456  1.00  0.00     0.173 C 
BRANCH  14  15
HETATM   15  S1  UNL     1       7.251  -1.790  -1.505  1.00  0.00    -0.154 SA
HETATM   16  C1  UNL     1       8.128  -1.840   0.054  1.00  0.00     0.091 C 
ENDBRANCH  14  15
BRANCH  14  17
HETATM   17  C16 UNL     1       5.846   0.516  -1.011  1.00  0.00    -0.019 A 
HETATM   18  C17 UNL     1       5.617   1.548  -1.899  1.00  0.00     0.015 A 
HETATM   19  C18 UNL     1       5.746   2.880  -1.500  1.00  0.00     0.075 A 
HETATM   20  C19 UNL     1       6.106   3.123  -0.208  1.00  0.00     0.246 A 
HETATM   21  O6  UNL     1       6.226   4.307   0.165  1.00  0.00    -0.268 OA
HETATM   22  N9  UNL     1       6.336   2.127   0.682  1.00  0.00    -0.328 N 
HETATM   23  C20 UNL     1       6.713   2.487   2.033  1.00  0.00     0.159 C 
HETATM   24  C21 UNL     1       6.207   0.848   0.280  1.00  0.00     0.102 A 
ENDBRANCH  14  17
ENDBRANCH  11  14
ENDBRANCH   8  10
BRANCH   9  25
HETATM   25  O5  UNL     1       0.725   0.008  -0.410  1.00  0.00    -0.357 OA
ATOM     26  H5  UNL     1      -0.145   0.390  -0.393  1.00  0.00     0.217 HD
ENDBRANCH   9  25
ENDBRANCH   4   5
ENDBRANCH   1   4
BRANCH   1  27
HETATM   27  C9  UNL     1      -3.534  -1.381   0.253  1.00  0.00     0.266 C 
HETATM   28  O3  UNL     1      -4.266  -1.781  -0.678  1.00  0.00    -0.266 OA
HETATM   29  N3  UNL     1      -3.974  -0.558   1.310  1.00  0.00    -0.349 N 
ATOM     30  H3  UNL     1      -3.329  -0.268   2.045  1.00  0.00     0.163 HD
BRANCH  29  31
HETATM   31  C10 UNL     1      -5.390  -0.122   1.335  1.00  0.00     0.203 C 
BRANCH  31  32
HETATM   32  C11 UNL     1      -5.680   0.708   0.146  1.00  0.00     0.154 A 
HETATM   33  N4  UNL     1      -4.674   1.151  -0.666  1.00  0.00    -0.271 N 
HETATM   34  N5  UNL     1      -5.186   1.825  -1.636  1.00  0.00    -0.129 N 
ATOM     35  H4  UNL     1      -3.679   0.976  -0.526  1.00  0.00     0.189 HD
HETATM   36  C12 UNL     1      -6.505   1.849  -1.503  1.00  0.00     0.713 A 
ATOM     37  H5  UNL     1      -4.660   2.270  -2.388  1.00  0.00     0.205 HD
HETATM   38  N6  UNL     1      -7.381   2.412  -2.255  1.00  0.00    -0.232 N 
HETATM   39  N7  UNL     1      -6.829   1.130  -0.353  1.00  0.00    -0.067 N 
ATOM     40  H62 UNL     1      -7.144   2.938  -3.096  1.00  0.00     0.174 HD
ATOM     41  H61 UNL     1      -8.396   2.430  -2.153  1.00  0.00     0.174 HD
BRANCH  39  42
HETATM   42  N8  UNL     1      -8.129   0.998   0.089  1.00  0.00    -0.248 N 
HETATM   43  C13 UNL     1      -8.712   0.486   1.213  1.00  0.00     0.233 C 
HETATM   44  C14 UNL     1     -10.268   0.551   1.262  1.00  0.00     0.119 C 
HETATM   45  O4  UNL     1      -8.241  -0.035   2.234  1.00  0.00    -0.272 OA
ATOM     46  H8  UNL     1      -8.810   1.367  -0.575  1.00  0.00     0.191 HD
ENDBRANCH  39  42
ENDBRANCH  31  32
ENDBRANCH  29  31
ENDBRANCH   1  27
BRANCH   2  47
HETATM   47  O2  UNL     1      -0.654  -3.144  -1.104  1.00  0.00    -0.290 OA
ATOM     48  H2  UNL     1      -0.383  -3.698  -1.827  1.00  0.00     0.244 HD
ENDBRANCH   2  47
TORSDOF 12
