REMARK  1 active torsions:
REMARK  status: ('A' for Active; 'I' for Inactive)
REMARK    1  A    between atoms: C7_7  and  N1_8 
ROOT
HETATM    1  C1  UNL     1      -2.187   0.429   0.257  1.00  0.00     0.012 C 
HETATM    2  C2  UNL     1      -0.841   0.463  -0.484  1.00  0.00     0.012 C 
HETATM    3  C3  UNL     1      -0.549  -0.865  -1.081  1.00  0.00     0.006 C 
HETATM    4  C4  UNL     1       0.088  -1.803  -0.083  1.00  0.00     0.000 C 
HETATM    5  C5  UNL     1       1.403  -1.162   0.293  1.00  0.00     0.002 C 
HETATM    6  C6  UNL     1       1.254   0.182   0.910  1.00  0.00     0.033 C 
HETATM    7  C7  UNL     1       0.217   1.062   0.344  1.00  0.00     0.187 C 
ENDROOT
BRANCH   7   8
HETATM    8  N1  UNL     1       0.889   2.157  -0.382  1.00  0.00    -0.075 N 
ATOM      9  H13 UNL     1       1.246   1.848  -1.286  1.00  0.00     0.274 HD
ATOM     10  H12 UNL     1       0.224   2.857  -0.711  1.00  0.00     0.274 HD
ATOM     11  H11 UNL     1       1.623   2.572   0.192  1.00  0.00     0.274 HD
ENDBRANCH   7   8
TORSDOF 1
