REMARK  0 active torsions:
REMARK  status: ('A' for Active; 'I' for Inactive)
ROOT
HETATM    1  C1  UNL     1      -1.318  -1.322   0.112  1.00  0.00     0.015 C 
HETATM    2  C2  UNL     1      -0.790   0.073  -0.096  1.00  0.00    -0.047 C 
HETATM    3  C3  UNL     1      -1.852   1.088  -0.349  1.00  0.00     0.015 C 
HETATM    4  C4  UNL     1       0.252   0.047  -1.204  1.00  0.00     0.013 C 
HETATM    5  C5  UNL     1       1.419  -0.605  -0.497  1.00  0.00    -0.009 A 
HETATM    6  C6  UNL     1       2.436   0.318   0.040  1.00  0.00     0.010 A 
HETATM    7  C7  UNL     1       1.385  -0.168   0.930  1.00  0.00    -0.009 A 
HETATM    8  C8  UNL     1       0.065   0.494   1.093  1.00  0.00     0.013 C 
ENDROOT
TORSDOF 0
