REMARK  9 active torsions:
REMARK  status: ('A' for Active; 'I' for Inactive)
REMARK    1  A    between atoms: C2_2  and  C3_3 
REMARK    2  A    between atoms: C3_3  and  C4_4 
REMARK    3  A    between atoms: C5_5  and  C6_6 
REMARK    4  A    between atoms: C7_7  and  O1_8 
REMARK    5  A    between atoms: C8_10  and  C9_11 
REMARK    6  A    between atoms: N1_12  and  C10_14 
REMARK    7  A    between atoms: C10_14  and  C11_15 
REMARK    8  A    between atoms: C16_22  and  O4_23 
REMARK    9  A    between atoms: C22_30  and  O5_31 
ROOT
HETATM    1  C6  UNL     1      -0.975   0.744  -0.323  1.00  0.00     0.033 A 
HETATM    2  C7  UNL     1       0.262   0.548   0.386  1.00  0.00     0.093 A 
HETATM    3  C8  UNL     1       0.589  -0.617   0.930  1.00  0.00     0.048 A 
HETATM    4  C14 UNL     1      -0.329  -1.698   0.823  1.00  0.00     0.107 A 
HETATM    5  O2  UNL     1       0.071  -2.828   1.436  1.00  0.00    -0.271 OA
HETATM    6  C15 UNL     1      -0.674  -3.857   1.425  1.00  0.00     0.322 A 
HETATM    7  O3  UNL     1      -0.344  -4.940   1.984  1.00  0.00    -0.257 OA
HETATM    8  C16 UNL     1      -1.885  -3.752   0.763  1.00  0.00     0.153 A 
HETATM    9  C17 UNL     1      -2.400  -2.618   0.089  1.00  0.00     0.021 A 
HETATM   10  C18 UNL     1      -3.675  -2.769  -0.530  1.00  0.00    -0.073 C 
HETATM   11  C19 UNL     1      -4.295  -2.262  -1.743  1.00  0.00     0.044 C 
HETATM   12  C20 UNL     1      -4.798  -3.129   0.495  1.00  0.00     0.044 C 
HETATM   13  C21 UNL     1      -1.525  -1.561   0.163  1.00  0.00     0.046 A 
HETATM   14  C22 UNL     1      -1.844  -0.328  -0.413  1.00  0.00     0.092 A 
ENDROOT
BRANCH   3  15
HETATM   15  C9  UNL     1       1.977  -0.997   1.319  1.00  0.00     0.104 C 
HETATM   16  N1  UNL     1       3.088  -0.527   1.149  1.00  0.00    -0.378 N 
ATOM     17  H1  UNL     1       3.715  -1.174   1.627  1.00  0.00     0.164 HD
BRANCH  16  18
HETATM   18  C10 UNL     1       3.914   0.437   0.636  1.00  0.00     0.064 C 
BRANCH  18  19
HETATM   19  C11 UNL     1       5.347   0.008   0.333  1.00  0.00     0.016 C 
HETATM   20  C12 UNL     1       6.028   1.277  -0.215  1.00  0.00     0.015 C 
HETATM   21  C13 UNL     1       6.041  -0.337   1.626  1.00  0.00     0.015 C 
ENDBRANCH  18  19
ENDBRANCH  16  18
ENDBRANCH   3  15
BRANCH   2  22
HETATM   22  O1  UNL     1       1.046   1.683   0.463  1.00  0.00    -0.359 OA
ATOM     23  H1  UNL     1       1.863   1.554   0.931  1.00  0.00     0.217 HD
ENDBRANCH   2  22
BRANCH   1  24
HETATM   24  C5  UNL     1      -1.192   2.054  -0.797  1.00  0.00     0.025 C 
HETATM   25  C4  UNL     1      -1.738   2.722  -1.803  1.00  0.00     0.051 C 
BRANCH  25  26
HETATM   26  C3  UNL     1      -1.589   4.208  -1.644  1.00  0.00    -0.156 C 
BRANCH  26  27
HETATM   27  C2  UNL     1      -1.497   5.350  -1.569  1.00  0.00     0.080 C 
HETATM   28  C1  UNL     1      -0.820   5.765  -0.128  1.00  0.00     0.017 C 
ENDBRANCH  26  27
ENDBRANCH  25  26
ENDBRANCH   1  24
BRANCH  14  29
HETATM   29  O5  UNL     1      -3.026  -0.194  -1.051  1.00  0.00    -0.359 OA
ATOM     30  H5  UNL     1      -3.623  -0.930  -1.113  1.00  0.00     0.217 HD
ENDBRANCH  14  29
BRANCH   8  31
HETATM   31  O4  UNL     1      -2.692  -4.918   0.768  1.00  0.00    -0.355 OA
ATOM     32  H4  UNL     1      -3.523  -4.846   0.314  1.00  0.00     0.218 HD
ENDBRANCH   8  31
TORSDOF 9
