REMARK  12 active torsions:
REMARK  status: ('A' for Active; 'I' for Inactive)
REMARK    1  A    between atoms: C2_2  and  C3_4 
REMARK       I    between atoms: C3_4  and  N1_6 
REMARK    2  A    between atoms: N1_6  and  C4_8 
REMARK    3  A    between atoms: C4_8  and  C5_9 
REMARK    4  A    between atoms: C5_9  and  C6_10 
REMARK    5  A    between atoms: C6_10  and  C7_11 
REMARK    6  A    between atoms: C7_11  and  C8_12 
REMARK    7  A    between atoms: C8_12  and  N2_13 
REMARK       I    between atoms: N2_13  and  C9_15 
REMARK    8  A    between atoms: C9_15  and  C10_17 
REMARK    9  A    between atoms: C10_17  and  C11_18 
REMARK   10  A    between atoms: C11_18  and  C12_19 
REMARK   11  A    between atoms: C12_19  and  C13_20 
REMARK   12  A    between atoms: C13_20  and  C14_21 
ROOT
HETATM    1  N2  UNL     1       1.192  -0.983  -1.897  1.00  0.00    -0.361 N 
ATOM      2  H2  UNL     1       1.151  -0.117  -2.434  1.00  0.00     0.162 HD
HETATM    3  C9  UNL     1      -0.024  -1.487  -1.410  1.00  0.00     0.217 C 
HETATM    4  O2  UNL     1      -0.052  -2.541  -0.748  1.00  0.00    -0.274 OA
ENDROOT
BRANCH   1   5
HETATM    5  C8  UNL     1       2.482  -1.569  -1.711  1.00  0.00     0.122 C 
BRANCH   5   6
HETATM    6  C7  UNL     1       2.905  -1.692  -0.267  1.00  0.00     0.020 C 
BRANCH   6   7
HETATM    7  C6  UNL     1       2.946  -0.314   0.375  1.00  0.00     0.003 C 
BRANCH   7   8
HETATM    8  C5  UNL     1       3.873   0.637  -0.243  1.00  0.00     0.020 C 
BRANCH   8   9
HETATM    9  C4  UNL     1       5.323   0.440  -0.291  1.00  0.00     0.123 C 
BRANCH   9  10
HETATM   10  N1  UNL     1       6.111   0.437   0.890  1.00  0.00    -0.356 N 
HETATM   11  C3  UNL     1       6.156  -0.406   2.004  1.00  0.00     0.258 C 
HETATM   12  O1  UNL     1       5.410  -1.404   2.099  1.00  0.00    -0.267 OA
ATOM     13  H1  UNL     1       6.780   1.206   0.935  1.00  0.00     0.162 HD
BRANCH  11  14
HETATM   14  C2  UNL     1       7.061  -0.191   3.122  1.00  0.00     0.069 C 
HETATM   15  C1  UNL     1       7.893   0.811   3.154  1.00  0.00     0.037 C 
HETATM   16 BR1  UNL     1       7.035  -1.406   4.588  1.00  0.00    -0.046 Br
ENDBRANCH  11  14
ENDBRANCH   9  10
ENDBRANCH   8   9
ENDBRANCH   7   8
ENDBRANCH   6   7
ENDBRANCH   5   6
ENDBRANCH   1   5
BRANCH   3  17
HETATM   17  C10 UNL     1      -1.311  -0.793  -1.661  1.00  0.00     0.103 C 
BRANCH  17  18
HETATM   18  C11 UNL     1      -2.458  -1.526  -1.036  1.00  0.00     0.009 C 
BRANCH  18  19
HETATM   19  C12 UNL     1      -3.783  -0.840  -1.282  1.00  0.00     0.002 C 
BRANCH  19  20
HETATM   20  C13 UNL     1      -3.820   0.563  -0.721  1.00  0.00     0.033 C 
BRANCH  20  21
HETATM   21  C14 UNL     1      -5.192   1.130  -1.029  1.00  0.00     0.186 C 
HETATM   22  C15 UNL     1      -6.253   0.269  -0.377  1.00  0.00     0.034 C 
HETATM   23  C16 UNL     1      -7.243   1.272   0.215  1.00  0.00     0.029 C 
HETATM   24  C17 UNL     1      -6.812   2.562  -0.441  1.00  0.00     0.233 C 
HETATM   25  N3  UNL     1      -5.351   2.447  -0.402  1.00  0.00    -0.071 N 
ATOM     26  H32 UNL     1      -4.918   2.561   0.514  1.00  0.00     0.277 HD
ATOM     27  H31 UNL     1      -4.831   3.212  -0.831  1.00  0.00     0.277 HD
ENDBRANCH  20  21
ENDBRANCH  19  20
ENDBRANCH  18  19
ENDBRANCH  17  18
ENDBRANCH   3  17
TORSDOF 12
