REMARK  4 active torsions:
REMARK  status: ('A' for Active; 'I' for Inactive)
REMARK    1  A    between atoms: N1_1  and  C1_5 
REMARK    2  A    between atoms: C1_5  and  C2_6 
REMARK    3  A    between atoms: C1_5  and  C5_9 
REMARK    4  A    between atoms: C1_5  and  C8_12 
ROOT
HETATM    1  C1  UNL     1      -0.119   0.072   0.384  1.00  0.00     0.136 C 
ENDROOT
BRANCH   1   2
HETATM    2  N1  UNL     1      -0.576   0.702   1.649  1.00  0.00    -0.069 N 
ATOM      3  H13 UNL     1      -0.207   1.640   1.803  1.00  0.00     0.275 HD
ATOM      4  H12 UNL     1      -1.561   0.965   1.649  1.00  0.00     0.275 HD
ATOM      5  H11 UNL     1      -0.325   0.033   2.376  1.00  0.00     0.275 HD
ENDBRANCH   1   2
BRANCH   1   6
HETATM    6  C2  UNL     1      -0.491   1.063  -0.693  1.00  0.00     0.022 A 
HETATM    7  C3  UNL     1      -1.911   1.459  -0.874  1.00  0.00     0.007 A 
HETATM    8  C4  UNL     1      -0.959   2.462  -0.343  1.00  0.00     0.007 A 
ENDBRANCH   1   6
BRANCH   1   9
HETATM    9  C5  UNL     1      -0.985  -1.139   0.272  1.00  0.00     0.022 A 
HETATM   10  C6  UNL     1      -0.949  -2.132  -0.795  1.00  0.00     0.007 A 
HETATM   11  C7  UNL     1      -0.572  -2.494   0.664  1.00  0.00     0.007 A 
ENDBRANCH   1   9
BRANCH   1  12
HETATM   12  C8  UNL     1       1.323  -0.081   0.487  1.00  0.00     0.042 A 
HETATM   13  C9  UNL     1       2.255  -0.624  -0.496  1.00  0.00     0.029 A 
HETATM   14  C10 UNL     1       2.420   0.807   0.060  1.00  0.00     0.089 A 
HETATM   15 CL1  UNL     1       2.306   2.186  -0.987  1.00  0.00    -0.125 Cl
ENDBRANCH   1  12
TORSDOF 4
