REMARK  5 active torsions:
REMARK  status: ('A' for Active; 'I' for Inactive)
REMARK    1  A    between atoms: N1_1  and  C1_5 
REMARK    2  A    between atoms: C1_5  and  C2_6 
REMARK    3  A    between atoms: C1_5  and  C6_15 
REMARK    4  A    between atoms: C2_6  and  C3_7 
REMARK    5  A    between atoms: C6_15  and  N4_16 
ROOT
HETATM    1  C1  UNL     1       0.120  -1.129  -0.264  1.00  0.00     0.207 C 
ENDROOT
BRANCH   1   2
HETATM    2  N1  UNL     1       0.142  -1.339   1.161  1.00  0.00    -0.073 N 
ATOM      3  H13 UNL     1       0.515  -2.261   1.387  1.00  0.00     0.274 HD
ATOM      4  H12 UNL     1       0.854  -0.758   1.603  1.00  0.00     0.274 HD
ATOM      5  H11 UNL     1      -0.767  -1.197   1.600  1.00  0.00     0.274 HD
ENDBRANCH   1   2
BRANCH   1   6
HETATM    6  C2  UNL     1       1.461  -1.338  -0.912  1.00  0.00     0.093 C 
BRANCH   6   7
HETATM    7  C3  UNL     1       2.503  -0.421  -0.383  1.00  0.00     0.031 A 
HETATM    8  C4  UNL     1       2.801   0.827  -0.890  1.00  0.00     0.118 A 
HETATM    9  N2  UNL     1       3.783   1.363  -0.174  1.00  0.00    -0.317 N 
HETATM   10  C5  UNL     1       4.088   0.452   0.767  1.00  0.00     0.324 A 
ATOM     11  H2  UNL     1       4.216   2.276  -0.310  1.00  0.00     0.170 HD
HETATM   12  O1  UNL     1       4.991   0.636   1.632  1.00  0.00    -0.247 OA
HETATM   13  N3  UNL     1       3.315  -0.643   0.652  1.00  0.00    -0.311 N 
ATOM     14  H3  UNL     1       3.344  -1.477   1.239  1.00  0.00     0.170 HD
ENDBRANCH   6   7
ENDBRANCH   1   6
BRANCH   1  15
HETATM   15  C6  UNL     1      -0.436   0.205  -0.666  1.00  0.00     0.160 C 
BRANCH  15  16
HETATM   16  N4  UNL     1      -1.803   0.386  -0.219  1.00  0.00    -0.364 N 
HETATM   17  C7  UNL     1      -2.069   0.921   0.964  1.00  0.00     0.090 A 
HETATM   18  C8  UNL     1      -3.382   1.074   1.349  1.00  0.00     0.017 A 
HETATM   19  C9  UNL     1      -4.437   0.690   0.547  1.00  0.00     0.003 A 
HETATM   20  C10 UNL     1      -4.143   0.138  -0.674  1.00  0.00     0.017 A 
HETATM   21  C11 UNL     1      -2.812   0.002  -1.023  1.00  0.00     0.090 A 
ENDBRANCH  15  16
ENDBRANCH   1  15
TORSDOF 5
