REMARK  5 active torsions:
REMARK  status: ('A' for Active; 'I' for Inactive)
REMARK    1  A    between atoms: O1_2  and  C2_3 
REMARK    2  A    between atoms: C2_3  and  C3_5 
REMARK    3  A    between atoms: C3_5  and  C4_6 
REMARK    4  A    between atoms: C4_6  and  C5_7 
REMARK    5  A    between atoms: C21_23  and  C23_25 
ROOT
HETATM    1  C5  UNL     1       1.535  -0.011   0.159  1.00  0.00     0.009 C 
HETATM    2  C6  UNL     1       0.282   0.001  -0.708  1.00  0.00    -0.004 C 
HETATM    3  C7  UNL     1      -0.365   1.341  -0.516  1.00  0.00     0.006 C 
HETATM    4  C8  UNL     1      -1.809   1.420  -0.856  1.00  0.00     0.006 C 
HETATM    5  C9  UNL     1      -2.640   0.206  -0.714  1.00  0.00     0.002 C 
HETATM    6  C10 UNL     1      -4.032   0.531  -0.242  1.00  0.00    -0.043 C 
HETATM    7  C11 UNL     1      -4.350   2.024  -0.452  1.00  0.00     0.015 C 
HETATM    8  C12 UNL     1      -5.098  -0.189  -1.074  1.00  0.00     0.015 C 
HETATM    9  C13 UNL     1      -4.228   0.294   1.235  1.00  0.00     0.009 C 
HETATM   10  C14 UNL     1      -2.946   0.399   2.021  1.00  0.00     0.002 C 
HETATM   11  C15 UNL     1      -1.862  -0.545   1.539  1.00  0.00     0.010 C 
HETATM   12  C16 UNL     1      -1.962  -0.890   0.099  1.00  0.00    -0.036 C 
HETATM   13  C17 UNL     1      -2.663  -2.219  -0.021  1.00  0.00     0.016 C 
HETATM   14  C18 UNL     1      -0.637  -1.122  -0.623  1.00  0.00    -0.002 C 
HETATM   15  C19 UNL     1       0.048  -2.406  -0.220  1.00  0.00     0.007 C 
HETATM   16  C20 UNL     1       0.908  -2.237   0.974  1.00  0.00     0.021 C 
HETATM   17  C21 UNL     1       2.060  -1.300   0.589  1.00  0.00     0.049 C 
HETATM   18  C22 UNL     1       2.878  -1.161   1.868  1.00  0.00     0.027 C 
ENDROOT
BRANCH   1  19
HETATM   19  C4  UNL     1       2.518   0.868  -0.567  1.00  0.00     0.016 C 
BRANCH  19  20
HETATM   20  C3  UNL     1       3.867   1.056   0.043  1.00  0.00     0.111 C 
BRANCH  20  21
HETATM   21  C2  UNL     1       4.702   1.974  -0.795  1.00  0.00     0.258 C 
HETATM   22  O2  UNL     1       4.214   2.443  -1.831  1.00  0.00    -0.265 OA
BRANCH  21  23
HETATM   23  O1  UNL     1       5.979   2.284  -0.416  1.00  0.00    -0.326 OA
HETATM   24  C1  UNL     1       6.834   3.140  -1.147  1.00  0.00     0.213 C 
ENDBRANCH  21  23
ENDBRANCH  20  21
ENDBRANCH  19  20
ENDBRANCH   1  19
BRANCH  17  25
HETATM   25  C23 UNL     1       2.862  -2.075  -0.371  1.00  0.00     0.181 C 
HETATM   26  O3  UNL     1       3.101  -1.843  -1.553  1.00  0.00    -0.647 OA
HETATM   27  O4  UNL     1       3.434  -3.255   0.149  1.00  0.00    -0.647 OA
ENDBRANCH  17  25
TORSDOF 5
