REMARK  1 active torsions:
REMARK  status: ('A' for Active; 'I' for Inactive)
REMARK    1  A    between atoms: C4_4  and  C5_5 
ROOT
HETATM    1  C1  UNL     1       3.241   0.361   0.184  1.00  0.00     0.029 C 
HETATM    2  C2  UNL     1       1.964  -0.273  -0.257  1.00  0.00     0.092 C 
HETATM    3  C3  UNL     1       0.755   0.650  -0.041  1.00  0.00     0.045 C 
HETATM    4  C4  UNL     1      -0.337  -0.393  -0.226  1.00  0.00     0.100 C 
HETATM    5  N1  UNL     1       0.189  -1.475   0.542  1.00  0.00    -0.143 NA
HETATM    6  N2  UNL     1       1.572  -1.416   0.507  1.00  0.00    -0.143 NA
ENDROOT
BRANCH   4   7
HETATM    7  C5  UNL     1      -1.617   0.177   0.278  1.00  0.00    -0.002 C 
HETATM    8  C6  UNL     1      -2.778  -0.766   0.148  1.00  0.00     0.011 C 
HETATM    9  C7  UNL     1      -1.921   1.424  -0.560  1.00  0.00     0.011 C 
ENDBRANCH   4   7
TORSDOF 1
