REMARK  12 active torsions:
REMARK  status: ('A' for Active; 'I' for Inactive)
REMARK    1  A    between atoms: C2_2  and  C4_4 
REMARK    2  A    between atoms: C4_4  and  N1_5 
REMARK    3  A    between atoms: C4_4  and  C10_14 
REMARK       I    between atoms: N1_5  and  C5_7 
REMARK    4  A    between atoms: C5_7  and  C6_9 
REMARK    5  A    between atoms: C6_9  and  C9_12 
REMARK    6  A    between atoms: C13_17  and  C14_18 
REMARK    7  A    between atoms: C14_18  and  C16_20 
REMARK    8  A    between atoms: C17_21  and  C18_22 
REMARK    9  A    between atoms: C18_22  and  C19_23 
REMARK   10  A    between atoms: C19_23  and  N2_24 
REMARK       I    between atoms: C20_26  and  N3_27 
REMARK       I    between atoms: C20_26  and  N6_34 
REMARK       I    between atoms: N3_27  and  C21_29 
REMARK   11  A    between atoms: C25_39  and  C26_40 
REMARK   12  A    between atoms: C26_40  and  N7_41 
ROOT
HETATM    1  C18 UNL     1       1.231  -2.106  -0.105  1.00  0.00     0.114 C 
ENDROOT
BRANCH   1   2
HETATM    2  C17 UNL     1       0.454  -0.878   0.082  1.00  0.00    -0.104 C 
HETATM    3  C16 UNL     1      -0.199   0.148   0.218  1.00  0.00    -0.100 C 
BRANCH   3   4
HETATM    4  C14 UNL     1      -0.962   1.386   0.395  1.00  0.00     0.090 C 
HETATM    5  C15 UNL     1      -0.625   2.037   1.738  1.00  0.00     0.026 C 
BRANCH   4   6
HETATM    6  C13 UNL     1      -2.438   1.048   0.393  1.00  0.00     0.137 C 
HETATM    7  C12 UNL     1      -2.728   0.095   1.525  1.00  0.00     0.036 C 
HETATM    8  C11 UNL     1      -3.569  -0.959   0.812  1.00  0.00     0.036 C 
HETATM    9  C10 UNL     1      -3.950  -0.352  -0.498  1.00  0.00     0.145 C 
HETATM   10  O2  UNL     1      -2.808   0.433  -0.782  1.00  0.00    -0.377 OA
BRANCH   9  11
HETATM   11  C4  UNL     1      -5.117   0.578  -0.459  1.00  0.00     0.116 C 
BRANCH  11  12
HETATM   12  C2  UNL     1      -5.201   1.216  -1.855  1.00  0.00     0.003 C 
HETATM   13  C1  UNL     1      -6.299   2.256  -1.895  1.00  0.00     0.011 C 
HETATM   14  C3  UNL     1      -5.433   0.175  -2.907  1.00  0.00     0.011 C 
ENDBRANCH  11  12
BRANCH  11  15
HETATM   15  N1  UNL     1      -6.380  -0.039  -0.182  1.00  0.00    -0.353 N 
HETATM   16  C5  UNL     1      -7.244   0.364   0.870  1.00  0.00     0.226 C 
HETATM   17  O1  UNL     1      -6.883   1.314   1.599  1.00  0.00    -0.273 OA
ATOM     18  H1  UNL     1      -6.676  -0.814  -0.776  1.00  0.00     0.163 HD
BRANCH  16  19
HETATM   19  C6  UNL     1      -8.541  -0.290   1.130  1.00  0.00     0.043 C 
HETATM   20  C7  UNL     1      -9.228   0.413   2.281  1.00  0.00     0.026 C 
HETATM   21  C8  UNL     1      -9.468  -0.198  -0.063  1.00  0.00     0.026 C 
BRANCH  19  22
HETATM   22  C9  UNL     1      -8.299  -1.739   1.499  1.00  0.00     0.103 C 
HETATM   23 BR1  UNL     1      -7.206  -1.790   3.082  1.00  0.00    -0.095 Br
ENDBRANCH  19  22
ENDBRANCH  16  19
ENDBRANCH  11  15
ENDBRANCH   9  11
ENDBRANCH   4   6
ENDBRANCH   3   4
ENDBRANCH   1   2
BRANCH   1  24
HETATM   24  C19 UNL     1       2.439  -2.029   0.824  1.00  0.00     0.150 C 
BRANCH  24  25
HETATM   25  N2  UNL     1       3.258  -0.880   0.515  1.00  0.00    -0.225 N 
HETATM   26  C20 UNL     1       4.355  -1.040  -0.132  1.00  0.00     0.679 C 
HETATM   27  N3  UNL     1       4.730  -2.346  -0.524  1.00  0.00    -0.164 N 
HETATM   28  N6  UNL     1       5.210   0.058  -0.470  1.00  0.00    -0.209 N 
HETATM   29  C21 UNL     1       4.618  -2.741  -1.874  1.00  0.00     0.200 C 
ATOM     30  H3  UNL     1       5.082  -3.004   0.171  1.00  0.00     0.187 HD
HETATM   31  N4  UNL     1       4.694  -3.984  -2.175  1.00  0.00    -0.373 N 
HETATM   32  N5  UNL     1       4.422  -1.829  -2.943  1.00  0.00    -0.063 NA
ATOM     33  H42 UNL     1       4.835  -4.640  -1.406  1.00  0.00     0.158 HD
ATOM     34  H41 UNL     1       4.613  -4.270  -3.151  1.00  0.00     0.158 HD
HETATM   35  C22 UNL     1       4.627   1.307  -0.987  1.00  0.00     0.179 C 
HETATM   36  C25 UNL     1       6.629   0.207  -0.405  1.00  0.00     0.131 C 
HETATM   37  C23 UNL     1       5.772   2.289  -1.052  1.00  0.00     0.190 C 
HETATM   38  F1  UNL     1       5.389   3.555  -0.676  1.00  0.00    -0.248 F 
HETATM   39  C24 UNL     1       6.757   1.692  -0.071  1.00  0.00     0.066 C 
ATOM     40  H2  UNL     1       2.967   0.052   0.809  1.00  0.00     0.177 HD
BRANCH  36  41
HETATM   41  C26 UNL     1       7.246  -0.643   0.655  1.00  0.00     0.263 C 
BRANCH  41  42
HETATM   42  N7  UNL     1       8.684  -0.477   0.707  1.00  0.00    -0.066 N 
HETATM   43  C27 UNL     1       9.402  -0.458  -0.546  1.00  0.00     0.272 C 
HETATM   44  C28 UNL     1       9.287   0.169   1.834  1.00  0.00     0.265 A 
HETATM   45  C29 UNL     1       9.327  -1.324   1.724  1.00  0.00     0.265 A 
ENDBRANCH  41  42
ENDBRANCH  36  41
ENDBRANCH  24  25
ENDBRANCH   1  24
TORSDOF 12
