REMARK  10 active torsions:
REMARK  status: ('A' for Active; 'I' for Inactive)
REMARK    1  A    between atoms: C2_2  and  C4_4 
REMARK    2  A    between atoms: C4_4  and  N1_5 
REMARK    3  A    between atoms: N1_5  and  C5_7 
REMARK    4  A    between atoms: N2_9  and  C7_10 
REMARK    5  A    between atoms: C7_10  and  C8_11 
REMARK    6  A    between atoms: C8_11  and  C9_12 
REMARK    7  A    between atoms: C9_12  and  C10_13 
REMARK       I    between atoms: C10_13  and  N3_15 
REMARK    8  A    between atoms: N3_15  and  C11_17 
REMARK    9  A    between atoms: C12_18  and  C13_19 
REMARK   10  A    between atoms: C24_35  and  C25_36 
ROOT
HETATM    1  C10 UNL     1      -1.573  -1.512  -0.764  1.00  0.00     0.218 C 
HETATM    2  O1  UNL     1      -1.239  -1.064   0.361  1.00  0.00    -0.274 OA
HETATM    3  N3  UNL     1      -2.940  -1.337  -1.166  1.00  0.00    -0.352 N 
ATOM      4  H3  UNL     1      -3.237  -1.690  -2.076  1.00  0.00     0.163 HD
ENDROOT
BRANCH   1   5
HETATM    5  C9  UNL     1      -0.615  -2.183  -1.633  1.00  0.00     0.104 C 
BRANCH   5   6
HETATM    6  C8  UNL     1       0.816  -2.171  -1.190  1.00  0.00     0.037 C 
BRANCH   6   7
HETATM    7  C7  UNL     1       1.347  -0.795  -1.125  1.00  0.00     0.238 C 
BRANCH   7   8
HETATM    8  N2  UNL     1       2.700  -0.760  -0.715  1.00  0.00    -0.063 N 
HETATM    9  C6  UNL     1       3.459   0.450  -0.897  1.00  0.00     0.263 C 
HETATM   10  C5  UNL     1       4.806  -0.004  -0.281  1.00  0.00     0.115 C 
HETATM   11  C24 UNL     1       4.441  -1.408   0.011  1.00  0.00     0.039 C 
HETATM   12  C23 UNL     1       3.045  -1.273   0.598  1.00  0.00     0.251 C 
HETATM   13  C26 UNL     1       3.612  -1.763  -1.237  1.00  0.00     0.251 C 
BRANCH  10  14
HETATM   14  N1  UNL     1       5.055   0.859   0.805  1.00  0.00    -0.414 N 
ATOM     15  H1  UNL     1       4.310   1.445   1.182  1.00  0.00     0.153 HD
BRANCH  14  16
HETATM   16  C4  UNL     1       6.353   0.900   1.364  1.00  0.00     0.118 C 
BRANCH  16  17
HETATM   17  C2  UNL     1       7.376   1.508   0.412  1.00  0.00    -0.005 C 
HETATM   18  C1  UNL     1       6.973   2.932   0.067  1.00  0.00     0.011 C 
HETATM   19  C3  UNL     1       8.687   1.594   1.174  1.00  0.00     0.011 C 
ENDBRANCH  16  17
ENDBRANCH  14  16
ENDBRANCH  10  14
BRANCH  11  20
HETATM   20  C25 UNL     1       5.339  -2.402   0.525  1.00  0.00     0.100 C 
HETATM   21 BR2  UNL     1       4.405  -4.108   0.745  1.00  0.00    -0.096 Br
ENDBRANCH  11  20
ENDBRANCH   7   8
ENDBRANCH   6   7
ENDBRANCH   5   6
ENDBRANCH   1   5
BRANCH   3  22
HETATM   22  C11 UNL     1      -3.924  -0.666  -0.308  1.00  0.00     0.133 C 
HETATM   23  C12 UNL     1      -4.973  -1.620   0.137  1.00  0.00     0.112 C 
HETATM   24  N4  UNL     1      -6.311  -1.342  -0.256  1.00  0.00    -0.350 N 
HETATM   25  C16 UNL     1      -6.776  -0.095  -0.727  1.00  0.00     0.249 C 
ATOM     26  H4  UNL     1      -6.987  -2.103  -0.193  1.00  0.00     0.163 HD
HETATM   27  O2  UNL     1      -8.016   0.122  -0.952  1.00  0.00    -0.268 OA
HETATM   28  C17 UNL     1      -5.765   0.927  -0.942  1.00  0.00     0.031 C 
HETATM   29  C18 UNL     1      -6.129   2.186  -1.115  1.00  0.00     0.017 C 
HETATM   30  C22 UNL     1      -4.351   0.579  -0.971  1.00  0.00     0.099 C 
HETATM   31  C19 UNL     1      -5.176   3.279  -1.338  1.00  0.00     0.300 C 
HETATM   32  N5  UNL     1      -3.827   2.995  -0.967  1.00  0.00     0.089 N 
HETATM   33  C20 UNL     1      -3.411   4.048  -0.029  1.00  0.00     0.310 C 
HETATM   34  C21 UNL     1      -3.621   1.753  -0.294  1.00  0.00     0.300 C 
HETATM   35 BR1  UNL     1      -3.747   0.560  -2.817  1.00  0.00    -0.076 Br
BRANCH  23  36
HETATM   36  C13 UNL     1      -4.970  -1.850   1.642  1.00  0.00     0.002 C 
HETATM   37  C14 UNL     1      -5.206  -0.581   2.410  1.00  0.00     0.011 C 
HETATM   38  C15 UNL     1      -6.132  -2.783   1.946  1.00  0.00     0.011 C 
ENDBRANCH  23  36
ENDBRANCH   3  22
TORSDOF 10
