REMARK  18 active torsions:
REMARK  status: ('A' for Active; 'I' for Inactive)
REMARK    1  A    between atoms: C3_3  and  C4_4 
REMARK    2  A    between atoms: C5_5  and  C6_6 
REMARK    3  A    between atoms: C7_7  and  C8_8 
REMARK    4  A    between atoms: C8_8  and  C9_9 
REMARK    5  A    between atoms: C8_8  and  C11_14 
REMARK    6  A    between atoms: C10_10  and  N1_11 
REMARK       I    between atoms: C11_14  and  N2_16 
REMARK    7  A    between atoms: N2_16  and  C12_18 
REMARK    8  A    between atoms: C12_18  and  C13_19 
REMARK    9  A    between atoms: C14_20  and  C15_21 
REMARK   10  A    between atoms: C15_21  and  C16_22 
REMARK   11  A    between atoms: C16_22  and  N3_23 
REMARK   12  A    between atoms: N3_23  and  O2_24 
REMARK   13  A    between atoms: N3_23  and  C17_26 
REMARK   14  A    between atoms: C17_26  and  C18_27 
REMARK       I    between atoms: C18_27  and  N4_29 
REMARK   15  A    between atoms: N4_29  and  C19_31 
REMARK   16  A    between atoms: C19_31  and  C20_32 
REMARK   17  A    between atoms: C20_32  and  C21_33 
REMARK   18  A    between atoms: C24_37  and  O4_38 
ROOT
HETATM    1  C1  UNL     1      12.628   2.056  -0.907  1.00  0.00     0.113 C 
HETATM    2  C2  UNL     1      11.158   2.110  -0.808  1.00  0.00    -0.097 C 
HETATM    3  C3  UNL     1       9.951   2.134  -0.723  1.00  0.00    -0.015 C 
ENDROOT
BRANCH   3   4
HETATM    4  C4  UNL     1       8.541   2.144  -0.605  1.00  0.00    -0.001 C 
HETATM    5  C5  UNL     1       7.338   2.132  -0.498  1.00  0.00    -0.001 C 
BRANCH   5   6
HETATM    6  C6  UNL     1       5.924   2.095  -0.363  1.00  0.00    -0.012 C 
HETATM    7  C7  UNL     1       4.723   2.042  -0.242  1.00  0.00    -0.065 C 
BRANCH   7   8
HETATM    8  C8  UNL     1       3.250   1.950  -0.090  1.00  0.00     0.238 C 
BRANCH   8   9
HETATM    9  C9  UNL     1       2.664   1.237  -1.236  1.00  0.00    -0.057 C 
HETATM   10  C10 UNL     1       2.179   0.628  -2.176  1.00  0.00     0.005 C 
BRANCH  10  11
HETATM   11  N1  UNL     1       1.613  -0.083  -3.243  1.00  0.00    -0.359 N 
ATOM     12  H12 UNL     1       1.675  -0.014  -2.227  1.00  0.00     0.166 HD
ATOM     13  H11 UNL     1       1.208  -0.592  -4.029  1.00  0.00     0.166 HD
ENDBRANCH  10  11
ENDBRANCH   8   9
BRANCH   8  14
HETATM   14  C11 UNL     1       3.000   1.165   1.151  1.00  0.00     0.245 C 
HETATM   15  O1  UNL     1       2.341   1.724   2.063  1.00  0.00    -0.271 OA
HETATM   16  N2  UNL     1       3.518  -0.158   1.225  1.00  0.00    -0.356 N 
ATOM     17  H2  UNL     1       4.053  -0.546   0.448  1.00  0.00     0.162 HD
BRANCH  16  18
HETATM   18  C12 UNL     1       3.281  -0.940   2.401  1.00  0.00     0.149 C 
BRANCH  18  19
HETATM   19  C13 UNL     1       1.886  -1.289   2.689  1.00  0.00    -0.011 C 
HETATM   20  C14 UNL     1       0.829  -1.016   1.938  1.00  0.00    -0.027 C 
BRANCH  20  21
HETATM   21  C15 UNL     1      -0.542  -1.433   2.358  1.00  0.00     0.048 C 
BRANCH  21  22
HETATM   22  C16 UNL     1      -1.229  -2.357   1.394  1.00  0.00     0.153 C 
BRANCH  22  23
HETATM   23  N3  UNL     1      -1.434  -1.723   0.146  1.00  0.00    -0.288 N 
BRANCH  23  24
HETATM   24  O2  UNL     1      -1.114  -0.565   0.023  1.00  0.00    -0.292 OA
ATOM     25  H2  UNL     1      -1.252  -0.139  -0.815  1.00  0.00     0.244 HD
ENDBRANCH  23  24
BRANCH  23  26
HETATM   26  C17 UNL     1      -2.015  -2.331  -0.991  1.00  0.00     0.252 C 
BRANCH  26  27
HETATM   27  C18 UNL     1      -3.468  -2.523  -0.872  1.00  0.00     0.237 C 
HETATM   28  O3  UNL     1      -4.065  -3.144  -1.824  1.00  0.00    -0.272 OA
HETATM   29  N4  UNL     1      -4.217  -2.055   0.224  1.00  0.00    -0.359 N 
ATOM     30  H4  UNL     1      -3.738  -1.555   0.973  1.00  0.00     0.162 HD
BRANCH  29  31
HETATM   31  C19 UNL     1      -5.630  -2.259   0.319  1.00  0.00     0.127 C 
BRANCH  31  32
HETATM   32  C20 UNL     1      -6.388  -1.582  -0.766  1.00  0.00     0.058 C 
BRANCH  32  33
HETATM   33  C21 UNL     1      -6.235  -0.109  -0.786  1.00  0.00    -0.054 A 
HETATM   34  C22 UNL     1      -7.069   0.649   0.017  1.00  0.00     0.029 A 
HETATM   35  C23 UNL     1      -6.986   2.018   0.030  1.00  0.00     0.045 A 
HETATM   36 BR1  UNL     1      -8.137   3.087   1.143  1.00  0.00    -0.048 Br
HETATM   37  C24 UNL     1      -6.066   2.665  -0.761  1.00  0.00     0.100 A 
HETATM   38  C25 UNL     1      -5.246   1.904  -1.553  1.00  0.00     0.045 A 
HETATM   39 BR2  UNL     1      -3.929   2.713  -2.692  1.00  0.00    -0.048 Br
HETATM   40  C26 UNL     1      -5.308   0.503  -1.587  1.00  0.00     0.029 A 
BRANCH  37  41
HETATM   41  O4  UNL     1      -5.950   4.053  -0.777  1.00  0.00    -0.358 OA
ATOM     42  H4  UNL     1      -5.314   4.500  -1.323  1.00  0.00     0.217 HD
ENDBRANCH  37  41
ENDBRANCH  32  33
ENDBRANCH  31  32
ENDBRANCH  29  31
ENDBRANCH  26  27
ENDBRANCH  23  26
ENDBRANCH  22  23
ENDBRANCH  21  22
ENDBRANCH  20  21
ENDBRANCH  18  19
ENDBRANCH  16  18
ENDBRANCH   8  14
ENDBRANCH   7   8
ENDBRANCH   5   6
ENDBRANCH   3   4
TORSDOF 18
