REMARK  10 active torsions:
REMARK  status: ('A' for Active; 'I' for Inactive)
REMARK    1  A    between atoms: O1_1  and  C1_3 
REMARK    2  A    between atoms: C1_3  and  C2_4 
REMARK    3  A    between atoms: C5_7  and  C6_8 
REMARK    4  A    between atoms: C6_8  and  C7_9 
REMARK    5  A    between atoms: C7_9  and  C8_10 
REMARK    6  A    between atoms: N2_15  and  C11_16 
REMARK    7  A    between atoms: C11_16  and  C12_17 
REMARK    8  A    between atoms: C12_17  and  C13_18 
REMARK    9  A    between atoms: C13_18  and  C14_19 
REMARK   10  A    between atoms: C14_19  and  N3_20 
ROOT
HETATM    1  C8  UNL     1       0.030  -1.815   0.279  1.00  0.00     0.028 A 
HETATM    2  C9  UNL     1      -0.113  -2.960  -0.488  1.00  0.00     0.114 A 
HETATM    3  N1  UNL     1      -1.264  -3.546  -0.141  1.00  0.00    -0.360 N 
ATOM      4  H1  UNL     1      -1.640  -4.409  -0.534  1.00  0.00     0.166 HD
HETATM    5  C10 UNL     1      -1.836  -2.801   0.812  1.00  0.00     0.183 A 
HETATM    6  N2  UNL     1      -1.027  -1.723   1.072  1.00  0.00    -0.345 N 
ENDROOT
BRANCH   1   7
HETATM    7  C7  UNL     1       1.207  -0.877   0.242  1.00  0.00     0.063 C 
BRANCH   7   8
HETATM    8  C6  UNL     1       2.203  -1.469  -0.738  1.00  0.00     0.044 C 
BRANCH   8   9
HETATM    9  C5  UNL     1       3.415  -0.631  -0.864  1.00  0.00    -0.058 A 
HETATM   10  C4  UNL     1       4.465  -0.888  -0.008  1.00  0.00     0.007 A 
HETATM   11  C3  UNL     1       5.626  -0.138  -0.075  1.00  0.00     0.010 A 
HETATM   12  C2  UNL     1       5.771   0.880  -0.992  1.00  0.00    -0.035 A 
HETATM   13  C21 UNL     1       4.733   1.144  -1.848  1.00  0.00     0.010 A 
HETATM   14  C20 UNL     1       3.566   0.384  -1.773  1.00  0.00     0.007 A 
BRANCH  12  15
HETATM   15  C1  UNL     1       7.047   1.641  -1.005  1.00  0.00     0.202 C 
BRANCH  15  16
HETATM   16  O1  UNL     1       7.914   1.175  -0.049  1.00  0.00    -0.396 OA
ATOM     17  H1  UNL     1       8.730   1.662  -0.057  1.00  0.00     0.209 HD
ENDBRANCH  15  16
ENDBRANCH  12  15
ENDBRANCH   8   9
ENDBRANCH   7   8
ENDBRANCH   1   7
BRANCH   6  18
HETATM   18  C11 UNL     1      -1.399  -0.724   2.043  1.00  0.00     0.130 C 
BRANCH  18  19
HETATM   19  C12 UNL     1      -2.327   0.324   1.522  1.00  0.00     0.022 C 
BRANCH  19  20
HETATM   20  C13 UNL     1      -1.845   1.138   0.385  1.00  0.00     0.022 C 
BRANCH  20  21
HETATM   21  C14 UNL     1      -2.858   2.165  -0.023  1.00  0.00     0.128 C 
BRANCH  21  22
HETATM   22  N3  UNL     1      -4.129   1.652  -0.445  1.00  0.00    -0.366 N 
HETATM   23  C15 UNL     1      -4.334   1.324  -1.750  1.00  0.00     0.090 A 
HETATM   24  C16 UNL     1      -5.569   0.852  -2.137  1.00  0.00     0.017 A 
HETATM   25  C17 UNL     1      -6.617   0.692  -1.263  1.00  0.00     0.003 A 
HETATM   26  C18 UNL     1      -6.366   1.037   0.053  1.00  0.00     0.017 A 
HETATM   27  C19 UNL     1      -5.126   1.510   0.436  1.00  0.00     0.090 A 
ENDBRANCH  21  22
ENDBRANCH  20  21
ENDBRANCH  19  20
ENDBRANCH  18  19
ENDBRANCH   6  18
TORSDOF 10
