REMARK  5 active torsions:
REMARK  status: ('A' for Active; 'I' for Inactive)
REMARK    1  A    between atoms: C2_2  and  N1_3 
REMARK       I    between atoms: N1_3  and  C3_5 
REMARK    2  A    between atoms: C3_5  and  C4_7 
REMARK    3  A    between atoms: C4_7  and  N2_8 
REMARK       I    between atoms: C5_10  and  N3_11 
REMARK       I    between atoms: C5_10  and  N7_19 
REMARK       I    between atoms: C6_13  and  N5_15 
REMARK    4  A    between atoms: N7_19  and  N8_21 
REMARK    5  A    between atoms: N8_21  and  C8_23 
ROOT
HETATM    1  N2  UNL     1      -0.011   0.936  -0.754  1.00  0.00    -0.216 N 
ATOM      2  H2  UNL     1       0.286   1.845  -1.108  1.00  0.00     0.178 HD
HETATM    3  C5  UNL     1      -1.245   0.568  -0.826  1.00  0.00     0.695 C 
HETATM    4  N3  UNL     1      -2.140   1.515  -1.427  1.00  0.00    -0.162 N 
ATOM      5  H3  UNL     1      -1.981   1.791  -2.396  1.00  0.00     0.187 HD
HETATM    6  C6  UNL     1      -3.125   2.026  -0.802  1.00  0.00     0.215 C 
HETATM    7  N4  UNL     1      -3.968   2.954  -1.455  1.00  0.00    -0.062 NA
HETATM    8  N5  UNL     1      -3.374   1.665   0.538  1.00  0.00    -0.267 N 
ATOM      9  H5  UNL     1      -3.916   0.826   0.743  1.00  0.00     0.180 HD
HETATM   10  C7  UNL     1      -2.884   2.447   1.590  1.00  0.00     0.184 C 
HETATM   11  N6  UNL     1      -2.476   3.081   2.450  1.00  0.00    -0.172 NA
HETATM   12  N7  UNL     1      -1.690  -0.684  -0.345  1.00  0.00    -0.130 N 
ATOM     13  H7  UNL     1      -1.801  -0.815   0.660  1.00  0.00     0.205 HD
ENDROOT
BRANCH   1  14
HETATM   14  C4  UNL     1       0.934   0.029  -0.161  1.00  0.00     0.240 C 
BRANCH  14  15
HETATM   15  C3  UNL     1       2.312   0.571  -0.147  1.00  0.00     0.235 C 
HETATM   16  N1  UNL     1       3.371  -0.183   0.398  1.00  0.00    -0.360 N 
ATOM     17  H1  UNL     1       3.190  -1.109   0.786  1.00  0.00     0.162 HD
HETATM   18  O1  UNL     1       2.479   1.719  -0.638  1.00  0.00    -0.272 OA
BRANCH  16  19
HETATM   19  C2  UNL     1       4.697   0.347   0.408  1.00  0.00     0.118 C 
HETATM   20  C1  UNL     1       5.705  -0.572   1.018  1.00  0.00     0.026 C 
ENDBRANCH  16  19
ENDBRANCH  14  15
ENDBRANCH   1  14
BRANCH  12  21
HETATM   21  N8  UNL     1      -1.982  -1.746  -1.201  1.00  0.00    -0.264 N 
ATOM     22  H8  UNL     1      -1.902  -1.610  -2.209  1.00  0.00     0.189 HD
BRANCH  21  23
HETATM   23  C8  UNL     1      -2.384  -3.001  -0.706  1.00  0.00     0.200 C 
HETATM   24  N9  UNL     1      -2.493  -3.182   0.696  1.00  0.00    -0.068 NA
HETATM   25  S1  UNL     1      -2.737  -4.272  -1.655  1.00  0.00    -0.043 SA
ENDBRANCH  21  23
ENDBRANCH  12  21
TORSDOF 5
