REMARK  15 active torsions:
REMARK  status: ('A' for Active; 'I' for Inactive)
REMARK    1  A    between atoms: N1_2  and  C2_4 
REMARK    2  A    between atoms: C7_14  and  C8_15 
REMARK    3  A    between atoms: C8_15  and  N5_16 
REMARK    4  A    between atoms: C8_15  and  N6_20 
REMARK    5  A    between atoms: C9_24  and  N7_25 
REMARK       I    between atoms: N7_25  and  C10_27 
REMARK    6  A    between atoms: C10_27  and  C11_29 
REMARK    7  A    between atoms: C11_29  and  C12_31 
REMARK    8  A    between atoms: C12_31  and  O7_52 
REMARK    9  A    between atoms: C13_32  and  C14_33 
REMARK   10  A    between atoms: C15_35  and  O4_36 
REMARK   11  A    between atoms: O4_36  and  N8_37 
REMARK   12  A    between atoms: N9_39  and  N10_41 
REMARK   13  A    between atoms: C17_46  and  O5_47 
REMARK   14  A    between atoms: C18_49  and  O6_50 
REMARK   15  A    between atoms: O7_52  and  C19_53 
ROOT
HETATM    1  N7  UNL     1      -2.723  -0.311  -1.157  1.00  0.00    -0.316 N 
ATOM      2  H7  UNL     1      -2.547  -0.800  -2.035  1.00  0.00     0.169 HD
HETATM    3  C10 UNL     1      -1.603  -0.000  -0.356  1.00  0.00     0.299 C 
HETATM    4  O1  UNL     1      -1.760   0.603   0.728  1.00  0.00    -0.264 OA
ENDROOT
BRANCH   3   5
HETATM    5  C11 UNL     1      -0.257  -0.364  -0.756  1.00  0.00     0.272 C 
HETATM    6  O2  UNL     1      -0.152  -0.963  -1.868  1.00  0.00    -0.279 OA
BRANCH   5   7
HETATM    7  C12 UNL     1       0.927  -0.074   0.041  1.00  0.00     0.133 C 
HETATM    8  C13 UNL     1       2.098  -0.432  -0.408  1.00  0.00     0.049 C 
BRANCH   8   9
HETATM    9  C14 UNL     1       3.320  -0.155   0.371  1.00  0.00     0.182 C 
HETATM   10  O3  UNL     1       4.211   0.659  -0.320  1.00  0.00    -0.344 OA
HETATM   11  C15 UNL     1       5.307  -0.128  -0.644  1.00  0.00     0.322 C 
HETATM   12  C17 UNL     1       5.474  -1.066   0.512  1.00  0.00     0.207 C 
HETATM   13  C18 UNL     1       4.027  -1.403   0.802  1.00  0.00     0.184 C 
BRANCH  11  14
HETATM   14  O4  UNL     1       6.437   0.562  -1.045  1.00  0.00    -0.228 OA
BRANCH  14  15
HETATM   15  N8  UNL     1       7.013   0.492  -2.284  1.00  0.00    -0.190 N 
HETATM   16  N9  UNL     1       8.176   0.774  -2.602  1.00  0.00    -0.221 N 
ATOM     17  H9  UNL     1       8.392   0.645  -3.591  1.00  0.00     0.210 HD
ATOM     18  H8  UNL     1       6.410   0.167  -3.039  1.00  0.00     0.217 HD
BRANCH  16  19
HETATM   19  N10 UNL     1       9.218   1.230  -1.844  1.00  0.00    -0.260 N 
HETATM   20  C16 UNL     1       9.723   0.734  -0.793  1.00  0.00     0.216 C 
HETATM   21  N11 UNL     1      10.822   1.442  -0.209  1.00  0.00    -0.065 NA
HETATM   22  N12 UNL     1       9.288  -0.449  -0.161  1.00  0.00    -0.065 NA
ATOM     23  H10 UNL     1       9.651   2.093  -2.171  1.00  0.00     0.191 HD
ENDBRANCH  16  19
ENDBRANCH  14  15
ENDBRANCH  11  14
BRANCH  12  24
HETATM   24  O5  UNL     1       5.962  -0.423   1.652  1.00  0.00    -0.388 OA
ATOM     25  H5  UNL     1       6.068  -1.018   2.385  1.00  0.00     0.210 HD
ENDBRANCH  12  24
BRANCH  13  26
HETATM   26  O6  UNL     1       3.659  -2.430  -0.059  1.00  0.00    -0.390 OA
ATOM     27  H6  UNL     1       4.107  -3.222   0.214  1.00  0.00     0.210 HD
ENDBRANCH  13  26
ENDBRANCH   8   9
BRANCH   7  28
HETATM   28  O7  UNL     1       0.822   0.568   1.257  1.00  0.00    -0.275 OA
BRANCH  28  29
HETATM   29  C19 UNL     1       0.672  -0.093   2.461  1.00  0.00     0.260 C 
HETATM   30  C20 UNL     1       0.563   0.625   3.754  1.00  0.00     0.126 C 
HETATM   31  O8  UNL     1       0.624  -1.342   2.474  1.00  0.00    -0.265 OA
ENDBRANCH  28  29
ENDBRANCH   7  28
ENDBRANCH   5   7
ENDBRANCH   3   5
BRANCH   1  32
HETATM   32  C9  UNL     1      -4.071  -0.002  -0.845  1.00  0.00     0.092 A 
HETATM   33  C2  UNL     1      -4.563   1.276  -1.134  1.00  0.00     0.130 A 
HETATM   34  N2  UNL     1      -5.841   1.586  -0.863  1.00  0.00    -0.325 N 
HETATM   35  C3  UNL     1      -6.698   0.705  -0.311  1.00  0.00     0.137 A 
ATOM     36  H2  UNL     1      -6.176   2.524  -1.083  1.00  0.00     0.169 HD
HETATM   37  C4  UNL     1      -6.212  -0.548  -0.028  1.00  0.00     0.090 A 
HETATM   38  N4  UNL     1      -8.012   0.800   0.045  1.00  0.00    -0.332 N 
HETATM   39  N3  UNL     1      -7.266  -1.227   0.514  1.00  0.00    -0.349 N 
HETATM   40  C7  UNL     1      -4.900  -0.942  -0.281  1.00  0.00     0.060 A 
HETATM   41  C5  UNL     1      -8.327  -0.404   0.547  1.00  0.00     0.184 A 
ATOM     42  H3  UNL     1      -7.250  -2.194   0.838  1.00  0.00     0.167 HD
HETATM   43  C6  UNL     1      -8.816   1.977  -0.117  1.00  0.00     0.158 C 
BRANCH  33  44
HETATM   44  N1  UNL     1      -3.734   2.111  -1.663  1.00  0.00    -0.379 N 
HETATM   45  C1  UNL     1      -4.075   3.455  -2.021  1.00  0.00     0.147 C 
ATOM     46  H1  UNL     1      -2.780   1.795  -1.836  1.00  0.00     0.160 HD
ENDBRANCH  33  44
BRANCH  40  47
HETATM   47  C8  UNL     1      -4.529  -2.327   0.046  1.00  0.00     0.416 C 
BRANCH  47  48
HETATM   48  N5  UNL     1      -3.295  -2.510   0.728  1.00  0.00    -0.046 N 
ATOM     49  H53 UNL     1      -2.542  -2.069   0.199  1.00  0.00     0.277 HD
ATOM     50  H52 UNL     1      -3.284  -1.943   1.576  1.00  0.00     0.277 HD
ATOM     51  H51 UNL     1      -3.038  -3.471   0.955  1.00  0.00     0.277 HD
ENDBRANCH  47  48
BRANCH  47  52
HETATM   52  N6  UNL     1      -4.468  -3.080  -1.207  1.00  0.00    -0.046 N 
ATOM     53  H63 UNL     1      -5.330  -3.018  -1.749  1.00  0.00     0.277 HD
ATOM     54  H62 UNL     1      -3.846  -2.655  -1.895  1.00  0.00     0.277 HD
ATOM     55  H61 UNL     1      -4.211  -4.041  -0.980  1.00  0.00     0.277 HD
ENDBRANCH  47  52
ENDBRANCH  40  47
ENDBRANCH   1  32
TORSDOF 15
