REMARK  9 active torsions:
REMARK  status: ('A' for Active; 'I' for Inactive)
REMARK    1  A    between atoms: C2_2  and  C3_3 
REMARK    2  A    between atoms: C3_3  and  S1_4 
REMARK    3  A    between atoms: S1_4  and  C4_5 
REMARK    4  A    between atoms: C4_5  and  C5_6 
REMARK       I    between atoms: C5_6  and  N1_8 
REMARK    5  A    between atoms: N1_8  and  C6_10 
REMARK    6  A    between atoms: C6_10  and  C7_11 
REMARK    7  A    between atoms: C13_17  and  O2_18 
REMARK    8  A    between atoms: C16_22  and  N2_23 
REMARK    9  A    between atoms: N2_23  and  C17_25 
ROOT
HETATM    1  C7  UNL     1       0.200  -1.093   0.152  1.00  0.00     0.031 C 
HETATM    2  C8  UNL     1      -0.071  -1.814  -1.080  1.00  0.00     0.025 C 
HETATM    3  C9  UNL     1      -0.972  -3.034  -0.851  1.00  0.00    -0.012 C 
HETATM    4  C10 UNL     1      -0.177  -4.005   0.014  1.00  0.00     0.012 C 
HETATM    5  C11 UNL     1       0.084  -3.309   1.339  1.00  0.00     0.017 C 
HETATM    6  C12 UNL     1       0.962  -2.129   1.043  1.00  0.00     0.028 C 
HETATM    7  C13 UNL     1      -1.185  -2.909   2.050  1.00  0.00     0.132 C 
HETATM    8  C14 UNL     1      -1.924  -1.892   1.137  1.00  0.00     0.061 C 
HETATM    9  C15 UNL     1      -2.200  -2.690  -0.100  1.00  0.00     0.017 C 
HETATM   10  C16 UNL     1      -1.026  -0.727   1.014  1.00  0.00     0.003 C 
ENDROOT
BRANCH   1  11
HETATM   11  C6  UNL     1       1.090   0.087   0.141  1.00  0.00     0.079 C 
BRANCH  11  12
HETATM   12  N1  UNL     1       2.426  -0.026  -0.278  1.00  0.00    -0.339 N 
HETATM   13  C5  UNL     1       2.935  -0.263  -1.566  1.00  0.00     0.230 C 
HETATM   14  O1  UNL     1       2.263  -0.400  -2.612  1.00  0.00    -0.272 OA
ATOM     15  H1  UNL     1       3.126   0.079   0.457  1.00  0.00     0.167 HD
BRANCH  13  16
HETATM   16  C4  UNL     1       4.431  -0.372  -1.776  1.00  0.00     0.176 C 
BRANCH  16  17
HETATM   17  S1  UNL     1       5.127   1.265  -2.001  1.00  0.00    -0.160 SA
BRANCH  17  18
HETATM   18  C3  UNL     1       5.059   2.209  -0.475  1.00  0.00     0.074 C 
BRANCH  18  19
HETATM   19  C2  UNL     1       6.022   1.576   0.535  1.00  0.00     0.006 C 
HETATM   20  C1  UNL     1       7.435   1.603  -0.009  1.00  0.00     0.006 C 
ENDBRANCH  18  19
ENDBRANCH  17  18
ENDBRANCH  16  17
ENDBRANCH  13  16
ENDBRANCH  11  12
ENDBRANCH   1  11
BRANCH  10  21
HETATM   21  N2  UNL     1      -1.484   0.557   0.866  1.00  0.00    -0.390 N 
ATOM     22  H2  UNL     1      -1.354   1.136   1.695  1.00  0.00     0.159 HD
BRANCH  21  23
HETATM   23  C17 UNL     1      -2.081   1.214  -0.176  1.00  0.00     0.081 C 
HETATM   24  C18 UNL     1      -3.498   0.867  -0.555  1.00  0.00     0.025 C 
HETATM   25  C19 UNL     1      -4.438   1.521   0.453  1.00  0.00     0.006 C 
HETATM   26  C20 UNL     1      -4.575   2.969   0.009  1.00  0.00    -0.019 C 
HETATM   27  C21 UNL     1      -5.610   3.005  -1.092  1.00  0.00     0.010 C 
HETATM   28  C22 UNL     1      -3.232   3.415  -0.530  1.00  0.00     0.006 C 
HETATM   29  C23 UNL     1      -2.090   2.726   0.144  1.00  0.00     0.025 C 
ENDBRANCH  21  23
ENDBRANCH  10  21
BRANCH   7  30
HETATM   30  O2  UNL     1      -1.958  -3.994   2.346  1.00  0.00    -0.394 OA
ATOM     31  H2  UNL     1      -2.757  -3.742   2.794  1.00  0.00     0.210 HD
ENDBRANCH   7  30
TORSDOF 9
