REMARK  2 active torsions:
REMARK  status: ('A' for Active; 'I' for Inactive)
REMARK    1  A    between atoms: C8_15  and  O1_16 
REMARK    2  A    between atoms: O1_16  and  C9_17 
ROOT
HETATM    1  C1  UNL     1      -2.545  -2.372   0.823  1.00  0.00     0.054 C 
HETATM    2  C2  UNL     1      -2.962  -0.981   0.470  1.00  0.00     0.012 A 
HETATM    3  C3  UNL     1      -4.047  -0.382   1.102  1.00  0.00     0.124 A 
HETATM    4  C4  UNL     1      -4.733  -1.159   2.096  1.00  0.00     0.118 C 
HETATM    5  N1  UNL     1      -5.290  -1.782   2.895  1.00  0.00    -0.190 NA
HETATM    6  N2  UNL     1      -4.440   0.869   0.800  1.00  0.00    -0.331 N 
ATOM      7  H2  UNL     1      -5.242   1.258   1.296  1.00  0.00     0.168 HD
HETATM    8  C5  UNL     1      -3.826   1.635  -0.126  1.00  0.00     0.137 A 
HETATM    9  N3  UNL     1      -4.040   2.882  -0.581  1.00  0.00    -0.337 N 
ATOM     10  H3  UNL     1      -4.769   3.530  -0.282  1.00  0.00     0.168 HD
HETATM   11  C6  UNL     1      -3.093   3.097  -1.512  1.00  0.00     0.182 A 
HETATM   12  N4  UNL     1      -2.308   2.010  -1.634  1.00  0.00    -0.347 N 
ATOM     13  H4  UNL     1      -1.517   1.918  -2.272  1.00  0.00     0.167 HD
HETATM   14  C7  UNL     1      -2.741   1.052  -0.767  1.00  0.00     0.112 A 
HETATM   15  C8  UNL     1      -2.319  -0.223  -0.477  1.00  0.00     0.117 A 
ENDROOT
BRANCH  15  16
HETATM   16  O1  UNL     1      -1.235  -0.775  -1.132  1.00  0.00    -0.291 OA
BRANCH  16  17
HETATM   17  C9  UNL     1       0.056  -0.618  -0.612  1.00  0.00     0.164 C 
HETATM   18  N5  UNL     1       0.292   0.285   0.243  1.00  0.00    -0.360 N 
HETATM   19  C10 UNL     1       1.627   0.446   0.779  1.00  0.00     0.049 C 
ATOM     20  H5  UNL     1      -0.460   0.900   0.555  1.00  0.00     0.162 HD
HETATM   21  C11 UNL     1       1.726  -0.330   2.049  1.00  0.00     0.041 C 
HETATM   22  C12 UNL     1       1.745   1.935   1.138  1.00  0.00     0.041 C 
HETATM   23  C13 UNL     1       2.699   0.125  -0.213  1.00  0.00     0.045 C 
HETATM   24  C14 UNL     1       3.948  -0.311   0.539  1.00  0.00     0.040 C 
HETATM   25  C15 UNL     1       3.098   1.400  -0.967  1.00  0.00     0.040 C 
HETATM   26  N6  UNL     1       2.382  -0.861  -1.168  1.00  0.00    -0.384 N 
HETATM   27  C16 UNL     1       1.126  -1.506  -1.065  1.00  0.00     0.166 C 
ATOM     28  H6  UNL     1       3.038  -1.103  -1.911  1.00  0.00     0.156 HD
HETATM   29  C17 UNL     1       0.753  -1.997  -2.472  1.00  0.00     0.065 C 
HETATM   30 CL1  UNL     1       1.222  -2.995  -0.064  1.00  0.00    -0.087 Cl
ENDBRANCH  16  17
ENDBRANCH  15  16
TORSDOF 2
