REMARK  4 active torsions:
REMARK  status: ('A' for Active; 'I' for Inactive)
REMARK    1  A    between atoms: C2_2  and  C4_5 
REMARK    2  A    between atoms: C5_6  and  C6_7 
REMARK    3  A    between atoms: C11_18  and  N5_19 
REMARK    4  A    between atoms: N5_19  and  C12_21 
ROOT
HETATM    1  C6  UNL     1       1.642  -0.768  -0.382  1.00  0.00     0.079 A 
HETATM    2  C7  UNL     1       1.927  -2.005  -0.965  1.00  0.00     0.094 A 
HETATM    3  N1  UNL     1       3.262  -2.383  -1.127  1.00  0.00    -0.099 NA
HETATM    4  C8  UNL     1       0.820  -2.727  -1.321  1.00  0.00     0.140 A 
HETATM    5  C9  UNL     1       1.095  -4.021  -1.931  1.00  0.00     0.107 C 
HETATM    6  N2  UNL     1       1.307  -5.056  -2.405  1.00  0.00    -0.191 NA
HETATM    7  C10 UNL     1      -0.469  -2.329  -1.149  1.00  0.00     0.290 A 
HETATM    8  O1  UNL     1      -1.369  -3.114  -1.532  1.00  0.00    -0.264 OA
HETATM    9  N3  UNL     1      -0.743  -1.106  -0.573  1.00  0.00    -0.209 N 
HETATM   10  N4  UNL     1      -1.928  -0.632  -0.363  1.00  0.00    -0.269 N 
ATOM     11  H4  UNL     1      -2.756  -1.166  -0.626  1.00  0.00     0.190 HD
HETATM   12  C11 UNL     1      -2.044   0.570   0.205  1.00  0.00     0.162 A 
HETATM   13  S1  UNL     1      -0.413   1.017   0.438  1.00  0.00    -0.032 SA
HETATM   14  C16 UNL     1       0.309  -0.384  -0.217  1.00  0.00     0.125 A 
ENDROOT
BRANCH   1  15
HETATM   15  C5  UNL     1       2.699   0.089   0.038  1.00  0.00    -0.060 C 
HETATM   16  C4  UNL     1       3.595   0.839   0.391  1.00  0.00    -0.075 C 
BRANCH  16  17
HETATM   17  C2  UNL     1       4.661   1.758   0.804  1.00  0.00     0.093 C 
HETATM   18  C1  UNL     1       5.883   1.616  -0.053  1.00  0.00     0.046 C 
HETATM   19  C3  UNL     1       5.032   1.420   2.231  1.00  0.00     0.046 C 
HETATM   20 CL1  UNL     1       4.112   3.458   0.702  1.00  0.00    -0.106 Cl
ENDBRANCH  16  17
ENDBRANCH   1  15
BRANCH  12  21
HETATM   21  N5  UNL     1      -3.078   1.273   0.525  1.00  0.00    -0.361 N 
ATOM     22  H5  UNL     1      -2.914   2.182   0.958  1.00  0.00     0.162 HD
BRANCH  21  23
HETATM   23  C12 UNL     1      -4.432   0.876   0.320  1.00  0.00     0.021 C 
HETATM   24  C13 UNL     1      -4.820  -0.396   1.048  1.00  0.00     0.037 C 
HETATM   25  C14 UNL     1      -4.662   0.757  -1.187  1.00  0.00     0.037 C 
HETATM   26  C15 UNL     1      -5.368   1.961   0.819  1.00  0.00     0.037 C 
ENDBRANCH  21  23
ENDBRANCH  12  21
TORSDOF 4
