REMARK  4 active torsions:
REMARK  status: ('A' for Active; 'I' for Inactive)
REMARK    1  A    between atoms: C1_4  and  C2_6 
REMARK    2  A    between atoms: C2_6  and  C3_7 
REMARK    3  A    between atoms: C4_8  and  C5_9 
REMARK    4  A    between atoms: C5_9  and  N3_10 
ROOT
HETATM    1  C2  UNL     1      -2.011   0.167  -0.171  1.00  0.00     0.079 C 
HETATM    2  C10 UNL     1      -2.707  -1.109  -0.545  1.00  0.00     0.030 C 
HETATM    3  C11 UNL     1      -3.154  -1.916   0.641  1.00  0.00     0.002 C 
HETATM    4  C12 UNL     1      -3.865  -1.098   1.690  1.00  0.00     0.000 C 
HETATM    5  C13 UNL     1      -3.137   0.141   2.090  1.00  0.00     0.002 C 
HETATM    6  C14 UNL     1      -1.959   0.489   1.253  1.00  0.00     0.030 C 
ENDROOT
BRANCH   1   7
HETATM    7  C1  UNL     1      -2.620   1.241  -0.979  1.00  0.00     0.107 C 
HETATM    8  N1  UNL     1      -3.161   2.257  -0.491  1.00  0.00    -0.390 N 
ATOM      9  H12 UNL     1      -3.582   2.999  -1.050  1.00  0.00     0.157 HD
ATOM     10  H11 UNL     1      -3.170   2.331   0.526  1.00  0.00     0.157 HD
HETATM   11  N2  UNL     1      -2.608   1.136  -2.414  1.00  0.00    -0.086 NA
ENDBRANCH   1   7
BRANCH   1  12
HETATM   12  C3  UNL     1      -0.598   0.098  -0.652  1.00  0.00    -0.087 C 
HETATM   13  C4  UNL     1       0.543   0.019  -1.037  1.00  0.00    -0.075 C 
BRANCH  13  14
HETATM   14  C5  UNL     1       1.919  -0.075  -1.524  1.00  0.00     0.366 C 
BRANCH  14  15
HETATM   15  N3  UNL     1       2.850   0.532  -0.605  1.00  0.00     0.103 N 
HETATM   16  C6  UNL     1       2.946  -0.214   0.615  1.00  0.00     0.299 C 
HETATM   17  C7  UNL     1       4.311  -0.860   0.728  1.00  0.00     0.198 C 
HETATM   18  O1  UNL     1       5.347   0.042   0.680  1.00  0.00    -0.388 OA
HETATM   19  C8  UNL     1       5.111   1.154  -0.093  1.00  0.00     0.198 C 
HETATM   20  C9  UNL     1       4.130   0.785  -1.195  1.00  0.00     0.299 C 
ENDBRANCH  14  15
ENDBRANCH  13  14
ENDBRANCH   1  12
TORSDOF 4
