REMARK  11 active torsions:
REMARK  status: ('A' for Active; 'I' for Inactive)
REMARK    1  A    between atoms: C14_15  and  C15_16 
REMARK    2  A    between atoms: C15_16  and  C16_18 
REMARK    3  A    between atoms: N1_19  and  N2_21 
REMARK    4  A    between atoms: C17_23  and  C18_24 
REMARK    5  A    between atoms: C20_26  and  O2_27 
REMARK    6  A    between atoms: N3_29  and  C21_30 
REMARK    7  A    between atoms: C21_30  and  C22_31 
REMARK    8  A    between atoms: C22_31  and  C23_32 
REMARK    9  A    between atoms: C23_32  and  O3_33 
REMARK   10  A    between atoms: C23_32  and  C24_35 
REMARK   11  A    between atoms: C30_41  and  O4_42 
ROOT
HETATM    1  N2  UNL     1       0.822   0.680   1.514  1.00  0.00    -0.311 N 
ATOM      2  H2  UNL     1       1.049   1.664   1.368  1.00  0.00     0.186 HD
HETATM    3  C17 UNL     1       1.548  -0.185   0.914  1.00  0.00     0.123 C 
ENDROOT
BRANCH   1   4
HETATM    4  N1  UNL     1      -0.238   0.394   2.339  1.00  0.00    -0.309 N 
HETATM    5  C16 UNL     1      -1.440   0.138   2.024  1.00  0.00     0.157 C 
ATOM      6  H1  UNL     1      -0.031   0.386   3.338  1.00  0.00     0.186 HD
BRANCH   5   7
HETATM    7  C15 UNL     1      -1.998   0.086   0.696  1.00  0.00     0.170 C 
HETATM    8  O1  UNL     1      -1.256   0.311  -0.294  1.00  0.00    -0.291 OA
BRANCH   7   9
HETATM    9  C14 UNL     1      -3.446  -0.230   0.447  1.00  0.00     0.066 C 
HETATM   10  C7  UNL     1      -3.726  -0.219  -1.012  1.00  0.00    -0.001 C 
HETATM   11  C6  UNL     1      -4.511  -1.422  -1.384  1.00  0.00     0.010 C 
HETATM   12  C8  UNL     1      -4.313   1.080  -1.502  1.00  0.00     0.026 C 
HETATM   13  C5  UNL     1      -5.999  -1.319  -1.129  1.00  0.00    -0.012 C 
HETATM   14  C4  UNL     1      -6.365  -1.593   0.273  1.00  0.00     0.013 C 
HETATM   15  C10 UNL     1      -6.527  -0.084  -1.751  1.00  0.00     0.025 C 
HETATM   16  C2  UNL     1      -6.435  -0.543   1.255  1.00  0.00    -0.044 C 
HETATM   17  C1  UNL     1      -7.910  -0.160   1.498  1.00  0.00     0.015 C 
HETATM   18  C3  UNL     1      -5.996  -1.101   2.626  1.00  0.00     0.015 C 
HETATM   19  C12 UNL     1      -5.704   0.734   1.091  1.00  0.00    -0.005 C 
HETATM   20  C11 UNL     1      -6.201   1.605  -0.041  1.00  0.00     0.026 C 
HETATM   21  C13 UNL     1      -4.240   0.706   1.262  1.00  0.00     0.018 C 
HETATM   22  C9  UNL     1      -5.788   1.173  -1.388  1.00  0.00     0.019 C 
HETATM   23 BR1  UNL     1      -6.381   2.547  -2.647  1.00  0.00    -0.086 Br
ENDBRANCH   7   9
ENDBRANCH   5   7
ENDBRANCH   1   4
BRANCH   3  24
HETATM   24  C18 UNL     1       2.636   0.257   0.073  1.00  0.00     0.036 A 
HETATM   25  C19 UNL     1       3.040   1.530  -0.197  1.00  0.00     0.073 A 
HETATM   26  C20 UNL     1       4.128   1.461  -1.056  1.00  0.00     0.144 A 
HETATM   27  N3  UNL     1       4.394   0.193  -1.311  1.00  0.00    -0.308 N 
HETATM   28  C30 UNL     1       3.484  -0.565  -0.624  1.00  0.00     0.156 A 
BRANCH  26  29
HETATM   29  O2  UNL     1       4.795   2.580  -1.542  1.00  0.00    -0.346 OA
ATOM     30  H2  UNL     1       5.540   2.533  -2.130  1.00  0.00     0.219 HD
ENDBRANCH  26  29
BRANCH  27  31
HETATM   31  C21 UNL     1       5.408  -0.424  -2.111  1.00  0.00     0.136 C 
BRANCH  31  32
HETATM   32  C22 UNL     1       6.654  -0.816  -1.395  1.00  0.00     0.057 C 
BRANCH  32  33
HETATM   33  C23 UNL     1       7.381   0.333  -0.806  1.00  0.00     0.152 C 
BRANCH  33  34
HETATM   34  O3  UNL     1       7.778   1.225  -1.807  1.00  0.00    -0.391 OA
ATOM     35  H3  UNL     1       8.244   1.962  -1.429  1.00  0.00     0.210 HD
ENDBRANCH  33  34
BRANCH  33  36
HETATM   36  C24 UNL     1       8.614  -0.113  -0.107  1.00  0.00    -0.030 A 
HETATM   37  C25 UNL     1       8.622  -0.155   1.270  1.00  0.00     0.010 A 
HETATM   38  C26 UNL     1       9.765  -0.570   1.947  1.00  0.00     0.001 A 
HETATM   39  C27 UNL     1      10.903  -0.944   1.272  1.00  0.00     0.000 A 
HETATM   40  C28 UNL     1      10.894  -0.902  -0.102  1.00  0.00     0.001 A 
HETATM   41  C29 UNL     1       9.744  -0.485  -0.775  1.00  0.00     0.010 A 
ENDBRANCH  33  36
ENDBRANCH  32  33
ENDBRANCH  31  32
ENDBRANCH  27  31
BRANCH  28  42
HETATM   42  O4  UNL     1       3.411  -1.944  -0.617  1.00  0.00    -0.345 OA
ATOM     43  H4  UNL     1       3.998  -2.513  -1.100  1.00  0.00     0.219 HD
ENDBRANCH  28  42
ENDBRANCH   3  24
TORSDOF 11
