REMARK  8 active torsions:
REMARK  status: ('A' for Active; 'I' for Inactive)
REMARK    1  A    between atoms: C3_5  and  N2_6 
REMARK    2  A    between atoms: C6_9  and  C7_10 
REMARK    3  A    between atoms: C7_10  and  C8_11 
REMARK    4  A    between atoms: C7_10  and  C11_17 
REMARK    5  A    between atoms: C11_17  and  N4_18 
REMARK       I    between atoms: N4_18  and  C12_20 
REMARK    6  A    between atoms: C12_20  and  O2_22 
REMARK    7  A    between atoms: O2_22  and  C13_23 
REMARK    8  A    between atoms: C29_41  and  N5_42 
ROOT
HETATM    1  C7  UNL     1      -0.442  -0.796   0.884  1.00  0.00     0.007 C 
ENDROOT
BRANCH   1   2
HETATM    2  C6  UNL     1      -1.106  -0.088  -0.261  1.00  0.00     0.034 C 
HETATM    3  C5  UNL     1      -1.979   1.006   0.367  1.00  0.00     0.030 C 
HETATM    4  C4  UNL     1      -3.436   0.838   0.207  1.00  0.00     0.134 C 
HETATM    5  N2  UNL     1      -3.827   0.558  -1.169  1.00  0.00    -0.301 N 
HETATM    6  C27 UNL     1      -2.814  -0.024  -1.965  1.00  0.00     0.226 C 
HETATM    7  C26 UNL     1      -1.792  -0.862  -1.287  1.00  0.00     0.113 C 
HETATM    8  O3  UNL     1      -2.848   0.210  -3.203  1.00  0.00    -0.273 OA
BRANCH   5   9
HETATM    9  C3  UNL     1      -5.129   0.863  -1.636  1.00  0.00     0.154 A 
HETATM   10  N1  UNL     1      -5.684   2.070  -1.400  1.00  0.00    -0.330 N 
HETATM   11  C2  UNL     1      -6.909   2.402  -1.823  1.00  0.00     0.080 A 
ATOM     12  H1  UNL     1      -5.146   2.760  -0.876  1.00  0.00     0.168 HD
HETATM   13  C1  UNL     1      -7.502   3.739  -1.548  1.00  0.00     0.089 C 
HETATM   14  N6  UNL     1      -7.658   1.528  -2.517  1.00  0.00    -0.330 N 
HETATM   15  C29 UNL     1      -7.151   0.322  -2.775  1.00  0.00     0.143 A 
ATOM     16  H6  UNL     1      -8.592   1.781  -2.839  1.00  0.00     0.168 HD
HETATM   17  C28 UNL     1      -5.876  -0.045  -2.344  1.00  0.00     0.203 A 
HETATM   18  F1  UNL     1      -5.423  -1.288  -2.642  1.00  0.00    -0.198 F 
BRANCH  15  19
HETATM   19  N5  UNL     1      -7.829  -0.564  -3.443  1.00  0.00    -0.383 N 
ATOM     20  H52 UNL     1      -7.441  -1.487  -3.640  1.00  0.00     0.157 HD
ATOM     21  H51 UNL     1      -8.761  -0.296  -3.758  1.00  0.00     0.157 HD
ENDBRANCH  15  19
ENDBRANCH   5   9
ENDBRANCH   1   2
BRANCH   1  22
HETATM   22  C8  UNL     1      -1.442  -1.424   1.811  1.00  0.00     0.082 A 
HETATM   23  N3  UNL     1      -2.324  -2.359   1.542  1.00  0.00    -0.359 N 
HETATM   24  C9  UNL     1      -3.134  -2.822   2.431  1.00  0.00     0.096 A 
ATOM     25  H3  UNL     1      -2.370  -2.733   0.594  1.00  0.00     0.166 HD
HETATM   26  C10 UNL     1      -3.041  -2.294   3.700  1.00  0.00     0.069 A 
HETATM   27  S1  UNL     1      -1.777  -1.170   3.468  1.00  0.00    -0.082 SA
ENDBRANCH   1  22
BRANCH   1  28
HETATM   28  C11 UNL     1       0.868  -1.392   0.749  1.00  0.00     0.048 C 
HETATM   29  C20 UNL     1       1.277  -2.638   0.139  1.00  0.00    -0.052 C 
HETATM   30  C21 UNL     1       0.734  -3.932   0.677  1.00  0.00     0.036 C 
HETATM   31  C25 UNL     1       1.479  -2.712  -1.358  1.00  0.00     0.036 C 
HETATM   32  C22 UNL     1      -0.046  -4.645  -0.440  1.00  0.00     0.004 C 
HETATM   33  C23 UNL     1       0.963  -5.089  -1.482  1.00  0.00     0.001 C 
HETATM   34  C24 UNL     1       2.119  -4.108  -1.575  1.00  0.00     0.004 C 
BRANCH  28  35
HETATM   35  N4  UNL     1       1.832  -0.338   0.367  1.00  0.00    -0.302 N 
HETATM   36  C12 UNL     1       2.794   0.210   1.240  1.00  0.00     0.365 C 
HETATM   37  O1  UNL     1       2.929  -0.147   2.440  1.00  0.00    -0.238 OA
ATOM     38  H4  UNL     1       1.799   0.015  -0.589  1.00  0.00     0.171 HD
BRANCH  36  39
HETATM   39  O2  UNL     1       3.644   1.194   0.764  1.00  0.00    -0.298 OA
BRANCH  39  40
HETATM   40  C13 UNL     1       4.643   1.810   1.554  1.00  0.00     0.133 C 
HETATM   41  C14 UNL     1       5.964   1.464   0.949  1.00  0.00     0.032 C 
HETATM   42  C15 UNL     1       7.122   2.118   1.680  1.00  0.00     0.002 C 
HETATM   43  C16 UNL     1       7.051   3.609   1.639  1.00  0.00     0.000 C 
HETATM   44  C17 UNL     1       6.408   4.089   0.363  1.00  0.00     0.000 C 
HETATM   45  C18 UNL     1       4.915   4.036   0.395  1.00  0.00     0.002 C 
HETATM   46  C19 UNL     1       4.339   3.287   1.545  1.00  0.00     0.032 C 
ENDBRANCH  39  40
ENDBRANCH  36  39
ENDBRANCH  28  35
ENDBRANCH   1  28
TORSDOF 8
