REMARK  0 active torsions:
REMARK  status: ('A' for Active; 'I' for Inactive)
ROOT
HETATM    1  C1  UNL     1      -2.605   0.523   0.424  1.00  0.00     0.035 C 
HETATM    2  C2  UNL     1      -2.716  -0.194  -0.877  1.00  0.00     0.239 C 
HETATM    3  N1  UNL     1      -1.440  -0.725  -1.228  1.00  0.00    -0.015 N 
ATOM      4  H11 UNL     1      -1.217  -0.583  -2.213  1.00  0.00     0.283 HD
ATOM      5  H12 UNL     1      -1.429  -1.745  -1.226  1.00  0.00     0.283 HD
HETATM    6  C3  UNL     1      -0.449  -0.165  -0.356  1.00  0.00     0.363 C 
HETATM    7  C4  UNL     1      -1.136   0.728   0.628  1.00  0.00     0.105 C 
HETATM    8  O1  UNL     1       0.435   0.648  -1.099  1.00  0.00    -0.326 OA
HETATM    9  C5  UNL     1       1.550   0.826  -0.246  1.00  0.00     0.247 C 
HETATM   10  C6  UNL     1       2.261  -0.521  -0.242  1.00  0.00     0.241 A 
HETATM   11  C7  UNL     1       3.652  -0.621  -0.256  1.00  0.00     0.245 A 
HETATM   12  O2  UNL     1       2.957  -0.815   1.020  1.00  0.00    -0.344 OA
HETATM   13  O3  UNL     1       1.331  -1.485  -0.510  1.00  0.00    -0.191 OA
HETATM   14  O4  UNL     1       0.252  -1.205   0.229  1.00  0.00    -0.166 OA
ENDROOT
TORSDOF 0
