REMARK  1 active torsions:
REMARK  status: ('A' for Active; 'I' for Inactive)
REMARK    1  A    between atoms: O1_1  and  C1_3 
ROOT
HETATM    1  C1  UNL     1      -2.104  -0.359   0.184  1.00  0.00     0.289 C 
HETATM    2  O2  UNL     1      -1.966   0.680  -0.719  1.00  0.00    -0.329 OA
HETATM    3  C2  UNL     1      -0.728   1.291  -0.660  1.00  0.00     0.447 C 
HETATM    4  N1  UNL     1       0.362   0.392  -1.015  1.00  0.00     0.153 N 
HETATM    5  C3  UNL     1      -0.266  -0.913  -1.297  1.00  0.00     0.316 C 
HETATM    6  C4  UNL     1      -0.824  -1.198   0.107  1.00  0.00     0.208 C 
HETATM    7  O3  UNL     1       0.135  -0.672   0.988  1.00  0.00    -0.337 OA
HETATM    8  C5  UNL     1       1.025   0.041   0.235  1.00  0.00     0.306 C 
HETATM    9  C6  UNL     1       1.815   1.109   0.888  1.00  0.00     0.242 C 
HETATM   10  O4  UNL     1       2.890   0.784   0.027  1.00  0.00    -0.381 OA
HETATM   11  C7  UNL     1       2.403  -0.543   0.066  1.00  0.00     0.242 C 
ENDROOT
BRANCH   1  12
HETATM   12  O1  UNL     1      -2.349   0.085   1.472  1.00  0.00    -0.368 OA
ATOM     13  H1  UNL     1      -2.444  -0.628   2.092  1.00  0.00     0.212 HD
ENDBRANCH   1  12
TORSDOF 1
