REMARK  4 active torsions:
REMARK  status: ('A' for Active; 'I' for Inactive)
REMARK    1  A    between atoms: C2_3  and  N2_4 
REMARK       I    between atoms: N2_4  and  C3_6 
REMARK       I    between atoms: C3_6  and  N4_17 
REMARK    2  A    between atoms: N3_7  and  C4_9 
REMARK    3  A    between atoms: C4_9  and  C5_10 
REMARK    4  A    between atoms: C5_10  and  C6_11 
ROOT
HETATM    1  N1  UNL     1       4.928   2.068  -2.338  1.00  0.00    -0.196 NA
HETATM    2  C1  UNL     1       4.989   1.108  -1.660  1.00  0.00     0.079 C 
HETATM    3  C2  UNL     1       5.058  -0.091  -0.833  1.00  0.00     0.262 C 
ENDROOT
BRANCH   3   4
HETATM    4  N2  UNL     1       3.789  -0.781  -0.756  1.00  0.00    -0.213 N 
HETATM    5  C3  UNL     1       2.712  -0.159  -0.063  1.00  0.00     0.683 C 
HETATM    6  N3  UNL     1       1.731   0.237  -0.793  1.00  0.00    -0.226 N 
HETATM    7  N4  UNL     1       2.771  -0.016   1.335  1.00  0.00    -0.126 N 
ATOM      8  H3  UNL     1       1.802   0.076  -1.798  1.00  0.00     0.177 HD
HETATM    9  C12 UNL     1       3.744  -0.680   2.083  1.00  0.00     0.196 C 
ATOM     10  H4  UNL     1       2.093   0.581   1.809  1.00  0.00     0.197 HD
HETATM   11  N5  UNL     1       4.551  -1.240   2.730  1.00  0.00    -0.171 NA
ATOM     12  H2  UNL     1       3.668  -1.696  -1.190  1.00  0.00     0.178 HD
BRANCH   6  13
HETATM   13  C4  UNL     1       0.535   0.892  -0.309  1.00  0.00     0.138 C 
BRANCH  13  14
HETATM   14  C5  UNL     1      -0.381  -0.155   0.252  1.00  0.00     0.025 C 
BRANCH  14  15
HETATM   15  C6  UNL     1      -1.675   0.388   0.799  1.00  0.00    -0.013 C 
HETATM   16  C7  UNL     1      -2.500  -0.744   1.330  1.00  0.00     0.005 C 
HETATM   17  C8  UNL     1      -3.390  -1.404   0.329  1.00  0.00     0.000 C 
HETATM   18  C9  UNL     1      -4.257  -0.338  -0.355  1.00  0.00     0.000 C 
HETATM   19  C10 UNL     1      -3.267   0.502  -1.155  1.00  0.00     0.000 C 
HETATM   20  C11 UNL     1      -2.436   1.259  -0.141  1.00  0.00     0.005 C 
ENDBRANCH  14  15
ENDBRANCH  13  14
ENDBRANCH   6  13
ENDBRANCH   3   4
TORSDOF 4
