REMARK  4 active torsions:
REMARK  status: ('A' for Active; 'I' for Inactive)
REMARK       I    between atoms: C2_2  and  N1_4 
REMARK       I    between atoms: C3_6  and  N2_7 
REMARK       I    between atoms: C3_6  and  N5_14 
REMARK       I    between atoms: N2_7  and  C4_9 
REMARK       I    between atoms: N5_14  and  C5_16 
REMARK    1  A    between atoms: C5_16  and  C6_18 
REMARK    2  A    between atoms: C6_18  and  C7_19 
REMARK    3  A    between atoms: C7_19  and  C8_20 
REMARK    4  A    between atoms: C8_20  and  N6_21 
ROOT
HETATM    1  C1  UNL     1       4.965  -3.052   0.079  1.00  0.00     0.118 C 
HETATM    2  C2  UNL     1       3.730  -2.453   0.687  1.00  0.00     0.231 C 
HETATM    3  O1  UNL     1       2.756  -3.222   0.927  1.00  0.00    -0.273 OA
HETATM    4  N1  UNL     1       3.663  -1.084   0.977  1.00  0.00    -0.160 N 
ATOM      5  H1  UNL     1       4.405  -0.703   1.564  1.00  0.00     0.187 HD
HETATM    6  C3  UNL     1       2.756  -0.256   0.576  1.00  0.00     0.690 C 
HETATM    7  N2  UNL     1       2.929   1.090   1.020  1.00  0.00    -0.163 N 
ATOM      8  H2  UNL     1       2.209   1.509   1.609  1.00  0.00     0.187 HD
HETATM    9  C4  UNL     1       4.060   1.863   0.674  1.00  0.00     0.200 C 
HETATM   10  N3  UNL     1       5.176   1.640   1.261  1.00  0.00    -0.373 N 
ATOM     11  H31 UNL     1       5.992   2.198   1.011  1.00  0.00     0.158 HD
ATOM     12  H32 UNL     1       5.236   0.908   1.969  1.00  0.00     0.158 HD
HETATM   13  N4  UNL     1       3.977   2.873  -0.302  1.00  0.00    -0.063 NA
HETATM   14  N5  UNL     1       1.684  -0.674  -0.243  1.00  0.00    -0.159 N 
ATOM     15  H5  UNL     1       1.617  -1.649  -0.534  1.00  0.00     0.187 HD
HETATM   16  C5  UNL     1       0.705   0.254  -0.661  1.00  0.00     0.235 C 
HETATM   17  O2  UNL     1       0.794   1.433  -0.299  1.00  0.00    -0.273 OA
ENDROOT
BRANCH  16  18
HETATM   18  C6  UNL     1      -0.391  -0.221  -1.520  1.00  0.00     0.105 C 
BRANCH  18  19
HETATM   19  C7  UNL     1      -1.412   0.835  -1.772  1.00  0.00     0.039 C 
BRANCH  19  20
HETATM   20  C8  UNL     1      -2.147   1.331  -0.562  1.00  0.00     0.273 C 
BRANCH  20  21
HETATM   21  N6  UNL     1      -2.841   0.204   0.028  1.00  0.00     0.092 N 
HETATM   22  C9  UNL     1      -3.915  -0.272  -0.799  1.00  0.00     0.298 C 
HETATM   23  C10 UNL     1      -4.750  -1.233   0.015  1.00  0.00     0.198 C 
HETATM   24  O3  UNL     1      -5.304  -0.659   1.151  1.00  0.00    -0.388 OA
HETATM   25  C11 UNL     1      -4.659   0.491   1.575  1.00  0.00     0.198 C 
HETATM   26  C12 UNL     1      -3.151   0.372   1.407  1.00  0.00     0.298 C 
ENDBRANCH  20  21
ENDBRANCH  19  20
ENDBRANCH  18  19
ENDBRANCH  16  18
TORSDOF 4
