REMARK  8 active torsions:
REMARK  status: ('A' for Active; 'I' for Inactive)
REMARK       I    between atoms: C2_2  and  N1_4 
REMARK    1  A    between atoms: N1_4  and  C3_6 
REMARK    2  A    between atoms: C3_6  and  C4_7 
REMARK    3  A    between atoms: C3_6  and  C14_32 
REMARK       I    between atoms: C4_7  and  N2_9 
REMARK    4  A    between atoms: N2_9  and  C5_11 
REMARK    5  A    between atoms: C5_11  and  C6_12 
REMARK       I    between atoms: C6_12  and  N3_14 
REMARK    6  A    between atoms: N3_14  and  C7_16 
REMARK    7  A    between atoms: C7_16  and  C9_18 
REMARK       I    between atoms: C9_18  and  N4_20 
REMARK    8  A    between atoms: N4_20  and  C10_22 
ROOT
HETATM    1  C6  UNL     1       0.494   1.387   0.840  1.00  0.00     0.236 C 
HETATM    2  O3  UNL     1       0.885   1.141  -0.328  1.00  0.00    -0.272 OA
HETATM    3  N3  UNL     1      -0.872   1.649   1.079  1.00  0.00    -0.347 N 
ATOM      4  H3  UNL     1      -1.157   1.843   2.039  1.00  0.00     0.163 HD
ENDROOT
BRANCH   3   5
HETATM    5  C7  UNL     1      -1.888   1.661   0.067  1.00  0.00     0.172 C 
HETATM    6  C8  UNL     1      -2.479   3.050  -0.133  1.00  0.00     0.042 C 
BRANCH   5   7
HETATM    7  C9  UNL     1      -2.999   0.742   0.328  1.00  0.00     0.242 C 
HETATM    8  O4  UNL     1      -3.007   0.038   1.356  1.00  0.00    -0.271 OA
HETATM    9  N4  UNL     1      -4.071   0.644  -0.578  1.00  0.00    -0.332 N 
ATOM     10  H4  UNL     1      -4.068   1.218  -1.421  1.00  0.00     0.165 HD
BRANCH   9  11
HETATM   11  C10 UNL     1      -5.191  -0.268  -0.333  1.00  0.00     0.234 C 
HETATM   12  C11 UNL     1      -6.445   0.537  -0.204  1.00  0.00     0.074 C 
HETATM   13  C12 UNL     1      -7.596  -0.408   0.039  1.00  0.00     0.127 C 
HETATM   14  N5  UNL     1      -7.745  -1.230  -1.143  1.00  0.00    -0.356 N 
HETATM   15  C13 UNL     1      -6.564  -1.755  -1.729  1.00  0.00     0.214 C 
ATOM     16  H5  UNL     1      -8.664  -1.425  -1.540  1.00  0.00     0.163 HD
HETATM   17  N6  UNL     1      -6.677  -2.725  -2.568  1.00  0.00    -0.365 N 
HETATM   18  O5  UNL     1      -5.312  -1.219  -1.392  1.00  0.00    -0.296 OA
ATOM     19  H62 UNL     1      -7.587  -3.115  -2.813  1.00  0.00     0.159 HD
ATOM     20  H61 UNL     1      -5.828  -3.102  -2.989  1.00  0.00     0.159 HD
ENDBRANCH   9  11
ENDBRANCH   5   7
ENDBRANCH   3   5
BRANCH   1  21
HETATM   21  C5  UNL     1       1.468   1.399   1.957  1.00  0.00     0.225 C 
BRANCH  21  22
HETATM   22  N2  UNL     1       2.811   1.108   1.595  1.00  0.00    -0.351 N 
HETATM   23  C4  UNL     1       3.192  -0.125   1.028  1.00  0.00     0.241 C 
HETATM   24  O2  UNL     1       2.322  -1.006   0.835  1.00  0.00    -0.271 OA
ATOM     25  H2  UNL     1       3.526   1.818   1.751  1.00  0.00     0.163 HD
BRANCH  23  26
HETATM   26  C3  UNL     1       4.599  -0.434   0.641  1.00  0.00     0.179 C 
BRANCH  26  27
HETATM   27  N1  UNL     1       4.727  -1.750   0.088  1.00  0.00    -0.348 N 
HETATM   28  C2  UNL     1       5.505  -2.753   0.737  1.00  0.00     0.214 C 
HETATM   29  C1  UNL     1       5.657  -4.119   0.191  1.00  0.00     0.117 C 
HETATM   30  O1  UNL     1       6.109  -2.501   1.833  1.00  0.00    -0.274 OA
ATOM     31  H1  UNL     1       4.252  -1.973  -0.787  1.00  0.00     0.163 HD
ENDBRANCH  26  27
BRANCH  26  32
HETATM   32  C14 UNL     1       5.160   0.642  -0.263  1.00  0.00     0.009 C 
HETATM   33  C15 UNL     1       4.467   0.676  -1.599  1.00  0.00     0.012 C 
HETATM   34  C16 UNL     1       6.664   0.540  -0.383  1.00  0.00     0.012 C 
ENDBRANCH  26  32
ENDBRANCH  23  26
ENDBRANCH  21  22
ENDBRANCH   1  21
TORSDOF 8
