REMARK  6 active torsions:
REMARK  status: ('A' for Active; 'I' for Inactive)
REMARK    1  A    between atoms: C2_2  and  O1_3 
REMARK    2  A    between atoms: C2_2  and  C3_5 
REMARK    3  A    between atoms: C7_10  and  N1_11 
REMARK       I    between atoms: N1_11  and  C8_13 
REMARK    4  A    between atoms: C8_13  and  C9_15 
REMARK    5  A    between atoms: C13_19  and  N2_20 
REMARK    6  A    between atoms: N2_20  and  C14_22 
ROOT
HETATM    1  N1  UNL     1       1.919  -0.355  -0.785  1.00  0.00    -0.347 N 
ATOM      2  H1  UNL     1       1.858   0.448  -0.159  1.00  0.00     0.163 HD
HETATM    3  C8  UNL     1       0.770  -1.138  -1.054  1.00  0.00     0.223 C 
HETATM    4  O3  UNL     1       0.849  -2.113  -1.817  1.00  0.00    -0.273 OA
ENDROOT
BRANCH   3   5
HETATM    5  C9  UNL     1      -0.528  -0.789  -0.422  1.00  0.00     0.083 C 
HETATM    6  C10 UNL     1      -0.299  -0.790   1.066  1.00  0.00     0.014 C 
HETATM    7  C11 UNL     1      -1.544  -0.792   1.877  1.00  0.00     0.003 C 
HETATM    8  C12 UNL     1      -2.699  -1.523   1.298  1.00  0.00     0.025 C 
HETATM    9  C13 UNL     1      -2.887  -1.381  -0.180  1.00  0.00     0.081 C 
HETATM   10  C20 UNL     1      -1.585  -1.746  -0.857  1.00  0.00     0.017 C 
HETATM   11  C21 UNL     1      -1.148  -3.146  -0.481  1.00  0.00     0.013 C 
BRANCH   9  12
HETATM   12  N2  UNL     1      -3.237  -0.062  -0.593  1.00  0.00    -0.413 N 
ATOM     13  H2  UNL     1      -2.631   0.504  -1.188  1.00  0.00     0.154 HD
BRANCH  12  14
HETATM   14  C14 UNL     1      -4.517   0.417  -0.106  1.00  0.00     0.077 C 
HETATM   15  C15 UNL     1      -5.679  -0.380  -0.583  1.00  0.00     0.024 C 
HETATM   16  C16 UNL     1      -6.829   0.548  -0.913  1.00  0.00     0.002 C 
HETATM   17  C17 UNL     1      -6.934   1.675   0.103  1.00  0.00     0.000 C 
HETATM   18  C18 UNL     1      -5.739   2.603  -0.077  1.00  0.00     0.002 C 
HETATM   19  C19 UNL     1      -4.655   1.816  -0.734  1.00  0.00     0.024 C 
ENDBRANCH  12  14
ENDBRANCH   9  12
ENDBRANCH   3   5
BRANCH   1  20
HETATM   20  C7  UNL     1       3.176  -0.701  -1.403  1.00  0.00     0.184 C 
HETATM   21  C6  UNL     1       3.663   0.466  -2.188  1.00  0.00     0.184 C 
HETATM   22  C5  UNL     1       4.542   1.242  -1.303  1.00  0.00     0.297 C 
HETATM   23  O2  UNL     1       3.389   0.733  -3.345  1.00  0.00    -0.293 OA
HETATM   24  C4  UNL     1       5.980   1.151  -1.791  1.00  0.00     0.082 C 
HETATM   25  N3  UNL     1       4.833   0.425  -0.154  1.00  0.00     0.110 N 
HETATM   26  C3  UNL     1       6.250   0.550  -0.443  1.00  0.00     0.254 C 
HETATM   27  C22 UNL     1       4.273  -0.880  -0.393  1.00  0.00     0.306 C 
BRANCH  26  28
HETATM   28  C2  UNL     1       6.934   1.473   0.537  1.00  0.00     0.147 C 
HETATM   29  C1  UNL     1       6.800   0.863   1.918  1.00  0.00     0.041 C 
BRANCH  28  30
HETATM   30  O1  UNL     1       8.302   1.578   0.238  1.00  0.00    -0.394 OA
ATOM     31  H1  UNL     1       8.386   1.960  -0.628  1.00  0.00     0.210 HD
ENDBRANCH  28  30
ENDBRANCH  26  28
ENDBRANCH   1  20
TORSDOF 6
