REMARK  9 active torsions:
REMARK  status: ('A' for Active; 'I' for Inactive)
REMARK    1  A    between atoms: C2_2  and  C3_3 
REMARK    2  A    between atoms: C3_3  and  C4_4 
REMARK    3  A    between atoms: C4_4  and  C5_5 
REMARK    4  A    between atoms: C5_5  and  O1_6 
REMARK    5  A    between atoms: C5_5  and  C6_8 
REMARK    6  A    between atoms: C6_8  and  C7_9 
REMARK    7  A    between atoms: C7_9  and  C8_10 
REMARK    8  A    between atoms: C8_10  and  C9_11 
REMARK    9  A    between atoms: C14_17  and  O3_18 
ROOT
HETATM    1  C6  UNL     1      -0.851   0.252  -0.275  1.00  0.00     0.120 C 
HETATM    2  O2  UNL     1      -1.111  -0.805  -1.212  1.00  0.00    -0.337 OA
HETATM    3  C11 UNL     1      -1.548  -2.056  -0.801  1.00  0.00     0.079 C 
HETATM    4  C12 UNL     1      -2.328  -2.154   0.241  1.00  0.00     0.078 C 
HETATM    5  C13 UNL     1      -2.714  -0.887   0.943  1.00  0.00     0.103 C 
HETATM    6  C14 UNL     1      -1.582   0.098   0.998  1.00  0.00     0.182 C 
HETATM    7  O4  UNL     1      -2.659  -3.494   0.498  1.00  0.00    -0.352 OA
HETATM    8  C15 UNL     1      -1.760  -4.300  -0.237  1.00  0.00     0.182 C 
HETATM    9  C16 UNL     1      -1.277  -3.404  -1.363  1.00  0.00     0.094 C 
ENDROOT
BRANCH   1  10
HETATM   10  C5  UNL     1       0.637   0.392  -0.197  1.00  0.00     0.155 C 
BRANCH  10  11
HETATM   11  C4  UNL     1       1.352  -0.933   0.102  1.00  0.00     0.035 C 
BRANCH  11  12
HETATM   12  C3  UNL     1       2.859  -0.648   0.174  1.00  0.00     0.002 C 
BRANCH  12  13
HETATM   13  C2  UNL     1       3.613  -1.930   0.469  1.00  0.00    -0.004 C 
HETATM   14  C1  UNL     1       5.085  -1.634   0.537  1.00  0.00     0.005 C 
ENDBRANCH  12  13
ENDBRANCH  11  12
ENDBRANCH  10  11
BRANCH  10  15
HETATM   15  O1  UNL     1       1.192   0.766  -1.428  1.00  0.00    -0.392 OA
ATOM     16  H1  UNL     1       0.749   1.586  -1.613  1.00  0.00     0.210 HD
ENDBRANCH  10  15
ENDBRANCH   1  10
BRANCH   1  17
HETATM   17  C7  UNL     1      -1.364   1.489  -1.045  1.00  0.00     0.044 C 
BRANCH  17  18
HETATM   18  C8  UNL     1      -1.013   2.761  -0.370  1.00  0.00     0.003 C 
BRANCH  18  19
HETATM   19  C9  UNL     1      -1.511   3.979  -1.120  1.00  0.00    -0.004 C 
HETATM   20  C10 UNL     1      -1.085   5.200  -0.324  1.00  0.00     0.005 C 
ENDBRANCH  18  19
ENDBRANCH  17  18
ENDBRANCH   1  17
BRANCH   6  21
HETATM   21  O3  UNL     1      -0.726  -0.096   2.048  1.00  0.00    -0.299 OA
HETATM   22  S1  UNL     1      -0.734   1.098   3.244  1.00  0.00     0.093 SA
ENDBRANCH   6  21
TORSDOF 9
