REMARK  4 active torsions:
REMARK  status: ('A' for Active; 'I' for Inactive)
REMARK    1  A    between atoms: O1_2  and  C2_3 
REMARK    2  A    between atoms: C2_3  and  C3_5 
REMARK    3  A    between atoms: C4_6  and  C5_7 
REMARK    4  A    between atoms: C5_7  and  N1_8 
ROOT
HETATM    1  C3  UNL     1      -1.235   0.621   0.006  1.00  0.00     0.061 A 
HETATM    2  C4  UNL     1       0.009   0.128   0.301  1.00  0.00     0.028 A 
HETATM    3  S1  UNL     1      -0.349  -1.348   1.073  1.00  0.00    -0.096 SA
HETATM    4  C12 UNL     1      -2.048  -1.311   1.007  1.00  0.00    -0.010 A 
HETATM    5  C13 UNL     1      -2.295  -0.138   0.380  1.00  0.00    -0.028 A 
HETATM    6  C14 UNL     1      -3.716   0.337   0.091  1.00  0.00     0.041 C 
HETATM    7  C15 UNL     1      -4.542  -0.784  -0.488  1.00  0.00     0.005 C 
HETATM    8  C16 UNL     1      -5.022  -1.604   0.717  1.00  0.00     0.001 C 
HETATM    9  C17 UNL     1      -4.088  -2.747   0.861  1.00  0.00     0.005 C 
HETATM   10  C18 UNL     1      -2.814  -2.426   1.577  1.00  0.00     0.046 C 
ENDROOT
BRANCH   2  11
HETATM   11  C5  UNL     1       1.298   0.797  -0.018  1.00  0.00     0.320 C 
BRANCH  11  12
HETATM   12  N1  UNL     1       2.428   0.034   0.417  1.00  0.00     0.097 N 
HETATM   13  C6  UNL     1       2.568  -1.254  -0.131  1.00  0.00     0.273 C 
HETATM   14  C7  UNL     1       3.944  -1.642  -0.566  1.00  0.00     0.030 C 
HETATM   15  C8  UNL     1       5.055  -1.073   0.246  1.00  0.00     0.004 C 
HETATM   16  C9  UNL     1       4.722   0.163   1.003  1.00  0.00     0.035 C 
HETATM   17  C10 UNL     1       3.592   0.889   0.311  1.00  0.00     0.219 C 
HETATM   18  C11 UNL     1       3.926   1.274  -1.094  1.00  0.00     0.043 C 
ENDBRANCH  11  12
ENDBRANCH   2  11
BRANCH   1  19
HETATM   19  C2  UNL     1      -1.397   1.943  -0.697  1.00  0.00     0.294 C 
HETATM   20  O2  UNL     1      -1.435   1.953  -1.949  1.00  0.00    -0.259 OA
BRANCH  19  21
HETATM   21  O1  UNL     1      -1.503   3.119  -0.012  1.00  0.00    -0.322 OA
HETATM   22  C1  UNL     1      -1.656   4.387  -0.596  1.00  0.00     0.213 C 
ENDBRANCH  19  21
ENDBRANCH   1  19
TORSDOF 4
