REMARK  4 active torsions:
REMARK  status: ('A' for Active; 'I' for Inactive)
REMARK    1  A    between atoms: C6_6  and  C7_7 
REMARK    2  A    between atoms: C7_7  and  C8_8 
REMARK    3  A    between atoms: C8_8  and  O2_10 
REMARK    4  A    between atoms: O2_10  and  C9_11 
ROOT
HETATM    1  C8  UNL     1      -0.382   0.916  -0.312  1.00  0.00     0.261 C 
HETATM    2  O1  UNL     1      -0.312   0.464  -1.480  1.00  0.00    -0.265 OA
ENDROOT
BRANCH   1   3
HETATM    3  C7  UNL     1      -1.687   1.037   0.334  1.00  0.00     0.123 C 
BRANCH   3   4
HETATM    4  C6  UNL     1      -2.857   0.559  -0.454  1.00  0.00     0.064 C 
HETATM    5  C5  UNL     1      -4.098   0.804   0.421  1.00  0.00     0.013 C 
HETATM    6  C4  UNL     1      -4.731  -0.508   0.824  1.00  0.00     0.010 C 
HETATM    7  C2  UNL     1      -5.312  -1.142  -0.413  1.00  0.00    -0.041 C 
HETATM    8  C1  UNL     1      -6.048  -2.427  -0.098  1.00  0.00     0.015 C 
HETATM    9  C3  UNL     1      -6.311  -0.171  -1.005  1.00  0.00     0.015 C 
HETATM   10  C19 UNL     1      -4.148  -1.413  -1.355  1.00  0.00     0.087 C 
HETATM   11  C18 UNL     1      -2.871  -0.876  -0.767  1.00  0.00     0.132 C 
HETATM   12  O4  UNL     1      -1.977  -1.676  -0.606  1.00  0.00    -0.298 OA
ENDBRANCH   3   4
ENDBRANCH   1   3
BRANCH   1  13
HETATM   13  O2  UNL     1       0.810   1.275   0.296  1.00  0.00    -0.290 OA
BRANCH  13  14
HETATM   14  C9  UNL     1       2.068   1.143  -0.365  1.00  0.00     0.270 C 
HETATM   15  C10 UNL     1       2.740   2.461  -0.562  1.00  0.00     0.064 C 
HETATM   16  C11 UNL     1       4.081   2.296   0.121  1.00  0.00     0.043 C 
HETATM   17  C12 UNL     1       4.196   0.789   0.242  1.00  0.00     0.064 C 
HETATM   18  C13 UNL     1       4.983   0.493   1.505  1.00  0.00     0.038 C 
HETATM   19  C17 UNL     1       5.003   0.305  -0.927  1.00  0.00     0.038 C 
HETATM   20  O3  UNL     1       2.918   0.292   0.293  1.00  0.00    -0.350 OA
HETATM   21  C14 UNL     1       4.989  -1.037   1.631  1.00  0.00     0.003 C 
HETATM   22  C15 UNL     1       5.858  -1.554   0.530  1.00  0.00     0.000 C 
HETATM   23  C16 UNL     1       5.391  -1.139  -0.838  1.00  0.00     0.003 C 
ENDBRANCH  13  14
ENDBRANCH   1  13
TORSDOF 4
