REMARK  9 active torsions:
REMARK  status: ('A' for Active; 'I' for Inactive)
REMARK    1  A    between atoms: C2_2  and  O1_3 
REMARK    2  A    between atoms: O1_3  and  C3_4 
REMARK    3  A    between atoms: C3_4  and  C4_5 
REMARK    4  A    between atoms: C4_5  and  C5_6 
REMARK    5  A    between atoms: C5_6  and  N1_7 
REMARK       I    between atoms: N1_7  and  C6_9 
REMARK    6  A    between atoms: C6_9  and  C7_11 
REMARK    7  A    between atoms: C7_11  and  N2_12 
REMARK    8  A    between atoms: C11_20  and  C12_21 
REMARK    9  A    between atoms: C12_21  and  C13_22 
ROOT
HETATM    1  C7  UNL     1      -3.382  -2.983  -0.720  1.00  0.00     0.379 C 
HETATM    2  C8  UNL     1      -3.182  -4.330  -0.205  1.00  0.00     0.102 C 
HETATM    3  N3  UNL     1      -3.006  -5.392   0.211  1.00  0.00    -0.195 NA
ENDROOT
BRANCH   1   4
HETATM    4  C6  UNL     1      -2.081  -2.251  -0.657  1.00  0.00     0.263 C 
HETATM    5  N1  UNL     1      -1.948  -1.114   0.147  1.00  0.00    -0.347 N 
ATOM      6  H1  UNL     1      -2.775  -0.835   0.675  1.00  0.00     0.163 HD
HETATM    7  O2  UNL     1      -1.153  -2.700  -1.342  1.00  0.00    -0.270 OA
BRANCH   5   8
HETATM    8  C5  UNL     1      -0.775  -0.292   0.314  1.00  0.00     0.056 C 
HETATM    9  C9  UNL     1      -0.412   0.279  -1.036  1.00  0.00     0.036 C 
HETATM   10  C10 UNL     1       1.070   0.674  -0.930  1.00  0.00     0.034 C 
HETATM   11  C11 UNL     1       1.813  -0.646  -0.966  1.00  0.00     0.122 C 
HETATM   12  O3  UNL     1       1.305  -1.524  -0.034  1.00  0.00    -0.383 OA
HETATM   13  C17 UNL     1       0.400  -1.066   0.848  1.00  0.00     0.199 C 
BRANCH   8  14
HETATM   14  C4  UNL     1      -1.069   0.804   1.301  1.00  0.00     0.059 C 
BRANCH  14  15
HETATM   15  C3  UNL     1      -2.111   1.786   0.991  1.00  0.00     0.170 C 
BRANCH  15  16
HETATM   16  O1  UNL     1      -3.389   1.345   0.806  1.00  0.00    -0.391 OA
BRANCH  16  17
HETATM   17  C2  UNL     1      -4.281   2.375   0.518  1.00  0.00     0.163 C 
HETATM   18  C1  UNL     1      -3.871   3.092  -0.741  1.00  0.00     0.033 C 
ENDBRANCH  16  17
ENDBRANCH  15  16
ENDBRANCH  14  15
ENDBRANCH   8  14
BRANCH  11  19
HETATM   19  C12 UNL     1       3.273  -0.566  -1.056  1.00  0.00     0.040 C 
BRANCH  19  20
HETATM   20  C13 UNL     1       4.074   0.105  -0.028  1.00  0.00    -0.049 C 
HETATM   21  C14 UNL     1       3.806   1.553   0.206  1.00  0.00     0.014 C 
HETATM   22  C15 UNL     1       5.534   0.026  -0.530  1.00  0.00     0.014 C 
HETATM   23  C16 UNL     1       4.120  -0.601   1.307  1.00  0.00     0.014 C 
ENDBRANCH  19  20
ENDBRANCH  11  19
ENDBRANCH   5   8
ENDBRANCH   1   4
BRANCH   1  24
HETATM   24  N2  UNL     1      -4.375  -2.340   0.136  1.00  0.00    -0.054 N 
ATOM     25  H23 UNL     1      -4.042  -2.242   1.095  1.00  0.00     0.276 HD
ATOM     26  H22 UNL     1      -4.486  -1.351  -0.089  1.00  0.00     0.276 HD
ATOM     27  H21 UNL     1      -5.263  -2.840   0.093  1.00  0.00     0.276 HD
ENDBRANCH   1  24
TORSDOF 9
