REMARK  3 active torsions:
REMARK  status: ('A' for Active; 'I' for Inactive)
REMARK    1  A    between atoms: C3_4  and  O2_5 
REMARK    2  A    between atoms: N1_14  and  C10_15 
REMARK    3  A    between atoms: C10_15  and  C11_16 
ROOT
HETATM    1  C1  UNL     1      -6.069   1.868   0.257  1.00  0.00     0.077 C 
HETATM    2  C2  UNL     1      -5.008   0.813   0.211  1.00  0.00     0.061 A 
HETATM    3  O1  UNL     1      -5.172  -0.471   0.190  1.00  0.00    -0.292 OA
HETATM    4  C3  UNL     1      -4.017  -1.072   0.152  1.00  0.00     0.193 A 
HETATM    5  C4  UNL     1      -3.031  -0.113   0.147  1.00  0.00     0.045 A 
HETATM    6  C5  UNL     1      -3.666   1.101   0.186  1.00  0.00     0.009 A 
HETATM    7  C6  UNL     1      -2.607   2.134   0.179  1.00  0.00     0.211 C 
HETATM    8  O3  UNL     1      -1.453   1.487   0.566  1.00  0.00    -0.370 OA
HETATM    9  C7  UNL     1      -1.590   0.198   0.115  1.00  0.00     0.097 C 
HETATM   10  C8  UNL     1      -1.037   0.115  -1.298  1.00  0.00     0.073 C 
HETATM   11  C9  UNL     1       0.031  -0.950  -1.337  1.00  0.00     0.276 C 
HETATM   12  N1  UNL     1       1.143  -0.482  -0.480  1.00  0.00     0.089 N 
HETATM   13  C16 UNL     1       0.631  -0.456   0.899  1.00  0.00     0.276 C 
HETATM   14  C17 UNL     1      -0.838  -0.793   0.985  1.00  0.00     0.073 C 
ENDROOT
BRANCH   4  15
HETATM   15  O2  UNL     1      -3.789  -2.468   0.120  1.00  0.00    -0.340 OA
ATOM     16  H2  UNL     1      -2.947  -2.906   0.092  1.00  0.00     0.220 HD
ENDBRANCH   4  15
BRANCH  12  17
HETATM   17  C10 UNL     1       2.217  -1.425  -0.601  1.00  0.00     0.277 C 
BRANCH  17  18
HETATM   18  C11 UNL     1       3.553  -1.004  -0.147  1.00  0.00     0.014 C 
HETATM   19  C12 UNL     1       3.768  -0.586   1.252  1.00  0.00     0.006 C 
HETATM   20  C13 UNL     1       5.060   0.267   1.088  1.00  0.00     0.000 C 
HETATM   21  C14 UNL     1       4.598   1.153  -0.081  1.00  0.00     0.000 C 
HETATM   22  C15 UNL     1       4.149   0.085  -1.053  1.00  0.00     0.006 C 
ENDBRANCH  17  18
ENDBRANCH  12  17
TORSDOF 3
