REMARK  9 active torsions:
REMARK  status: ('A' for Active; 'I' for Inactive)
REMARK    1  A    between atoms: N2_4  and  C1_6 
REMARK    2  A    between atoms: C2_7  and  N3_8 
REMARK    3  A    between atoms: N3_8  and  O1_10 
REMARK    4  A    between atoms: O1_10  and  C3_11 
REMARK    5  A    between atoms: C3_11  and  C4_13 
REMARK    6  A    between atoms: C7_16  and  N4_17 
REMARK       I    between atoms: N4_17  and  C8_19 
REMARK    7  A    between atoms: C8_19  and  C9_21 
REMARK    8  A    between atoms: C9_21  and  O4_22 
REMARK    9  A    between atoms: O4_22  and  C10_23 
ROOT
HETATM    1  C4  UNL     1       2.480   0.235  -0.453  1.00  0.00     0.041 A 
HETATM    2  C5  UNL     1       2.052   0.593  -1.709  1.00  0.00     0.020 A 
HETATM    3  C6  UNL     1       0.827   0.200  -2.164  1.00  0.00     0.030 A 
HETATM    4  C7  UNL     1      -0.041  -0.583  -1.367  1.00  0.00     0.034 A 
HETATM    5  C16 UNL     1       0.373  -0.944  -0.121  1.00  0.00     0.030 A 
HETATM    6  C17 UNL     1       1.633  -0.522   0.309  1.00  0.00     0.020 A 
ENDROOT
BRANCH   1   7
HETATM    7  C3  UNL     1       3.782   0.663   0.007  1.00  0.00     0.315 C 
HETATM    8  O2  UNL     1       4.566   1.359  -0.688  1.00  0.00    -0.257 OA
BRANCH   7   9
HETATM    9  O1  UNL     1       4.267   0.324   1.283  1.00  0.00    -0.195 OA
BRANCH   9  10
HETATM   10  N3  UNL     1       5.507   0.734   1.714  1.00  0.00    -0.267 N 
ATOM     11  H3  UNL     1       5.974   0.191   2.440  1.00  0.00     0.194 HD
BRANCH  10  12
HETATM   12  C2  UNL     1       6.169   1.884   1.191  1.00  0.00     0.133 C 
HETATM   13  C1  UNL     1       7.348   1.740   0.642  1.00  0.00     0.125 C 
BRANCH  13  14
HETATM   14  N2  UNL     1       7.976   0.476   0.556  1.00  0.00    -0.317 N 
HETATM   15  N1  UNL     1       7.350  -0.613   0.379  1.00  0.00    -0.345 N 
ATOM     16  H12 UNL     1       6.335  -0.556   0.296  1.00  0.00     0.176 HD
ATOM     17  H11 UNL     1       7.803  -1.525   0.317  1.00  0.00     0.176 HD
ATOM     18  H2  UNL     1       8.992   0.438   0.641  1.00  0.00     0.185 HD
ENDBRANCH  13  14
ENDBRANCH  10  12
ENDBRANCH   9  10
ENDBRANCH   7   9
ENDBRANCH   1   7
BRANCH   4  19
HETATM   19  N4  UNL     1      -1.276  -0.974  -1.904  1.00  0.00    -0.325 N 
HETATM   20  C8  UNL     1      -2.391  -1.380  -1.153  1.00  0.00     0.246 C 
HETATM   21  O3  UNL     1      -2.425  -1.435   0.093  1.00  0.00    -0.271 OA
ATOM     22  H4  UNL     1      -1.372  -0.963  -2.919  1.00  0.00     0.169 HD
BRANCH  20  23
HETATM   23  C9  UNL     1      -3.670  -1.791  -1.854  1.00  0.00     0.278 C 
BRANCH  23  24
HETATM   24  O4  UNL     1      -4.666  -1.980  -0.919  1.00  0.00    -0.342 OA
BRANCH  24  25
HETATM   25  C10 UNL     1      -5.176  -0.969  -0.143  1.00  0.00     0.069 A 
HETATM   26  C11 UNL     1      -6.163  -1.358   0.775  1.00  0.00     0.037 A 
HETATM   27  C12 UNL     1      -6.715  -0.397   1.577  1.00  0.00     0.003 A 
HETATM   28  C13 UNL     1      -6.340   0.919   1.513  1.00  0.00     0.000 A 
HETATM   29  C14 UNL     1      -5.374   1.332   0.622  1.00  0.00     0.003 A 
HETATM   30  C15 UNL     1      -4.814   0.352  -0.192  1.00  0.00     0.037 A 
ENDBRANCH  24  25
ENDBRANCH  23  24
ENDBRANCH  20  23
ENDBRANCH   4  19
TORSDOF 9
