REMARK  8 active torsions:
REMARK  status: ('A' for Active; 'I' for Inactive)
REMARK    1  A    between atoms: C2_2  and  C3_3 
REMARK    2  A    between atoms: C2_2  and  C7_13 
REMARK       I    between atoms: C3_3  and  N1_5 
REMARK    3  A    between atoms: N1_5  and  C4_7 
REMARK    4  A    between atoms: C4_7  and  C5_8 
REMARK    5  A    between atoms: C4_7  and  C6_10 
REMARK    6  A    between atoms: C10_16  and  N2_17 
REMARK       I    between atoms: N2_17  and  C11_19 
REMARK    7  A    between atoms: C11_19  and  C12_21 
REMARK    8  A    between atoms: C12_21  and  O6_24 
ROOT
HETATM    1  C7  UNL     1      -1.046  -1.483  -0.022  1.00  0.00    -0.045 A 
HETATM    2  C8  UNL     1      -0.650  -0.612  -1.014  1.00  0.00     0.010 A 
HETATM    3  C9  UNL     1       0.599  -0.052  -1.035  1.00  0.00     0.030 A 
HETATM    4  C10 UNL     1       1.561  -0.330  -0.043  1.00  0.00     0.034 A 
HETATM    5  C15 UNL     1       1.150  -1.198   0.934  1.00  0.00     0.030 A 
HETATM    6  C16 UNL     1      -0.129  -1.774   0.959  1.00  0.00     0.010 A 
ENDROOT
BRANCH   1   7
HETATM    7  C2  UNL     1      -2.382  -2.106   0.058  1.00  0.00     0.106 C 
HETATM    8  C1  UNL     1      -2.733  -2.649  -1.308  1.00  0.00     0.025 C 
BRANCH   7   9
HETATM    9  C3  UNL     1      -3.426  -1.245   0.617  1.00  0.00     0.226 C 
HETATM   10  O1  UNL     1      -3.990  -1.641   1.701  1.00  0.00    -0.273 OA
HETATM   11  N1  UNL     1      -3.829  -0.022   0.022  1.00  0.00    -0.340 N 
ATOM     12  H1  UNL     1      -3.373   0.279  -0.840  1.00  0.00     0.163 HD
BRANCH  11  13
HETATM   13  C4  UNL     1      -4.863   0.815   0.592  1.00  0.00     0.247 C 
BRANCH  13  14
HETATM   14  C5  UNL     1      -5.916   1.044  -0.417  1.00  0.00     0.267 C 
HETATM   15  O2  UNL     1      -5.828   0.560  -1.520  1.00  0.00    -0.304 OA
ENDBRANCH  13  14
BRANCH  13  16
HETATM   16  C6  UNL     1      -4.225   2.141   0.887  1.00  0.00     0.203 C 
HETATM   17  O3  UNL     1      -3.015   2.380   0.648  1.00  0.00    -0.646 OA
HETATM   18  O4  UNL     1      -4.979   3.177   1.451  1.00  0.00    -0.646 OA
ENDBRANCH  13  16
ENDBRANCH  11  13
ENDBRANCH   7   9
ENDBRANCH   1   7
BRANCH   4  19
HETATM   19  N2  UNL     1       2.824   0.282  -0.110  1.00  0.00    -0.325 N 
HETATM   20  C11 UNL     1       3.923  -0.011   0.682  1.00  0.00     0.256 C 
HETATM   21  O5  UNL     1       3.968  -0.878   1.588  1.00  0.00    -0.270 OA
ATOM     22  H2  UNL     1       2.944   1.014  -0.810  1.00  0.00     0.169 HD
BRANCH  20  23
HETATM   23  C12 UNL     1       5.233   0.737   0.502  1.00  0.00     0.131 C 
HETATM   24  C13 UNL     1       5.040   2.214   0.695  1.00  0.00     0.056 C 
HETATM   25  C14 UNL     1       5.708   0.389  -0.900  1.00  0.00     0.056 C 
BRANCH  23  26
HETATM   26  O6  UNL     1       6.135   0.234   1.418  1.00  0.00    -0.381 OA
ATOM     27  H6  UNL     1       6.954   0.702   1.305  1.00  0.00     0.211 HD
ENDBRANCH  23  26
ENDBRANCH  20  23
ENDBRANCH   4  19
TORSDOF 8
