REMARK  1 active torsions:
REMARK  status: ('A' for Active; 'I' for Inactive)
REMARK    1  A    between atoms: C1_2  and  C2_3 
ROOT
HETATM    1  C2  UNL     1      -0.940  -0.339  -0.393  1.00  0.00     0.402 C 
HETATM    2  F2  UNL     1      -1.268  -1.318  -1.320  1.00  0.00    -0.176 F 
HETATM    3  N1  UNL     1      -0.064  -0.944   0.590  1.00  0.00    -0.005 N 
ATOM      4  H11 UNL     1      -0.387  -1.860   0.903  1.00  0.00     0.284 HD
ATOM      5  H12 UNL     1      -0.097  -0.476   1.496  1.00  0.00     0.284 HD
HETATM    6  C3  UNL     1       1.270  -0.978   0.017  1.00  0.00     0.327 C 
HETATM    7  C4  UNL     1       1.746   0.480   0.057  1.00  0.00     0.358 C 
HETATM    8  F3  UNL     1       1.988   0.732   1.412  1.00  0.00    -0.195 F 
HETATM    9  F4  UNL     1       2.912   0.649  -0.647  1.00  0.00    -0.195 F 
HETATM   10  C5  UNL     1       0.629   1.365  -0.408  1.00  0.00     0.426 C 
HETATM   11  F5  UNL     1       1.192   2.256  -1.334  1.00  0.00    -0.169 F 
HETATM   12  F6  UNL     1       0.179   2.169   0.636  1.00  0.00    -0.169 F 
HETATM   13  O1  UNL     1      -0.385   0.709  -1.058  1.00  0.00    -0.254 OA
ENDROOT
BRANCH   1  14
HETATM   14  C1  UNL     1      -2.231   0.006   0.328  1.00  0.00     0.328 C 
HETATM   15  F1  UNL     1      -2.724  -1.129   0.949  1.00  0.00    -0.247 F 
ENDBRANCH   1  14
TORSDOF 1
