REMARK  7 active torsions:
REMARK  status: ('A' for Active; 'I' for Inactive)
REMARK    1  A    between atoms: N1_1  and  C1_4 
REMARK    2  A    between atoms: C2_7  and  C3_8 
REMARK    3  A    between atoms: C6_13  and  C7_14 
REMARK    4  A    between atoms: C8_17  and  C9_18 
REMARK    5  A    between atoms: C9_18  and  C10_19 
REMARK    6  A    between atoms: C11_20  and  C12_21 
REMARK    7  A    between atoms: C15_26  and  N4_27 
ROOT
HETATM    1  C3  UNL     1      -2.967  -1.446   1.102  1.00  0.00     0.045 C 
HETATM    2  C4  UNL     1      -1.682  -1.520   0.934  1.00  0.00     0.040 A 
HETATM    3  C5  UNL     1      -0.801  -2.374   0.147  1.00  0.00     0.258 A 
HETATM    4  O1  UNL     1      -0.954  -3.389  -0.626  1.00  0.00    -0.267 OA
HETATM    5  N3  UNL     1       0.304  -1.617   0.588  1.00  0.00    -0.293 N 
HETATM    6  C6  UNL     1       1.721  -1.320   0.560  1.00  0.00     0.126 C 
HETATM    7  C8  UNL     1       2.144  -0.084   0.697  1.00  0.00     0.030 C 
HETATM    8  C13 UNL     1       1.120   0.974   0.895  1.00  0.00     0.191 C 
HETATM    9  O4  UNL     1       1.436   2.189   1.041  1.00  0.00    -0.287 OA
HETATM   10  C14 UNL     1      -0.282   0.588   0.925  1.00  0.00     0.036 C 
HETATM   11  C15 UNL     1      -1.217   1.373   0.513  1.00  0.00     0.099 C 
HETATM   12  C19 UNL     1      -0.529  -0.791   1.457  1.00  0.00     0.171 A 
ENDROOT
BRANCH   1  13
HETATM   13  C2  UNL     1      -3.964  -2.344   0.439  1.00  0.00     0.041 A 
HETATM   14  N2  UNL     1      -5.002  -1.845  -0.189  1.00  0.00    -0.337 N 
HETATM   15  C1  UNL     1      -5.883  -2.678  -0.741  1.00  0.00     0.142 A 
ATOM     16  H2  UNL     1      -5.132  -0.835  -0.254  1.00  0.00     0.168 HD
HETATM   17  S1  UNL     1      -5.242  -4.211  -0.371  1.00  0.00    -0.064 SA
HETATM   18  C20 UNL     1      -3.857  -3.709   0.485  1.00  0.00     0.082 A 
BRANCH  15  19
HETATM   19  N1  UNL     1      -6.964  -2.342  -1.396  1.00  0.00    -0.380 N 
ATOM     20  H12 UNL     1      -7.348  -1.423  -1.618  1.00  0.00     0.158 HD
ATOM     21  H11 UNL     1      -7.639  -2.980  -1.819  1.00  0.00     0.158 HD
ENDBRANCH  15  19
ENDBRANCH   1  13
BRANCH   6  22
HETATM   22  C7  UNL     1       2.556  -2.489   0.382  1.00  0.00     0.227 C 
HETATM   23  O2  UNL     1       3.781  -2.464   0.345  1.00  0.00    -0.643 OA
HETATM   24  O3  UNL     1       1.988  -3.753   0.235  1.00  0.00    -0.643 OA
ENDBRANCH   6  22
BRANCH  11  25
HETATM   25  N4  UNL     1      -0.997   2.689  -0.010  1.00  0.00    -0.389 N 
HETATM   26  C16 UNL     1      -1.194   4.019   0.519  1.00  0.00     0.123 A 
HETATM   27  C17 UNL     1      -0.611   4.613  -0.720  1.00  0.00     0.040 A 
HETATM   28  C18 UNL     1      -0.522   3.241  -1.256  1.00  0.00     0.123 A 
ENDBRANCH  11  25
BRANCH   7  29
HETATM   29  C9  UNL     1       3.541   0.362   0.687  1.00  0.00     0.072 C 
BRANCH  29  30
HETATM   30  C10 UNL     1       3.844   1.256  -0.463  1.00  0.00    -0.025 C 
HETATM   31  C11 UNL     1       4.720   1.120  -1.388  1.00  0.00    -0.020 C 
BRANCH  31  32
HETATM   32  C12 UNL     1       5.670   0.012  -1.532  1.00  0.00     0.112 C 
HETATM   33 BR1  UNL     1       7.499   0.690  -1.520  1.00  0.00    -0.092 Br
ENDBRANCH  31  32
ENDBRANCH  29  30
ENDBRANCH   7  29
TORSDOF 7
