REMARK  3 active torsions:
REMARK  status: ('A' for Active; 'I' for Inactive)
REMARK       I    between atoms: N1_2  and  C2_4 
REMARK    1  A    between atoms: C2_4  and  C3_6 
REMARK    2  A    between atoms: C11_15  and  N2_16 
REMARK    3  A    between atoms: N2_16  and  S1_18 
ROOT
HETATM    1  C3  UNL     1      -0.752   0.278   0.356  1.00  0.00     0.048 C 
HETATM    2  C4  UNL     1      -1.606  -0.222   1.494  1.00  0.00     0.024 C 
HETATM    3  C5  UNL     1      -2.706  -1.135   1.091  1.00  0.00    -0.010 C 
HETATM    4  C6  UNL     1      -2.162  -2.481   0.575  1.00  0.00     0.026 C 
HETATM    5  C7  UNL     1      -1.904  -1.705  -0.711  1.00  0.00     0.024 C 
HETATM    6 BR1  UNL     1      -2.114  -2.699  -2.326  1.00  0.00    -0.085 Br
HETATM    7  C8  UNL     1      -3.208  -1.021  -0.302  1.00  0.00     0.026 C 
HETATM    8  C9  UNL     1      -0.708  -0.814  -0.640  1.00  0.00     0.024 C 
HETATM    9  C10 UNL     1       0.558  -1.566  -0.279  1.00  0.00     0.033 C 
HETATM   10  C11 UNL     1       1.555  -0.489   0.115  1.00  0.00     0.094 C 
HETATM   11  C13 UNL     1       0.680   0.541   0.768  1.00  0.00     0.045 C 
ENDROOT
BRANCH  10  12
HETATM   12  N2  UNL     1       2.315  -0.016  -0.987  1.00  0.00    -0.315 N 
ATOM     13  H2  UNL     1       1.935   0.378  -1.848  1.00  0.00     0.172 HD
BRANCH  12  14
HETATM   14  S1  UNL     1       3.988  -0.220  -0.625  1.00  0.00     0.223 S 
HETATM   15  C12 UNL     1       4.419   0.739   0.811  1.00  0.00     0.185 C 
HETATM   16  O2  UNL     1       4.315  -1.655  -0.322  1.00  0.00    -0.206 OA
HETATM   17  O3  UNL     1       4.854   0.174  -1.803  1.00  0.00    -0.206 OA
ENDBRANCH  12  14
ENDBRANCH  10  12
BRANCH   1  18
HETATM   18  C2  UNL     1      -1.260   1.587  -0.133  1.00  0.00     0.226 C 
HETATM   19  N1  UNL     1      -0.741   2.248  -1.247  1.00  0.00    -0.365 N 
HETATM   20  C1  UNL     1      -1.293   3.518  -1.652  1.00  0.00     0.149 C 
ATOM     21  H1  UNL     1       0.028   1.834  -1.774  1.00  0.00     0.161 HD
HETATM   22  O1  UNL     1      -2.221   2.131   0.504  1.00  0.00    -0.273 OA
ENDBRANCH   1  18
TORSDOF 3
