REMARK  8 active torsions:
REMARK  status: ('A' for Active; 'I' for Inactive)
REMARK    1  A    between atoms: O1_2  and  C2_3 
REMARK    2  A    between atoms: C2_3  and  O2_5 
REMARK    3  A    between atoms: O2_5  and  N1_6 
REMARK    4  A    between atoms: N1_6  and  C4_8 
REMARK    5  A    between atoms: C7_18  and  N5_19 
REMARK    6  A    between atoms: N5_19  and  N6_21 
REMARK    7  A    between atoms: C8_24  and  C9_25 
REMARK       I    between atoms: C9_25  and  N7_27 
REMARK    8  A    between atoms: N7_27  and  N8_29 
ROOT
HETATM    1  C4  UNL     1       0.891  -0.341  -0.668  1.00  0.00     0.160 A 
HETATM    2  N2  UNL     1       1.648  -1.383  -1.068  1.00  0.00    -0.291 N 
ATOM      3  H2  UNL     1       2.644  -1.228  -1.222  1.00  0.00     0.172 HD
HETATM    4  C5  UNL     1       1.155  -2.613  -1.273  1.00  0.00     0.327 A 
HETATM    5  O3  UNL     1       1.889  -3.572  -1.648  1.00  0.00    -0.247 OA
HETATM    6  N3  UNL     1      -0.179  -2.795  -1.061  1.00  0.00    -0.292 N 
ATOM      7  H3  UNL     1      -0.582  -3.720  -1.209  1.00  0.00     0.172 HD
HETATM    8  C6  UNL     1      -0.981  -1.790  -0.662  1.00  0.00     0.142 A 
HETATM    9  N4  UNL     1      -2.309  -2.024  -0.463  1.00  0.00    -0.323 N 
ATOM     10  H4  UNL     1      -2.689  -2.958  -0.617  1.00  0.00     0.169 HD
HETATM   11  C7  UNL     1      -3.126  -1.022  -0.062  1.00  0.00     0.154 A 
HETATM   12  C8  UNL     1      -2.583   0.226   0.138  1.00  0.00     0.149 A 
HETATM   13  N9  UNL     1      -1.277   0.478  -0.051  1.00  0.00    -0.343 N 
ATOM     14  H9  UNL     1      -0.904   1.414   0.106  1.00  0.00     0.166 HD
HETATM   15  C10 UNL     1      -0.455  -0.533  -0.456  1.00  0.00     0.124 A 
ENDROOT
BRANCH   1  16
HETATM   16  N1  UNL     1       1.363   0.840  -0.471  1.00  0.00    -0.245 N 
ATOM     17  H1  UNL     1       0.741   1.590  -0.169  1.00  0.00     0.196 HD
BRANCH  16  18
HETATM   18  O2  UNL     1       2.698   1.097  -0.665  1.00  0.00    -0.246 OA
BRANCH  18  19
HETATM   19  C2  UNL     1       3.582   1.268   0.444  1.00  0.00     0.283 C 
HETATM   20  C3  UNL     1       4.082   2.695   0.368  1.00  0.00     0.073 C 
BRANCH  19  21
HETATM   21  O1  UNL     1       4.587   0.342   0.307  1.00  0.00    -0.364 OA
HETATM   22  C1  UNL     1       4.692  -0.534   1.366  1.00  0.00     0.204 C 
ENDBRANCH  19  21
ENDBRANCH  18  19
ENDBRANCH  16  18
ENDBRANCH   1  16
BRANCH  12  23
HETATM   23  C9  UNL     1      -3.495   1.304   0.577  1.00  0.00     0.290 C 
HETATM   24  O4  UNL     1      -4.717   1.081   0.757  1.00  0.00    -0.264 OA
HETATM   25  N7  UNL     1      -3.009   2.617   0.803  1.00  0.00    -0.271 N 
ATOM     26  H7  UNL     1      -2.022   2.836   0.666  1.00  0.00     0.189 HD
BRANCH  25  27
HETATM   27  N8  UNL     1      -3.904   3.602   1.215  1.00  0.00    -0.342 N 
ATOM     28  H82 UNL     1      -4.888   3.367   1.347  1.00  0.00     0.176 HD
ATOM     29  H81 UNL     1      -3.554   4.546   1.378  1.00  0.00     0.176 HD
ENDBRANCH  25  27
ENDBRANCH  12  23
BRANCH  11  30
HETATM   30  N5  UNL     1      -4.386  -1.195   0.139  1.00  0.00    -0.290 N 
ATOM     31  H5  UNL     1      -4.955  -0.404   0.442  1.00  0.00     0.188 HD
BRANCH  30  32
HETATM   32  N6  UNL     1      -4.988  -2.428  -0.046  1.00  0.00    -0.344 N 
ATOM     33  H62 UNL     1      -4.405  -3.208  -0.349  1.00  0.00     0.176 HD
ATOM     34  H61 UNL     1      -5.986  -2.565   0.113  1.00  0.00     0.176 HD
ENDBRANCH  30  32
ENDBRANCH  11  30
TORSDOF 8
