REMARK  5 active torsions:
REMARK  status: ('A' for Active; 'I' for Inactive)
REMARK    1  A    between atoms: N1_1  and  C1_5 
REMARK    2  A    between atoms: C1_5  and  C2_6 
REMARK    3  A    between atoms: C2_6  and  C3_7 
REMARK    4  A    between atoms: C3_7  and  C4_8 
REMARK    5  A    between atoms: C4_8  and  C5_9 
ROOT
HETATM    1  C5  UNL     1       0.574  -0.658  -0.141  1.00  0.00    -0.039 A 
HETATM    2  C6  UNL     1       1.543  -1.157  -1.000  1.00  0.00     0.012 A 
HETATM    3  C7  UNL     1       2.887  -0.888  -0.849  1.00  0.00     0.015 A 
HETATM    4  C8  UNL     1       3.308  -0.096   0.189  1.00  0.00     0.001 A 
HETATM    5  C9  UNL     1       2.373   0.411   1.054  1.00  0.00     0.002 A 
HETATM    6  C10 UNL     1       1.029   0.134   0.891  1.00  0.00     0.025 A 
HETATM    7  C11 UNL     1       3.794   0.696   1.216  1.00  0.00     0.068 A 
HETATM    8  N2  UNL     1       4.870   1.312   1.897  1.00  0.00    -0.101 NA
ENDROOT
BRANCH   1   9
HETATM    9  C4  UNL     1      -0.713  -0.934  -0.313  1.00  0.00    -0.015 C 
BRANCH   9  10
HETATM   10  C3  UNL     1      -1.697  -0.384   0.621  1.00  0.00     0.029 C 
BRANCH  10  11
HETATM   11  C2  UNL     1      -3.113  -0.589   0.151  1.00  0.00     0.031 C 
BRANCH  11  12
HETATM   12  C1  UNL     1      -3.301   0.091  -1.176  1.00  0.00     0.230 C 
BRANCH  12  13
HETATM   13  N1  UNL     1      -3.031   1.499  -0.993  1.00  0.00    -0.079 N 
ATOM     14  H13 UNL     1      -3.593   1.917  -0.251  1.00  0.00     0.274 HD
ATOM     15  H12 UNL     1      -2.114   1.676  -0.584  1.00  0.00     0.274 HD
ATOM     16  H11 UNL     1      -3.159   1.961  -1.894  1.00  0.00     0.274 HD
ENDBRANCH  12  13
ENDBRANCH  11  12
ENDBRANCH  10  11
ENDBRANCH   9  10
ENDBRANCH   1   9
TORSDOF 5
