REMARK  5 active torsions:
REMARK  status: ('A' for Active; 'I' for Inactive)
REMARK    1  A    between atoms: N1_3  and  C3_5 
REMARK    2  A    between atoms: N2_7  and  C5_8 
REMARK    3  A    between atoms: C5_8  and  C6_9 
REMARK    4  A    between atoms: C6_9  and  C7_10 
REMARK    5  A    between atoms: C7_10  and  N3_11 
ROOT
HETATM    1  C1  UNL     1      -4.823  -1.056  -1.239  1.00  0.00     0.037 C 
HETATM    2  C2  UNL     1      -3.727  -1.271  -0.786  1.00  0.00     0.001 C 
HETATM    3  N1  UNL     1      -2.477  -1.548  -0.269  1.00  0.00    -0.301 N 
ATOM      4  H1  UNL     1      -2.222  -2.531  -0.178  1.00  0.00     0.177 HD
ENDROOT
BRANCH   3   5
HETATM    5  C3  UNL     1      -1.507  -0.586   0.151  1.00  0.00     0.131 A 
HETATM    6  C4  UNL     1      -0.265  -0.909   0.663  1.00  0.00     0.141 A 
HETATM    7  N2  UNL     1       0.354   0.244   0.941  1.00  0.00    -0.349 N 
HETATM    8  C8  UNL     1      -0.462   1.255   0.617  1.00  0.00     0.186 A 
HETATM    9  N4  UNL     1      -1.595   0.742   0.136  1.00  0.00    -0.332 N 
HETATM   10  C9  UNL     1      -2.717   1.547  -0.318  1.00  0.00     0.158 C 
BRANCH   7  11
HETATM   11  C5  UNL     1       1.697   0.411   1.503  1.00  0.00     0.131 C 
BRANCH  11  12
HETATM   12  C6  UNL     1       2.753   0.505   0.427  1.00  0.00     0.047 C 
BRANCH  12  13
HETATM   13  C7  UNL     1       2.768  -0.749  -0.419  1.00  0.00     0.231 C 
BRANCH  13  14
HETATM   14  N3  UNL     1       3.819  -0.597  -1.440  1.00  0.00    -0.079 N 
ATOM     15  H33 UNL     1       3.710   0.252  -1.995  1.00  0.00     0.274 HD
ATOM     16  H32 UNL     1       4.731  -0.381  -1.038  1.00  0.00     0.274 HD
ATOM     17  H31 UNL     1       3.829  -1.443  -2.010  1.00  0.00     0.274 HD
ENDBRANCH  13  14
ENDBRANCH  12  13
ENDBRANCH  11  12
ENDBRANCH   7  11
ENDBRANCH   3   5
TORSDOF 5
