REMARK  7 active torsions:
REMARK  status: ('A' for Active; 'I' for Inactive)
REMARK    1  A    between atoms: N1_2  and  C3_4 
REMARK    2  A    between atoms: C3_4  and  N2_5 
REMARK       I    between atoms: N2_5  and  C4_7 
REMARK    3  A    between atoms: C4_7  and  O2_9 
REMARK    4  A    between atoms: O2_9  and  N3_10 
REMARK    5  A    between atoms: C6_14  and  C7_15 
REMARK    6  A    between atoms: C11_20  and  C12_21 
REMARK       I    between atoms: C12_21  and  N4_23 
REMARK       I    between atoms: N4_23  and  C13_25 
REMARK    7  A    between atoms: N6_27  and  O5_29 
ROOT
HETATM    1  C3  UNL     1      -1.193  -0.327   0.846  1.00  0.00     0.278 C 
HETATM    2  C5  UNL     1      -1.033   1.097   0.419  1.00  0.00     0.099 C 
HETATM    3  C6  UNL     1       0.393   1.227  -0.090  1.00  0.00     0.089 C 
HETATM    4  C11 UNL     1       0.661  -0.095  -0.562  1.00  0.00     0.293 C 
HETATM    5  N7  UNL     1       0.106  -0.950   0.550  1.00  0.00    -0.016 N 
ATOM      6  H71 UNL     1       0.058  -1.946   0.334  1.00  0.00     0.283 HD
ATOM      7  H72 UNL     1       0.722  -1.046   1.357  1.00  0.00     0.283 HD
ENDROOT
BRANCH   1   8
HETATM    8  N1  UNL     1      -1.308  -0.321   2.248  1.00  0.00    -0.373 N 
HETATM    9  C1  UNL     1      -2.269   0.450   2.875  1.00  0.00     0.147 C 
HETATM   10  C2  UNL     1      -0.453  -1.099   2.992  1.00  0.00     0.147 C 
ENDBRANCH   1   8
BRANCH   1  11
HETATM   11  N2  UNL     1      -2.072  -1.140   0.065  1.00  0.00    -0.285 N 
HETATM   12  C4  UNL     1      -3.398  -1.162  -0.264  1.00  0.00     0.385 C 
HETATM   13  O1  UNL     1      -4.302  -0.404   0.080  1.00  0.00    -0.236 OA
ATOM     14  H2  UNL     1      -1.572  -1.918  -0.365  1.00  0.00     0.169 HD
BRANCH  12  15
HETATM   15  O2  UNL     1      -3.813  -2.235  -1.137  1.00  0.00    -0.188 OA
BRANCH  15  16
HETATM   16  N3  UNL     1      -5.100  -2.392  -1.555  1.00  0.00    -0.301 N 
ATOM     17  H32 UNL     1      -5.788  -1.714  -1.228  1.00  0.00     0.184 HD
ATOM     18  H31 UNL     1      -5.393  -3.150  -2.172  1.00  0.00     0.184 HD
ENDBRANCH  15  16
ENDBRANCH  12  15
ENDBRANCH   1  11
BRANCH   3  19
HETATM   19  C7  UNL     1       0.242   2.277  -1.210  1.00  0.00     0.059 A 
HETATM   20  C8  UNL     1       1.228   2.971  -1.864  1.00  0.00     0.035 A 
HETATM   21  C9  UNL     1       0.584   3.787  -2.767  1.00  0.00     0.027 A 
HETATM   22  C10 UNL     1      -0.794   3.560  -2.638  1.00  0.00     0.142 A 
HETATM   23  O3  UNL     1      -0.890   2.670  -1.716  1.00  0.00    -0.327 OA
ENDBRANCH   3  19
BRANCH   4  24
HETATM   24  C12 UNL     1       1.919  -0.797  -0.760  1.00  0.00     0.256 C 
HETATM   25  O4  UNL     1       1.965  -1.656  -1.703  1.00  0.00    -0.271 OA
HETATM   26  N4  UNL     1       3.095  -0.639   0.019  1.00  0.00    -0.298 N 
HETATM   27  C13 UNL     1       4.254  -1.448  -0.254  1.00  0.00     0.214 C 
ATOM     28  H4  UNL     1       3.119   0.048   0.773  1.00  0.00     0.171 HD
HETATM   29  N5  UNL     1       4.336  -2.318  -1.344  1.00  0.00    -0.061 NA
HETATM   30  N6  UNL     1       5.266  -1.367   0.571  1.00  0.00    -0.241 N 
ATOM     31  H6  UNL     1       6.117  -1.913   0.433  1.00  0.00     0.197 HD
BRANCH  30  32
HETATM   32  O5  UNL     1       5.123  -0.513   1.627  1.00  0.00    -0.287 OA
ATOM     33  H5  UNL     1       5.858  -0.454   2.226  1.00  0.00     0.244 HD
ENDBRANCH  30  32
ENDBRANCH   4  24
TORSDOF 7
