REMARK  2 active torsions:
REMARK  status: ('A' for Active; 'I' for Inactive)
REMARK    1  A    between atoms: O1_2  and  N1_3 
REMARK    2  A    between atoms: C2_5  and  C3_6 
ROOT
HETATM    1  C3  UNL     1      -0.830  -0.297   0.113  1.00  0.00     0.051 A 
HETATM    2  C4  UNL     1      -1.382   0.258  -1.023  1.00  0.00     0.053 A 
HETATM    3  C5  UNL     1      -2.742   0.413  -0.862  1.00  0.00     0.047 A 
HETATM    4 BR1  UNL     1      -4.005   1.132  -2.118  1.00  0.00    -0.048 Br
HETATM    5  C6  UNL     1      -2.995  -0.068   0.411  1.00  0.00     0.097 A 
HETATM    6 BR2  UNL     1      -4.700  -0.141   1.263  1.00  0.00    -0.030 Br
HETATM    7  N2  UNL     1      -1.846  -0.485   0.974  1.00  0.00    -0.348 N 
ATOM      8  H2  UNL     1      -1.759  -0.882   1.909  1.00  0.00     0.166 HD
ENDROOT
BRANCH   1   9
HETATM    9  C2  UNL     1       0.593  -0.621   0.341  1.00  0.00     0.143 C 
HETATM   10  N1  UNL     1       1.476  -0.396  -0.558  1.00  0.00    -0.276 N 
ATOM     11  H1  UNL     1       1.156   0.015  -1.435  1.00  0.00     0.193 HD
BRANCH  10  12
HETATM   12  O1  UNL     1       2.796  -0.657  -0.442  1.00  0.00    -0.286 OA
HETATM   13  C1  UNL     1       3.647   0.381   0.015  1.00  0.00     0.237 C 
ENDBRANCH  10  12
ENDBRANCH   1   9
TORSDOF 2
