REMARK  7 active torsions:
REMARK  status: ('A' for Active; 'I' for Inactive)
REMARK    1  A    between atoms: N1_5  and  O1_6 
REMARK    2  A    between atoms: C5_8  and  C6_9 
REMARK    3  A    between atoms: C9_13  and  N2_14 
REMARK       I    between atoms: N2_14  and  C10_16 
REMARK       I    between atoms: C10_16  and  N3_18 
REMARK    4  A    between atoms: C13_21  and  C15_23 
REMARK    5  A    between atoms: C15_23  and  O3_24 
REMARK    6  A    between atoms: N4_26  and  O4_28 
REMARK       I    between atoms: N5_30  and  C16_31 
REMARK       I    between atoms: C16_31  and  N6_33 
REMARK    7  A    between atoms: N6_33  and  O6_35 
ROOT
HETATM    1  N2  UNL     1      -0.356  -0.987  -0.234  1.00  0.00    -0.299 N 
ATOM      2  H2  UNL     1      -0.610  -0.128   0.254  1.00  0.00     0.171 HD
HETATM    3  C10 UNL     1      -1.419  -1.823  -0.496  1.00  0.00     0.342 C 
HETATM    4  O2  UNL     1      -1.261  -2.927  -1.118  1.00  0.00    -0.245 OA
HETATM    5  N3  UNL     1      -2.747  -1.547  -0.118  1.00  0.00    -0.235 N 
HETATM    6  C11 UNL     1      -3.927  -2.353  -0.508  1.00  0.00     0.157 C 
HETATM    7  C12 UNL     1      -4.970  -1.321  -0.768  1.00  0.00     0.063 C 
HETATM    8  C13 UNL     1      -4.518  -0.086  -0.015  1.00  0.00     0.123 C 
HETATM    9  C14 UNL     1      -4.175   0.972  -1.014  1.00  0.00     0.050 C 
HETATM   10  N5  UNL     1      -3.310  -0.549   0.692  1.00  0.00    -0.217 N 
HETATM   11  C16 UNL     1      -2.868  -0.107   1.935  1.00  0.00     0.362 C 
HETATM   12  O5  UNL     1      -1.906  -0.595   2.549  1.00  0.00    -0.243 OA
HETATM   13  N6  UNL     1      -3.542   0.975   2.568  1.00  0.00    -0.217 N 
ATOM     14  H6  UNL     1      -4.520   0.894   2.846  1.00  0.00     0.199 HD
ENDROOT
BRANCH   1  15
HETATM   15  C9  UNL     1       1.031  -1.104  -0.521  1.00  0.00     0.117 A 
HETATM   16  C8  UNL     1       1.828  -2.013  -1.124  1.00  0.00     0.151 A 
HETATM   17  C7  UNL     1       3.154  -1.749  -1.201  1.00  0.00     0.066 A 
HETATM   18  F1  UNL     1       1.302  -3.195  -1.653  1.00  0.00    -0.203 F 
HETATM   19  C6  UNL     1       3.626  -0.610  -0.684  1.00  0.00     0.039 A 
HETATM   20  S1  UNL     1       2.189   0.118  -0.072  1.00  0.00    -0.067 SA
BRANCH  19  21
HETATM   21  C5  UNL     1       4.966   0.002  -0.583  1.00  0.00     0.079 A 
HETATM   22  N1  UNL     1       6.039  -0.576  -1.057  1.00  0.00    -0.235 N 
HETATM   23  C4  UNL     1       7.276   0.019  -0.948  1.00  0.00     0.124 A 
HETATM   24  C3  UNL     1       7.389   1.247  -0.327  1.00  0.00     0.026 A 
HETATM   25  C2  UNL     1       6.261   1.863   0.177  1.00  0.00    -0.058 A 
HETATM   26  C1  UNL     1       6.410   3.184   0.840  1.00  0.00     0.048 C 
HETATM   27  C17 UNL     1       5.033   1.256   0.059  1.00  0.00     0.040 A 
BRANCH  22  28
HETATM   28  O1  UNL     1       5.996  -1.788  -1.682  1.00  0.00    -0.283 OA
ATOM     29  H1  UNL     1       5.143  -2.198  -1.757  1.00  0.00     0.245 HD
ENDBRANCH  22  28
ENDBRANCH  19  21
ENDBRANCH   1  15
BRANCH   8  30
HETATM   30  C15 UNL     1      -5.581   0.271   0.915  1.00  0.00     0.166 C 
HETATM   31  N4  UNL     1      -6.197   1.354   0.936  1.00  0.00    -0.249 N 
ATOM     32  H4  UNL     1      -6.914   1.437   1.657  1.00  0.00     0.196 HD
BRANCH  30  33
HETATM   33  O3  UNL     1      -5.948  -0.693   1.879  1.00  0.00    -0.346 OA
ATOM     34  H3  UNL     1      -6.641  -0.460   2.485  1.00  0.00     0.219 HD
ENDBRANCH  30  33
BRANCH  31  35
HETATM   35  O4  UNL     1      -6.051   2.416   0.151  1.00  0.00    -0.288 OA
ATOM     36  H4  UNL     1      -6.521   3.242   0.167  1.00  0.00     0.244 HD
ENDBRANCH  31  35
ENDBRANCH   8  30
BRANCH  13  37
HETATM   37  O6  UNL     1      -2.897   2.030   2.774  1.00  0.00    -0.286 OA
ATOM     38  H6  UNL     1      -3.347   2.752   3.197  1.00  0.00     0.244 HD
ENDBRANCH  13  37
TORSDOF 7
