REMARK  2 active torsions:
REMARK  status: ('A' for Active; 'I' for Inactive)
REMARK    1  A    between atoms: O1_2  and  C2_3 
REMARK    2  A    between atoms: C16_20  and  O5_21 
ROOT
HETATM    1  C2  UNL     1       4.196  -0.660   0.444  1.00  0.00     0.299 C 
HETATM    2  O2  UNL     1       3.865  -1.538   1.438  1.00  0.00    -0.356 OA
HETATM    3  C3  UNL     1       2.538  -1.682   1.711  1.00  0.00     0.180 C 
HETATM    4  C4  UNL     1       1.660  -1.763   0.447  1.00  0.00     0.048 C 
HETATM    5  C5  UNL     1       0.307  -2.140   0.931  1.00  0.00     0.011 C 
HETATM    6  C6  UNL     1      -0.709  -1.891  -0.129  1.00  0.00     0.004 C 
HETATM    7  C7  UNL     1      -1.607  -0.788   0.376  1.00  0.00     0.038 C 
HETATM    8  C8  UNL     1      -1.610   0.347  -0.574  1.00  0.00     0.070 C 
HETATM    9  C9  UNL     1      -2.244   1.600  -0.030  1.00  0.00     0.038 C 
HETATM   10  C10 UNL     1      -3.493   1.400   0.726  1.00  0.00     0.003 C 
HETATM   11  C11 UNL     1      -4.693   1.806  -0.134  1.00  0.00     0.000 C 
HETATM   12  C12 UNL     1      -4.526   1.315  -1.546  1.00  0.00     0.000 C 
HETATM   13  C13 UNL     1      -3.918  -0.065  -1.492  1.00  0.00     0.003 C 
HETATM   14  C14 UNL     1      -2.435  -0.052  -1.800  1.00  0.00     0.038 C 
HETATM   15  O3  UNL     1      -0.341   0.658  -1.027  1.00  0.00    -0.319 OA
HETATM   16  C15 UNL     1       0.997   0.584  -0.729  1.00  0.00     0.196 A 
HETATM   17  O4  UNL     1       1.788   1.597  -1.025  1.00  0.00    -0.263 OA
HETATM   18  C16 UNL     1       3.020   1.360  -0.677  1.00  0.00     0.197 A 
HETATM   19  C17 UNL     1       3.048   0.109  -0.115  1.00  0.00     0.066 A 
HETATM   20  C18 UNL     1       1.748  -0.394  -0.146  1.00  0.00     0.022 A 
ENDROOT
BRANCH  18  21
HETATM   21  O5  UNL     1       4.135   2.209  -0.835  1.00  0.00    -0.340 OA
ATOM     22  H5  UNL     1       5.034   2.036  -0.581  1.00  0.00     0.220 HD
ENDBRANCH  18  21
BRANCH   1  23
HETATM   23  O1  UNL     1       5.149   0.216   0.943  1.00  0.00    -0.362 OA
HETATM   24  C1  UNL     1       6.349   0.022   0.279  1.00  0.00     0.205 C 
ENDBRANCH   1  23
TORSDOF 2
