REMARK  5 active torsions:
REMARK  status: ('A' for Active; 'I' for Inactive)
REMARK       I    between atoms: C1_2  and  N1_3 
REMARK       I    between atoms: C1_2  and  N3_18 
REMARK    1  A    between atoms: N1_3  and  C2_5 
REMARK    2  A    between atoms: C2_5  and  C3_6 
REMARK    3  A    between atoms: C3_6  and  C4_7 
REMARK    4  A    between atoms: C4_7  and  N2_8 
REMARK    5  A    between atoms: N3_18  and  C13_20 
ROOT
HETATM    1  C2  UNL     1      -0.151  -0.572   0.502  1.00  0.00     0.126 C 
ENDROOT
BRANCH   1   2
HETATM    2  N1  UNL     1      -1.570  -0.716   0.853  1.00  0.00    -0.343 N 
HETATM    3  C1  UNL     1      -2.563  -0.347  -0.059  1.00  0.00     0.316 C 
HETATM    4  O1  UNL     1      -2.312   0.078  -1.189  1.00  0.00    -0.247 OA
HETATM    5  N3  UNL     1      -3.927  -0.464   0.327  1.00  0.00    -0.339 N 
ATOM      6  H3  UNL     1      -4.124  -0.806   1.268  1.00  0.00     0.164 HD
ATOM      7  H1  UNL     1      -1.832  -1.087   1.766  1.00  0.00     0.164 HD
BRANCH   5   8
HETATM    8  C13 UNL     1      -5.054  -0.135  -0.513  1.00  0.00     0.086 C 
HETATM    9  C14 UNL     1      -6.051  -1.228  -0.657  1.00  0.00     0.025 C 
HETATM   10  C15 UNL     1      -7.073  -1.288   0.442  1.00  0.00     0.002 C 
HETATM   11  C16 UNL     1      -7.661   0.062   0.789  1.00  0.00     0.000 C 
HETATM   12  C17 UNL     1      -7.153   1.148  -0.142  1.00  0.00     0.002 C 
HETATM   13  C18 UNL     1      -5.651   1.156   0.008  1.00  0.00     0.025 C 
ENDBRANCH   5   8
ENDBRANCH   1   2
BRANCH   1  14
HETATM   14  C3  UNL     1       0.224   0.843   0.327  1.00  0.00     0.050 C 
BRANCH  14  15
HETATM   15  C4  UNL     1       1.612   1.102  -0.085  1.00  0.00     0.274 C 
BRANCH  15  16
HETATM   16  N2  UNL     1       2.712   0.683   0.724  1.00  0.00     0.088 N 
HETATM   17  C5  UNL     1       3.861   1.457   0.242  1.00  0.00     0.275 C 
HETATM   18  C6  UNL     1       4.452   0.753  -0.945  1.00  0.00     0.068 C 
HETATM   19  C7  UNL     1       5.258  -0.392  -0.356  1.00  0.00     0.064 C 
HETATM   20  C8  UNL     1       6.021  -1.130  -1.394  1.00  0.00     0.040 C 
HETATM   21  O2  UNL     1       6.253   0.163   0.450  1.00  0.00    -0.380 OA
HETATM   22  C11 UNL     1       4.365  -1.180   0.519  1.00  0.00     0.068 C 
HETATM   23  C9  UNL     1       7.196  -0.177  -1.659  1.00  0.00     0.029 C 
HETATM   24  C10 UNL     1       7.141   0.732  -0.430  1.00  0.00     0.168 C 
HETATM   25  C12 UNL     1       2.943  -0.715   0.639  1.00  0.00     0.275 C 
ENDBRANCH  15  16
ENDBRANCH  14  15
ENDBRANCH   1  14
TORSDOF 5
