REMARK  7 active torsions:
REMARK  status: ('A' for Active; 'I' for Inactive)
REMARK    1  A    between atoms: C2_2  and  C3_3 
REMARK    2  A    between atoms: C3_3  and  C4_4 
REMARK    3  A    between atoms: C4_4  and  C5_5 
REMARK    4  A    between atoms: N1_7  and  N2_9 
REMARK    5  A    between atoms: N2_9  and  C7_11 
REMARK    6  A    between atoms: C7_11  and  N3_13 
REMARK    7  A    between atoms: N3_13  and  N4_15 
ROOT
HETATM    1  N3  UNL     1      -0.935   0.160  -0.972  1.00  0.00    -0.276 N 
ATOM      2  H3  UNL     1      -1.134   0.240  -1.969  1.00  0.00     0.189 HD
ENDROOT
BRANCH   1   3
HETATM    3  C7  UNL     1       0.396   0.365  -0.477  1.00  0.00     0.205 C 
HETATM    4  S1  UNL     1       0.714   0.234   1.137  1.00  0.00    -0.038 SA
BRANCH   3   5
HETATM    5  N2  UNL     1       1.474   0.682  -1.334  1.00  0.00    -0.275 N 
ATOM      6  H2  UNL     1       1.304   0.769  -2.336  1.00  0.00     0.189 HD
BRANCH   5   7
HETATM    7  N1  UNL     1       2.757   0.877  -0.846  1.00  0.00    -0.307 N 
HETATM    8  C5  UNL     1       3.674  -0.041  -0.920  1.00  0.00    -0.000 C 
HETATM    9  C6  UNL     1       3.309  -1.330  -1.552  1.00  0.00     0.065 C 
ATOM     10  H1  UNL     1       2.989   1.771  -0.414  1.00  0.00     0.186 HD
BRANCH   8  11
HETATM   11  C4  UNL     1       5.031   0.171  -0.401  1.00  0.00     0.053 C 
BRANCH  11  12
HETATM   12  C3  UNL     1       5.424  -0.804   0.678  1.00  0.00     0.005 C 
BRANCH  12  13
HETATM   13  C2  UNL     1       6.851  -0.438   1.096  1.00  0.00    -0.004 C 
HETATM   14  C1  UNL     1       6.864   0.984   1.615  1.00  0.00     0.005 C 
ENDBRANCH  12  13
ENDBRANCH  11  12
ENDBRANCH   8  11
ENDBRANCH   5   7
ENDBRANCH   3   5
ENDBRANCH   1   3
BRANCH   1  15
HETATM   15  N4  UNL     1      -1.920  -0.140  -0.098  1.00  0.00    -0.312 N 
HETATM   16  C8  UNL     1      -2.035  -1.500   0.313  1.00  0.00     0.174 C 
HETATM   17  C9  UNL     1      -2.820  -1.517   1.614  1.00  0.00     0.293 C 
HETATM   18  N5  UNL     1      -4.055  -0.771   1.505  1.00  0.00     0.088 N 
HETATM   19  C10 UNL     1      -4.730  -0.841   2.772  1.00  0.00     0.310 C 
HETATM   20  C11 UNL     1      -3.819   0.603   1.077  1.00  0.00     0.304 C 
HETATM   21  C12 UNL     1      -3.178   0.515  -0.294  1.00  0.00     0.074 C 
HETATM   22  C13 UNL     1      -2.992   1.863  -0.929  1.00  0.00     0.034 C 
HETATM   23  C16 UNL     1      -4.127  -0.258  -1.181  1.00  0.00     0.034 C 
HETATM   24  C14 UNL     1      -3.700   1.782  -2.266  1.00  0.00     0.003 C 
HETATM   25  C15 UNL     1      -4.857   0.848  -1.932  1.00  0.00     0.003 C 
ENDBRANCH   1  15
TORSDOF 7
