REMARK  10 active torsions:
REMARK  status: ('A' for Active; 'I' for Inactive)
REMARK    1  A    between atoms: C2_2  and  C3_3 
REMARK    2  A    between atoms: C3_3  and  N1_4 
REMARK    3  A    between atoms: C7_15  and  C8_16 
REMARK    4  A    between atoms: C8_16  and  S1_17 
REMARK    5  A    between atoms: S1_17  and  C10_20 
REMARK    6  A    between atoms: C10_20  and  C11_21 
REMARK    7  A    between atoms: C11_21  and  C12_22 
REMARK    8  A    between atoms: C12_22  and  O2_23 
REMARK    9  A    between atoms: C14_26  and  C15_27 
REMARK   10  A    between atoms: C16_33  and  N7_34 
ROOT
HETATM    1  N1  UNL     1      -5.148   0.745  -0.106  1.00  0.00    -0.221 N 
ATOM      2  H1  UNL     1      -4.308   1.321  -0.158  1.00  0.00     0.178 HD
HETATM    3  C4  UNL     1      -4.960  -0.431  -0.479  1.00  0.00     0.693 C 
HETATM    4  N2  UNL     1      -3.593  -0.711  -0.893  1.00  0.00    -0.186 N 
ATOM      5  H2  UNL     1      -3.101  -0.043  -1.486  1.00  0.00     0.184 HD
HETATM    6  C5  UNL     1      -2.920  -1.925  -0.475  1.00  0.00     0.106 A 
HETATM    7  C6  UNL     1      -3.406  -3.130  -0.124  1.00  0.00     0.123 A 
HETATM    8  N3  UNL     1      -2.353  -3.817   0.371  1.00  0.00    -0.295 N 
ATOM      9  H3  UNL     1      -2.386  -4.770   0.733  1.00  0.00     0.187 HD
HETATM   10  N4  UNL     1      -1.279  -3.062   0.312  1.00  0.00    -0.301 N 
ATOM     11  H4  UNL     1      -0.355  -3.359   0.628  1.00  0.00     0.186 HD
HETATM   12  C7  UNL     1      -1.535  -1.881  -0.201  1.00  0.00     0.066 A 
HETATM   13  C17 UNL     1      -4.773  -3.670  -0.240  1.00  0.00     0.152 C 
HETATM   14  N8  UNL     1      -5.587  -4.631  -0.023  1.00  0.00    -0.355 N 
ATOM     15  H8  UNL     1      -5.460  -5.535   0.432  1.00  0.00     0.163 HD
HETATM   16  C18 UNL     1      -6.746  -4.019  -0.633  1.00  0.00     0.274 C 
HETATM   17  N9  UNL     1      -5.942  -2.816  -0.502  1.00  0.00    -0.242 N 
HETATM   18  N10 UNL     1      -5.992  -1.435  -0.491  1.00  0.00    -0.127 N 
ATOM     19  H10 UNL     1      -6.939  -1.055  -0.491  1.00  0.00     0.206 HD
ENDROOT
BRANCH  12  20
HETATM   20  C8  UNL     1      -0.737  -0.726  -0.683  1.00  0.00     0.156 C 
BRANCH  20  21
HETATM   21  S1  UNL     1       0.150   0.326   0.556  1.00  0.00    -0.053 S 
HETATM   22  C9  UNL     1      -0.596   1.948  -0.121  1.00  0.00     0.114 C 
HETATM   23  O1  UNL     1       0.518  -0.828   1.566  1.00  0.00    -0.270 OA
BRANCH  21  24
HETATM   24  C10 UNL     1       1.916   0.871   0.293  1.00  0.00     0.099 C 
BRANCH  24  25
HETATM   25  C11 UNL     1       3.029  -0.122   0.574  1.00  0.00     0.053 C 
BRANCH  25  26
HETATM   26  C12 UNL     1       4.306   0.407   0.072  1.00  0.00     0.115 C 
HETATM   27  C13 UNL     1       5.535  -0.392   0.273  1.00  0.00     0.084 C 
HETATM   28  C14 UNL     1       6.526   0.606  -0.369  1.00  0.00     0.279 C 
HETATM   29  N6  UNL     1       6.155   1.817   0.343  1.00  0.00    -0.031 N 
HETATM   30  C16 UNL     1       4.727   1.768   0.608  1.00  0.00     0.415 C 
ATOM     31  H62 UNL     1       6.707   1.961   1.188  1.00  0.00     0.280 HD
ATOM     32  H61 UNL     1       6.435   2.665  -0.150  1.00  0.00     0.280 HD
BRANCH  26  33
HETATM   33  O2  UNL     1       4.124   0.565  -1.344  1.00  0.00    -0.386 OA
ATOM     34  H2  UNL     1       4.949   0.907  -1.668  1.00  0.00     0.210 HD
ENDBRANCH  26  33
BRANCH  28  35
HETATM   35  C15 UNL     1       7.905   0.186  -0.188  1.00  0.00     0.262 C 
HETATM   36  N5  UNL     1       8.583  -0.535  -1.189  1.00  0.00    -0.060 NA
HETATM   37  O3  UNL     1       8.513   0.483   0.876  1.00  0.00    -0.275 OA
ENDBRANCH  28  35
BRANCH  30  38
HETATM   38  N7  UNL     1       4.503   1.919   2.003  1.00  0.00    -0.047 N 
ATOM     39  H73 UNL     1       3.529   1.724   2.236  1.00  0.00     0.276 HD
ATOM     40  H72 UNL     1       4.956   1.169   2.525  1.00  0.00     0.276 HD
ATOM     41  H71 UNL     1       4.785   2.831   2.362  1.00  0.00     0.276 HD
ENDBRANCH  30  38
ENDBRANCH  25  26
ENDBRANCH  24  25
ENDBRANCH  21  24
ENDBRANCH  20  21
ENDBRANCH  12  20
BRANCH   1  42
HETATM   42  C3  UNL     1      -6.281   1.452   0.375  1.00  0.00     0.164 C 
BRANCH  42  43
HETATM   43  C2  UNL     1      -5.992   2.934   0.143  1.00  0.00    -0.017 C 
HETATM   44  C1  UNL     1      -6.771   3.636  -0.668  1.00  0.00     0.008 C 
ENDBRANCH  42  43
ENDBRANCH   1  42
TORSDOF 10
