REMARK  6 active torsions:
REMARK  status: ('A' for Active; 'I' for Inactive)
REMARK    1  A    between atoms: N3_4  and  C2_6 
REMARK    2  A    between atoms: C2_6  and  C3_7 
REMARK    3  A    between atoms: C3_7  and  N4_8 
REMARK    4  A    between atoms: C5_13  and  C6_14 
REMARK    5  A    between atoms: C6_14  and  C7_15 
REMARK    6  A    between atoms: C7_15  and  C8_16 
ROOT
HETATM    1  N4  UNL     1       2.063  -0.515   0.944  1.00  0.00    -0.221 N 
ATOM      2  H4  UNL     1       1.683  -0.816   1.841  1.00  0.00     0.178 HD
HETATM    3  C4  UNL     1       1.251  -0.031   0.077  1.00  0.00     0.683 A 
HETATM    4  N5  UNL     1      -0.081   0.071   0.366  1.00  0.00    -0.180 N 
ATOM      5  H5  UNL     1      -0.433  -0.238   1.272  1.00  0.00     0.185 HD
HETATM    6  C5  UNL     1      -0.921   0.577  -0.543  1.00  0.00     0.101 A 
HETATM    7  N6  UNL     1      -0.532   1.003  -1.755  1.00  0.00    -0.297 N 
ATOM      8  H6  UNL     1      -1.200   1.383  -2.425  1.00  0.00     0.172 HD
HETATM    9  C14 UNL     1       0.774   0.907  -2.047  1.00  0.00     0.339 A 
HETATM   10  O1  UNL     1       1.177   1.299  -3.178  1.00  0.00    -0.246 OA
HETATM   11  N7  UNL     1       1.650   0.394  -1.134  1.00  0.00    -0.141 N 
ATOM     12  H7  UNL     1       2.638   0.331  -1.379  1.00  0.00     0.189 HD
ENDROOT
BRANCH   1  13
HETATM   13  C3  UNL     1       3.502  -0.661   0.723  1.00  0.00     0.182 C 
BRANCH  13  14
HETATM   14  C2  UNL     1       4.175   0.634   1.033  1.00  0.00     0.083 C 
BRANCH  14  15
HETATM   15  N3  UNL     1       5.571   0.661   0.866  1.00  0.00    -0.345 N 
HETATM   16  C1  UNL     1       6.393  -0.219   0.532  1.00  0.00     0.200 C 
HETATM   17  N1  UNL     1       7.809   0.068   0.430  1.00  0.00    -0.067 NA
HETATM   18  N2  UNL     1       6.034  -1.537   0.231  1.00  0.00    -0.067 NA
ATOM     19  H3  UNL     1       5.992   1.571   1.053  1.00  0.00     0.167 HD
ENDBRANCH  14  15
ENDBRANCH  13  14
ENDBRANCH   1  13
BRANCH   6  20
HETATM   20  C6  UNL     1      -2.366   0.675  -0.201  1.00  0.00     0.082 C 
BRANCH  20  21
HETATM   21  C7  UNL     1      -3.122  -0.582  -0.596  1.00  0.00     0.046 C 
BRANCH  21  22
HETATM   22  C8  UNL     1      -4.547  -0.353  -0.202  1.00  0.00    -0.058 A 
HETATM   23  C9  UNL     1      -5.036  -0.699   1.040  1.00  0.00     0.007 A 
HETATM   24  C10 UNL     1      -6.373  -0.461   1.348  1.00  0.00     0.001 A 
HETATM   25  C11 UNL     1      -7.244   0.117   0.447  1.00  0.00     0.000 A 
HETATM   26  C12 UNL     1      -6.755   0.464  -0.799  1.00  0.00     0.001 A 
HETATM   27  C13 UNL     1      -5.432   0.227  -1.098  1.00  0.00     0.007 A 
ENDBRANCH  21  22
ENDBRANCH  20  21
ENDBRANCH   6  20
TORSDOF 6
