REMARK  8 active torsions:
REMARK  status: ('A' for Active; 'I' for Inactive)
REMARK    1  A    between atoms: C2_3  and  N7_24 
REMARK    2  A    between atoms: C3_4  and  C4_5 
REMARK    3  A    between atoms: N2_8  and  C7_9 
REMARK    4  A    between atoms: C7_9  and  C8_10 
REMARK    5  A    between atoms: C8_10  and  C9_11 
REMARK    6  A    between atoms: C9_11  and  N3_12 
REMARK    7  A    between atoms: N7_24  and  N8_26 
REMARK    8  A    between atoms: N8_26  and  N9_27 
ROOT
HETATM    1  N1  UNL     1       3.728   1.032   3.126  1.00  0.00    -0.190 NA
HETATM    2  C1  UNL     1       4.230   1.072   2.059  1.00  0.00     0.120 C 
HETATM    3  C2  UNL     1       4.867   1.103   0.777  1.00  0.00     0.143 C 
HETATM    4  C3  UNL     1       4.269   0.576  -0.269  1.00  0.00     0.055 C 
ENDROOT
BRANCH   3   5
HETATM    5  N7  UNL     1       6.174   1.719   0.646  1.00  0.00    -0.206 N 
ATOM      6  H7  UNL     1       7.016   1.146   0.708  1.00  0.00     0.204 HD
BRANCH   5   7
HETATM    7  N8  UNL     1       6.269   2.932   0.460  1.00  0.00    -0.243 NA
BRANCH   7   8
HETATM    8  N9  UNL     1       6.477   4.145   0.322  1.00  0.00    -0.260 N 
ATOM      9  H92 UNL     1       7.367   3.888   0.748  1.00  0.00     0.193 HD
ATOM     10  H91 UNL     1       6.556   5.150   0.168  1.00  0.00     0.193 HD
ENDBRANCH   7   8
ENDBRANCH   5   7
ENDBRANCH   3   5
BRANCH   4  11
HETATM   11  C4  UNL     1       2.963  -0.041  -0.160  1.00  0.00    -0.031 A 
HETATM   12  C5  UNL     1       2.752  -1.311  -0.652  1.00  0.00     0.028 A 
HETATM   13  C6  UNL     1       1.515  -1.871  -0.561  1.00  0.00     0.091 A 
HETATM   14  N2  UNL     1       0.432  -1.245   0.002  1.00  0.00    -0.366 N 
HETATM   15  C12 UNL     1       0.665  -0.018   0.469  1.00  0.00     0.091 A 
HETATM   16  C13 UNL     1       1.908   0.598   0.400  1.00  0.00     0.028 A 
BRANCH  14  17
HETATM   17  C7  UNL     1      -0.818  -1.960   0.080  1.00  0.00     0.129 C 
BRANCH  17  18
HETATM   18  C8  UNL     1      -1.697  -1.892  -1.097  1.00  0.00     0.042 C 
BRANCH  18  19
HETATM   19  C9  UNL     1      -2.292  -0.629  -1.550  1.00  0.00     0.152 C 
BRANCH  19  20
HETATM   20  N3  UNL     1      -3.230   0.014  -0.668  1.00  0.00    -0.273 N 
HETATM   21  C10 UNL     1      -4.582  -0.255  -0.656  1.00  0.00     0.218 A 
HETATM   22  N4  UNL     1      -5.146   0.527   0.253  1.00  0.00    -0.185 N 
HETATM   23  C11 UNL     1      -4.212   1.295   0.834  1.00  0.00     0.691 A 
ATOM     24  H4  UNL     1      -6.141   0.543   0.477  1.00  0.00     0.185 HD
HETATM   25  N5  UNL     1      -4.334   2.186   1.761  1.00  0.00    -0.233 N 
HETATM   26  N6  UNL     1      -3.033   0.940   0.226  1.00  0.00    -0.129 N 
ATOM     27  H52 UNL     1      -5.210   2.450   2.213  1.00  0.00     0.174 HD
ATOM     28  H51 UNL     1      -3.624   2.770   2.203  1.00  0.00     0.174 HD
ATOM     29  H6  UNL     1      -2.124   1.347   0.445  1.00  0.00     0.206 HD
ENDBRANCH  19  20
ENDBRANCH  18  19
ENDBRANCH  17  18
ENDBRANCH  14  17
ENDBRANCH   4  11
TORSDOF 8
