REMARK  8 active torsions:
REMARK  status: ('A' for Active; 'I' for Inactive)
REMARK    1  A    between atoms: C2_2  and  C3_3 
REMARK    2  A    between atoms: C3_3  and  C4_4 
REMARK    3  A    between atoms: C4_4  and  N1_5 
REMARK    4  A    between atoms: N1_5  and  C5_7 
REMARK    5  A    between atoms: C7_14  and  N4_15 
REMARK    6  A    between atoms: N4_15  and  C8_17 
REMARK    7  A    between atoms: C8_17  and  C9_18 
REMARK    8  A    between atoms: C9_18  and  C10_19 
ROOT
HETATM    1  C5  UNL     1       1.772  -0.507   0.339  1.00  0.00     0.696 A 
HETATM    2  N2  UNL     1       2.263   0.128  -0.732  1.00  0.00    -0.140 N 
ATOM      3  H2  UNL     1       3.187  -0.096  -1.102  1.00  0.00     0.189 HD
HETATM    4  C6  UNL     1       1.491   1.075  -1.305  1.00  0.00     0.352 A 
HETATM    5  O1  UNL     1       1.948   1.673  -2.310  1.00  0.00    -0.246 OA
HETATM    6  N3  UNL     1       0.274   1.370  -0.820  1.00  0.00    -0.140 N 
ATOM      7  H3  UNL     1      -0.280   2.092  -1.281  1.00  0.00     0.189 HD
HETATM    8  C7  UNL     1      -0.239   0.740   0.259  1.00  0.00     0.696 A 
HETATM    9  N5  UNL     1       0.527  -0.199   0.828  1.00  0.00    -0.022 N 
ATOM     10  H5  UNL     1       0.177  -0.698   1.646  1.00  0.00     0.203 HD
ENDROOT
BRANCH   8  11
HETATM   11  N4  UNL     1      -1.414   1.035   0.716  1.00  0.00    -0.225 N 
ATOM     12  H4  UNL     1      -1.794   0.555   1.532  1.00  0.00     0.177 HD
BRANCH  11  13
HETATM   13  C8  UNL     1      -2.172   2.062   0.040  1.00  0.00     0.142 C 
BRANCH  13  14
HETATM   14  C9  UNL     1      -3.570   2.200   0.600  1.00  0.00     0.058 C 
BRANCH  14  15
HETATM   15  C10 UNL     1      -4.235   0.874   0.410  1.00  0.00    -0.057 A 
HETATM   16  C11 UNL     1      -4.941   0.592  -0.739  1.00  0.00     0.007 A 
HETATM   17  C12 UNL     1      -5.572  -0.616  -0.962  1.00  0.00     0.001 A 
HETATM   18  C13 UNL     1      -5.506  -1.600  -0.004  1.00  0.00     0.000 A 
HETATM   19  C14 UNL     1      -4.797  -1.314   1.150  1.00  0.00     0.001 A 
HETATM   20  C15 UNL     1      -4.169  -0.112   1.371  1.00  0.00     0.007 A 
ENDBRANCH  14  15
ENDBRANCH  13  14
ENDBRANCH  11  13
ENDBRANCH   8  11
BRANCH   1  21
HETATM   21  N1  UNL     1       2.446  -1.417   0.936  1.00  0.00    -0.225 N 
ATOM     22  H1  UNL     1       2.027  -1.872   1.747  1.00  0.00     0.177 HD
BRANCH  21  23
HETATM   23  C4  UNL     1       3.754  -1.833   0.530  1.00  0.00     0.142 C 
BRANCH  23  24
HETATM   24  C3  UNL     1       4.842  -0.870   1.007  1.00  0.00     0.046 C 
BRANCH  24  25
HETATM   25  C2  UNL     1       6.147  -1.375   0.539  1.00  0.00    -0.035 C 
HETATM   26  C1  UNL     1       6.932  -0.681  -0.253  1.00  0.00     0.007 C 
ENDBRANCH  24  25
ENDBRANCH  23  24
ENDBRANCH  21  23
ENDBRANCH   1  21
TORSDOF 8
