REMARK  16 active torsions:
REMARK  status: ('A' for Active; 'I' for Inactive)
REMARK    1  A    between atoms: N1_1  and  N2_4 
REMARK    2  A    between atoms: N2_4  and  C1_5 
REMARK    3  A    between atoms: C1_5  and  C2_6 
REMARK    4  A    between atoms: C4_8  and  N3_9 
REMARK    5  A    between atoms: N3_9  and  C5_11 
REMARK    6  A    between atoms: C6_13  and  O2_14 
REMARK    7  A    between atoms: O2_14  and  C7_15 
REMARK    8  A    between atoms: C8_16  and  N4_17 
REMARK    9  A    between atoms: C10_22  and  N5_23 
REMARK   10  A    between atoms: C11_27  and  O3_28 
REMARK   11  A    between atoms: O3_28  and  C12_29 
REMARK   12  A    between atoms: C13_30  and  N6_31 
REMARK   13  A    between atoms: C15_36  and  N7_37 
REMARK   14  A    between atoms: C16_41  and  O4_42 
REMARK   15  A    between atoms: C18_45  and  N8_46 
REMARK   16  A    between atoms: C19_50  and  O5_51 
ROOT
HETATM    1  C7  UNL     1       1.478  -1.250  -1.279  1.00  0.00     0.186 C 
HETATM    2  C8  UNL     1       1.401  -0.809  -2.688  1.00  0.00     0.217 C 
HETATM    3  C9  UNL     1       0.352  -1.632  -3.409  1.00  0.00     0.071 C 
HETATM    4  C10 UNL     1      -0.966  -1.202  -2.795  1.00  0.00     0.217 C 
HETATM    5  C11 UNL     1      -1.041  -1.465  -1.336  1.00  0.00     0.183 C 
HETATM    6  C19 UNL     1       0.248  -1.801  -0.670  1.00  0.00     0.180 C 
ENDROOT
BRANCH   5   7
HETATM    7  O3  UNL     1      -1.636  -0.361  -0.726  1.00  0.00    -0.372 OA
BRANCH   7   8
HETATM    8  C12 UNL     1      -2.853  -0.635  -0.146  1.00  0.00     0.182 C 
HETATM    9  C13 UNL     1      -3.973   0.098  -0.837  1.00  0.00     0.216 C 
HETATM   10  C14 UNL     1      -4.063   1.502  -0.365  1.00  0.00     0.070 C 
HETATM   11  C15 UNL     1      -4.835   1.739   0.864  1.00  0.00     0.214 C 
HETATM   12  C16 UNL     1      -5.108   0.617   1.769  1.00  0.00     0.150 C 
HETATM   13  C17 UNL     1      -4.179  -0.480   1.938  1.00  0.00     0.069 C 
HETATM   14  C18 UNL     1      -2.812  -0.420   1.339  1.00  0.00     0.216 C 
BRANCH   9  15
HETATM   15  N6  UNL     1      -5.231  -0.606  -0.790  1.00  0.00    -0.072 N 
ATOM     16  H63 UNL     1      -5.132  -1.550  -1.163  1.00  0.00     0.274 HD
ATOM     17  H62 UNL     1      -5.485  -0.831   0.172  1.00  0.00     0.274 HD
ATOM     18  H61 UNL     1      -5.989  -0.110  -1.258  1.00  0.00     0.274 HD
ENDBRANCH   9  15
BRANCH  11  19
HETATM   19  N7  UNL     1      -4.219   2.884   1.566  1.00  0.00    -0.072 N 
ATOM     20  H73 UNL     1      -3.223   2.752   1.742  1.00  0.00     0.274 HD
ATOM     21  H72 UNL     1      -4.143   3.715   0.979  1.00  0.00     0.274 HD
ATOM     22  H71 UNL     1      -4.754   3.048   2.418  1.00  0.00     0.274 HD
ENDBRANCH  11  19
BRANCH  12  23
HETATM   23  O4  UNL     1      -5.374   1.201   3.042  1.00  0.00    -0.393 OA
ATOM     24  H4  UNL     1      -5.551   0.474   3.628  1.00  0.00     0.210 HD
ENDBRANCH  12  23
BRANCH  14  25
HETATM   25  N8  UNL     1      -2.002   0.678   1.766  1.00  0.00    -0.072 N 
ATOM     26  H83 UNL     1      -1.056   0.583   1.397  1.00  0.00     0.274 HD
ATOM     27  H82 UNL     1      -2.291   1.534   1.293  1.00  0.00     0.274 HD
ATOM     28  H81 UNL     1      -1.974   0.824   2.775  1.00  0.00     0.274 HD
ENDBRANCH  14  25
ENDBRANCH   7   8
ENDBRANCH   5   7
BRANCH   4  29
HETATM   29  N5  UNL     1      -2.023  -1.893  -3.508  1.00  0.00    -0.072 N 
ATOM     30  H53 UNL     1      -1.986  -1.744  -4.516  1.00  0.00     0.274 HD
ATOM     31  H52 UNL     1      -1.900  -2.906  -3.519  1.00  0.00     0.274 HD
ATOM     32  H51 UNL     1      -2.910  -1.604  -3.095  1.00  0.00     0.274 HD
ENDBRANCH   4  29
BRANCH   6  33
HETATM   33  O5  UNL     1       0.388  -3.210  -0.644  1.00  0.00    -0.390 OA
ATOM     34  H5  UNL     1      -0.402  -3.564  -0.253  1.00  0.00     0.210 HD
ENDBRANCH   6  33
BRANCH   1  35
HETATM   35  O2  UNL     1       1.857  -0.122  -0.513  1.00  0.00    -0.349 OA
BRANCH  35  36
HETATM   36  C6  UNL     1       3.084  -0.265   0.081  1.00  0.00     0.283 C 
HETATM   37  C4  UNL     1       3.974   0.863  -0.399  1.00  0.00     0.141 C 
HETATM   38  C3  UNL     1       3.827   1.889   0.706  1.00  0.00     0.063 C 
HETATM   39  C2  UNL     1       3.084   1.181   1.782  1.00  0.00     0.143 C 
HETATM   40  O6  UNL     1       3.026  -0.177   1.471  1.00  0.00    -0.353 OA
BRANCH  37  41
HETATM   41  N3  UNL     1       5.323   0.400  -0.560  1.00  0.00    -0.359 N 
ATOM     42  H3  UNL     1       5.806  -0.033   0.227  1.00  0.00     0.162 HD
BRANCH  41  43
HETATM   43  C5  UNL     1       5.985   0.538  -1.796  1.00  0.00     0.349 C 
HETATM   44  O1  UNL     1       5.440   1.064  -2.800  1.00  0.00    -0.284 OA
ENDBRANCH  41  43
ENDBRANCH  37  41
BRANCH  39  45
HETATM   45  C1  UNL     1       3.767   1.371   3.103  1.00  0.00     0.166 C 
BRANCH  45  46
HETATM   46  N2  UNL     1       5.099   0.832   3.062  1.00  0.00    -0.146 NA
BRANCH  46  47
HETATM   47  N1  UNL     1       5.757   0.995   4.305  1.00  0.00    -0.348 N 
ATOM     48  H12 UNL     1       5.327   1.440   5.116  1.00  0.00     0.172 HD
ATOM     49  H11 UNL     1       6.702   0.613   4.276  1.00  0.00     0.172 HD
ENDBRANCH  46  47
ENDBRANCH  45  46
ENDBRANCH  39  45
ENDBRANCH  35  36
ENDBRANCH   1  35
BRANCH   2  50
HETATM   50  N4  UNL     1       2.660  -1.070  -3.350  1.00  0.00    -0.072 N 
ATOM     51  H43 UNL     1       3.447  -0.648  -2.858  1.00  0.00     0.274 HD
ATOM     52  H42 UNL     1       2.942  -2.047  -3.268  1.00  0.00     0.274 HD
ATOM     53  H41 UNL     1       2.607  -0.766  -4.322  1.00  0.00     0.274 HD
ENDBRANCH   2  50
TORSDOF 16
