REMARK  8 active torsions:
REMARK  status: ('A' for Active; 'I' for Inactive)
REMARK    1  A    between atoms: O1_2  and  C2_3 
REMARK    2  A    between atoms: C2_3  and  C3_5 
REMARK    3  A    between atoms: C5_7  and  O3_8 
REMARK    4  A    between atoms: O3_8  and  C6_9 
REMARK    5  A    between atoms: C14_18  and  O5_19 
REMARK    6  A    between atoms: C18_24  and  O6_25 
REMARK    7  A    between atoms: C20_28  and  O8_29 
REMARK    8  A    between atoms: C20_28  and  C21_31 
ROOT
HETATM    1  C3  UNL     1      -2.728   0.316  -0.593  1.00  0.00     0.075 C 
HETATM    2  C4  UNL     1      -3.055   1.446  -1.605  1.00  0.00     0.029 C 
HETATM    3  C5  UNL     1      -2.095   0.992   0.568  1.00  0.00     0.151 C 
HETATM    4  C8  UNL     1      -0.606   1.001   0.636  1.00  0.00     0.046 C 
HETATM    5  C9  UNL     1       0.064  -0.099  -0.167  1.00  0.00    -0.002 C 
HETATM    6  C10 UNL     1       1.457   0.133  -0.385  1.00  0.00     0.005 C 
HETATM    7  C11 UNL     1       2.036  -1.073  -1.080  1.00  0.00     0.038 C 
HETATM    8  C12 UNL     1       2.758  -0.378  -2.220  1.00  0.00     0.128 C 
HETATM    9  C13 UNL     1       1.557   0.169  -3.004  1.00  0.00     0.064 C 
HETATM   10  C14 UNL     1       0.229  -0.426  -2.724  1.00  0.00     0.126 C 
HETATM   11  C15 UNL     1      -0.552   0.027  -1.577  1.00  0.00     0.031 C 
HETATM   12  C16 UNL     1      -1.849  -0.647  -1.345  1.00  0.00     0.016 C 
HETATM   13  C17 UNL     1      -1.440  -1.869  -0.569  1.00  0.00     0.039 C 
HETATM   14  C18 UNL     1      -0.407  -1.376   0.416  1.00  0.00     0.130 C 
HETATM   15  O7  UNL     1       3.564   0.519  -1.658  1.00  0.00    -0.349 OA
HETATM   16  C20 UNL     1       3.677   0.875  -0.383  1.00  0.00     0.165 C 
HETATM   17  C24 UNL     1       2.517   0.482   0.568  1.00  0.00     0.074 C 
ENDROOT
BRANCH   1  18
HETATM   18  C2  UNL     1      -4.059  -0.270  -0.304  1.00  0.00     0.269 C 
HETATM   19  O2  UNL     1      -4.301  -1.429  -0.699  1.00  0.00    -0.264 OA
BRANCH  18  20
HETATM   20  O1  UNL     1      -5.065   0.382   0.375  1.00  0.00    -0.326 OA
HETATM   21  C1  UNL     1      -6.330  -0.190   0.640  1.00  0.00     0.213 C 
ENDBRANCH  18  20
ENDBRANCH   1  18
BRANCH   3  22
HETATM   22  O3  UNL     1      -2.599   0.502   1.795  1.00  0.00    -0.315 OA
BRANCH  22  23
HETATM   23  C6  UNL     1      -3.268   1.252   2.736  1.00  0.00     0.255 C 
HETATM   24  C7  UNL     1      -3.753   0.616   3.995  1.00  0.00     0.126 C 
HETATM   25  O4  UNL     1      -3.455   2.475   2.503  1.00  0.00    -0.266 OA
ENDBRANCH  22  23
ENDBRANCH   3  22
BRANCH  10  26
HETATM   26  O5  UNL     1      -0.537   0.081  -3.843  1.00  0.00    -0.395 OA
ATOM     27  H5  UNL     1      -1.388  -0.300  -3.663  1.00  0.00     0.210 HD
ENDBRANCH  10  26
BRANCH  14  28
HETATM   28  O6  UNL     1       0.540  -2.305   0.753  1.00  0.00    -0.390 OA
HETATM   29  C19 UNL     1       0.461  -2.728   2.071  1.00  0.00     0.202 C 
ENDBRANCH  14  28
BRANCH  16  30
HETATM   30  O8  UNL     1       3.496   2.301  -0.425  1.00  0.00    -0.365 OA
ATOM     31  H8  UNL     1       3.577   2.556   0.487  1.00  0.00     0.213 HD
ENDBRANCH  16  30
BRANCH  16  32
HETATM   32  C21 UNL     1       5.015   0.732   0.270  1.00  0.00     0.040 C 
HETATM   33  C22 UNL     1       5.600  -0.625   0.320  1.00  0.00     0.015 C 
HETATM   34  C23 UNL     1       4.965   1.264   1.709  1.00  0.00     0.015 C 
ENDBRANCH  16  32
TORSDOF 8
