REMARK  4 active torsions:
REMARK  status: ('A' for Active; 'I' for Inactive)
REMARK    1  A    between atoms: C3_3  and  N1_4 
REMARK    2  A    between atoms: C6_11  and  C7_12 
REMARK    3  A    between atoms: C7_12  and  O1_13 
REMARK    4  A    between atoms: C7_12  and  O2_15 
ROOT
HETATM    1  C1  UNL     1       4.434   0.279  -1.788  1.00  0.00     0.018 C 
HETATM    2  C2  UNL     1       3.738   0.491  -0.842  1.00  0.00    -0.072 C 
HETATM    3  C3  UNL     1       2.880   0.753   0.282  1.00  0.00     0.162 C 
ENDROOT
BRANCH   3   4
HETATM    4  N1  UNL     1       1.725  -0.078   0.392  1.00  0.00    -0.316 N 
HETATM    5  S1  UNL     1       1.323  -0.487   1.969  1.00  0.00    -0.051 SA
HETATM    6  C4  UNL     1      -0.364  -0.810   2.387  1.00  0.00     0.131 C 
HETATM    7  C5  UNL     1      -1.275   0.099   1.654  1.00  0.00     0.204 C 
HETATM    8  N2  UNL     1      -0.595   1.243   1.115  1.00  0.00    -0.053 N 
HETATM    9  C8  UNL     1      -1.604  -0.342   0.253  1.00  0.00     0.060 C 
HETATM   10  C6  UNL     1      -0.577   0.621  -0.196  1.00  0.00     0.201 C 
ATOM     11  H22 UNL     1      -0.995   2.174   1.231  1.00  0.00     0.278 HD
ATOM     12  H21 UNL     1       0.276   1.563   1.538  1.00  0.00     0.278 HD
HETATM   13  C12 UNL     1       0.734   0.095  -0.597  1.00  0.00     0.139 C 
HETATM   14  C11 UNL     1       0.627  -1.228  -1.363  1.00  0.00     0.029 C 
HETATM   15  C10 UNL     1      -0.091  -2.216  -0.501  1.00  0.00     0.003 C 
HETATM   16  C9  UNL     1      -1.444  -1.749  -0.101  1.00  0.00     0.010 C 
BRANCH  10  17
HETATM   17  C7  UNL     1      -1.175   1.550  -1.267  1.00  0.00     0.292 C 
BRANCH  17  18
HETATM   18  O1  UNL     1      -2.489   1.870  -0.976  1.00  0.00    -0.369 OA
ATOM     19  H1  UNL     1      -2.858   2.444  -1.637  1.00  0.00     0.212 HD
ENDBRANCH  17  18
BRANCH  17  20
HETATM   20  O2  UNL     1      -0.376   2.655  -1.474  1.00  0.00    -0.369 OA
ATOM     21  H2  UNL     1      -0.745   3.229  -2.135  1.00  0.00     0.212 HD
ENDBRANCH  17  20
ENDBRANCH  10  17
ENDBRANCH   3   4
TORSDOF 4
