REMARK  6 active torsions:
REMARK  status: ('A' for Active; 'I' for Inactive)
REMARK    1  A    between atoms: S1_2  and  C2_3 
REMARK    2  A    between atoms: C6_7  and  N1_8 
REMARK    3  A    between atoms: C7_12  and  O1_13 
REMARK    4  A    between atoms: C10_17  and  O2_18 
REMARK    5  A    between atoms: O2_18  and  C11_19 
REMARK    6  A    between atoms: C11_19  and  N2_20 
ROOT
HETATM    1  C2  UNL     1      -1.608  -0.376  -0.379  1.00  0.00     0.076 C 
HETATM    2  C3  UNL     1      -1.006  -1.697  -0.714  1.00  0.00     0.018 C 
HETATM    3  C4  UNL     1       0.232  -2.043   0.059  1.00  0.00     0.008 C 
HETATM    4  C5  UNL     1       1.070  -0.852   0.355  1.00  0.00     0.025 C 
HETATM    5  C6  UNL     1       2.531  -0.992   0.134  1.00  0.00     0.216 C 
HETATM    6  C7  UNL     1       2.949   0.487   0.175  1.00  0.00     0.149 C 
HETATM    7  C8  UNL     1       1.863   1.103  -0.718  1.00  0.00     0.041 C 
HETATM    8  C9  UNL     1       0.707   0.197  -0.704  1.00  0.00     0.024 C 
HETATM    9  C10 UNL     1      -0.604   0.745  -0.211  1.00  0.00     0.142 C 
ENDROOT
BRANCH   9  10
HETATM   10  O2  UNL     1      -0.976   1.921  -0.794  1.00  0.00    -0.358 OA
BRANCH  10  11
HETATM   11  C11 UNL     1      -1.136   2.975   0.104  1.00  0.00     0.397 C 
BRANCH  11  12
HETATM   12  N2  UNL     1      -2.148   2.723   1.099  1.00  0.00    -0.058 N 
ATOM     13  H23 UNL     1      -3.037   2.482   0.660  1.00  0.00     0.276 HD
ATOM     14  H22 UNL     1      -1.962   1.850   1.593  1.00  0.00     0.276 HD
ATOM     15  H21 UNL     1      -2.265   3.494   1.756  1.00  0.00     0.276 HD
ENDBRANCH  11  12
ENDBRANCH  10  11
ENDBRANCH   9  10
BRANCH   1  16
HETATM   16  S1  UNL     1      -2.660  -0.495   1.089  1.00  0.00    -0.166 SA
HETATM   17  C1  UNL     1      -4.108  -1.517   0.793  1.00  0.00     0.090 C 
ENDBRANCH   1  16
BRANCH   5  18
HETATM   18  N1  UNL     1       3.242  -1.635   1.215  1.00  0.00    -0.072 N 
ATOM     19  H13 UNL     1       3.061  -1.153   2.095  1.00  0.00     0.274 HD
ATOM     20  H12 UNL     1       2.826  -2.543   1.423  1.00  0.00     0.274 HD
ATOM     21  H11 UNL     1       4.246  -1.731   1.063  1.00  0.00     0.274 HD
ENDBRANCH   5  18
BRANCH   6  22
HETATM   22  O1  UNL     1       4.209   0.672  -0.335  1.00  0.00    -0.393 OA
ATOM     23  H1  UNL     1       4.467   1.586  -0.310  1.00  0.00     0.210 HD
ENDBRANCH   6  22
TORSDOF 6
