REMARK  8 active torsions:
REMARK  status: ('A' for Active; 'I' for Inactive)
REMARK    1  A    between atoms: N1_2  and  C2_4 
REMARK    2  A    between atoms: C3_7  and  N3_8 
REMARK    3  A    between atoms: N4_13  and  C6_14 
REMARK    4  A    between atoms: C6_14  and  C7_15 
REMARK    5  A    between atoms: C7_15  and  C8_16 
REMARK    6  A    between atoms: C8_16  and  C9_17 
REMARK    7  A    between atoms: C9_17  and  C10_18 
REMARK    8  A    between atoms: C10_18  and  C11_19 
ROOT
HETATM    1  C2  UNL     1       2.805   0.449   0.560  1.00  0.00     0.681 A 
HETATM    2  N2  UNL     1       4.101   0.812   0.650  1.00  0.00    -0.177 N 
ATOM      3  H2  UNL     1       4.624   0.604   1.500  1.00  0.00     0.185 HD
HETATM    4  C3  UNL     1       4.714   1.447  -0.371  1.00  0.00     0.116 A 
HETATM    5  C4  UNL     1       3.991   1.711  -1.492  1.00  0.00     0.066 A 
HETATM    6  C5  UNL     1       2.659   1.323  -1.552  1.00  0.00     0.112 A 
HETATM    7  N4  UNL     1       2.062   0.692  -0.529  1.00  0.00    -0.193 N 
ENDROOT
BRANCH   7   8
HETATM    8  C6  UNL     1       0.701   0.307  -0.614  1.00  0.00     0.147 C 
BRANCH   8   9
HETATM    9  C7  UNL     1       0.443  -1.049  -1.168  1.00  0.00     0.021 C 
BRANCH   9  10
HETATM   10  C8  UNL     1      -1.052  -1.289  -1.182  1.00  0.00     0.002 C 
BRANCH  10  11
HETATM   11  C9  UNL     1      -1.820  -0.312  -2.010  1.00  0.00     0.007 C 
BRANCH  11  12
HETATM   12  C10 UNL     1      -3.295  -0.724  -1.896  1.00  0.00     0.076 C 
BRANCH  12  13
HETATM   13  C11 UNL     1      -3.719  -0.668  -0.466  1.00  0.00     0.072 C 
HETATM   14  N5  UNL     1      -4.166  -1.625   0.256  1.00  0.00    -0.378 N 
HETATM   15  C12 UNL     1      -4.476  -1.206   1.596  1.00  0.00     0.140 C 
ATOM     16  H5  UNL     1      -4.289  -2.580  -0.082  1.00  0.00     0.160 HD
HETATM   17  C13 UNL     1      -4.480   0.307   1.480  1.00  0.00     0.140 C 
HETATM   18  N6  UNL     1      -3.672   0.511   0.290  1.00  0.00    -0.378 N 
ATOM     19  H6  UNL     1      -3.162   1.360   0.048  1.00  0.00     0.160 HD
ENDBRANCH  12  13
ENDBRANCH  11  12
ENDBRANCH  10  11
ENDBRANCH   9  10
ENDBRANCH   8   9
ENDBRANCH   7   8
BRANCH   1  20
HETATM   20  N1  UNL     1       2.278  -0.145   1.548  1.00  0.00    -0.230 N 
HETATM   21  C1  UNL     1       2.938  -0.477   2.781  1.00  0.00     0.165 C 
ATOM     22  H1  UNL     1       1.297  -0.411   1.460  1.00  0.00     0.177 HD
ENDBRANCH   1  20
BRANCH   4  23
HETATM   23  N3  UNL     1       5.956   1.766  -0.218  1.00  0.00    -0.385 N 
ATOM     24  H32 UNL     1       6.498   1.568   0.623  1.00  0.00     0.157 HD
ATOM     25  H31 UNL     1       6.419   2.246  -0.990  1.00  0.00     0.157 HD
ENDBRANCH   4  23
TORSDOF 8
