REMARK  4 active torsions:
REMARK  status: ('A' for Active; 'I' for Inactive)
REMARK    1  A    between atoms: N1_2  and  C2_4 
REMARK    2  A    between atoms: C3_5  and  C4_6 
REMARK    3  A    between atoms: N2_7  and  O1_8 
REMARK    4  A    between atoms: N2_7  and  C5_10 
ROOT
HETATM    1  C4  UNL     1       0.107  -0.456   0.244  1.00  0.00     0.118 C 
HETATM    2  N2  UNL     1      -0.749   0.303   0.827  1.00  0.00    -0.267 N 
ENDROOT
BRANCH   1   3
HETATM    3  C3  UNL     1       1.518  -0.095   0.118  1.00  0.00     0.036 C 
HETATM    4  C2  UNL     1       2.373  -0.898  -0.487  1.00  0.00     0.088 C 
BRANCH   4   5
HETATM    5  N1  UNL     1       3.749  -0.596  -0.635  1.00  0.00    -0.385 N 
HETATM    6  C1  UNL     1       4.190   0.593  -0.864  1.00  0.00     0.117 C 
ATOM      7  H1  UNL     1       4.424  -1.357  -0.556  1.00  0.00     0.163 HD
ENDBRANCH   4   5
ENDBRANCH   1   3
BRANCH   2   8
HETATM    8  O1  UNL     1      -0.287   1.503   1.347  1.00  0.00    -0.288 OA
ATOM      9  H1  UNL     1      -0.920   2.065   1.778  1.00  0.00     0.244 HD
ENDBRANCH   2   8
BRANCH   2  10
HETATM   10  C5  UNL     1      -2.125  -0.101   0.923  1.00  0.00     0.113 A 
HETATM   11  C6  UNL     1      -3.218   0.712   0.328  1.00  0.00     0.030 A 
HETATM   12  C7  UNL     1      -2.776  -0.556  -0.350  1.00  0.00     0.030 A 
ENDBRANCH   2  10
TORSDOF 4
