REMARK  3 active torsions:
REMARK  status: ('A' for Active; 'I' for Inactive)
REMARK    1  A    between atoms: C3_4  and  C4_5 
REMARK    2  A    between atoms: C4_5  and  N1_6 
REMARK    3  A    between atoms: N1_6  and  C5_8 
ROOT
HETATM    1  C4  UNL     1       0.152   0.088  -0.187  1.00  0.00     0.118 C 
ENDROOT
BRANCH   1   2
HETATM    2  C3  UNL     1      -1.258   0.219   0.294  1.00  0.00     0.008 C 
HETATM    3  C2  UNL     1      -2.208   0.918  -0.677  1.00  0.00     0.043 C 
HETATM    4  C1  UNL     1      -3.285  -0.054  -0.171  1.00  0.00     0.171 C 
HETATM    5  F1  UNL     1      -3.862   0.419   1.008  1.00  0.00    -0.249 F 
HETATM    6  C8  UNL     1      -2.130  -0.997   0.195  1.00  0.00     0.043 C 
ENDBRANCH   1   2
BRANCH   1   7
HETATM    7  N1  UNL     1       0.947  -0.612   0.768  1.00  0.00    -0.417 N 
ATOM      8  H1  UNL     1       0.541  -1.061   1.589  1.00  0.00     0.153 HD
BRANCH   7   9
HETATM    9  C5  UNL     1       2.347  -0.643   0.498  1.00  0.00     0.076 A 
HETATM   10  C6  UNL     1       3.177   0.561   0.529  1.00  0.00     0.027 A 
HETATM   11  C7  UNL     1       2.874  -0.092  -0.801  1.00  0.00     0.027 A 
ENDBRANCH   7   9
ENDBRANCH   1   7
TORSDOF 3
