REMARK  8 active torsions:
REMARK  status: ('A' for Active; 'I' for Inactive)
REMARK    1  A    between atoms: N1_10  and  C8_11 
REMARK    2  A    between atoms: C8_11  and  C9_12 
REMARK    3  A    between atoms: C9_12  and  C10_13 
REMARK    4  A    between atoms: C10_13  and  C11_14 
REMARK    5  A    between atoms: C11_14  and  C12_15 
REMARK    6  A    between atoms: C12_15  and  C13_16 
REMARK       I    between atoms: C13_16  and  N2_18 
REMARK    7  A    between atoms: N2_18  and  C14_20 
REMARK    8  A    between atoms: C20_26  and  O2_27 
ROOT
HETATM    1  C9  UNL     1      -1.525   2.814  -0.126  1.00  0.00     0.020 C 
ENDROOT
BRANCH   1   2
HETATM    2  C8  UNL     1      -1.965   2.281   1.197  1.00  0.00     0.126 C 
BRANCH   2   3
HETATM    3  N1  UNL     1      -2.631   1.023   1.041  1.00  0.00    -0.346 N 
HETATM    4  C7  UNL     1      -4.090   0.939   0.793  1.00  0.00     0.102 C 
HETATM    5  C6  UNL     1      -4.732   0.925   2.148  1.00  0.00     0.105 C 
HETATM    6  C23 UNL     1      -4.260  -0.308  -0.001  1.00  0.00    -0.008 C 
HETATM    7  C5  UNL     1      -6.175   0.540   2.147  1.00  0.00     0.246 C 
HETATM    8  C4  UNL     1      -6.595  -0.166   0.879  1.00  0.00     0.088 C 
HETATM    9  F1  UNL     1      -7.022   1.616   2.331  1.00  0.00    -0.206 F 
HETATM   10  F2  UNL     1      -6.398  -0.328   3.214  1.00  0.00    -0.206 F 
HETATM   11  C2  UNL     1      -5.495  -1.094   0.376  1.00  0.00    -0.033 C 
HETATM   12  C1  UNL     1      -6.064  -1.792  -0.856  1.00  0.00     0.016 C 
HETATM   13  C3  UNL     1      -5.223  -2.181   1.392  1.00  0.00     0.016 C 
HETATM   14  C22 UNL     1      -2.986  -1.085   0.174  1.00  0.00     0.115 C 
HETATM   15  C24 UNL     1      -4.331   0.121  -1.473  1.00  0.00     0.018 C 
HETATM   16  C21 UNL     1      -2.124  -0.287   1.073  1.00  0.00     0.221 C 
HETATM   17  O3  UNL     1      -1.149  -0.681   1.728  1.00  0.00    -0.273 OA
ENDBRANCH   2   3
ENDBRANCH   1   2
BRANCH   1  18
HETATM   18  C10 UNL     1      -0.540   1.961  -0.869  1.00  0.00     0.002 C 
BRANCH  18  19
HETATM   19  C11 UNL     1       0.770   1.768  -0.149  1.00  0.00     0.009 C 
BRANCH  19  20
HETATM   20  C12 UNL     1       1.640   0.885  -1.015  1.00  0.00     0.103 C 
BRANCH  20  21
HETATM   21  C13 UNL     1       2.960   0.631  -0.398  1.00  0.00     0.217 C 
HETATM   22  O1  UNL     1       3.226   1.132   0.708  1.00  0.00    -0.274 OA
HETATM   23  N2  UNL     1       3.902  -0.173  -1.062  1.00  0.00    -0.354 N 
ATOM     24  H2  UNL     1       3.667  -0.576  -1.969  1.00  0.00     0.162 HD
BRANCH  23  25
HETATM   25  C14 UNL     1       5.219  -0.442  -0.472  1.00  0.00     0.113 C 
HETATM   26  C15 UNL     1       5.396  -1.911  -0.168  1.00  0.00     0.028 C 
HETATM   27  C16 UNL     1       6.372  -2.002   1.008  1.00  0.00     0.002 C 
HETATM   28  C17 UNL     1       7.749  -1.523   0.541  1.00  0.00     0.000 C 
HETATM   29  C18 UNL     1       7.827  -0.031   0.598  1.00  0.00     0.002 C 
HETATM   30  C19 UNL     1       7.471   0.641  -0.699  1.00  0.00     0.034 C 
HETATM   31  C20 UNL     1       6.310   0.005  -1.407  1.00  0.00     0.140 C 
BRANCH  31  32
HETATM   32  O2  UNL     1       6.708  -1.014  -2.275  1.00  0.00    -0.394 OA
ATOM     33  H2  UNL     1       7.397  -0.732  -2.865  1.00  0.00     0.210 HD
ENDBRANCH  31  32
ENDBRANCH  23  25
ENDBRANCH  20  21
ENDBRANCH  19  20
ENDBRANCH  18  19
ENDBRANCH   1  18
TORSDOF 8
