REMARK  14 active torsions:
REMARK  status: ('A' for Active; 'I' for Inactive)
REMARK    1  A    between atoms: C2_2  and  N1_3 
REMARK    2  A    between atoms: C3_5  and  S1_6 
REMARK    3  A    between atoms: C3_5  and  N5_39 
REMARK    4  A    between atoms: S1_6  and  S2_7 
REMARK    5  A    between atoms: S2_7  and  C4_8 
REMARK    6  A    between atoms: C4_8  and  C5_9 
REMARK    7  A    between atoms: C4_8  and  C21_30 
REMARK    8  A    between atoms: C5_9  and  C6_10 
REMARK    9  A    between atoms: C6_10  and  N2_13 
REMARK       I    between atoms: N2_13  and  C9_15 
REMARK   10  A    between atoms: C9_15  and  C10_17 
REMARK       I    between atoms: N3_20  and  C13_21 
REMARK   11  A    between atoms: C13_21  and  C14_23 
REMARK       I    between atoms: C21_30  and  N4_32 
REMARK   12  A    between atoms: N4_32  and  C22_34 
REMARK   13  A    between atoms: C22_34  and  C23_35 
REMARK   14  A    between atoms: C22_34  and  C24_37 
ROOT
HETATM    1  C4  UNL     1      -2.928   0.058  -1.099  1.00  0.00     0.153 C 
ENDROOT
BRANCH   1   2
HETATM    2  S2  UNL     1      -3.663  -1.466  -1.583  1.00  0.00    -0.075 SA
BRANCH   2   3
HETATM    3  S1  UNL     1      -3.443  -2.934  -0.099  1.00  0.00    -0.020 SA
BRANCH   3   4
HETATM    4  C3  UNL     1      -4.810  -2.913   1.002  1.00  0.00     0.157 C 
HETATM    5  N1  UNL     1      -4.718  -3.702   2.057  1.00  0.00    -0.370 N 
ATOM      6  H1  UNL     1      -5.475  -3.740   2.740  1.00  0.00     0.161 HD
BRANCH   5   7
HETATM    7  C2  UNL     1      -3.547  -4.502   2.232  1.00  0.00     0.117 C 
HETATM    8  C1  UNL     1      -3.994  -5.961   2.190  1.00  0.00     0.026 C 
ENDBRANCH   5   7
BRANCH   4   9
HETATM    9  N5  UNL     1      -5.983  -2.132   0.888  1.00  0.00    -0.274 N 
HETATM   10  C26 UNL     1      -6.396  -1.220  -0.142  1.00  0.00     0.304 C 
HETATM   11  O5  UNL     1      -7.754  -0.936   0.067  1.00  0.00    -0.362 OA
HETATM   12  C27 UNL     1      -7.969  -1.011   1.442  1.00  0.00     0.273 C 
HETATM   13  C28 UNL     1      -7.065  -2.119   1.843  1.00  0.00     0.251 C 
HETATM   14  O6  UNL     1      -7.232  -2.869   2.812  1.00  0.00    -0.270 OA
ENDBRANCH   4   9
ENDBRANCH   3   4
ENDBRANCH   2   3
ENDBRANCH   1   2
BRANCH   1  15
HETATM   15  C5  UNL     1      -1.453   0.125  -1.229  1.00  0.00     0.055 C 
BRANCH  15  16
HETATM   16  C6  UNL     1      -0.569  -0.818  -0.520  1.00  0.00     0.027 C 
HETATM   17  C7  UNL     1      -0.728  -0.868   0.974  1.00  0.00     0.038 C 
HETATM   18  C8  UNL     1      -0.403  -2.169  -1.179  1.00  0.00     0.038 C 
BRANCH  16  19
HETATM   19  N2  UNL     1       0.804  -0.204  -0.676  1.00  0.00    -0.352 N 
HETATM   20  C9  UNL     1       1.138   1.037  -0.114  1.00  0.00     0.224 C 
HETATM   21  O1  UNL     1       0.386   1.766   0.567  1.00  0.00    -0.273 OA
ATOM     22  H2  UNL     1       1.512  -0.710  -1.208  1.00  0.00     0.163 HD
BRANCH  20  23
HETATM   23  C10 UNL     1       2.540   1.561  -0.342  1.00  0.00     0.097 C 
HETATM   24  C11 UNL     1       2.755   2.882   0.317  1.00  0.00     0.035 C 
HETATM   25  C12 UNL     1       4.113   2.814   0.971  1.00  0.00     0.127 C 
HETATM   26  N3  UNL     1       4.593   1.449   0.808  1.00  0.00    -0.351 N 
HETATM   27  C13 UNL     1       5.913   1.038   1.074  1.00  0.00     0.224 C 
HETATM   28  C20 UNL     1       3.504   0.626   0.367  1.00  0.00     0.139 C 
HETATM   29  O2  UNL     1       6.747   1.920   1.512  1.00  0.00    -0.273 OA
BRANCH  27  30
HETATM   30  C14 UNL     1       6.438  -0.344   0.887  1.00  0.00     0.078 C 
HETATM   31  C15 UNL     1       6.727  -0.613  -0.549  1.00  0.00     0.014 C 
HETATM   32  C16 UNL     1       7.719  -1.744  -0.771  1.00  0.00     0.001 C 
HETATM   33  C17 UNL     1       8.947  -1.562   0.092  1.00  0.00     0.000 C 
HETATM   34  C18 UNL     1       8.464  -1.701   1.537  1.00  0.00     0.001 C 
HETATM   35  C19 UNL     1       7.605  -0.510   1.816  1.00  0.00     0.014 C 
ENDBRANCH  27  30
ENDBRANCH  20  23
ENDBRANCH  16  19
ENDBRANCH  15  16
ENDBRANCH   1  15
BRANCH   1  36
HETATM   36  C21 UNL     1      -3.449   1.211  -1.954  1.00  0.00     0.233 C 
HETATM   37  O3  UNL     1      -4.239   0.985  -2.911  1.00  0.00    -0.272 OA
HETATM   38  N4  UNL     1      -3.063   2.538  -1.695  1.00  0.00    -0.349 N 
ATOM     39  H4  UNL     1      -2.425   2.713  -0.918  1.00  0.00     0.163 HD
BRANCH  38  40
HETATM   40  C22 UNL     1      -3.517   3.654  -2.462  1.00  0.00     0.145 C 
BRANCH  40  41
HETATM   41  C23 UNL     1      -2.440   4.400  -3.147  1.00  0.00     0.256 C 
HETATM   42  O4  UNL     1      -1.258   4.110  -3.082  1.00  0.00    -0.305 OA
ENDBRANCH  40  41
BRANCH  40  43
HETATM   43  C24 UNL     1      -4.286   4.576  -1.537  1.00  0.00     0.028 C 
HETATM   44  C25 UNL     1      -4.801   5.789  -2.283  1.00  0.00     0.007 C 
ENDBRANCH  40  43
ENDBRANCH  38  40
ENDBRANCH   1  36
TORSDOF 14
