REMARK  9 active torsions:
REMARK  status: ('A' for Active; 'I' for Inactive)
REMARK    1  A    between atoms: C3_3  and  C4_4 
REMARK    2  A    between atoms: C7_13  and  C8_14 
REMARK    3  A    between atoms: C8_14  and  C9_15 
REMARK    4  A    between atoms: C9_15  and  C10_16 
REMARK    5  A    between atoms: C10_16  and  N3_17 
REMARK    6  A    between atoms: C13_26  and  C14_27 
REMARK    7  A    between atoms: C14_27  and  C15_28 
REMARK    8  A    between atoms: C19_35  and  C20_36 
REMARK    9  A    between atoms: C20_36  and  C21_37 
ROOT
HETATM    1  C4  UNL     1      -2.278  -3.326   0.620  1.00  0.00     0.201 C 
HETATM    2  N1  UNL     1      -1.139  -2.867   1.340  1.00  0.00    -0.326 N 
ATOM      3  H1  UNL     1      -1.330  -2.202   2.089  1.00  0.00     0.165 HD
HETATM    4  C5  UNL     1       0.220  -3.207   1.158  1.00  0.00     0.323 C 
HETATM    5  O1  UNL     1       0.902  -3.694   2.149  1.00  0.00    -0.247 OA
HETATM    6  N2  UNL     1       0.966  -3.070  -0.047  1.00  0.00    -0.278 N 
ATOM      7  H2  UNL     1       1.443  -3.906  -0.385  1.00  0.00     0.173 HD
HETATM    8  C6  UNL     1       1.115  -1.905  -0.822  1.00  0.00     0.248 C 
HETATM    9  O2  UNL     1       0.886  -1.977  -2.079  1.00  0.00    -0.271 OA
HETATM   10  C7  UNL     1       1.528  -0.565  -0.279  1.00  0.00     0.177 C 
HETATM   11  N6  UNL     1       1.811   0.393  -1.256  1.00  0.00    -0.346 N 
ATOM     12  H6  UNL     1       2.772   0.732  -1.294  1.00  0.00     0.163 HD
HETATM   13  C12 UNL     1       0.900   0.951  -2.209  1.00  0.00     0.241 C 
HETATM   14  O3  UNL     1       1.242   0.816  -3.447  1.00  0.00    -0.271 OA
HETATM   15  C13 UNL     1      -0.353   1.644  -1.943  1.00  0.00     0.177 C 
HETATM   16  N7  UNL     1      -1.448   0.712  -2.020  1.00  0.00    -0.346 N 
ATOM     17  H7  UNL     1      -1.372   0.052  -2.794  1.00  0.00     0.163 HD
HETATM   18  C18 UNL     1      -2.578   0.537  -1.253  1.00  0.00     0.241 C 
HETATM   19  O4  UNL     1      -3.705   0.863  -1.792  1.00  0.00    -0.271 OA
HETATM   20  C19 UNL     1      -2.755   0.023   0.131  1.00  0.00     0.177 C 
HETATM   21  N8  UNL     1      -3.605  -1.183   0.034  1.00  0.00    -0.346 N 
ATOM     22  H8  UNL     1      -4.425  -1.104  -0.568  1.00  0.00     0.163 HD
HETATM   23  C24 UNL     1      -3.427  -2.402   0.656  1.00  0.00     0.245 C 
HETATM   24  O5  UNL     1      -4.418  -2.805   1.385  1.00  0.00    -0.271 OA
ENDROOT
BRANCH  10  25
HETATM   25  C8  UNL     1       2.566  -0.709   0.788  1.00  0.00     0.036 C 
BRANCH  25  26
HETATM   26  C9  UNL     1       3.815  -1.414   0.445  1.00  0.00     0.022 C 
BRANCH  26  27
HETATM   27  C10 UNL     1       4.749  -0.866  -0.549  1.00  0.00     0.122 C 
BRANCH  27  28
HETATM   28  N3  UNL     1       5.340   0.416  -0.210  1.00  0.00    -0.367 N 
HETATM   29  C11 UNL     1       6.281   0.433   0.669  1.00  0.00     0.196 C 
HETATM   30  N4  UNL     1       6.750  -0.769   1.308  1.00  0.00    -0.067 NA
HETATM   31  N5  UNL     1       6.849   1.696   0.989  1.00  0.00    -0.067 NA
ATOM     32  H3  UNL     1       5.020   1.277  -0.654  1.00  0.00     0.161 HD
ENDBRANCH  27  28
ENDBRANCH  26  27
ENDBRANCH  25  26
ENDBRANCH  10  25
BRANCH  15  33
HETATM   33  C14 UNL     1      -0.358   2.561  -0.763  1.00  0.00     0.038 C 
BRANCH  33  34
HETATM   34  C15 UNL     1       0.697   3.667  -0.942  1.00  0.00    -0.020 C 
HETATM   35  C16 UNL     1       0.407   4.479  -2.182  1.00  0.00     0.009 C 
HETATM   36  C17 UNL     1       0.725   4.527   0.282  1.00  0.00     0.009 C 
ENDBRANCH  33  34
ENDBRANCH  15  33
BRANCH   1  37
HETATM   37  C3  UNL     1      -2.024  -3.749  -0.781  1.00  0.00     0.003 C 
HETATM   38  C2  UNL     1      -3.039  -3.675  -1.631  1.00  0.00    -0.033 C 
HETATM   39  C1  UNL     1      -2.865  -4.078  -3.043  1.00  0.00     0.036 C 
ENDBRANCH   1  37
BRANCH  20  40
HETATM   40  C20 UNL     1      -3.526   1.107   0.868  1.00  0.00     0.038 C 
BRANCH  40  41
HETATM   41  C21 UNL     1      -3.810   0.770   2.296  1.00  0.00    -0.020 C 
HETATM   42  C22 UNL     1      -2.573   0.544   3.119  1.00  0.00     0.009 C 
HETATM   43  C23 UNL     1      -4.504   2.006   2.889  1.00  0.00     0.009 C 
ENDBRANCH  40  41
ENDBRANCH  20  40
TORSDOF 9
