REMARK  13 active torsions:
REMARK  status: ('A' for Active; 'I' for Inactive)
REMARK    1  A    between atoms: N1_1  and  C1_4 
REMARK    2  A    between atoms: C2_7  and  C3_8 
REMARK    3  A    between atoms: C3_8  and  S1_9 
REMARK    4  A    between atoms: S1_9  and  C4_12 
REMARK    5  A    between atoms: C4_12  and  C5_13 
REMARK    6  A    between atoms: C5_13  and  N3_14 
REMARK    7  A    between atoms: C5_13  and  C6_18 
REMARK    8  A    between atoms: C8_22  and  O3_23 
REMARK    9  A    between atoms: C9_27  and  C10_28 
REMARK   10  A    between atoms: C13_34  and  C14_35 
REMARK   11  A    between atoms: C14_35  and  C15_36 
REMARK   12  A    between atoms: C15_36  and  O7_37 
REMARK   13  A    between atoms: C16_41  and  O8_42 
ROOT
HETATM    1  C6  UNL     1      -0.047  -0.722   0.001  1.00  0.00     0.205 C 
HETATM    2  N4  UNL     1       0.019  -1.938  -0.761  1.00  0.00    -0.381 N 
ATOM      3  H4  UNL     1       0.602  -2.015  -1.594  1.00  0.00     0.160 HD
HETATM    4  C7  UNL     1      -0.772  -3.037  -0.297  1.00  0.00     0.139 C 
HETATM    5  C8  UNL     1      -1.633  -2.779   0.839  1.00  0.00     0.151 C 
HETATM    6  N5  UNL     1      -2.834  -2.089   0.978  1.00  0.00    -0.355 N 
ATOM      7  H5  UNL     1      -2.793  -1.381   1.711  1.00  0.00     0.162 HD
HETATM    8  C9  UNL     1      -4.088  -2.136   0.349  1.00  0.00     0.191 C 
HETATM    9  C11 UNL     1      -5.019  -1.091   0.974  1.00  0.00     0.116 C 
HETATM   10  C12 UNL     1      -5.263   0.084   0.149  1.00  0.00     0.151 C 
HETATM   11  O6  UNL     1      -6.396   0.172  -0.355  1.00  0.00    -0.296 OA
HETATM   12  C13 UNL     1      -4.315   1.191  -0.158  1.00  0.00     0.152 C 
HETATM   13  N6  UNL     1      -3.422   1.438   0.910  1.00  0.00    -0.370 N 
ATOM     14  H6  UNL     1      -3.745   1.396   1.876  1.00  0.00     0.158 HD
HETATM   15  C16 UNL     1      -2.068   1.745   0.615  1.00  0.00     0.325 C 
HETATM   16  N7  UNL     1      -1.561   1.285  -0.644  1.00  0.00    -0.317 N 
ATOM     17  H7  UNL     1      -1.974   1.714  -1.473  1.00  0.00     0.166 HD
HETATM   18  C17 UNL     1      -0.569   0.320  -0.884  1.00  0.00     0.245 C 
HETATM   19  O9  UNL     1      -0.049   0.367  -2.056  1.00  0.00    -0.271 OA
ENDROOT
BRANCH   1  20
HETATM   20  C5  UNL     1       1.381  -0.440   0.492  1.00  0.00     0.229 C 
BRANCH  20  21
HETATM   21  C4  UNL     1       2.373  -0.269  -0.605  1.00  0.00     0.176 C 
BRANCH  21  22
HETATM   22  S1  UNL     1       3.947   0.058   0.197  1.00  0.00     0.153 S 
HETATM   23  O1  UNL     1       4.361  -1.074   1.077  1.00  0.00    -0.227 OA
HETATM   24  O2  UNL     1       3.875   1.298   1.041  1.00  0.00    -0.227 OA
BRANCH  22  25
HETATM   25  C3  UNL     1       5.213   0.282  -1.043  1.00  0.00     0.217 C 
BRANCH  25  26
HETATM   26  C2  UNL     1       6.527   0.555  -0.414  1.00  0.00     0.115 A 
HETATM   27  N2  UNL     1       7.327  -0.483  -0.117  1.00  0.00    -0.180 N 
HETATM   28  C1  UNL     1       8.531  -0.260   0.457  1.00  0.00     0.681 A 
ATOM     29  H2  UNL     1       7.027  -1.436  -0.324  1.00  0.00     0.185 HD
HETATM   30  N9  UNL     1       8.906   0.985   0.720  1.00  0.00    -0.141 N 
HETATM   31  C18 UNL     1       8.106   2.016   0.422  1.00  0.00     0.339 A 
ATOM     32  H9  UNL     1       9.813   1.158   1.154  1.00  0.00     0.189 HD
HETATM   33  N8  UNL     1       6.921   1.813  -0.142  1.00  0.00    -0.296 N 
HETATM   34  O10 UNL     1       8.522   3.183   0.697  1.00  0.00    -0.246 OA
ATOM     35  H8  UNL     1       6.315   2.602  -0.367  1.00  0.00     0.172 HD
BRANCH  28  36
HETATM   36  N1  UNL     1       9.307  -1.261   0.746  1.00  0.00    -0.234 N 
ATOM     37  H12 UNL     1       9.019  -2.218   0.544  1.00  0.00     0.174 HD
ATOM     38  H11 UNL     1      10.215  -1.093   1.179  1.00  0.00     0.174 HD
ENDBRANCH  28  36
ENDBRANCH  25  26
ENDBRANCH  22  25
ENDBRANCH  21  22
ENDBRANCH  20  21
BRANCH  20  39
HETATM   39  N3  UNL     1       1.834  -1.558   1.308  1.00  0.00    -0.072 N 
ATOM     40  H33 UNL     1       1.986  -2.411   0.769  1.00  0.00     0.274 HD
ATOM     41  H32 UNL     1       2.790  -1.445   1.647  1.00  0.00     0.274 HD
ATOM     42  H31 UNL     1       1.154  -1.675   2.060  1.00  0.00     0.274 HD
ENDBRANCH  20  39
ENDBRANCH   1  20
BRANCH   5  43
HETATM   43  O3  UNL     1      -1.195  -3.294   1.958  1.00  0.00    -0.345 OA
ATOM     44  H3  UNL     1      -1.760  -3.125   2.703  1.00  0.00     0.219 HD
ENDBRANCH   5  43
BRANCH  15  45
HETATM   45  O8  UNL     1      -1.291   1.329   1.704  1.00  0.00    -0.360 OA
ATOM     46  H8  UNL     1      -0.385   1.534   1.507  1.00  0.00     0.214 HD
ENDBRANCH  15  45
BRANCH   8  47
HETATM   47  C10 UNL     1      -4.201  -2.003  -1.091  1.00  0.00     0.197 C 
HETATM   48  O4  UNL     1      -3.297  -1.776  -1.927  1.00  0.00    -0.646 OA
HETATM   49  O5  UNL     1      -5.477  -2.138  -1.712  1.00  0.00    -0.646 OA
ENDBRANCH   8  47
BRANCH  12  50
HETATM   50  C14 UNL     1      -5.207   2.404  -0.455  1.00  0.00     0.058 C 
BRANCH  50  51
HETATM   51  C15 UNL     1      -4.446   3.639  -0.787  1.00  0.00     0.166 C 
BRANCH  51  52
HETATM   52  O7  UNL     1      -5.322   4.715  -1.067  1.00  0.00    -0.401 OA
ATOM     53  H7  UNL     1      -4.836   5.503  -1.279  1.00  0.00     0.209 HD
ENDBRANCH  51  52
ENDBRANCH  50  51
ENDBRANCH  12  50
TORSDOF 13
