REMARK  15 active torsions:
REMARK  status: ('A' for Active; 'I' for Inactive)
REMARK       I    between atoms: C1_4  and  N3_6 
REMARK    1  A    between atoms: N3_6  and  C2_8 
REMARK    2  A    between atoms: C2_8  and  C3_9 
REMARK    3  A    between atoms: C3_9  and  C4_10 
REMARK    4  A    between atoms: C4_10  and  C5_11 
REMARK    5  A    between atoms: C5_11  and  N4_12 
REMARK    6  A    between atoms: C5_11  and  C6_16 
REMARK    7  A    between atoms: N6_24  and  C11_25 
REMARK    8  A    between atoms: C11_25  and  O2_26 
REMARK    9  A    between atoms: C11_25  and  C12_28 
REMARK   10  A    between atoms: C12_28  and  N7_29 
REMARK   11  A    between atoms: C12_28  and  C13_33 
REMARK   12  A    between atoms: C13_33  and  O3_34 
REMARK   13  A    between atoms: C13_33  and  C14_36 
REMARK   14  A    between atoms: C14_36  and  O4_37 
REMARK       I    between atoms: N8_39  and  C15_40 
REMARK   15  A    between atoms: C17_46  and  N11_47 
ROOT
HETATM    1  C6  UNL     1       2.276  -0.182   0.204  1.00  0.00     0.161 C 
HETATM    2  C7  UNL     1       1.461   1.078  -0.011  1.00  0.00     0.137 C 
HETATM    3  C8  UNL     1       1.000   1.664   1.269  1.00  0.00     0.220 C 
HETATM    4  O1  UNL     1       1.620   1.256   2.308  1.00  0.00    -0.274 OA
HETATM    5  N5  UNL     1      -0.016   2.596   1.459  1.00  0.00    -0.360 N 
ATOM      6  H5  UNL     1       0.231   3.416   2.013  1.00  0.00     0.162 HD
HETATM    7  C9  UNL     1      -1.381   2.550   0.970  1.00  0.00     0.139 C 
HETATM    8  C10 UNL     1      -1.764   1.201   0.488  1.00  0.00     0.137 C 
HETATM    9  N6  UNL     1      -3.070   0.723   0.894  1.00  0.00    -0.187 NA
HETATM   10  N8  UNL     1      -2.913  -0.643   1.175  1.00  0.00    -0.220 N 
HETATM   11  C15 UNL     1      -3.694  -1.212   2.206  1.00  0.00     0.350 C 
HETATM   12  N9  UNL     1      -3.615  -2.589   2.567  1.00  0.00    -0.038 NA
HETATM   13  O5  UNL     1      -4.489  -0.510   2.842  1.00  0.00    -0.249 OA
HETATM   14  C16 UNL     1      -1.988  -1.464   0.468  1.00  0.00     0.223 C 
HETATM   15  N10 UNL     1      -2.500  -2.663  -0.103  1.00  0.00    -0.184 N 
ATOM     16  H10 UNL     1      -3.495  -2.871  -0.020  1.00  0.00     0.185 HD
HETATM   17  C17 UNL     1      -1.652  -3.578  -0.787  1.00  0.00     0.708 C 
HETATM   18  N13 UNL     1      -0.555  -3.371  -1.337  1.00  0.00    -0.156 N 
ATOM     19  H13 UNL     1      -0.229  -4.254  -1.730  1.00  0.00     0.187 HD
HETATM   20  C19 UNL     1       0.370  -2.427  -1.614  1.00  0.00     0.259 C 
HETATM   21  O6  UNL     1       0.248  -1.601  -2.581  1.00  0.00    -0.270 OA
HETATM   22  C20 UNL     1       1.660  -2.195  -0.858  1.00  0.00     0.271 C 
HETATM   23  O7  UNL     1       1.588  -1.337   0.163  1.00  0.00    -0.374 OA
ENDROOT
BRANCH   1  24
HETATM   24  C5  UNL     1       3.579  -0.128  -0.568  1.00  0.00     0.212 C 
BRANCH  24  25
HETATM   25  C4  UNL     1       4.540  -1.089   0.027  1.00  0.00     0.037 C 
BRANCH  25  26
HETATM   26  C3  UNL     1       5.914  -1.126  -0.515  1.00  0.00     0.022 C 
BRANCH  26  27
HETATM   27  C2  UNL     1       6.734   0.100  -0.447  1.00  0.00     0.122 C 
BRANCH  27  28
HETATM   28  N3  UNL     1       6.932   0.596   0.903  1.00  0.00    -0.365 N 
HETATM   29  C1  UNL     1       7.711   1.776   1.040  1.00  0.00     0.181 C 
HETATM   30  N1  UNL     1       8.989   1.661   0.927  1.00  0.00    -0.374 N 
HETATM   31  N2  UNL     1       7.162   3.061   1.292  1.00  0.00    -0.064 NA
ATOM     32  H12 UNL     1       9.548   2.508   1.025  1.00  0.00     0.158 HD
ATOM     33  H11 UNL     1       9.383   0.738   0.746  1.00  0.00     0.158 HD
ATOM     34  H3  UNL     1       6.532   0.121   1.712  1.00  0.00     0.162 HD
ENDBRANCH  27  28
ENDBRANCH  26  27
ENDBRANCH  25  26
ENDBRANCH  24  25
BRANCH  24  35
HETATM   35  N4  UNL     1       4.099   1.213  -0.373  1.00  0.00    -0.073 N 
ATOM     36  H43 UNL     1       4.304   1.417   0.605  1.00  0.00     0.274 HD
ATOM     37  H42 UNL     1       5.045   1.325  -0.739  1.00  0.00     0.274 HD
ATOM     38  H41 UNL     1       3.438   1.874  -0.782  1.00  0.00     0.274 HD
ENDBRANCH  24  35
ENDBRANCH   1  24
BRANCH  17  39
HETATM   39  N11 UNL     1      -2.172  -4.928  -0.814  1.00  0.00    -0.079 N 
HETATM   40  C18 UNL     1      -2.643  -6.001  -1.672  1.00  0.00     0.243 A 
HETATM   41  N12 UNL     1      -2.604  -6.144  -0.284  1.00  0.00    -0.272 N 
ATOM     42  H12 UNL     1      -2.772  -6.726   0.537  1.00  0.00     0.189 HD
ENDBRANCH  17  39
BRANCH   9  43
HETATM   43  C11 UNL     1      -4.021   0.791  -0.213  1.00  0.00     0.245 C 
BRANCH  43  44
HETATM   44  O2  UNL     1      -3.435   0.080  -1.291  1.00  0.00    -0.377 OA
ATOM     45  H2  UNL     1      -4.053   0.124  -2.011  1.00  0.00     0.211 HD
ENDBRANCH  43  44
BRANCH  43  46
HETATM   46  C12 UNL     1      -4.306   2.156  -0.703  1.00  0.00     0.258 C 
BRANCH  46  47
HETATM   47  N7  UNL     1      -5.193   2.072  -1.879  1.00  0.00    -0.069 N 
ATOM     48  H73 UNL     1      -4.813   1.470  -2.609  1.00  0.00     0.275 HD
ATOM     49  H72 UNL     1      -6.044   1.544  -1.686  1.00  0.00     0.275 HD
ATOM     50  H71 UNL     1      -5.390   3.014  -2.217  1.00  0.00     0.275 HD
ENDBRANCH  46  47
BRANCH  46  51
HETATM   51  C13 UNL     1      -4.875   3.136   0.270  1.00  0.00     0.176 C 
BRANCH  51  52
HETATM   52  O3  UNL     1      -4.909   4.421  -0.354  1.00  0.00    -0.391 OA
ATOM     53  H3  UNL     1      -5.271   5.044   0.265  1.00  0.00     0.210 HD
ENDBRANCH  51  52
BRANCH  51  54
HETATM   54  C14 UNL     1      -6.356   2.875   0.587  1.00  0.00     0.198 C 
BRANCH  54  55
HETATM   55  O4  UNL     1      -6.477   1.668   1.220  1.00  0.00    -0.398 OA
ATOM     56  H4  UNL     1      -7.392   1.507   1.416  1.00  0.00     0.209 HD
ENDBRANCH  54  55
ENDBRANCH  51  54
ENDBRANCH  46  51
ENDBRANCH  43  46
ENDBRANCH   9  43
TORSDOF 15
