REMARK  5 active torsions:
REMARK  status: ('A' for Active; 'I' for Inactive)
REMARK    1  A    between atoms: C1_2  and  O1_4 
REMARK    2  A    between atoms: O1_4  and  C2_5 
REMARK    3  A    between atoms: C3_10  and  N3_11 
REMARK    4  A    between atoms: C10_18  and  N4_19 
REMARK    5  A    between atoms: N4_19  and  C11_21 
ROOT
HETATM    1  C2  UNL     1       0.621   2.891   0.641  1.00  0.00     0.244 A 
HETATM    2  N1  UNL     1      -0.655   3.205   0.371  1.00  0.00    -0.263 N 
ATOM      3  H1  UNL     1      -0.942   4.179   0.470  1.00  0.00     0.190 HD
HETATM    4  N2  UNL     1      -1.561   2.326  -0.015  1.00  0.00    -0.279 N 
ATOM      5  H2  UNL     1      -2.521   2.610  -0.210  1.00  0.00     0.189 HD
HETATM    6  C3  UNL     1      -1.176   1.044  -0.143  1.00  0.00     0.163 A 
HETATM    7  C10 UNL     1       0.119   0.649   0.118  1.00  0.00     0.150 A 
HETATM    8  N5  UNL     1       0.984   1.590   0.504  1.00  0.00    -0.304 N 
ATOM      9  H5  UNL     1       1.948   1.323   0.702  1.00  0.00     0.171 HD
ENDROOT
BRANCH   7  10
HETATM   10  N4  UNL     1       0.437  -0.540  -0.011  1.00  0.00    -0.368 N 
ATOM     11  H4  UNL     1      -0.354  -1.108  -0.313  1.00  0.00     0.161 HD
BRANCH  10  12
HETATM   12  C11 UNL     1       1.592  -1.313   0.147  1.00  0.00     0.083 C 
HETATM   13  C12 UNL     1       1.900  -1.478   1.644  1.00  0.00     0.031 C 
HETATM   14  C13 UNL     1       2.930  -2.619   1.672  1.00  0.00     0.081 C 
HETATM   15  C14 UNL     1       4.230  -2.017   1.206  1.00  0.00     0.243 C 
HETATM   16  F3  UNL     1       5.005  -3.071   0.715  1.00  0.00    -0.206 F 
HETATM   17  F4  UNL     1       4.889  -1.538   2.323  1.00  0.00    -0.206 F 
HETATM   18  C15 UNL     1       4.075  -0.911   0.212  1.00  0.00     0.081 C 
HETATM   19  C16 UNL     1       2.815  -0.958  -0.590  1.00  0.00     0.031 C 
ENDBRANCH  10  12
ENDBRANCH   7  10
BRANCH   6  20
HETATM   20  N3  UNL     1      -2.189   0.121  -0.564  1.00  0.00    -0.362 N 
HETATM   21  C4  UNL     1      -1.961  -0.595  -1.792  1.00  0.00     0.129 C 
HETATM   22  C5  UNL     1      -3.300  -0.967  -2.400  1.00  0.00     0.004 C 
HETATM   23  C6  UNL     1      -4.031  -1.861  -1.391  1.00  0.00     0.012 C 
HETATM   24  C8  UNL     1      -4.355   0.091  -2.095  1.00  0.00     0.012 C 
HETATM   25  C7  UNL     1      -4.489  -0.564  -0.722  1.00  0.00     0.004 C 
HETATM   26  C9  UNL     1      -3.402  -0.093   0.207  1.00  0.00     0.129 C 
ENDBRANCH   6  20
BRANCH   1  27
HETATM   27  O1  UNL     1       1.550   3.835   1.045  1.00  0.00    -0.257 OA
BRANCH  27  28
HETATM   28  C1  UNL     1       1.226   5.202   1.204  1.00  0.00     0.507 C 
HETATM   29  F1  UNL     1       1.376   5.594   2.537  1.00  0.00    -0.184 F 
HETATM   30  F2  UNL     1       2.077   5.965   0.426  1.00  0.00    -0.184 F 
ENDBRANCH  27  28
ENDBRANCH   1  27
TORSDOF 5
