REMARK  7 active torsions:
REMARK  status: ('A' for Active; 'I' for Inactive)
REMARK    1  A    between atoms: N1_2  and  C2_4 
REMARK    2  A    between atoms: C2_4  and  C3_8 
REMARK    3  A    between atoms: C3_8  and  C4_9 
REMARK    4  A    between atoms: C3_8  and  C9_17 
REMARK       I    between atoms: C4_9  and  N3_11 
REMARK    5  A    between atoms: C9_17  and  C10_20 
REMARK    6  A    between atoms: C10_20  and  C11_23 
REMARK    7  A    between atoms: C12_24  and  C13_25 
ROOT
HETATM    1  C3  UNL     1       0.419   0.289   0.055  1.00  0.00     0.224 C 
ENDROOT
BRANCH   1   2
HETATM    2  C2  UNL     1       0.221   1.430   0.988  1.00  0.00     0.089 C 
HETATM    3  N2  UNL     1      -0.638   1.317   1.922  1.00  0.00    -0.388 N 
ATOM      4  H22 UNL     1      -0.774   2.100   2.562  1.00  0.00     0.157 HD
ATOM      5  H21 UNL     1      -1.182   0.461   2.028  1.00  0.00     0.157 HD
BRANCH   2   6
HETATM    6  N1  UNL     1       0.983   2.629   0.840  1.00  0.00    -0.384 N 
HETATM    7  C1  UNL     1       0.875   3.477  -0.315  1.00  0.00     0.147 C 
ATOM      8  H1  UNL     1       1.629   2.894   1.583  1.00  0.00     0.160 HD
ENDBRANCH   2   6
ENDBRANCH   1   2
BRANCH   1   9
HETATM    9  C4  UNL     1      -0.541  -0.784   0.431  1.00  0.00     0.237 C 
HETATM   10  O1  UNL     1      -0.112  -1.721   1.152  1.00  0.00    -0.272 OA
HETATM   11  N3  UNL     1      -1.887  -0.790   0.024  1.00  0.00    -0.347 N 
HETATM   12  C5  UNL     1      -2.782  -1.836   0.424  1.00  0.00     0.152 C 
HETATM   13  C8  UNL     1      -2.403   0.255  -0.811  1.00  0.00     0.152 C 
HETATM   14  C6  UNL     1      -4.101  -1.773  -0.281  1.00  0.00     0.187 C 
HETATM   15  O2  UNL     1      -4.609  -0.532  -0.516  1.00  0.00    -0.388 OA
HETATM   16  C7  UNL     1      -3.802   0.540  -0.258  1.00  0.00     0.187 C 
ENDBRANCH   1   9
BRANCH   1  17
HETATM   17  C9  UNL     1       1.822  -0.230   0.192  1.00  0.00     0.338 C 
HETATM   18  F1  UNL     1       2.040  -0.696   1.461  1.00  0.00    -0.197 F 
HETATM   19  F2  UNL     1       2.678   0.905   0.017  1.00  0.00    -0.197 F 
BRANCH  17  20
HETATM   20  C10 UNL     1       2.274  -1.194  -0.834  1.00  0.00     0.372 C 
HETATM   21  F3  UNL     1       2.218  -0.613  -2.102  1.00  0.00    -0.184 F 
HETATM   22  F4  UNL     1       1.648  -2.396  -0.902  1.00  0.00    -0.184 F 
BRANCH  20  23
HETATM   23  C11 UNL     1       3.717  -1.463  -0.577  1.00  0.00    -0.015 C 
HETATM   24  C12 UNL     1       4.889  -1.664  -0.381  1.00  0.00    -0.032 C 
BRANCH  24  25
HETATM   25  C13 UNL     1       6.285  -1.882  -0.137  1.00  0.00     0.323 C 
HETATM   26  O3  UNL     1       6.983  -0.909   0.235  1.00  0.00    -0.293 OA
ENDBRANCH  24  25
ENDBRANCH  20  23
ENDBRANCH  17  20
ENDBRANCH   1  17
TORSDOF 7
