REMARK  9 active torsions:
REMARK  status: ('A' for Active; 'I' for Inactive)
REMARK    1  A    between atoms: C4_4  and  C6_6 
REMARK    2  A    between atoms: C7_7  and  C8_8 
REMARK    3  A    between atoms: C9_9  and  O1_10 
REMARK    4  A    between atoms: C9_9  and  C12_14 
REMARK    5  A    between atoms: O1_10  and  C10_11 
REMARK    6  A    between atoms: C15_18  and  C17_20 
REMARK    7  A    between atoms: C20_26  and  C22_28 
REMARK    8  A    between atoms: C22_28  and  C23_29 
REMARK    9  A    between atoms: C23_29  and  O5_31 
ROOT
HETATM    1  C1  UNL     1      -0.614  -2.300  -2.096  1.00  0.00     0.017 C 
HETATM    2  C2  UNL     1      -0.870  -1.245  -1.355  1.00  0.00    -0.052 C 
HETATM    3  C3  UNL     1      -0.191   0.105  -1.512  1.00  0.00     0.078 C 
HETATM    4  C4  UNL     1      -0.058   0.447  -0.045  1.00  0.00     0.080 C 
HETATM    5  C5  UNL     1      -0.212   1.938   0.115  1.00  0.00     0.051 C 
HETATM    6  O3  UNL     1      -1.037  -0.201   0.628  1.00  0.00    -0.361 OA
HETATM    7  C15 UNL     1      -1.789  -1.018  -0.208  1.00  0.00     0.088 C 
HETATM    8  C16 UNL     1      -1.980  -2.304   0.487  1.00  0.00     0.051 C 
ENDROOT
BRANCH   7   9
HETATM    9  C17 UNL     1      -3.026  -0.341  -0.714  1.00  0.00     0.061 C 
HETATM   10  C18 UNL     1      -3.767  -1.117  -1.764  1.00  0.00     0.113 C 
HETATM   11  C19 UNL     1      -4.897  -1.702  -1.005  1.00  0.00     0.218 C 
HETATM   12  O4  UNL     1      -5.843  -2.429  -1.477  1.00  0.00    -0.274 OA
HETATM   13  N1  UNL     1      -4.775  -1.329   0.365  1.00  0.00    -0.352 N 
HETATM   14  C20 UNL     1      -4.090  -0.042   0.270  1.00  0.00     0.038 C 
ATOM     15  H1  UNL     1      -5.086  -1.831   1.197  1.00  0.00     0.163 HD
HETATM   16  C21 UNL     1      -5.092   0.894  -0.418  1.00  0.00     0.039 C 
BRANCH  14  17
HETATM   17  C22 UNL     1      -3.721   0.530   1.580  1.00  0.00     0.062 C 
BRANCH  17  18
HETATM   18  C23 UNL     1      -4.860   0.795   2.537  1.00  0.00     0.116 C 
HETATM   19  C24 UNL     1      -4.256   1.363   3.824  1.00  0.00     0.039 C 
BRANCH  18  20
HETATM   20  O5  UNL     1      -5.648   1.822   2.033  1.00  0.00    -0.396 OA
ATOM     21  H5  UNL     1      -6.364   1.989   2.635  1.00  0.00     0.210 HD
ENDBRANCH  18  20
ENDBRANCH  17  18
ENDBRANCH  14  17
ENDBRANCH   7   9
BRANCH   4  22
HETATM   22  C6  UNL     1       1.272   0.073   0.495  1.00  0.00     0.011 C 
HETATM   23  C7  UNL     1       2.408   0.432  -0.070  1.00  0.00     0.001 C 
BRANCH  23  24
HETATM   24  C8  UNL     1       3.686   0.048   0.485  1.00  0.00     0.033 C 
HETATM   25  C9  UNL     1       4.849   0.372  -0.028  1.00  0.00     0.060 C 
BRANCH  25  26
HETATM   26  O1  UNL     1       5.987  -0.106   0.673  1.00  0.00    -0.283 OA
BRANCH  26  27
HETATM   27  C10 UNL     1       6.528  -1.354   0.440  1.00  0.00     0.259 C 
HETATM   28  C11 UNL     1       7.738  -1.841   1.187  1.00  0.00     0.126 C 
HETATM   29  O2  UNL     1       5.978  -2.084  -0.423  1.00  0.00    -0.265 OA
ENDBRANCH  26  27
ENDBRANCH  25  26
BRANCH  25  30
HETATM   30  C12 UNL     1       5.008   1.176  -1.243  1.00  0.00     0.035 C 
HETATM   31  C13 UNL     1       5.713   2.496  -0.958  1.00  0.00     0.016 C 
HETATM   32  C14 UNL     1       5.762   0.400  -2.310  1.00  0.00     0.016 C 
ENDBRANCH  25  30
ENDBRANCH  23  24
ENDBRANCH   4  22
TORSDOF 9
