REMARK  7 active torsions:
REMARK  status: ('A' for Active; 'I' for Inactive)
REMARK    1  A    between atoms: O1_2  and  C2_3 
REMARK    2  A    between atoms: C2_3  and  C3_5 
REMARK    3  A    between atoms: C6_8  and  C7_9 
REMARK       I    between atoms: C7_9  and  N1_11 
REMARK    4  A    between atoms: N1_11  and  N2_13 
REMARK       I    between atoms: N2_13  and  C8_15 
REMARK    5  A    between atoms: C8_15  and  C9_17 
REMARK    6  A    between atoms: C9_17  and  N3_18 
REMARK    7  A    between atoms: C9_17  and  N4_22 
ROOT
HETATM    1  C7  UNL     1      -0.438  -1.472  -0.297  1.00  0.00     0.270 C 
HETATM    2  O3  UNL     1      -0.317  -2.659  -0.684  1.00  0.00    -0.266 OA
HETATM    3  N1  UNL     1       0.678  -0.620  -0.384  1.00  0.00    -0.263 N 
ATOM      4  H1  UNL     1       0.590   0.344  -0.061  1.00  0.00     0.190 HD
ENDROOT
BRANCH   3   5
HETATM    5  N2  UNL     1       1.927  -1.059  -0.908  1.00  0.00    -0.264 N 
HETATM    6  C8  UNL     1       3.077  -1.110  -0.119  1.00  0.00     0.286 C 
HETATM    7  O4  UNL     1       2.977  -0.763   1.111  1.00  0.00    -0.267 OA
ATOM      8  H2  UNL     1       1.983  -1.344  -1.886  1.00  0.00     0.190 HD
BRANCH   6   9
HETATM    9  C9  UNL     1       4.396  -1.531  -0.595  1.00  0.00     0.378 C 
BRANCH   9  10
HETATM   10  N3  UNL     1       4.539  -1.745  -1.999  1.00  0.00    -0.049 N 
ATOM     11  H33 UNL     1       3.834  -2.411  -2.315  1.00  0.00     0.277 HD
ATOM     12  H32 UNL     1       4.247  -0.908  -2.503  1.00  0.00     0.277 HD
ATOM     13  H31 UNL     1       5.458  -2.038  -2.331  1.00  0.00     0.277 HD
ENDBRANCH   9  10
BRANCH   9  14
HETATM   14  N4  UNL     1       5.424  -0.512  -0.198  1.00  0.00    -0.332 N 
HETATM   15  C10 UNL     1       5.232   0.693  -0.568  1.00  0.00     0.198 C 
HETATM   16  N5  UNL     1       6.194   1.723  -0.211  1.00  0.00    -0.067 NA
HETATM   17  N6  UNL     1       4.118   1.074  -1.320  1.00  0.00    -0.067 NA
ATOM     18  H4  UNL     1       6.245  -0.774   0.347  1.00  0.00     0.164 HD
ENDBRANCH   9  14
ENDBRANCH   6   9
ENDBRANCH   3   5
BRANCH   1  19
HETATM   19  C6  UNL     1      -1.700  -0.951   0.238  1.00  0.00     0.033 A 
HETATM   20  C5  UNL     1      -1.963   0.391   0.125  1.00  0.00     0.018 A 
HETATM   21  C4  UNL     1      -3.161   0.878   0.641  1.00  0.00     0.018 A 
HETATM   22  C3  UNL     1      -4.100   0.088   1.259  1.00  0.00     0.039 A 
HETATM   23  C12 UNL     1      -3.800  -1.258   1.353  1.00  0.00     0.018 A 
HETATM   24  C11 UNL     1      -2.605  -1.785   0.847  1.00  0.00     0.018 A 
BRANCH  22  25
HETATM   25  C2  UNL     1      -5.350   0.627   1.787  1.00  0.00     0.292 C 
HETATM   26  O2  UNL     1      -6.166  -0.126   2.367  1.00  0.00    -0.259 OA
BRANCH  25  27
HETATM   27  O1  UNL     1      -5.661   1.951   1.665  1.00  0.00    -0.323 OA
HETATM   28  C1  UNL     1      -6.836   2.580   2.141  1.00  0.00     0.213 C 
ENDBRANCH  25  27
ENDBRANCH  22  25
ENDBRANCH   1  19
TORSDOF 7
