REMARK  2 active torsions:
REMARK  status: ('A' for Active; 'I' for Inactive)
REMARK    1  A    between atoms: C1_4  and  O1_5 
REMARK    2  A    between atoms: O1_5  and  C2_6 
ROOT
HETATM    1  C2  UNL     1      -0.762  -0.034  -0.451  1.00  0.00     0.129 C 
HETATM    2  C3  UNL     1      -0.184   0.665   0.728  1.00  0.00     0.032 C 
HETATM    3  C4  UNL     1       1.150   0.157   1.189  1.00  0.00     0.002 C 
HETATM    4  C5  UNL     1       2.140   0.118   0.057  1.00  0.00     0.000 C 
HETATM    5  C6  UNL     1       1.617  -0.516  -1.189  1.00  0.00     0.002 C 
HETATM    6  C7  UNL     1       0.197  -0.900  -1.210  1.00  0.00     0.032 C 
ENDROOT
BRANCH   1   7
HETATM    7  O1  UNL     1      -1.859  -0.797   0.004  1.00  0.00    -0.342 OA
BRANCH   7   8
HETATM    8  C1  UNL     1      -2.951  -0.239   0.628  1.00  0.00     0.219 C 
HETATM    9  N1  UNL     1      -3.175   1.014   0.529  1.00  0.00    -0.390 N 
ATOM     10  H12 UNL     1      -2.533   1.589  -0.018  1.00  0.00     0.157 HD
ATOM     11  H11 UNL     1      -3.985   1.428   0.992  1.00  0.00     0.157 HD
ENDBRANCH   7   8
ENDBRANCH   1   7
TORSDOF 2
