REMARK  13 active torsions:
REMARK  status: ('A' for Active; 'I' for Inactive)
REMARK    1  A    between atoms: C2_2  and  C3_3 
REMARK    2  A    between atoms: C3_3  and  C4_4 
REMARK    3  A    between atoms: C4_4  and  C5_5 
REMARK    4  A    between atoms: N1_6  and  C6_8 
REMARK    5  A    between atoms: C8_12  and  N3_13 
REMARK    6  A    between atoms: N3_13  and  C9_15 
REMARK    7  A    between atoms: C9_15  and  C10_16 
REMARK    8  A    between atoms: C10_16  and  C11_17 
REMARK    9  A    between atoms: C10_16  and  N4_21 
REMARK   10  A    between atoms: C11_17  and  C12_18 
REMARK   11  A    between atoms: N4_21  and  S1_23 
REMARK   12  A    between atoms: C16_29  and  N6_30 
REMARK   13  A    between atoms: C19_33  and  N7_34 
ROOT
HETATM    1  C6  UNL     1      -2.648   3.224  -1.074  1.00  0.00     0.128 A 
HETATM    2  N2  UNL     1      -2.422   1.856  -1.047  1.00  0.00    -0.335 N 
ATOM      3  H2  UNL     1      -3.222   1.223  -1.061  1.00  0.00     0.168 HD
HETATM    4  C7  UNL     1      -1.195   1.342  -1.003  1.00  0.00     0.123 A 
HETATM    5  C8  UNL     1      -0.955  -0.035  -0.977  1.00  0.00     0.147 A 
HETATM    6  N5  UNL     1       0.288  -0.526  -0.935  1.00  0.00    -0.174 N 
ATOM      7  H5  UNL     1       0.431  -1.536  -0.918  1.00  0.00     0.186 HD
HETATM    8  C16 UNL     1       1.368   0.308  -0.915  1.00  0.00     0.683 A 
HETATM    9  N8  UNL     1       1.136   1.636  -0.940  1.00  0.00    -0.174 N 
ATOM     10  H8  UNL     1       1.937   2.268  -0.925  1.00  0.00     0.186 HD
HETATM   11  C26 UNL     1      -0.094   2.168  -0.983  1.00  0.00     0.152 A 
HETATM   12  N9  UNL     1      -0.320   3.488  -1.009  1.00  0.00    -0.341 N 
ATOM     13  H9  UNL     1       0.487   4.111  -0.994  1.00  0.00     0.167 HD
HETATM   14  C27 UNL     1      -1.558   4.050  -1.054  1.00  0.00     0.051 A 
HETATM   15  C28 UNL     1      -1.638   5.551  -1.081  1.00  0.00     0.072 C 
ENDROOT
BRANCH   5  16
HETATM   16  N3  UNL     1      -1.995  -0.774  -0.986  1.00  0.00    -0.372 N 
ATOM     17  H3  UNL     1      -2.891  -0.287  -1.010  1.00  0.00     0.161 HD
BRANCH  16  18
HETATM   18  C9  UNL     1      -2.057  -2.198  -0.967  1.00  0.00     0.147 C 
BRANCH  18  19
HETATM   19  C10 UNL     1      -2.238  -2.809   0.420  1.00  0.00     0.111 C 
BRANCH  19  20
HETATM   20  C11 UNL     1      -2.256  -4.307   0.154  1.00  0.00     0.031 C 
BRANCH  20  21
HETATM   21  C12 UNL     1      -2.395  -5.159   1.364  1.00  0.00    -0.021 C 
HETATM   22  C13 UNL     1      -2.432  -6.651   0.972  1.00  0.00     0.009 C 
HETATM   23  C14 UNL     1      -1.121  -5.077   2.235  1.00  0.00     0.009 C 
ENDBRANCH  20  21
ENDBRANCH  19  20
BRANCH  19  24
HETATM   24  N4  UNL     1      -3.404  -2.348   1.067  1.00  0.00    -0.313 N 
ATOM     25  H4  UNL     1      -4.312  -2.491   0.626  1.00  0.00     0.172 HD
BRANCH  24  26
HETATM   26  S1  UNL     1      -3.322  -1.570   2.546  1.00  0.00     0.223 S 
HETATM   27  C15 UNL     1      -2.399  -0.055   2.566  1.00  0.00     0.185 C 
HETATM   28  O1  UNL     1      -2.899  -2.373   3.718  1.00  0.00    -0.206 OA
HETATM   29  O2  UNL     1      -4.763  -1.135   2.884  1.00  0.00    -0.206 OA
ENDBRANCH  24  26
ENDBRANCH  19  24
ENDBRANCH  18  19
ENDBRANCH  16  18
ENDBRANCH   5  16
BRANCH   8  30
HETATM   30  N6  UNL     1       2.685  -0.223  -0.866  1.00  0.00    -0.217 N 
HETATM   31  C17 UNL     1       3.796   0.706  -0.838  1.00  0.00     0.143 C 
HETATM   32  C18 UNL     1       4.764   0.089   0.186  1.00  0.00     0.056 C 
HETATM   33  C19 UNL     1       5.319  -1.125  -0.477  1.00  0.00     0.226 C 
HETATM   34  C24 UNL     1       4.264  -2.109  -0.820  1.00  0.00     0.056 C 
HETATM   35  C25 UNL     1       2.863  -1.633  -0.843  1.00  0.00     0.143 C 
BRANCH  33  36
HETATM   36  N7  UNL     1       6.408  -1.728   0.270  1.00  0.00     0.093 N 
HETATM   37  C20 UNL     1       6.859  -2.875  -0.490  1.00  0.00     0.273 C 
HETATM   38  C21 UNL     1       8.367  -2.885  -0.389  1.00  0.00     0.032 C 
HETATM   39  C22 UNL     1       8.703  -1.424  -0.298  1.00  0.00     0.032 C 
HETATM   40  C23 UNL     1       7.512  -0.804   0.352  1.00  0.00     0.273 C 
ENDBRANCH  33  36
ENDBRANCH   8  30
BRANCH   1  41
HETATM   41  N1  UNL     1      -3.805   3.630  -1.114  1.00  0.00    -0.354 N 
HETATM   42  C5  UNL     1      -4.666   4.685  -1.155  1.00  0.00     0.063 C 
ATOM     43  H1  UNL     1      -4.391   2.795  -1.119  1.00  0.00     0.166 HD
BRANCH  42  44
HETATM   44  C4  UNL     1      -5.271   5.091   0.189  1.00  0.00     0.048 C 
BRANCH  44  45
HETATM   45  C3  UNL     1      -6.206   6.278   0.007  1.00  0.00     0.031 C 
BRANCH  45  46
HETATM   46  C2  UNL     1      -5.491   7.451  -0.548  1.00  0.00    -0.037 C 
HETATM   47  C1  UNL     1      -5.849   7.994  -1.700  1.00  0.00     0.007 C 
ENDBRANCH  45  46
ENDBRANCH  44  45
ENDBRANCH  42  44
ENDBRANCH   1  41
TORSDOF 13
