REMARK  8 active torsions:
REMARK  status: ('A' for Active; 'I' for Inactive)
REMARK    1  A    between atoms: C2_2  and  C3_3 
REMARK    2  A    between atoms: C3_3  and  N1_4 
REMARK    3  A    between atoms: N1_4  and  N2_5 
REMARK    4  A    between atoms: N1_4  and  C9_13 
REMARK       I    between atoms: N2_5  and  C4_7 
REMARK    5  A    between atoms: C4_7  and  C5_9 
REMARK    6  A    between atoms: C10_16  and  N4_17 
REMARK    7  A    between atoms: N4_17  and  C11_19 
REMARK    8  A    between atoms: C11_19  and  C14_22 
ROOT
HETATM    1  C9  UNL     1       0.017   1.176   0.479  1.00  0.00     0.197 A 
HETATM    2  N3  UNL     1      -0.777   0.174   0.181  1.00  0.00    -0.167 N 
ATOM      3  H3  UNL     1      -0.389  -0.682  -0.214  1.00  0.00     0.186 HD
HETATM    4  C10 UNL     1      -2.058   0.270   0.388  1.00  0.00     0.687 A 
HETATM    5  N5  UNL     1      -2.518   1.408   0.906  1.00  0.00    -0.157 N 
ATOM      6  H5  UNL     1      -3.477   1.667   1.136  1.00  0.00     0.193 HD
HETATM    7  S1  UNL     1      -1.086   2.322   1.085  1.00  0.00     0.040 SA
ENDROOT
BRANCH   1   8
HETATM    8  N1  UNL     1       1.428   1.221   0.312  1.00  0.00    -0.267 N 
BRANCH   8   9
HETATM    9  C3  UNL     1       2.158   2.402   0.635  1.00  0.00     0.151 C 
BRANCH   9  10
HETATM   10  C2  UNL     1       2.908   2.962  -0.566  1.00  0.00     0.017 C 
HETATM   11  C1  UNL     1       3.640   4.201  -0.106  1.00  0.00     0.007 C 
ENDBRANCH   9  10
ENDBRANCH   8   9
BRANCH   8  12
HETATM   12  N2  UNL     1       2.098   0.098  -0.177  1.00  0.00    -0.265 N 
HETATM   13  C4  UNL     1       3.273  -0.437   0.355  1.00  0.00     0.243 C 
HETATM   14  O1  UNL     1       3.817   0.090   1.341  1.00  0.00    -0.271 OA
ATOM     15  H2  UNL     1       1.696  -0.370  -0.989  1.00  0.00     0.190 HD
BRANCH  13  16
HETATM   16  C5  UNL     1       3.878  -1.641  -0.252  1.00  0.00     0.032 C 
HETATM   17  C6  UNL     1       5.268  -1.843   0.319  1.00  0.00     0.025 C 
HETATM   18  C7  UNL     1       3.832  -1.551  -1.740  1.00  0.00     0.025 C 
HETATM   19  C8  UNL     1       3.057  -2.863   0.191  1.00  0.00     0.025 C 
ENDBRANCH  13  16
ENDBRANCH   8  12
ENDBRANCH   1   8
BRANCH   4  20
HETATM   20  N4  UNL     1      -2.816  -0.730   0.081  1.00  0.00    -0.217 N 
ATOM     21  H4  UNL     1      -2.334  -1.539  -0.311  1.00  0.00     0.178 HD
BRANCH  20  22
HETATM   22  C11 UNL     1      -4.215  -0.865   0.210  1.00  0.00     0.039 C 
HETATM   23  C12 UNL     1      -4.519  -2.354  -0.073  1.00  0.00     0.038 C 
HETATM   24  C13 UNL     1      -4.701  -0.616   1.593  1.00  0.00     0.038 C 
BRANCH  22  25
HETATM   25  C14 UNL     1      -4.921  -0.055  -0.848  1.00  0.00     0.026 C 
HETATM   26  C15 UNL     1      -6.403  -0.085  -0.812  1.00  0.00     0.007 C 
ENDBRANCH  22  25
ENDBRANCH  20  22
ENDBRANCH   4  20
TORSDOF 8
