REMARK  7 active torsions:
REMARK  status: ('A' for Active; 'I' for Inactive)
REMARK    1  A    between atoms: C2_2  and  C4_4 
REMARK    2  A    between atoms: C4_4  and  C5_5 
REMARK    3  A    between atoms: C6_7  and  S1_8 
REMARK    4  A    between atoms: C9_15  and  C10_16 
REMARK       I    between atoms: C10_16  and  N3_18 
REMARK    5  A    between atoms: N3_18  and  C11_20 
REMARK    6  A    between atoms: C11_20  and  C12_21 
REMARK    7  A    between atoms: C12_21  and  N4_22 
ROOT
HETATM    1  S1  UNL     1      -5.424  -0.964  -1.949  1.00  0.00     0.034 SA
HETATM    2  C7  UNL     1      -5.581  -2.500  -2.861  1.00  0.00     0.142 C 
HETATM    3  N1  UNL     1      -5.661  -3.495  -3.456  1.00  0.00    -0.184 NA
ENDROOT
BRANCH   1   4
HETATM    4  C6  UNL     1      -3.966  -0.711  -1.202  1.00  0.00     0.203 A 
HETATM    5  O1  UNL     1      -3.000  -1.564  -1.271  1.00  0.00    -0.290 OA
HETATM    6  C5  UNL     1      -1.843  -1.306  -0.647  1.00  0.00     0.075 A 
HETATM    7  C9  UNL     1      -1.615  -0.159   0.079  1.00  0.00     0.099 A 
HETATM    8  C8  UNL     1      -2.688   0.737   0.128  1.00  0.00     0.121 A 
HETATM    9  N2  UNL     1      -3.843   0.434  -0.520  1.00  0.00    -0.320 N 
HETATM   10  S2  UNL     1      -2.578   2.100   0.991  1.00  0.00    -0.059 SA
ATOM     11  H2  UNL     1      -4.626   1.087  -0.486  1.00  0.00     0.169 HD
BRANCH   6  12
HETATM   12  C4  UNL     1      -0.752  -2.319  -0.750  1.00  0.00     0.070 C 
BRANCH  12  13
HETATM   13  C2  UNL     1       0.372  -1.886  -1.650  1.00  0.00    -0.017 C 
HETATM   14  C1  UNL     1       1.446  -2.949  -1.715  1.00  0.00     0.010 C 
HETATM   15  C3  UNL     1      -0.194  -1.727  -3.067  1.00  0.00     0.010 C 
ENDBRANCH  12  13
ENDBRANCH   6  12
BRANCH   7  16
HETATM   16  C10 UNL     1      -0.390   0.135   0.807  1.00  0.00     0.257 C 
HETATM   17  O2  UNL     1       0.169  -0.864   1.391  1.00  0.00    -0.267 OA
HETATM   18  N3  UNL     1       0.201   1.414   0.898  1.00  0.00    -0.355 N 
ATOM     19  H3  UNL     1      -0.215   2.222   0.434  1.00  0.00     0.162 HD
BRANCH  18  20
HETATM   20  C11 UNL     1       1.426   1.541   1.677  1.00  0.00     0.153 C 
BRANCH  20  21
HETATM   21  C12 UNL     1       1.954   2.925   1.706  1.00  0.00     0.291 C 
BRANCH  21  22
HETATM   22  N4  UNL     1       3.158   2.969   2.490  1.00  0.00     0.081 N 
HETATM   23  C13 UNL     1       4.231   2.275   1.820  1.00  0.00     0.309 C 
HETATM   24  C14 UNL     1       2.918   2.302   3.755  1.00  0.00     0.309 C 
ENDBRANCH  21  22
ENDBRANCH  20  21
ENDBRANCH  18  20
ENDBRANCH   7  16
ENDBRANCH   1   4
TORSDOF 7
