REMARK  8 active torsions:
REMARK  status: ('A' for Active; 'I' for Inactive)
REMARK    1  A    between atoms: C2_2  and  C4_4 
REMARK    2  A    between atoms: C4_4  and  N1_5 
REMARK    3  A    between atoms: N1_5  and  C5_6 
REMARK    4  A    between atoms: N1_5  and  C10_19 
REMARK    5  A    between atoms: C5_6  and  C6_7 
REMARK    6  A    between atoms: C8_10  and  N2_11 
REMARK    7  A    between atoms: C9_14  and  S2_15 
REMARK    8  A    between atoms: C10_19  and  C11_20 
ROOT
HETATM    1  C5  UNL     1       1.020   0.217   1.202  1.00  0.00     0.120 C 
ENDROOT
BRANCH   1   2
HETATM    2  N1  UNL     1       0.027   0.707   0.376  1.00  0.00    -0.367 N 
BRANCH   2   3
HETATM    3  C4  UNL     1      -0.700   1.845   0.875  1.00  0.00     0.131 C 
BRANCH   3   4
HETATM    4  C2  UNL     1       0.182   3.105   0.967  1.00  0.00    -0.004 C 
HETATM    5  C1  UNL     1      -0.704   4.213   1.497  1.00  0.00     0.011 C 
HETATM    6  C3  UNL     1       0.618   3.501  -0.427  1.00  0.00     0.011 C 
ENDBRANCH   3   4
ENDBRANCH   2   3
BRANCH   2   7
HETATM    7  C10 UNL     1      -0.484   0.078  -0.736  1.00  0.00     0.068 C 
BRANCH   7   8
HETATM    8  C11 UNL     1      -1.756  -0.675  -0.695  1.00  0.00     0.028 C 
HETATM    9  C12 UNL     1      -2.987   0.065  -0.301  1.00  0.00     0.036 C 
HETATM   10  C13 UNL     1      -4.149  -0.935  -0.387  1.00  0.00     0.168 C 
HETATM   11  O1  UNL     1      -3.762  -2.093  -1.031  1.00  0.00    -0.391 OA
HETATM   12  C14 UNL     1      -2.875  -2.785  -0.209  1.00  0.00     0.168 C 
HETATM   13  C15 UNL     1      -1.684  -1.911   0.172  1.00  0.00     0.036 C 
ENDBRANCH   7   8
ENDBRANCH   2   7
ENDBRANCH   1   2
BRANCH   1  14
HETATM   14  C6  UNL     1       1.892  -0.885   0.752  1.00  0.00     0.055 A 
HETATM   15  C7  UNL     1       1.902  -2.060   1.519  1.00  0.00     0.082 A 
HETATM   16  S1  UNL     1       2.932  -3.306   0.983  1.00  0.00    -0.080 SA
HETATM   17  C8  UNL     1       3.781  -2.870  -0.431  1.00  0.00     0.102 A 
HETATM   18  C9  UNL     1       3.497  -1.603  -0.896  1.00  0.00     0.119 A 
HETATM   19  N3  UNL     1       2.645  -0.743  -0.340  1.00  0.00    -0.346 N 
ATOM     20  H3  UNL     1       2.555   0.153  -0.818  1.00  0.00     0.167 HD
BRANCH  17  21
HETATM   21  N2  UNL     1       4.632  -3.647  -1.040  1.00  0.00    -0.391 N 
ATOM     22  H22 UNL     1       4.842  -4.584  -0.696  1.00  0.00     0.157 HD
ATOM     23  H21 UNL     1       5.140  -3.386  -1.885  1.00  0.00     0.157 HD
ENDBRANCH  17  21
BRANCH  18  24
HETATM   24  S2  UNL     1       4.292  -1.113  -2.267  1.00  0.00     0.002 SA
HETATM   25 CL1  UNL     1       5.650  -2.445  -3.171  1.00  0.00    -0.037 Cl
ENDBRANCH  18  24
ENDBRANCH   1  14
TORSDOF 8
