REMARK  9 active torsions:
REMARK  status: ('A' for Active; 'I' for Inactive)
REMARK    1  A    between atoms: C2_2  and  C3_3 
REMARK    2  A    between atoms: C10_10  and  O1_11 
REMARK    3  A    between atoms: C11_13  and  C12_14 
REMARK    4  A    between atoms: C21_23  and  C22_24 
REMARK    5  A    between atoms: C22_24  and  O3_26 
REMARK    6  A    between atoms: O3_26  and  C23_27 
REMARK    7  A    between atoms: C23_27  and  O4_28 
REMARK    8  A    between atoms: O4_28  and  C24_29 
REMARK       I    between atoms: C24_29  and  N1_31 
REMARK    9  A    between atoms: N1_31  and  C25_33 
ROOT
HETATM    1  C3  UNL     1      -3.259  -1.982  -1.006  1.00  0.00     0.002 C 
HETATM    2  C4  UNL     1      -4.537  -2.238  -1.846  1.00  0.00     0.022 C 
HETATM    3  C5  UNL     1      -3.518  -0.777  -0.138  1.00  0.00     0.017 C 
HETATM    4  C6  UNL     1      -2.393  -0.203   0.606  1.00  0.00     0.016 C 
HETATM    5  C7  UNL     1      -1.640   0.897  -0.153  1.00  0.00     0.002 C 
HETATM    6  C8  UNL     1      -1.714   0.572  -1.562  1.00  0.00    -0.017 C 
HETATM    7  C9  UNL     1      -1.340  -0.717  -2.131  1.00  0.00     0.002 C 
HETATM    8  C10 UNL     1      -2.129  -1.931  -1.937  1.00  0.00     0.152 C 
HETATM    9  C11 UNL     1      -2.226   2.231   0.161  1.00  0.00     0.027 C 
HETATM   10  C15 UNL     1      -1.100   3.236  -0.024  1.00  0.00     0.016 C 
HETATM   11  C16 UNL     1       0.072   2.529   0.489  1.00  0.00     0.013 C 
HETATM   12  C17 UNL     1       0.375   2.527   1.950  1.00  0.00    -0.042 C 
HETATM   13  C18 UNL     1      -0.246   3.546   2.828  1.00  0.00     0.015 C 
HETATM   14  C19 UNL     1       1.866   2.428   2.247  1.00  0.00     0.015 C 
HETATM   15  C20 UNL     1      -0.292   1.149   1.989  1.00  0.00     0.030 C 
HETATM   16  C21 UNL     1      -0.277   1.062   0.471  1.00  0.00     0.065 C 
ENDROOT
BRANCH  16  17
HETATM   17  C22 UNL     1       0.842   0.252   0.054  1.00  0.00     0.271 C 
HETATM   18  O2  UNL     1       1.768   0.612  -0.746  1.00  0.00    -0.264 OA
BRANCH  17  19
HETATM   19  O3  UNL     1       0.974  -1.053   0.539  1.00  0.00    -0.294 OA
BRANCH  19  20
HETATM   20  C23 UNL     1       2.054  -1.882   0.159  1.00  0.00     0.360 C 
BRANCH  20  21
HETATM   21  O4  UNL     1       3.301  -1.308   0.515  1.00  0.00    -0.278 OA
BRANCH  21  22
HETATM   22  C24 UNL     1       4.481  -1.973   0.225  1.00  0.00     0.362 C 
HETATM   23  O5  UNL     1       4.394  -3.086  -0.351  1.00  0.00    -0.238 OA
HETATM   24  N1  UNL     1       5.764  -1.416   0.569  1.00  0.00    -0.333 N 
ATOM     25  H1  UNL     1       5.823  -0.512   1.037  1.00  0.00     0.165 HD
BRANCH  24  26
HETATM   26  C25 UNL     1       6.960  -2.144   0.248  1.00  0.00     0.078 C 
HETATM   27  C26 UNL     1       7.881  -2.290   1.437  1.00  0.00     0.032 C 
HETATM   28  C27 UNL     1       7.730  -1.367  -0.818  1.00  0.00     0.032 C 
ENDBRANCH  24  26
ENDBRANCH  21  22
ENDBRANCH  20  21
ENDBRANCH  19  20
ENDBRANCH  17  19
ENDBRANCH  16  17
BRANCH   9  29
HETATM   29  C12 UNL     1      -3.485   2.676  -0.359  1.00  0.00    -0.088 C 
HETATM   30  C13 UNL     1      -4.574   2.774   0.404  1.00  0.00     0.014 C 
HETATM   31  C14 UNL     1      -3.706   3.118  -1.765  1.00  0.00     0.043 C 
ENDBRANCH   9  29
BRANCH   1  32
HETATM   32  C2  UNL     1      -3.140  -3.188  -0.144  1.00  0.00    -0.025 C 
HETATM   33  C1  UNL     1      -4.186  -3.585   0.535  1.00  0.00     0.008 C 
ENDBRANCH   1  32
BRANCH   8  34
HETATM   34  O1  UNL     1      -1.303  -3.087  -1.733  1.00  0.00    -0.391 OA
ATOM     35  H1  UNL     1      -0.570  -3.054  -2.337  1.00  0.00     0.210 HD
ENDBRANCH   8  34
TORSDOF 9
