REMARK  8 active torsions:
REMARK  status: ('A' for Active; 'I' for Inactive)
REMARK    1  A    between atoms: C2_2  and  O1_3 
REMARK    2  A    between atoms: O1_3  and  C3_4 
REMARK    3  A    between atoms: C3_4  and  C4_6 
REMARK    4  A    between atoms: C13_15  and  O3_16 
REMARK    5  A    between atoms: C15_20  and  O4_21 
REMARK    6  A    between atoms: C17_24  and  C18_25 
REMARK    7  A    between atoms: C18_25  and  C19_26 
REMARK    8  A    between atoms: C19_26  and  N1_27 
ROOT
HETATM    1  C4  UNL     1       3.027  -0.091   0.886  1.00  0.00     0.094 C 
HETATM    2  C5  UNL     1       2.847   1.414   0.751  1.00  0.00     0.016 C 
HETATM    3  C6  UNL     1       1.350   1.424   0.338  1.00  0.00     0.007 C 
HETATM    4  C7  UNL     1       1.384   0.534  -0.809  1.00  0.00    -0.001 C 
HETATM    5  C8  UNL     1       0.192  -0.095  -1.382  1.00  0.00    -0.005 C 
HETATM    6  C9  UNL     1      -0.495   0.577  -2.523  1.00  0.00     0.010 C 
HETATM    7  C10 UNL     1      -0.987   1.929  -2.360  1.00  0.00     0.040 C 
HETATM    8  C11 UNL     1      -1.664   2.248  -1.104  1.00  0.00    -0.046 A 
HETATM    9  C12 UNL     1      -1.976   3.625  -1.081  1.00  0.00     0.045 A 
HETATM   10  C13 UNL     1      -2.599   4.187  -0.027  1.00  0.00     0.086 A 
HETATM   11  C14 UNL     1      -2.926   3.391   1.031  1.00  0.00     0.077 A 
HETATM   12 BR1  UNL     1      -3.808   4.209   2.516  1.00  0.00    -0.045 Br
HETATM   13  C15 UNL     1      -2.619   2.012   1.022  1.00  0.00     0.093 A 
HETATM   14  C16 UNL     1      -1.973   1.427  -0.071  1.00  0.00    -0.013 A 
HETATM   15  C17 UNL     1      -1.803   0.000   0.225  1.00  0.00     0.028 C 
HETATM   16  C22 UNL     1      -0.756  -0.779  -0.449  1.00  0.00    -0.002 C 
HETATM   17  C23 UNL     1       0.103  -1.592   0.508  1.00  0.00     0.006 C 
HETATM   18  C24 UNL     1       1.481  -1.836  -0.026  1.00  0.00     0.011 C 
HETATM   19  C25 UNL     1       2.295  -0.604  -0.297  1.00  0.00    -0.027 C 
HETATM   20  C26 UNL     1       3.269  -0.961  -1.400  1.00  0.00     0.016 C 
ENDROOT
BRANCH   1  21
HETATM   21  C3  UNL     1       4.427  -0.487   0.972  1.00  0.00     0.263 C 
HETATM   22  O2  UNL     1       4.781  -1.162   1.998  1.00  0.00    -0.265 OA
BRANCH  21  23
HETATM   23  O1  UNL     1       5.404  -0.204   0.053  1.00  0.00    -0.322 OA
BRANCH  23  24
HETATM   24  C2  UNL     1       6.718  -0.653   0.266  1.00  0.00     0.174 C 
HETATM   25  C1  UNL     1       7.221  -0.052   1.559  1.00  0.00     0.034 C 
ENDBRANCH  23  24
ENDBRANCH  21  23
ENDBRANCH   1  21
BRANCH  15  26
HETATM   26  C18 UNL     1      -3.178  -0.610   0.010  1.00  0.00     0.040 C 
BRANCH  26  27
HETATM   27  C19 UNL     1      -3.274  -2.069   0.280  1.00  0.00     0.272 C 
BRANCH  27  28
HETATM   28  N1  UNL     1      -4.687  -2.425   0.024  1.00  0.00     0.080 N 
HETATM   29  C20 UNL     1      -4.826  -3.838   0.275  1.00  0.00     0.309 C 
HETATM   30  C21 UNL     1      -5.579  -1.621   0.822  1.00  0.00     0.309 C 
ENDBRANCH  27  28
ENDBRANCH  26  27
ENDBRANCH  15  26
BRANCH  13  31
HETATM   31  O4  UNL     1      -3.014   1.356   2.161  1.00  0.00    -0.359 OA
ATOM     32  H4  UNL     1      -2.808   0.429   2.155  1.00  0.00     0.217 HD
ENDBRANCH  13  31
BRANCH  10  33
HETATM   33  O3  UNL     1      -2.893   5.547  -0.035  1.00  0.00    -0.359 OA
ATOM     34  H3  UNL     1      -3.332   5.943   0.708  1.00  0.00     0.217 HD
ENDBRANCH  10  33
TORSDOF 8
