REMARK  7 active torsions:
REMARK  status: ('A' for Active; 'I' for Inactive)
REMARK    1  A    between atoms: N1_2  and  C2_4 
REMARK    2  A    between atoms: C3_5  and  C4_6 
REMARK    3  A    between atoms: N2_10  and  S1_11 
REMARK    4  A    between atoms: S1_11  and  C8_14 
REMARK    5  A    between atoms: C13_21  and  O3_22 
REMARK    6  A    between atoms: O3_22  and  C14_23 
REMARK    7  A    between atoms: C14_23  and  C17_26 
ROOT
HETATM    1  S1  UNL     1      -1.472   2.723   0.100  1.00  0.00     0.277 S 
HETATM    2  O1  UNL     1      -1.546   3.940   1.042  1.00  0.00    -0.199 OA
HETATM    3  O2  UNL     1      -0.833   3.256  -1.192  1.00  0.00    -0.199 OA
ENDROOT
BRANCH   1   4
HETATM    4  N2  UNL     1      -2.977   2.125  -0.193  1.00  0.00    -0.295 N 
HETATM    5  C4  UNL     1      -3.253   1.041  -1.079  1.00  0.00     0.148 C 
HETATM    6  C5  UNL     1      -3.888   1.895  -2.225  1.00  0.00     0.034 C 
HETATM    7  C6  UNL     1      -4.571   3.042  -1.586  1.00  0.00     0.023 C 
HETATM    8  C7  UNL     1      -3.984   3.114  -0.218  1.00  0.00     0.136 C 
BRANCH   5   9
HETATM    9  C3  UNL     1      -4.380   0.257  -0.451  1.00  0.00     0.061 A 
HETATM   10  C2  UNL     1      -4.190  -0.982   0.042  1.00  0.00     0.076 A 
HETATM   11  C24 UNL     1      -5.257  -1.606   0.731  1.00  0.00     0.085 A 
HETATM   12  C23 UNL     1      -6.437  -0.941   0.869  1.00  0.00     0.073 A 
HETATM   13 CL2  UNL     1      -4.975  -3.214   1.371  1.00  0.00    -0.080 Cl
HETATM   14  C22 UNL     1      -6.625   0.340   0.351  1.00  0.00     0.114 A 
HETATM   15 CL1  UNL     1      -7.766  -1.693   1.718  1.00  0.00    -0.081 Cl
HETATM   16  N5  UNL     1      -5.591   0.885  -0.287  1.00  0.00    -0.364 N 
ATOM     17  H5  UNL     1      -5.704   1.821  -0.676  1.00  0.00     0.165 HD
BRANCH  10  18
HETATM   18  N1  UNL     1      -3.025  -1.740  -0.156  1.00  0.00    -0.391 N 
HETATM   19  C1  UNL     1      -2.029  -1.937   0.852  1.00  0.00     0.146 C 
ATOM     20  H1  UNL     1      -2.881  -2.174  -1.068  1.00  0.00     0.159 HD
ENDBRANCH  10  18
ENDBRANCH   5   9
ENDBRANCH   1   4
BRANCH   1  21
HETATM   21  C8  UNL     1      -0.345   1.638   0.866  1.00  0.00     0.150 A 
HETATM   22  C9  UNL     1      -0.239   1.487   2.259  1.00  0.00     0.057 A 
HETATM   23  C10 UNL     1       0.742   0.581   2.570  1.00  0.00    -0.001 A 
HETATM   24  C11 UNL     1       1.231   0.065   3.760  1.00  0.00     0.031 A 
HETATM   25  C21 UNL     1       1.254   0.163   1.347  1.00  0.00     0.095 A 
HETATM   26  C12 UNL     1       2.233  -0.872   3.779  1.00  0.00     0.091 A 
HETATM   27  N3  UNL     1       2.709  -1.258   2.589  1.00  0.00    -0.345 N 
HETATM   28  C13 UNL     1       2.253  -0.772   1.396  1.00  0.00     0.171 A 
ATOM     29  H3  UNL     1       3.454  -1.954   2.572  1.00  0.00     0.167 HD
HETATM   30  N4  UNL     1       0.568   0.825   0.362  1.00  0.00    -0.341 N 
ATOM     31  H4  UNL     1       0.740   0.705  -0.636  1.00  0.00     0.167 HD
BRANCH  28  32
HETATM   32  O3  UNL     1       2.833  -1.257   0.252  1.00  0.00    -0.323 OA
BRANCH  32  33
HETATM   33  C14 UNL     1       4.087  -0.712  -0.231  1.00  0.00     0.069 C 
HETATM   34  C15 UNL     1       3.870   0.760  -0.471  1.00  0.00     0.047 C 
HETATM   35  C16 UNL     1       5.094  -0.795   0.907  1.00  0.00     0.047 C 
BRANCH  33  36
HETATM   36  C17 UNL     1       4.459  -1.497  -1.442  1.00  0.00    -0.020 C 
HETATM   37  C18 UNL     1       4.604  -2.973  -1.152  1.00  0.00     0.017 C 
HETATM   38  C19 UNL     1       5.754  -1.040  -2.093  1.00  0.00     0.017 C 
HETATM   39  C20 UNL     1       3.401  -1.377  -2.527  1.00  0.00     0.017 C 
ENDBRANCH  33  36
ENDBRANCH  32  33
ENDBRANCH  28  32
ENDBRANCH   1  21
TORSDOF 7
