REMARK  7 active torsions:
REMARK  status: ('A' for Active; 'I' for Inactive)
REMARK    1  A    between atoms: C2_2  and  O1_4 
REMARK    2  A    between atoms: C2_2  and  C4_6 
REMARK    3  A    between atoms: C7_10  and  C8_11 
REMARK       I    between atoms: C8_11  and  N1_13 
REMARK    4  A    between atoms: N1_13  and  C9_15 
REMARK    5  A    between atoms: C9_15  and  C10_16 
REMARK    6  A    between atoms: C10_16  and  N2_17 
REMARK    7  A    between atoms: N4_33  and  C24_34 
ROOT
HETATM    1  C4  UNL     1       3.916   0.176   0.195  1.00  0.00     0.083 A 
HETATM    2  C5  UNL     1       2.821  -0.594  -0.225  1.00  0.00     0.059 A 
HETATM    3  C6  UNL     1       1.519  -0.323  -0.609  1.00  0.00     0.146 A 
HETATM    4  F1  UNL     1       1.084   0.930  -0.671  1.00  0.00    -0.204 F 
HETATM    5  C7  UNL     1       0.615  -1.306  -0.986  1.00  0.00     0.071 A 
HETATM    6  C21 UNL     1       1.061  -2.610  -0.970  1.00  0.00     0.022 A 
HETATM    7  C22 UNL     1       2.342  -2.935  -0.599  1.00  0.00     0.033 A 
HETATM    8  C23 UNL     1       3.220  -1.923  -0.225  1.00  0.00     0.064 A 
HETATM    9  N3  UNL     1       4.482  -1.908   0.176  1.00  0.00    -0.293 N 
ATOM     10  H3  UNL     1       5.051  -2.749   0.276  1.00  0.00     0.187 HD
HETATM   11  N4  UNL     1       4.939  -0.661   0.440  1.00  0.00    -0.264 N 
ENDROOT
BRANCH   5  12
HETATM   12  C8  UNL     1      -0.799  -1.037  -1.344  1.00  0.00     0.258 C 
HETATM   13  O2  UNL     1      -1.279  -1.722  -2.281  1.00  0.00    -0.267 OA
HETATM   14  N1  UNL     1      -1.536  -0.084  -0.667  1.00  0.00    -0.334 N 
ATOM     15  H1  UNL     1      -0.993   0.379   0.062  1.00  0.00     0.168 HD
BRANCH  14  16
HETATM   16  C9  UNL     1      -2.861   0.405  -0.740  1.00  0.00     0.095 C 
BRANCH  16  17
HETATM   17  C10 UNL     1      -4.038  -0.425  -0.394  1.00  0.00     0.067 C 
HETATM   18  C16 UNL     1      -4.160  -1.645  -1.250  1.00  0.00     0.037 C 
HETATM   19  C17 UNL     1      -5.544  -2.315  -1.022  1.00  0.00     0.003 C 
HETATM   20  C18 UNL     1      -5.557  -2.785   0.408  1.00  0.00     0.000 C 
HETATM   21  C19 UNL     1      -4.327  -2.395   1.162  1.00  0.00     0.003 C 
HETATM   22  C20 UNL     1      -3.954  -0.938   1.033  1.00  0.00     0.037 C 
BRANCH  17  23
HETATM   23  N2  UNL     1      -5.275   0.325  -0.497  1.00  0.00    -0.359 N 
HETATM   24  C11 UNL     1      -5.623   0.832  -1.764  1.00  0.00     0.064 C 
HETATM   25  C12 UNL     1      -5.418   2.312  -1.979  1.00  0.00     0.045 C 
HETATM   26  C13 UNL     1      -6.129   3.075  -0.913  1.00  0.00     0.010 C 
HETATM   27  C14 UNL     1      -6.615   2.244   0.221  1.00  0.00     0.045 C 
HETATM   28  C15 UNL     1      -5.661   1.108   0.592  1.00  0.00     0.064 C 
ENDBRANCH  17  23
ENDBRANCH  16  17
ENDBRANCH  14  16
ENDBRANCH   5  12
BRANCH   1  29
HETATM   29  C2  UNL     1       3.899   1.625   0.315  1.00  0.00     0.096 C 
HETATM   30  C1  UNL     1       2.942   2.183   1.356  1.00  0.00     0.052 C 
HETATM   31  C3  UNL     1       3.686   2.395  -0.981  1.00  0.00     0.052 C 
BRANCH  29  32
HETATM   32  O1  UNL     1       5.128   2.174   0.777  1.00  0.00    -0.384 OA
ATOM     33  H1  UNL     1       5.726   1.825   0.126  1.00  0.00     0.211 HD
ENDBRANCH  29  32
ENDBRANCH   1  29
BRANCH  11  34
HETATM   34  C24 UNL     1       6.267  -0.431   0.877  1.00  0.00     0.016 C 
HETATM   35  C25 UNL     1       6.513  -0.154   2.326  1.00  0.00     0.081 C 
HETATM   36  C26 UNL     1       7.962  -0.640   2.603  1.00  0.00     0.173 C 
HETATM   37  O3  UNL     1       8.860  -0.112   1.705  1.00  0.00    -0.390 OA
HETATM   38  C27 UNL     1       8.655  -0.499   0.383  1.00  0.00     0.173 C 
HETATM   39  C28 UNL     1       7.292   0.165   0.014  1.00  0.00     0.081 C 
ENDBRANCH  11  34
TORSDOF 7
