REMARK  9 active torsions:
REMARK  status: ('A' for Active; 'I' for Inactive)
REMARK    1  A    between atoms: C3_3  and  C5_5 
REMARK    2  A    between atoms: C5_5  and  O2_7 
REMARK    3  A    between atoms: O2_7  and  C6_8 
REMARK    4  A    between atoms: C6_8  and  C7_9 
REMARK    5  A    between atoms: C17_20  and  C19_22 
REMARK    6  A    between atoms: C19_22  and  O4_23 
REMARK    7  A    between atoms: C19_22  and  C20_25 
REMARK    8  A    between atoms: C21_26  and  C22_27 
REMARK    9  A    between atoms: C22_27  and  O5_30 
ROOT
HETATM    1  C7  UNL     1      -1.071  -0.244   0.761  1.00  0.00    -0.042 C 
HETATM    2  C8  UNL     1      -2.001  -0.552  -0.114  1.00  0.00    -0.013 C 
HETATM    3  C9  UNL     1      -2.440  -1.397  -1.172  1.00  0.00     0.027 C 
HETATM    4  C10 UNL     1      -3.922  -0.967  -1.528  1.00  0.00     0.018 C 
HETATM    5  C11 UNL     1      -2.499  -2.826  -1.336  1.00  0.00    -0.019 C 
HETATM    6  C12 UNL     1      -1.369  -3.686  -1.682  1.00  0.00    -0.007 C 
HETATM    7  C13 UNL     1      -0.074  -3.548  -1.478  1.00  0.00    -0.016 C 
HETATM    8  C14 UNL     1       0.544  -2.396  -0.801  1.00  0.00     0.082 C 
HETATM    9  C15 UNL     1       1.983  -2.131  -1.034  1.00  0.00     0.130 C 
HETATM   10  C16 UNL     1       2.940  -3.266  -1.041  1.00  0.00     0.040 C 
HETATM   11  O3  UNL     1       2.422  -1.218  -0.086  1.00  0.00    -0.371 OA
HETATM   12  C17 UNL     1       1.437  -0.255   0.281  1.00  0.00     0.104 C 
HETATM   13  C18 UNL     1       2.325   0.550   1.278  1.00  0.00     0.050 C 
HETATM   14  C25 UNL     1       0.309  -0.858   0.988  1.00  0.00     0.081 C 
HETATM   15  C26 UNL     1       0.445  -0.873   2.514  1.00  0.00     0.195 C 
HETATM   16  O6  UNL     1       1.350  -1.747   3.092  1.00  0.00    -0.362 OA
HETATM   17  C27 UNL     1       1.722  -2.953   2.545  1.00  0.00     0.134 C 
HETATM   18  C28 UNL     1       1.211  -3.215   1.397  1.00  0.00     0.042 C 
HETATM   19  C29 UNL     1       0.291  -2.336   0.666  1.00  0.00     0.149 C 
HETATM   20  F1  UNL     1      -0.895  -2.754   1.176  1.00  0.00    -0.236 F 
ENDROOT
BRANCH  12  21
HETATM   21  C19 UNL     1       1.354   0.686  -0.849  1.00  0.00     0.176 C 
BRANCH  21  22
HETATM   22  O4  UNL     1       0.473   1.711  -0.870  1.00  0.00    -0.389 OA
ATOM     23  H4  UNL     1       0.419   2.318  -1.599  1.00  0.00     0.210 HD
ENDBRANCH  21  22
BRANCH  21  24
HETATM   24  C20 UNL     1       2.655   1.492  -1.012  1.00  0.00     0.006 C 
HETATM   25  C21 UNL     1       3.530   1.267  -1.942  1.00  0.00     0.008 C 
BRANCH  25  26
HETATM   26  C22 UNL     1       4.754   2.083  -2.035  1.00  0.00     0.068 C 
HETATM   27  C23 UNL     1       4.790   3.194  -1.014  1.00  0.00     0.050 C 
HETATM   28  C24 UNL     1       5.945   1.172  -1.795  1.00  0.00     0.050 C 
BRANCH  26  29
HETATM   29  O5  UNL     1       4.896   2.685  -3.291  1.00  0.00    -0.387 OA
ATOM     30  H5  UNL     1       5.685   3.211  -3.351  1.00  0.00     0.211 HD
ENDBRANCH  26  29
ENDBRANCH  25  26
ENDBRANCH  21  24
ENDBRANCH  12  21
BRANCH   1  31
HETATM   31  C6  UNL     1      -1.270   0.912   1.714  1.00  0.00     0.214 C 
BRANCH  31  32
HETATM   32  O2  UNL     1      -2.443   1.631   1.663  1.00  0.00    -0.313 OA
BRANCH  32  33
HETATM   33  C5  UNL     1      -3.712   1.296   2.033  1.00  0.00     0.288 C 
HETATM   34  O1  UNL     1      -3.886   0.131   2.525  1.00  0.00    -0.260 OA
BRANCH  33  35
HETATM   35  C3  UNL     1      -4.866   2.182   1.899  1.00  0.00     0.009 C 
HETATM   36  C2  UNL     1      -4.726   3.386   1.398  1.00  0.00    -0.018 C 
HETATM   37  C1  UNL     1      -5.900   4.274   1.267  1.00  0.00     0.036 C 
HETATM   38  C4  UNL     1      -6.212   1.732   2.329  1.00  0.00     0.054 C 
ENDBRANCH  33  35
ENDBRANCH  32  33
ENDBRANCH  31  32
ENDBRANCH   1  31
TORSDOF 9
