REMARK  5 active torsions:
REMARK  status: ('A' for Active; 'I' for Inactive)
REMARK    1  A    between atoms: C2_2  and  C3_3 
REMARK    2  A    between atoms: C3_3  and  O1_5 
REMARK    3  A    between atoms: C3_3  and  C5_7 
REMARK    4  A    between atoms: C6_10  and  N2_11 
REMARK    5  A    between atoms: C13_23  and  C14_24 
ROOT
HETATM    1  N2  UNL     1       1.189  -0.587  -0.371  1.00  0.00    -0.342 N 
HETATM    2  C7  UNL     1       0.197  -1.105  -1.225  1.00  0.00     0.107 C 
HETATM    3  C8  UNL     1      -1.131  -1.528  -0.634  1.00  0.00     0.241 C 
HETATM    4  F1  UNL     1      -1.260  -2.888  -0.421  1.00  0.00    -0.239 F 
HETATM    5  C9  UNL     1      -1.463  -0.713   0.530  1.00  0.00     0.006 C 
HETATM    6  C10 UNL     1      -2.527  -0.951   1.471  1.00  0.00     0.063 A 
HETATM    7  N3  UNL     1      -2.531  -1.611   2.637  1.00  0.00    -0.300 N 
ATOM      8  H3  UNL     1      -1.769  -2.223   2.929  1.00  0.00     0.187 HD
HETATM    9  N4  UNL     1      -3.594  -1.405   3.369  1.00  0.00    -0.304 N 
ATOM     10  H4  UNL     1      -3.792  -1.806   4.286  1.00  0.00     0.186 HD
HETATM   11  C11 UNL     1      -4.406  -0.527   2.647  1.00  0.00     0.031 A 
HETATM   12  C12 UNL     1      -5.740  -0.204   3.308  1.00  0.00     0.070 C 
HETATM   13  C13 UNL     1      -3.811  -0.229   1.491  1.00  0.00    -0.002 A 
HETATM   14  C20 UNL     1      -0.659   0.559   0.766  1.00  0.00     0.145 C 
HETATM   15  C21 UNL     1      -1.018   1.136   2.061  1.00  0.00     0.070 C 
HETATM   16  N5  UNL     1      -1.292   1.578   3.090  1.00  0.00    -0.197 NA
HETATM   17  C22 UNL     1       0.853   0.190   0.796  1.00  0.00     0.153 C 
ENDROOT
BRANCH   1  18
HETATM   18  C6  UNL     1       2.574  -0.742  -0.624  1.00  0.00     0.121 A 
HETATM   19  N1  UNL     1       3.344   0.370  -0.868  1.00  0.00    -0.329 N 
HETATM   20  C5  UNL     1       4.646   0.340  -1.120  1.00  0.00     0.118 A 
ATOM     21  H1  UNL     1       2.883   1.280  -0.854  1.00  0.00     0.168 HD
HETATM   22  N6  UNL     1       5.293  -0.829  -1.144  1.00  0.00    -0.343 N 
HETATM   23  C28 UNL     1       4.572  -1.939  -0.908  1.00  0.00     0.047 A 
ATOM     24  H6  UNL     1       6.294  -0.877  -1.334  1.00  0.00     0.167 HD
HETATM   25  C23 UNL     1       3.243  -1.956  -0.647  1.00  0.00     0.038 A 
HETATM   26  C27 UNL     1       5.273  -3.145  -0.924  1.00  0.00     0.033 A 
HETATM   27  C24 UNL     1       2.542  -3.124  -0.389  1.00  0.00     0.059 A 
HETATM   28  C25 UNL     1       3.238  -4.336  -0.402  1.00  0.00     0.117 A 
HETATM   29  F4  UNL     1       2.501  -5.448  -0.154  1.00  0.00    -0.206 F 
HETATM   30  C26 UNL     1       4.569  -4.298  -0.669  1.00  0.00     0.044 A 
BRANCH  20  31
HETATM   31  C3  UNL     1       5.488   1.555  -1.379  1.00  0.00     0.112 C 
HETATM   32  C4  UNL     1       6.948   1.168  -1.204  1.00  0.00     0.054 C 
BRANCH  31  33
HETATM   33  C2  UNL     1       5.137   2.722  -0.494  1.00  0.00     0.041 C 
HETATM   34  C1  UNL     1       5.377   2.406   0.963  1.00  0.00     0.009 C 
ENDBRANCH  31  33
BRANCH  31  35
HETATM   35  O1  UNL     1       5.332   1.925  -2.701  1.00  0.00    -0.382 OA
ATOM     36  H1  UNL     1       5.553   1.189  -3.259  1.00  0.00     0.211 HD
ENDBRANCH  31  35
ENDBRANCH  20  31
ENDBRANCH   1  18
BRANCH  13  37
HETATM   37  C14 UNL     1      -4.284   0.391   0.298  1.00  0.00     0.023 C 
HETATM   38  C15 UNL     1      -4.057   1.763  -0.185  1.00  0.00     0.015 C 
HETATM   39  C16 UNL     1      -4.366   1.615  -1.728  1.00  0.00     0.079 C 
HETATM   40  C17 UNL     1      -5.853   1.641  -1.862  1.00  0.00     0.243 C 
HETATM   41  F2  UNL     1      -6.275   0.691  -2.784  1.00  0.00    -0.206 F 
HETATM   42  F3  UNL     1      -6.171   2.946  -2.320  1.00  0.00    -0.206 F 
HETATM   43  C18 UNL     1      -6.465   1.518  -0.520  1.00  0.00     0.079 C 
HETATM   44  C19 UNL     1      -5.864   0.512   0.426  1.00  0.00     0.015 C 
ENDBRANCH  13  37
TORSDOF 5
