REMARK  9 active torsions:
REMARK  status: ('A' for Active; 'I' for Inactive)
REMARK    1  A    between atoms: C2_2  and  C3_3 
REMARK    2  A    between atoms: C3_3  and  C4_4 
REMARK    3  A    between atoms: C5_5  and  C6_6 
REMARK    4  A    between atoms: C9_11  and  C10_12 
REMARK    5  A    between atoms: C14_17  and  N2_18 
REMARK    6  A    between atoms: C17_21  and  C18_22 
REMARK    7  A    between atoms: C18_22  and  O2_24 
REMARK    8  A    between atoms: N4_30  and  C21_31 
REMARK    9  A    between atoms: C27_37  and  N5_38 
ROOT
HETATM    1  C6  UNL     1      -3.186  -1.094  -0.562  1.00  0.00     0.164 A 
HETATM    2  N1  UNL     1      -3.022   0.209  -0.334  1.00  0.00    -0.319 N 
ATOM      3  H1  UNL     1      -3.841   0.746  -0.051  1.00  0.00     0.169 HD
HETATM    4  C7  UNL     1      -1.857   0.865  -0.450  1.00  0.00     0.141 A 
HETATM    5  C8  UNL     1      -0.761   0.111  -0.838  1.00  0.00     0.082 A 
HETATM    6  C9  UNL     1       0.291   0.978  -0.888  1.00  0.00     0.081 A 
HETATM    7  N3  UNL     1      -0.181   2.175  -0.545  1.00  0.00    -0.295 N 
ATOM      8  H3  UNL     1       0.386   3.022  -0.496  1.00  0.00     0.187 HD
HETATM    9  N4  UNL     1      -1.480   2.131  -0.275  1.00  0.00    -0.270 N 
HETATM   10  C27 UNL     1      -0.915  -1.237  -1.077  1.00  0.00     0.117 A 
HETATM   11  N6  UNL     1      -2.128  -1.823  -0.936  1.00  0.00    -0.321 N 
ATOM     12  H6  UNL     1      -2.235  -2.821  -1.115  1.00  0.00     0.169 HD
ENDROOT
BRANCH   6  13
HETATM   13  C10 UNL     1       1.666   0.627  -1.254  1.00  0.00     0.056 A 
HETATM   14  C11 UNL     1       2.068   0.690  -2.569  1.00  0.00     0.049 A 
HETATM   15 CL1  UNL     1       0.899   1.197  -3.776  1.00  0.00    -0.083 Cl
HETATM   16  C12 UNL     1       3.370   0.361  -2.939  1.00  0.00     0.027 A 
HETATM   17  C13 UNL     1       4.274  -0.035  -1.979  1.00  0.00     0.034 A 
HETATM   18  C14 UNL     1       3.898  -0.105  -0.668  1.00  0.00     0.071 A 
HETATM   19  C20 UNL     1       2.583   0.229  -0.310  1.00  0.00     0.157 A 
HETATM   20  F1  UNL     1       2.239   0.148   1.016  1.00  0.00    -0.203 F 
BRANCH  18  21
HETATM   21  N2  UNL     1       4.820  -0.513   0.329  1.00  0.00    -0.364 N 
HETATM   22  C15 UNL     1       5.405   0.019   1.546  1.00  0.00     0.127 C 
HETATM   23  C16 UNL     1       5.501  -1.408   2.053  1.00  0.00     0.055 C 
HETATM   24  C17 UNL     1       5.597  -1.706   0.560  1.00  0.00     0.185 C 
BRANCH  24  25
HETATM   25  C18 UNL     1       6.992  -1.696   0.080  1.00  0.00     0.281 C 
HETATM   26  O1  UNL     1       7.437  -0.663  -0.474  1.00  0.00    -0.263 OA
BRANCH  25  27
HETATM   27  O2  UNL     1       7.848  -2.775   0.208  1.00  0.00    -0.325 OA
HETATM   28  C19 UNL     1       9.184  -2.672  -0.289  1.00  0.00     0.213 C 
ENDBRANCH  25  27
ENDBRANCH  24  25
ENDBRANCH  18  21
ENDBRANCH   6  13
BRANCH  10  29
HETATM   29  N5  UNL     1       0.137  -1.903  -1.437  1.00  0.00    -0.385 N 
ATOM     30  H52 UNL     1       1.050  -1.462  -1.543  1.00  0.00     0.157 HD
ATOM     31  H51 UNL     1       0.023  -2.901  -1.614  1.00  0.00     0.157 HD
ENDBRANCH  10  29
BRANCH   9  32
HETATM   32  C21 UNL     1      -2.338   3.254   0.136  1.00  0.00     0.110 C 
HETATM   33  C22 UNL     1      -1.456   4.386   0.490  1.00  0.00     0.027 C 
HETATM   34  C23 UNL     1      -1.889   5.232   1.632  1.00  0.00     0.002 C 
HETATM   35  C24 UNL     1      -3.403   5.217   1.680  1.00  0.00     0.000 C 
HETATM   36  C25 UNL     1      -3.803   3.821   2.102  1.00  0.00     0.002 C 
HETATM   37  C26 UNL     1      -3.256   2.764   1.184  1.00  0.00     0.027 C 
ENDBRANCH   9  32
BRANCH   1  38
HETATM   38  C5  UNL     1      -4.464  -1.732  -0.417  1.00  0.00    -0.030 C 
HETATM   39  C4  UNL     1      -5.549  -2.253  -0.287  1.00  0.00    -0.098 C 
BRANCH  39  40
HETATM   40  C3  UNL     1      -6.870  -2.857  -0.130  1.00  0.00     0.094 C 
BRANCH  40  41
HETATM   41  C2  UNL     1      -6.727  -4.383  -0.187  1.00  0.00     0.007 C 
HETATM   42  C1  UNL     1      -6.141  -4.755  -1.514  1.00  0.00     0.006 C 
ENDBRANCH  40  41
ENDBRANCH  39  40
ENDBRANCH   1  38
TORSDOF 9
