REMARK  6 active torsions:
REMARK  status: ('A' for Active; 'I' for Inactive)
REMARK    1  A    between atoms: C3_5  and  C4_6 
REMARK    2  A    between atoms: C4_6  and  O1_7 
REMARK    3  A    between atoms: O1_7  and  N2_8 
REMARK    4  A    between atoms: C5_10  and  C6_11 
REMARK    5  A    between atoms: C7_12  and  O2_13 
REMARK    6  A    between atoms: C11_21  and  N4_22 
ROOT
HETATM    1  C6  UNL     1       1.940  -0.043  -0.019  1.00  0.00     0.046 A 
HETATM    2  C7  UNL     1       2.987   0.818   0.238  1.00  0.00     0.153 A 
HETATM    3  N3  UNL     1       2.490   2.056   0.358  1.00  0.00    -0.336 N 
ATOM      4  H3  UNL     1       3.051   2.886   0.549  1.00  0.00     0.168 HD
HETATM    5  C8  UNL     1       1.171   2.061   0.195  1.00  0.00     0.048 A 
HETATM    6  C9  UNL     1       0.212   3.044   0.223  1.00  0.00     0.052 A 
HETATM    7  C10 UNL     1      -1.123   2.744   0.015  1.00  0.00     0.041 A 
HETATM    8 BR1  UNL     1      -2.357   4.189   0.185  1.00  0.00    -0.049 Br
HETATM    9  C11 UNL     1      -1.570   1.477  -0.230  1.00  0.00     0.071 A 
HETATM   10  C19 UNL     1      -0.564   0.496  -0.252  1.00  0.00     0.075 A 
HETATM   11 CL1  UNL     1      -1.053  -1.113  -0.636  1.00  0.00    -0.081 Cl
HETATM   12  C20 UNL     1       0.777   0.740  -0.049  1.00  0.00     0.031 A 
ENDROOT
BRANCH   1  13
HETATM   13  C5  UNL     1       1.983  -1.476  -0.221  1.00  0.00     0.130 C 
HETATM   14  N2  UNL     1       2.999  -2.196  -0.198  1.00  0.00    -0.277 N 
ATOM     15  H2  UNL     1       2.710  -3.158  -0.375  1.00  0.00     0.193 HD
BRANCH  14  16
HETATM   16  O1  UNL     1       4.287  -2.184  -0.034  1.00  0.00    -0.275 OA
BRANCH  16  17
HETATM   17  C4  UNL     1       5.008  -3.087   0.791  1.00  0.00     0.258 C 
BRANCH  17  18
HETATM   18  C3  UNL     1       6.497  -2.786   0.746  1.00  0.00     0.042 A 
HETATM   19  N1  UNL     1       6.997  -1.845   0.012  1.00  0.00    -0.355 N 
HETATM   20  C2  UNL     1       8.301  -1.625   0.009  1.00  0.00     0.047 A 
ATOM     21  H1  UNL     1       6.383  -1.271  -0.566  1.00  0.00     0.166 HD
HETATM   22  C1  UNL     1       9.077  -0.588  -0.768  1.00  0.00     0.076 C 
HETATM   23  S1  UNL     1       8.870  -2.806   1.101  1.00  0.00    -0.087 SA
HETATM   24  C21 UNL     1       7.375  -3.527   1.505  1.00  0.00     0.078 A 
ENDBRANCH  17  18
ENDBRANCH  16  17
ENDBRANCH  14  16
ENDBRANCH   1  13
BRANCH   2  25
HETATM   25  O2  UNL     1       4.334   0.466   0.354  1.00  0.00    -0.345 OA
ATOM     26  H2  UNL     1       5.055   1.059   0.531  1.00  0.00     0.219 HD
ENDBRANCH   2  25
BRANCH   9  27
HETATM   27  N4  UNL     1      -2.876   1.132  -0.554  1.00  0.00    -0.374 N 
HETATM   28  C12 UNL     1      -3.829   2.121  -1.043  1.00  0.00     0.142 C 
HETATM   29  C13 UNL     1      -4.864   1.418  -1.958  1.00  0.00     0.137 C 
HETATM   30  N5  UNL     1      -5.638   0.501  -1.190  1.00  0.00    -0.406 N 
HETATM   31  C14 UNL     1      -7.011   0.868  -1.024  1.00  0.00     0.144 C 
HETATM   32  C15 UNL     1      -5.001  -0.008  -0.041  1.00  0.00     0.036 C 
HETATM   33  C16 UNL     1      -5.245   0.647   1.258  1.00  0.00     0.039 C 
HETATM   34  C17 UNL     1      -5.482  -1.465   0.111  1.00  0.00     0.039 C 
HETATM   35  C18 UNL     1      -3.494  -0.178  -0.371  1.00  0.00     0.153 C 
ENDBRANCH   9  27
TORSDOF 6
