REMARK  14 active torsions:
REMARK  status: ('A' for Active; 'I' for Inactive)
REMARK    1  A    between atoms: S1_2  and  C2_3 
REMARK    2  A    between atoms: C3_5  and  O2_6 
REMARK    3  A    between atoms: O2_6  and  C4_7 
REMARK    4  A    between atoms: C4_7  and  C5_8 
REMARK    5  A    between atoms: C4_7  and  C6_11 
REMARK    6  A    between atoms: C6_11  and  O5_12 
REMARK    7  A    between atoms: C6_11  and  C7_14 
REMARK    8  A    between atoms: C7_14  and  O6_15 
REMARK    9  A    between atoms: C8_17  and  O7_18 
REMARK   10  A    between atoms: O7_18  and  C9_19 
REMARK   11  A    between atoms: C9_19  and  N1_20 
REMARK   12  A    between atoms: C10_28  and  N6_29 
REMARK   13  A    between atoms: C13_38  and  N10_39 
REMARK   14  A    between atoms: C15_45  and  O8_46 
ROOT
HETATM    1  C2  UNL     1      -0.257  -1.729   1.840  1.00  0.00     0.216 C 
HETATM    2  O1  UNL     1       0.794  -0.909   2.150  1.00  0.00    -0.340 OA
HETATM    3  C3  UNL     1       1.427  -0.317   1.088  1.00  0.00     0.293 C 
HETATM    4  C8  UNL     1       0.442   0.405   0.137  1.00  0.00     0.210 C 
HETATM    5  C10 UNL     1      -0.522  -0.678  -0.294  1.00  0.00     0.177 C 
HETATM    6  C15 UNL     1      -1.303  -1.059   0.932  1.00  0.00     0.184 C 
ENDROOT
BRANCH   5   7
HETATM    7  N6  UNL     1      -1.280  -0.355  -1.447  1.00  0.00    -0.249 N 
HETATM    8  N7  UNL     1      -0.732  -0.237  -2.667  1.00  0.00    -0.238 N 
HETATM    9  N8  UNL     1      -1.662   0.058  -3.534  1.00  0.00    -0.281 N 
ATOM     10  H7  UNL     1       0.257  -0.359  -2.883  1.00  0.00     0.208 HD
HETATM   11  C11 UNL     1      -2.861   0.147  -2.928  1.00  0.00     0.111 A 
ATOM     12  H8  UNL     1      -1.503   0.201  -4.531  1.00  0.00     0.188 HD
HETATM   13  C12 UNL     1      -4.148   0.421  -3.342  1.00  0.00     0.141 A 
HETATM   14  C14 UNL     1      -2.571  -0.127  -1.580  1.00  0.00     0.169 A 
HETATM   15  N9  UNL     1      -5.127   0.420  -2.421  1.00  0.00    -0.200 N 
HETATM   16  C13 UNL     1      -4.889   0.162  -1.115  1.00  0.00     0.677 A 
ATOM     17  H9  UNL     1      -6.082   0.621  -2.717  1.00  0.00     0.183 HD
HETATM   18  N11 UNL     1      -3.618  -0.098  -0.767  1.00  0.00    -0.173 N 
ATOM     19  H11 UNL     1      -3.441  -0.292   0.219  1.00  0.00     0.186 HD
BRANCH  16  20
HETATM   20  N10 UNL     1      -5.847   0.163  -0.225  1.00  0.00    -0.234 N 
ATOM     21 2H10 UNL     1      -6.812   0.360  -0.489  1.00  0.00     0.174 HD
ATOM     22 1H10 UNL     1      -5.667  -0.032   0.760  1.00  0.00     0.174 HD
ENDBRANCH  16  20
ENDBRANCH   5   7
BRANCH   4  23
HETATM   23  O7  UNL     1      -0.152   1.437   0.801  1.00  0.00    -0.314 OA
BRANCH  23  24
HETATM   24  C9  UNL     1       0.079   2.702   0.354  1.00  0.00     0.412 C 
HETATM   25  N2  UNL     1      -0.682   3.628   1.203  1.00  0.00    -0.044 NA
HETATM   26  N3  UNL     1      -1.048   4.700   0.400  1.00  0.00    -0.015 NA
HETATM   27  N4  UNL     1      -0.641   4.387  -0.890  1.00  0.00    -0.015 NA
HETATM   28  N5  UNL     1      -0.507   2.994  -0.935  1.00  0.00    -0.044 NA
BRANCH  24  29
HETATM   29  N1  UNL     1       1.476   3.084   0.365  1.00  0.00    -0.012 N 
ATOM     30  H13 UNL     1       1.876   2.954   1.294  1.00  0.00     0.281 HD
ATOM     31  H12 UNL     1       2.036   2.411  -0.159  1.00  0.00     0.281 HD
ATOM     32  H11 UNL     1       1.649   4.032   0.030  1.00  0.00     0.281 HD
ENDBRANCH  24  29
ENDBRANCH  23  24
ENDBRANCH   4  23
BRANCH   6  33
HETATM   33  O8  UNL     1      -1.825   0.007   1.637  1.00  0.00    -0.390 OA
ATOM     34  H8  UNL     1      -2.471   0.421   1.076  1.00  0.00     0.210 HD
ENDBRANCH   6  33
BRANCH   3  35
HETATM   35  O2  UNL     1       2.118  -1.206   0.282  1.00  0.00    -0.340 OA
BRANCH  35  36
HETATM   36  C4  UNL     1       3.445  -0.923   0.115  1.00  0.00     0.256 C 
BRANCH  36  37
HETATM   37  C5  UNL     1       3.839  -0.765  -1.307  1.00  0.00     0.206 C 
HETATM   38  O3  UNL     1       5.032  -0.501  -1.605  1.00  0.00    -0.646 OA
HETATM   39  O4  UNL     1       2.919  -0.902  -2.310  1.00  0.00    -0.646 OA
ENDBRANCH  36  37
BRANCH  36  40
HETATM   40  C6  UNL     1       4.228  -2.101   0.712  1.00  0.00     0.181 C 
BRANCH  40  41
HETATM   41  O5  UNL     1       5.590  -1.924   0.599  1.00  0.00    -0.390 OA
ATOM     42  H5  UNL     1       6.074  -2.653   0.968  1.00  0.00     0.210 HD
ENDBRANCH  40  41
BRANCH  40  43
HETATM   43  C7  UNL     1       3.804  -3.399   0.042  1.00  0.00     0.199 C 
BRANCH  43  44
HETATM   44  O6  UNL     1       4.120  -3.411  -1.304  1.00  0.00    -0.398 OA
ATOM     45  H6  UNL     1       3.855  -4.222  -1.722  1.00  0.00     0.209 HD
ENDBRANCH  43  44
ENDBRANCH  40  43
ENDBRANCH  36  40
ENDBRANCH  35  36
ENDBRANCH   3  35
BRANCH   1  46
HETATM   46  S1  UNL     1      -1.008  -2.414   3.310  1.00  0.00    -0.139 SA
HETATM   47  C1  UNL     1      -1.777  -1.156   4.353  1.00  0.00     0.092 C 
ENDBRANCH   1  46
TORSDOF 14
