REMARK  13 active torsions:
REMARK  status: ('A' for Active; 'I' for Inactive)
REMARK    1  A    between atoms: N1_2  and  C2_5 
REMARK    2  A    between atoms: C3_7  and  O2_8 
REMARK    3  A    between atoms: O2_8  and  C4_9 
REMARK    4  A    between atoms: C5_10  and  N2_11 
REMARK    5  A    between atoms: C7_16  and  N3_17 
REMARK    6  A    between atoms: C8_21  and  O3_22 
REMARK    7  A    between atoms: O3_22  and  C9_23 
REMARK    8  A    between atoms: C12_27  and  N4_28 
REMARK    9  A    between atoms: C13_32  and  O5_33 
REMARK   10  A    between atoms: C14_35  and  O6_36 
REMARK   11  A    between atoms: C15_38  and  N5_39 
REMARK   12  A    between atoms: N5_39  and  O7_40 
REMARK   13  A    between atoms: C17_44  and  O9_45 
ROOT
HETATM    1  C4  UNL     1       1.367   0.489   0.021  1.00  0.00     0.181 C 
HETATM    2  C5  UNL     1       1.449   1.788  -0.808  1.00  0.00     0.216 C 
HETATM    3  C6  UNL     1       0.738   2.896  -0.031  1.00  0.00     0.070 C 
HETATM    4  C7  UNL     1      -0.724   2.516  -0.029  1.00  0.00     0.216 C 
HETATM    5  C8  UNL     1      -0.946   1.200   0.699  1.00  0.00     0.179 C 
HETATM    6  C15 UNL     1      -0.037   0.097   0.181  1.00  0.00     0.168 C 
ENDROOT
BRANCH   5   7
HETATM    7  O3  UNL     1      -2.240   0.805   0.394  1.00  0.00    -0.349 OA
BRANCH   7   8
HETATM    8  C9  UNL     1      -3.068   0.708   1.513  1.00  0.00     0.292 C 
HETATM    9  O4  UNL     1      -3.480  -0.579   1.586  1.00  0.00    -0.351 OA
HETATM   10  C10 UNL     1      -4.262  -1.116   0.634  1.00  0.00     0.153 C 
HETATM   11  C11 UNL     1      -5.257  -2.140   1.144  1.00  0.00     0.042 C 
HETATM   12  C12 UNL     1      -4.880  -0.093  -0.244  1.00  0.00     0.243 C 
HETATM   13  C13 UNL     1      -5.294   1.167   0.473  1.00  0.00     0.184 C 
HETATM   14  C14 UNL     1      -4.174   1.717   1.326  1.00  0.00     0.204 C 
BRANCH  12  15
HETATM   15  N4  UNL     1      -6.045  -0.595  -0.966  1.00  0.00    -0.070 N 
ATOM     16  H43 UNL     1      -5.813  -1.437  -1.493  1.00  0.00     0.274 HD
ATOM     17  H42 UNL     1      -6.732  -0.987  -0.322  1.00  0.00     0.274 HD
ATOM     18  H41 UNL     1      -6.470   0.109  -1.570  1.00  0.00     0.274 HD
ENDBRANCH  12  15
BRANCH  13  19
HETATM   19  O5  UNL     1      -6.452   0.920   1.208  1.00  0.00    -0.391 OA
ATOM     20  H5  UNL     1      -6.713   1.714   1.660  1.00  0.00     0.210 HD
ENDBRANCH  13  19
BRANCH  14  21
HETATM   21  O6  UNL     1      -4.716   1.995   2.577  1.00  0.00    -0.388 OA
ATOM     22  H6  UNL     1      -5.412   2.630   2.459  1.00  0.00     0.210 HD
ENDBRANCH  14  21
ENDBRANCH   7   8
ENDBRANCH   5   7
BRANCH   4  23
HETATM   23  N3  UNL     1      -1.190   2.442  -1.395  1.00  0.00    -0.072 N 
ATOM     24  H33 UNL     1      -1.012   3.302  -1.914  1.00  0.00     0.274 HD
ATOM     25  H32 UNL     1      -0.625   1.813  -1.965  1.00  0.00     0.274 HD
ATOM     26  H31 UNL     1      -2.177   2.185  -1.394  1.00  0.00     0.274 HD
ENDBRANCH   4  23
BRANCH   6  27
HETATM   27  N5  UNL     1      -0.250  -1.037   1.015  1.00  0.00    -0.094 NA
BRANCH  27  28
HETATM   28  O7  UNL     1       0.217  -2.171   0.485  1.00  0.00    -0.295 OA
ATOM     29  H7  UNL     1       0.075  -2.928   1.042  1.00  0.00     0.238 HD
ENDBRANCH  27  28
ENDBRANCH   6  27
BRANCH   1  30
HETATM   30  O2  UNL     1       2.068  -0.437  -0.737  1.00  0.00    -0.330 OA
BRANCH  30  31
HETATM   31  C3  UNL     1       3.225  -0.909  -0.185  1.00  0.00     0.415 C 
HETATM   32  O1  UNL     1       4.287  -0.382  -0.953  1.00  0.00    -0.303 OA
HETATM   33  C2  UNL     1       5.526  -0.640  -0.429  1.00  0.00     0.355 C 
HETATM   34  C17 UNL     1       5.598  -1.662   0.651  1.00  0.00     0.198 C 
HETATM   35  C16 UNL     1       4.432  -2.596   0.688  1.00  0.00     0.209 C 
HETATM   36  O8  UNL     1       3.423  -2.260  -0.175  1.00  0.00    -0.336 OA
BRANCH  33  37
HETATM   37  N1  UNL     1       6.377  -1.063  -1.534  1.00  0.00    -0.050 N 
HETATM   38  C1  UNL     1       5.937  -2.292  -2.148  1.00  0.00     0.270 C 
ATOM     39  H12 UNL     1       7.350  -1.133  -1.237  1.00  0.00     0.279 HD
ATOM     40  H11 UNL     1       6.467  -0.321  -2.228  1.00  0.00     0.279 HD
ENDBRANCH  33  37
BRANCH  34  41
HETATM   41  O9  UNL     1       6.820  -2.370   0.623  1.00  0.00    -0.389 OA
ATOM     42  H9  UNL     1       6.866  -3.022   1.312  1.00  0.00     0.210 HD
ENDBRANCH  34  41
ENDBRANCH  30  31
ENDBRANCH   1  30
BRANCH   2  43
HETATM   43  N2  UNL     1       2.791   2.187  -1.058  1.00  0.00    -0.072 N 
ATOM     44  H23 UNL     1       3.318   2.272  -0.189  1.00  0.00     0.274 HD
ATOM     45  H22 UNL     1       3.322   1.436  -1.498  1.00  0.00     0.274 HD
ATOM     46  H21 UNL     1       2.845   3.046  -1.606  1.00  0.00     0.274 HD
ENDBRANCH   2  43
TORSDOF 13
