REMARK  3 active torsions:
REMARK  status: ('A' for Active; 'I' for Inactive)
REMARK    1  A    between atoms: C2_2  and  C3_3 
REMARK    2  A    between atoms: C5_8  and  C6_9 
REMARK    3  A    between atoms: C6_9  and  N2_10 
ROOT
HETATM    1  C3  UNL     1      -0.838   0.269  -0.407  1.00  0.00     0.316 C 
HETATM    2  C4  UNL     1      -1.099   0.567  -1.854  1.00  0.00     0.082 C 
HETATM    3  N1  UNL     1       0.313   1.011   0.077  1.00  0.00    -0.031 N 
ATOM      4  H11 UNL     1       0.219   1.379   1.024  1.00  0.00     0.280 HD
ATOM      5  H12 UNL     1       0.457   1.917  -0.369  1.00  0.00     0.280 HD
HETATM    6  C5  UNL     1       1.381   0.077  -0.101  1.00  0.00     0.242 C 
HETATM    7  C7  UNL     1       0.770  -1.246   0.311  1.00  0.00     0.309 C 
HETATM    8  N3  UNL     1      -0.601  -1.091  -0.098  1.00  0.00     0.123 N 
HETATM    9  C8  UNL     1      -0.990  -2.050  -1.080  1.00  0.00     0.313 C 
ENDROOT
BRANCH   6  10
HETATM   10  C6  UNL     1       2.552   0.308   0.822  1.00  0.00     0.264 C 
BRANCH  10  11
HETATM   11  N2  UNL     1       3.146   1.612   0.647  1.00  0.00    -0.077 N 
ATOM     12  H23 UNL     1       3.410   1.767  -0.326  1.00  0.00     0.274 HD
ATOM     13  H22 UNL     1       2.448   2.349   0.748  1.00  0.00     0.274 HD
ATOM     14  H21 UNL     1       3.938   1.768   1.271  1.00  0.00     0.274 HD
ENDBRANCH  10  11
ENDBRANCH   6  10
BRANCH   1  15
HETATM   15  C2  UNL     1      -2.104   0.680   0.359  1.00  0.00     0.068 C 
HETATM   16  C1  UNL     1      -1.949   0.421   1.841  1.00  0.00     0.009 C 
ENDBRANCH   1  15
TORSDOF 3
