REMARK  2 active torsions:
REMARK  status: ('A' for Active; 'I' for Inactive)
REMARK    1  A    between atoms: N1_2  and  C2_4 
REMARK    2  A    between atoms: C7_12  and  O1_13 
ROOT
HETATM    1  C2  UNL     1       0.912   0.053   0.935  1.00  0.00     0.110 C 
HETATM    2  C3  UNL     1       1.553  -1.339   0.907  1.00  0.00     0.257 C 
HETATM    3  N2  UNL     1       0.681  -2.057  -0.001  1.00  0.00    -0.069 N 
ATOM      4  H21 UNL     1      -0.120  -2.484   0.465  1.00  0.00     0.277 HD
ATOM      5  H22 UNL     1       1.095  -2.917  -0.360  1.00  0.00     0.277 HD
HETATM    6  C4  UNL     1       0.307  -1.133  -1.038  1.00  0.00     0.194 C 
HETATM    7  C5  UNL     1      -1.034  -1.555  -1.606  1.00  0.00     0.036 C 
HETATM    8  C6  UNL     1      -2.081  -0.888  -0.770  1.00  0.00     0.034 C 
HETATM    9  C7  UNL     1      -1.412   0.251  -0.028  1.00  0.00     0.129 C 
HETATM   10  C9  UNL     1       0.054   0.153  -0.282  1.00  0.00     0.069 C 
ENDROOT
BRANCH   1  11
HETATM   11  N1  UNL     1       1.850   1.092   1.108  1.00  0.00    -0.419 N 
HETATM   12  C1  UNL     1       2.832   1.272   0.112  1.00  0.00     0.140 C 
ATOM     13  H1  UNL     1       1.819   1.696   1.930  1.00  0.00     0.153 HD
ENDBRANCH   1  11
BRANCH   9  14
HETATM   14  O1  UNL     1      -1.942   1.467  -0.465  1.00  0.00    -0.390 OA
HETATM   15  C8  UNL     1      -2.537   2.171   0.575  1.00  0.00     0.202 C 
ENDBRANCH   9  14
TORSDOF 2
