REMARK  5 active torsions:
REMARK  status: ('A' for Active; 'I' for Inactive)
REMARK    1  A    between atoms: C4_4  and  C5_5 
REMARK    2  A    between atoms: C5_5  and  C6_6 
REMARK    3  A    between atoms: C8_14  and  C9_15 
REMARK    4  A    between atoms: C9_15  and  O2_16 
REMARK    5  A    between atoms: N3_18  and  O3_20 
ROOT
HETATM    1  C6  UNL     1      -0.028  -0.948   0.650  1.00  0.00     0.015 C 
HETATM    2  N1  UNL     1       0.173  -2.043   0.035  1.00  0.00    -0.267 N 
ATOM      3  H1  UNL     1      -0.602  -2.698  -0.072  1.00  0.00     0.194 HD
HETATM    4  O1  UNL     1       1.377  -2.367  -0.481  1.00  0.00    -0.224 OA
HETATM    5  C7  UNL     1       2.456  -1.534  -0.371  1.00  0.00     0.152 C 
HETATM    6  N2  UNL     1       3.679  -1.948  -0.474  1.00  0.00    -0.381 N 
ATOM      7  H21 UNL     1       4.484  -1.327  -0.392  1.00  0.00     0.158 HD
ATOM      8  H22 UNL     1       3.860  -2.937  -0.644  1.00  0.00     0.158 HD
HETATM    9  C8  UNL     1       2.193  -0.096  -0.124  1.00  0.00     0.144 C 
HETATM   10  C10 UNL     1       1.057   0.030   0.833  1.00  0.00     0.076 C 
ENDROOT
BRANCH   9  11
HETATM   11  C9  UNL     1       3.419   0.536   0.412  1.00  0.00     0.147 C 
HETATM   12  N3  UNL     1       3.955   1.498  -0.244  1.00  0.00    -0.250 N 
ATOM     13  H3  UNL     1       4.800   1.928   0.132  1.00  0.00     0.196 HD
BRANCH  11  14
HETATM   14  O2  UNL     1       3.961   0.096   1.582  1.00  0.00    -0.347 OA
ATOM     15  H2  UNL     1       4.748   0.502   1.926  1.00  0.00     0.219 HD
ENDBRANCH  11  14
BRANCH  12  16
HETATM   16  O3  UNL     1       3.456   1.973  -1.413  1.00  0.00    -0.288 OA
ATOM     17  H3  UNL     1       3.853   2.686  -1.899  1.00  0.00     0.244 HD
ENDBRANCH  12  16
ENDBRANCH   9  11
BRANCH   1  18
HETATM   18  C5  UNL     1      -1.364  -0.648   1.191  1.00  0.00     0.081 C 
BRANCH  18  19
HETATM   19  C4  UNL     1      -1.941   0.596   0.607  1.00  0.00    -0.019 C 
HETATM   20  C2  UNL     1      -3.066   0.496  -0.043  1.00  0.00    -0.091 C 
HETATM   21  C1  UNL     1      -3.750  -0.796  -0.199  1.00  0.00     0.042 C 
HETATM   22  C3  UNL     1      -3.670   1.705  -0.638  1.00  0.00     0.042 C 
ENDBRANCH  18  19
ENDBRANCH   1  18
TORSDOF 5
