REMARK  3 active torsions:
REMARK  status: ('A' for Active; 'I' for Inactive)
REMARK       I    between atoms: C1_2  and  N1_3 
REMARK    1  A    between atoms: C1_2  and  C8_11 
REMARK    2  A    between atoms: N1_3  and  C2_5 
REMARK    3  A    between atoms: N2_15  and  C12_16 
ROOT
HETATM    1  C8  UNL     1       0.232  -1.152  -1.414  1.00  0.00     0.080 C 
HETATM    2  C9  UNL     1      -0.451  -1.733  -0.190  1.00  0.00     0.019 C 
HETATM    3  C10 UNL     1      -1.827  -2.260  -0.517  1.00  0.00     0.045 C 
HETATM    4  C11 UNL     1      -2.654  -1.220  -1.267  1.00  0.00     0.058 C 
HETATM    5  N2  UNL     1      -2.482   0.011  -0.617  1.00  0.00    -0.389 N 
HETATM    6  C17 UNL     1      -1.312   0.764  -0.864  1.00  0.00     0.123 C 
HETATM    7  C18 UNL     1      -0.345   0.159  -1.831  1.00  0.00     0.034 C 
ENDROOT
BRANCH   1   8
HETATM    8  C1  UNL     1       1.657  -0.991  -1.135  1.00  0.00     0.222 C 
HETATM    9  O1  UNL     1       2.503  -1.601  -1.834  1.00  0.00    -0.273 OA
HETATM   10  N1  UNL     1       2.124  -0.161  -0.091  1.00  0.00    -0.356 N 
ATOM     11  H1  UNL     1       1.432   0.333   0.473  1.00  0.00     0.162 HD
BRANCH  10  12
HETATM   12  C2  UNL     1       3.520   0.032   0.227  1.00  0.00     0.084 C 
HETATM   13  C3  UNL     1       3.968   1.454  -0.023  1.00  0.00     0.025 C 
HETATM   14  C4  UNL     1       5.479   1.456   0.072  1.00  0.00     0.002 C 
HETATM   15  C5  UNL     1       6.034   0.174   0.611  1.00  0.00     0.000 C 
HETATM   16  C6  UNL     1       5.333  -0.356   1.817  1.00  0.00     0.002 C 
HETATM   17  C7  UNL     1       3.832  -0.322   1.654  1.00  0.00     0.025 C 
ENDBRANCH  10  12
ENDBRANCH   1   8
BRANCH   5  18
HETATM   18  C12 UNL     1      -3.549   0.611   0.050  1.00  0.00     0.083 C 
HETATM   19  C13 UNL     1      -4.736   0.999  -0.796  1.00  0.00     0.025 C 
HETATM   20  C14 UNL     1      -5.691   1.502   0.298  1.00  0.00     0.002 C 
HETATM   21  C15 UNL     1      -5.376   0.632   1.516  1.00  0.00     0.002 C 
HETATM   22  C16 UNL     1      -4.199  -0.235   1.120  1.00  0.00     0.025 C 
ENDBRANCH   5  18
TORSDOF 3
