REMARK  4 active torsions:
REMARK  status: ('A' for Active; 'I' for Inactive)
REMARK    1  A    between atoms: C1_2  and  C2_3 
REMARK       I    between atoms: C1_2  and  N2_9 
REMARK    2  A    between atoms: C2_3  and  N1_4 
REMARK    3  A    between atoms: C7_11  and  O2_12 
REMARK    4  A    between atoms: C7_11  and  C8_14 
ROOT
HETATM    1  O1  UNL     1       2.242   1.570  -2.012  1.00  0.00    -0.271 OA
HETATM    2  C1  UNL     1       1.809   1.245  -0.879  1.00  0.00     0.251 C 
HETATM    3  N2  UNL     1       0.402   1.132  -0.727  1.00  0.00    -0.309 N 
ATOM      4  H2  UNL     1      -0.179   1.968  -0.787  1.00  0.00     0.170 HD
HETATM    5  C7  UNL     1      -0.153  -0.013  -0.514  1.00  0.00     0.127 C 
ENDROOT
BRANCH   5   6
HETATM    6  O2  UNL     1       0.604  -1.171  -0.427  1.00  0.00    -0.349 OA
ATOM      7  H2  UNL     1       0.195  -2.014  -0.270  1.00  0.00     0.219 HD
ENDBRANCH   5   6
BRANCH   5   8
HETATM    8  C8  UNL     1      -1.619  -0.146  -0.353  1.00  0.00     0.026 C 
HETATM    9  C9  UNL     1      -2.207  -1.066  -1.419  1.00  0.00     0.022 C 
HETATM   10  C10 UNL     1      -3.685  -1.139  -1.227  1.00  0.00    -0.013 C 
HETATM   11  C11 UNL     1      -4.085  -1.629   0.137  1.00  0.00     0.009 C 
HETATM   12  C15 UNL     1      -4.280   0.224  -1.443  1.00  0.00     0.009 C 
HETATM   13  C12 UNL     1      -3.466  -0.713   1.168  1.00  0.00    -0.013 C 
HETATM   14  C13 UNL     1      -4.030   0.669   1.010  1.00  0.00     0.009 C 
HETATM   15  C17 UNL     1      -1.976  -0.744   0.987  1.00  0.00     0.022 C 
HETATM   16  C14 UNL     1      -3.727   1.158  -0.393  1.00  0.00    -0.013 C 
HETATM   17  C16 UNL     1      -2.241   1.209  -0.548  1.00  0.00     0.022 C 
ENDBRANCH   5   8
BRANCH   2  18
HETATM   18  C2  UNL     1       2.667   0.980   0.276  1.00  0.00     0.374 C 
BRANCH  18  19
HETATM   19  N1  UNL     1       4.070   1.125   0.006  1.00  0.00     0.097 N 
HETATM   20  C3  UNL     1       4.795   0.836   1.224  1.00  0.00     0.273 C 
HETATM   21  C4  UNL     1       6.088   0.204   0.766  1.00  0.00     0.032 C 
HETATM   22  C5  UNL     1       5.606  -0.643  -0.398  1.00  0.00     0.032 C 
HETATM   23  C6  UNL     1       4.564   0.264  -1.020  1.00  0.00     0.273 C 
ENDBRANCH  18  19
ENDBRANCH   2  18
TORSDOF 4
