REMARK  3 active torsions:
REMARK  status: ('A' for Active; 'I' for Inactive)
REMARK    1  A    between atoms: N3_4  and  N4_6 
REMARK    2  A    between atoms: N4_6  and  C2_8 
REMARK    3  A    between atoms: N6_13  and  N7_14 
ROOT
HETATM    1  C2  UNL     1       0.582   0.280   0.519  1.00  0.00     0.717 A 
HETATM    2  N5  UNL     1       1.026  -0.965   0.451  1.00  0.00    -0.136 N 
ATOM      3  H5  UNL     1       0.503  -1.814   0.665  1.00  0.00     0.189 HD
HETATM    4  C3  UNL     1       2.313  -0.884   0.041  1.00  0.00     0.375 A 
HETATM    5  O1  UNL     1       3.063  -1.865  -0.140  1.00  0.00    -0.243 OA
HETATM    6  N6  UNL     1       2.608   0.425  -0.127  1.00  0.00    -0.134 N 
HETATM    7  N8  UNL     1       1.556   1.154   0.163  1.00  0.00    -0.105 N 
ATOM      8  H8  UNL     1       1.485   2.171   0.128  1.00  0.00     0.208 HD
ENDROOT
BRANCH   1   9
HETATM    9  N4  UNL     1      -0.584   0.648   0.866  1.00  0.00    -0.128 N 
ATOM     10  H4  UNL     1      -0.812   1.642   0.882  1.00  0.00     0.205 HD
BRANCH   9  11
HETATM   11  N3  UNL     1      -1.556  -0.284   1.225  1.00  0.00    -0.262 N 
HETATM   12  C1  UNL     1      -2.677  -0.275   0.616  1.00  0.00     0.216 C 
HETATM   13  N1  UNL     1      -2.922   0.666  -0.404  1.00  0.00    -0.065 NA
HETATM   14  N2  UNL     1      -3.683  -1.205   0.955  1.00  0.00    -0.065 NA
ATOM     15  H3  UNL     1      -1.374  -0.963   1.964  1.00  0.00     0.190 HD
ENDBRANCH   9  11
ENDBRANCH   1   9
BRANCH   6  16
HETATM   16  N7  UNL     1       3.855   0.876  -0.546  1.00  0.00    -0.319 N 
ATOM     17  H72 UNL     1       4.673   0.309  -0.771  1.00  0.00     0.179 HD
ATOM     18  H71 UNL     1       4.078   1.863  -0.673  1.00  0.00     0.179 HD
ENDBRANCH   6  16
TORSDOF 3
