REMARK  2 active torsions:
REMARK  status: ('A' for Active; 'I' for Inactive)
REMARK       I    between atoms: N1_2  and  C2_3 
REMARK    1  A    between atoms: N1_2  and  C3_8 
REMARK    2  A    between atoms: C3_8  and  N4_9 
ROOT
HETATM    1  C3  UNL     1       0.588  -0.261   0.281  1.00  0.00     0.362 C 
HETATM    2  N5  UNL     1       1.617   0.737   0.489  1.00  0.00    -0.285 N 
ATOM      3  H5  UNL     1       1.704   1.343   1.305  1.00  0.00     0.169 HD
HETATM    4  C4  UNL     1       2.488   0.728  -0.639  1.00  0.00     0.326 C 
HETATM    5  O1  UNL     1       3.303   1.656  -0.963  1.00  0.00    -0.247 OA
HETATM    6  N6  UNL     1       2.259  -0.501  -1.308  1.00  0.00    -0.274 N 
ATOM      7  H6  UNL     1       2.731  -0.809  -2.158  1.00  0.00     0.173 HD
HETATM    8  C5  UNL     1       1.271  -1.232  -0.608  1.00  0.00     0.305 C 
HETATM    9  O2  UNL     1       1.005  -2.468  -0.702  1.00  0.00    -0.266 OA
ENDROOT
BRANCH   1  10
HETATM   10  N1  UNL     1      -0.581   0.311  -0.319  1.00  0.00    -0.302 N 
HETATM   11  C1  UNL     1      -0.464   1.052  -1.539  1.00  0.00     0.157 C 
HETATM   12  C2  UNL     1      -1.833   0.135   0.300  1.00  0.00     0.187 C 
HETATM   13  N2  UNL     1      -2.185   1.007   1.205  1.00  0.00    -0.374 N 
HETATM   14  N3  UNL     1      -2.704  -0.928  -0.016  1.00  0.00    -0.064 NA
ATOM     15  H22 UNL     1      -1.555   1.776   1.434  1.00  0.00     0.158 HD
ATOM     16  H21 UNL     1      -3.092   0.879   1.654  1.00  0.00     0.158 HD
ENDBRANCH   1  10
BRANCH   1  17
HETATM   17  N4  UNL     1       0.233  -0.948   1.498  1.00  0.00    -0.024 N 
ATOM     18  H43 UNL     1      -0.271  -0.342   2.145  1.00  0.00     0.280 HD
ATOM     19  H42 UNL     1      -0.497  -1.644   1.345  1.00  0.00     0.280 HD
ATOM     20  H41 UNL     1       1.065  -1.355   1.925  1.00  0.00     0.280 HD
ENDBRANCH   1  17
TORSDOF 2
