REMARK  5 active torsions:
REMARK  status: ('A' for Active; 'I' for Inactive)
REMARK    1  A    between atoms: C2_2  and  O1_4 
REMARK    2  A    between atoms: C2_2  and  C4_6 
REMARK    3  A    between atoms: C4_6  and  C5_7 
REMARK    4  A    between atoms: C5_7  and  N1_8 
REMARK    5  A    between atoms: N1_8  and  C6_10 
ROOT
HETATM    1  C6  UNL     1      -0.734  -0.638   0.093  1.00  0.00     0.026 C 
HETATM    2  C7  UNL     1      -0.886   0.304   1.269  1.00  0.00     0.035 C 
HETATM    3  C8  UNL     1      -2.293   0.782   1.430  1.00  0.00    -0.012 C 
HETATM    4  C9  UNL     1      -2.583   1.855   0.423  1.00  0.00     0.005 C 
HETATM    5  C10 UNL     1      -3.252   1.347  -0.815  1.00  0.00     0.005 C 
HETATM    6  C11 UNL     1      -2.622   0.117  -1.399  1.00  0.00    -0.012 C 
HETATM    7  C12 UNL     1      -3.405  -1.078  -0.940  1.00  0.00     0.009 C 
HETATM    8  C13 UNL     1      -3.002  -1.435   0.474  1.00  0.00    -0.012 C 
HETATM    9  C14 UNL     1      -3.260  -0.344   1.450  1.00  0.00     0.009 C 
HETATM   10  C15 UNL     1      -1.557  -1.864   0.414  1.00  0.00     0.035 C 
HETATM   11  C16 UNL     1      -1.153  -0.001  -1.203  1.00  0.00     0.035 C 
ENDROOT
BRANCH   1  12
HETATM   12  N1  UNL     1       0.631  -1.079   0.012  1.00  0.00    -0.412 N 
ATOM     13  H1  UNL     1       0.895  -2.053   0.158  1.00  0.00     0.154 HD
BRANCH  12  14
HETATM   14  C5  UNL     1       1.593  -0.072  -0.285  1.00  0.00     0.117 C 
BRANCH  14  15
HETATM   15  C4  UNL     1       2.969  -0.697  -0.134  1.00  0.00     0.056 C 
BRANCH  15  16
HETATM   16  C2  UNL     1       4.091   0.255  -0.400  1.00  0.00     0.052 C 
HETATM   17  C1  UNL     1       5.376  -0.547  -0.222  1.00  0.00     0.045 C 
HETATM   18  C3  UNL     1       4.170   1.345   0.675  1.00  0.00     0.045 C 
BRANCH  16  19
HETATM   19  O1  UNL     1       4.108   0.802  -1.666  1.00  0.00    -0.391 OA
ATOM     20  H1  UNL     1       3.308   1.302  -1.777  1.00  0.00     0.210 HD
ENDBRANCH  16  19
ENDBRANCH  15  16
ENDBRANCH  14  15
ENDBRANCH  12  14
ENDBRANCH   1  12
TORSDOF 5
