REMARK  5 active torsions:
REMARK  status: ('A' for Active; 'I' for Inactive)
REMARK    1  A    between atoms: C2_2  and  N1_3 
REMARK       I    between atoms: C3_5  and  N2_6 
REMARK       I    between atoms: C3_5  and  N4_11 
REMARK    2  A    between atoms: N2_6  and  N3_8 
REMARK    3  A    between atoms: N4_11  and  C4_13 
REMARK    4  A    between atoms: C5_14  and  O1_15 
REMARK    5  A    between atoms: C5_14  and  N5_17 
REMARK       I    between atoms: N6_20  and  C8_21 
ROOT
HETATM    1  C4  UNL     1      -1.765  -1.068  -0.192  1.00  0.00     0.161 C 
HETATM    2  C5  UNL     1      -0.517  -1.612  -0.648  1.00  0.00     0.154 C 
ENDROOT
BRANCH   2   3
HETATM    3  O1  UNL     1      -0.542  -2.896  -0.982  1.00  0.00    -0.345 OA
ATOM      4  H1  UNL     1       0.284  -3.256  -1.284  1.00  0.00     0.219 HD
ENDBRANCH   2   3
BRANCH   2   5
HETATM    5  N5  UNL     1       0.758  -1.055  -0.817  1.00  0.00    -0.358 N 
HETATM    6  C6  UNL     1       1.822  -1.936  -1.344  1.00  0.00     0.145 C 
HETATM    7  C7  UNL     1       3.048  -1.888  -0.460  1.00  0.00     0.145 C 
HETATM    8  N6  UNL     1       3.423  -0.506  -0.206  1.00  0.00    -0.353 N 
HETATM    9  C8  UNL     1       4.601  -0.249   0.508  1.00  0.00     0.185 C 
HETATM   10  C10 UNL     1       2.610   0.591  -0.668  1.00  0.00     0.145 C 
HETATM   11  N7  UNL     1       4.732  -0.838   1.801  1.00  0.00    -0.064 NA
HETATM   12  N8  UNL     1       5.582   0.479   0.099  1.00  0.00    -0.369 N 
HETATM   13  C9  UNL     1       5.635   1.157  -1.168  1.00  0.00     0.148 C 
ATOM     14  H8  UNL     1       6.383   0.582   0.722  1.00  0.00     0.161 HD
HETATM   15  C11 UNL     1       1.127   0.290  -0.518  1.00  0.00     0.145 C 
ENDBRANCH   2   5
BRANCH   1  16
HETATM   16  N4  UNL     1      -1.950   0.267   0.187  1.00  0.00    -0.197 N 
HETATM   17  C3  UNL     1      -3.260   0.713   0.688  1.00  0.00     0.692 C 
HETATM   18  N1  UNL     1      -4.235   0.833  -0.111  1.00  0.00    -0.225 N 
HETATM   19  N2  UNL     1      -3.322   0.979   2.067  1.00  0.00    -0.139 N 
ATOM     20  H1  UNL     1      -4.058   0.609  -1.090  1.00  0.00     0.177 HD
ATOM     21  H2  UNL     1      -3.976   0.465   2.657  1.00  0.00     0.205 HD
ATOM     22  H4  UNL     1      -1.178   0.930   0.116  1.00  0.00     0.183 HD
BRANCH  18  23
HETATM   23  C2  UNL     1      -5.557   1.251   0.224  1.00  0.00     0.134 C 
HETATM   24  C1  UNL     1      -6.592   0.186  -0.021  1.00  0.00     0.027 C 
ENDBRANCH  18  23
BRANCH  19  25
HETATM   25  N3  UNL     1      -2.493   1.940   2.623  1.00  0.00    -0.331 N 
ATOM     26  H32 UNL     1      -1.844   2.445   2.019  1.00  0.00     0.177 HD
ATOM     27  H31 UNL     1      -2.538   2.133   3.624  1.00  0.00     0.177 HD
ENDBRANCH  19  25
ENDBRANCH   1  16
TORSDOF 5
