REMARK  5 active torsions:
REMARK  status: ('A' for Active; 'I' for Inactive)
REMARK    1  A    between atoms: N3_9  and  C3_10 
REMARK    2  A    between atoms: C3_10  and  C4_11 
REMARK    3  A    between atoms: C4_11  and  C5_12 
REMARK    4  A    between atoms: N4_18  and  C11_19 
REMARK    5  A    between atoms: C11_19  and  C12_20 
ROOT
HETATM    1  N1  UNL     1      -1.749  -2.489   0.633  1.00  0.00    -0.387 N 
ATOM      2  H11 UNL     1      -2.590  -1.915   0.568  1.00  0.00     0.157 HD
ATOM      3  H12 UNL     1      -1.775  -3.507   0.688  1.00  0.00     0.157 HD
HETATM    4  C1  UNL     1      -0.607  -1.901   0.644  1.00  0.00     0.115 C 
HETATM    5  N2  UNL     1       0.567  -2.702   0.735  1.00  0.00    -0.297 N 
ATOM      6  H2  UNL     1       0.532  -3.675   1.038  1.00  0.00     0.172 HD
HETATM    7  C2  UNL     1       1.784  -2.074   0.382  1.00  0.00     0.324 C 
HETATM    8  O1  UNL     1       2.838  -2.754   0.452  1.00  0.00    -0.247 OA
HETATM    9  N3  UNL     1       1.818  -0.720  -0.036  1.00  0.00    -0.327 N 
HETATM   10  C8  UNL     1       0.652   0.113  -0.075  1.00  0.00     0.131 C 
HETATM   11  C9  UNL     1       0.172   0.358  -1.498  1.00  0.00     0.058 C 
HETATM   12  C10 UNL     1      -1.203   0.919  -1.216  1.00  0.00     0.275 C 
HETATM   13  N4  UNL     1      -1.721  -0.011  -0.225  1.00  0.00     0.102 N 
HETATM   14  C16 UNL     1      -0.570  -0.430   0.565  1.00  0.00     0.312 C 
ENDROOT
BRANCH  13  15
HETATM   15  C11 UNL     1      -2.700   0.650   0.628  1.00  0.00     0.280 C 
BRANCH  15  16
HETATM   16  C12 UNL     1      -3.913   1.007  -0.153  1.00  0.00     0.040 C 
HETATM   17  C13 UNL     1      -4.576  -0.189  -0.743  1.00  0.00     0.035 C 
HETATM   18  C14 UNL     1      -6.035  -0.002  -0.327  1.00  0.00     0.168 C 
HETATM   19  O2  UNL     1      -5.948   0.640   0.920  1.00  0.00    -0.391 OA
HETATM   20  C15 UNL     1      -4.946   1.574   0.830  1.00  0.00     0.173 C 
ENDBRANCH  15  16
ENDBRANCH  13  15
BRANCH   9  21
HETATM   21  C3  UNL     1       3.081  -0.170  -0.444  1.00  0.00     0.128 C 
BRANCH  21  22
HETATM   22  C4  UNL     1       3.872   0.456   0.684  1.00  0.00     0.024 C 
BRANCH  22  23
HETATM   23  C5  UNL     1       5.163   0.986   0.072  1.00  0.00    -0.013 A 
HETATM   24  C6  UNL     1       6.060  -0.022  -0.600  1.00  0.00     0.005 A 
HETATM   25  C7  UNL     1       6.480   0.648   0.678  1.00  0.00     0.005 A 
ENDBRANCH  22  23
ENDBRANCH  21  22
ENDBRANCH   9  21
TORSDOF 5
