REMARK  1 active torsions:
REMARK  status: ('A' for Active; 'I' for Inactive)
REMARK       I    between atoms: N1_1  and  C1_5 
REMARK       I    between atoms: C1_5  and  N2_6 
REMARK       I    between atoms: C1_5  and  N3_10 
REMARK    1  A    between atoms: N3_10  and  C2_12 
ROOT
HETATM    1  C2  UNL     1      -0.058  -0.628   0.241  1.00  0.00     0.139 A 
HETATM    2  N4  UNL     1      -0.405  -1.938   0.503  1.00  0.00    -0.293 N 
ATOM      3  H4  UNL     1       0.325  -2.588   0.795  1.00  0.00     0.172 HD
HETATM    4  C3  UNL     1      -1.648  -2.387   0.391  1.00  0.00     0.327 A 
HETATM    5  O1  UNL     1      -1.954  -3.607   0.638  1.00  0.00    -0.247 OA
HETATM    6  N5  UNL     1      -2.593  -1.520   0.007  1.00  0.00    -0.292 N 
ATOM      7  H5  UNL     1      -3.552  -1.855  -0.082  1.00  0.00     0.172 HD
HETATM    8  C4  UNL     1      -2.337  -0.228  -0.267  1.00  0.00     0.141 A 
HETATM    9  N6  UNL     1      -3.104   0.805  -0.661  1.00  0.00    -0.337 N 
ATOM     10  H6  UNL     1      -4.109   0.767  -0.832  1.00  0.00     0.168 HD
HETATM   11  C5  UNL     1      -2.335   1.886  -0.791  1.00  0.00     0.182 A 
HETATM   12  N7  UNL     1      -1.051   1.575  -0.483  1.00  0.00    -0.346 N 
ATOM     13  H7  UNL     1      -0.248   2.204  -0.494  1.00  0.00     0.167 HD
HETATM   14  C6  UNL     1      -1.052   0.249  -0.155  1.00  0.00     0.122 A 
ENDROOT
BRANCH   1  15
HETATM   15  N3  UNL     1       1.125  -0.285   0.369  1.00  0.00    -0.325 N 
HETATM   16  C1  UNL     1       2.013   0.751   0.272  1.00  0.00     0.481 C 
HETATM   17  N1  UNL     1       2.474   1.080  -1.071  1.00  0.00    -0.033 N 
HETATM   18  N2  UNL     1       3.214   0.408   1.095  1.00  0.00    -0.033 N 
ATOM     19  H13 UNL     1       3.182   1.814  -1.078  1.00  0.00     0.278 HD
ATOM     20  H12 UNL     1       3.042   0.342  -1.487  1.00  0.00     0.278 HD
ATOM     21  H11 UNL     1       1.655   1.314  -1.632  1.00  0.00     0.278 HD
ATOM     22  H23 UNL     1       3.782  -0.330   0.679  1.00  0.00     0.278 HD
ATOM     23  H22 UNL     1       3.922   1.142   1.088  1.00  0.00     0.278 HD
ATOM     24  H21 UNL     1       2.891   0.178   2.035  1.00  0.00     0.278 HD
ATOM     25  H3  UNL     1       1.649  -1.108   0.667  1.00  0.00     0.165 HD
ENDBRANCH   1  15
TORSDOF 1
