REMARK  5 active torsions:
REMARK  status: ('A' for Active; 'I' for Inactive)
REMARK    1  A    between atoms: C2_2  and  C3_3 
REMARK    2  A    between atoms: C7_8  and  O2_9 
REMARK    3  A    between atoms: C8_11  and  C9_12 
REMARK    4  A    between atoms: C13_16  and  O3_17 
REMARK    5  A    between atoms: C14_19  and  C15_20 
ROOT
HETATM    1  C3  UNL     1       3.261   0.964   0.066  1.00  0.00     0.057 A 
HETATM    2  C4  UNL     1       2.750   1.899   0.935  1.00  0.00     0.088 A 
HETATM    3  C5  UNL     1       1.392   1.924   1.181  1.00  0.00     0.190 A 
HETATM    4  O1  UNL     1       0.946   2.789   1.980  1.00  0.00    -0.287 OA
HETATM    5  C6  UNL     1       0.593   1.008   0.545  1.00  0.00     0.083 A 
HETATM    6  C7  UNL     1      -0.763   0.999   0.763  1.00  0.00     0.092 A 
HETATM    7  C8  UNL     1      -1.601   0.063   0.118  1.00  0.00     0.018 A 
HETATM    8  C13 UNL     1      -1.012  -0.850  -0.746  1.00  0.00     0.092 A 
HETATM    9  C14 UNL     1       0.388  -0.835  -0.965  1.00  0.00     0.078 A 
HETATM   10  C17 UNL     1       1.179   0.108  -0.306  1.00  0.00     0.109 A 
HETATM   11  O5  UNL     1       2.492   0.099  -0.531  1.00  0.00    -0.313 OA
ENDROOT
BRANCH   7  12
HETATM   12  C9  UNL     1      -3.029   0.068   0.353  1.00  0.00    -0.019 C 
HETATM   13  C10 UNL     1      -3.722   1.355  -0.029  1.00  0.00     0.019 C 
HETATM   14  C11 UNL     1      -3.820  -1.048  -0.263  1.00  0.00     0.019 C 
HETATM   15  C12 UNL     1      -3.209  -0.040   1.884  1.00  0.00     0.019 C 
ENDBRANCH   7  12
BRANCH   6  16
HETATM   16  O2  UNL     1      -1.404   1.847   1.579  1.00  0.00    -0.359 OA
ATOM     17  H2  UNL     1      -2.342   1.841   1.730  1.00  0.00     0.217 HD
ENDBRANCH   6  16
BRANCH   8  18
HETATM   18  O3  UNL     1      -1.674  -1.783  -1.419  1.00  0.00    -0.359 OA
ATOM     19  H3  UNL     1      -1.271  -2.408  -2.010  1.00  0.00     0.217 HD
ENDBRANCH   8  18
BRANCH   9  20
HETATM   20  C15 UNL     1       1.050  -1.756  -1.846  1.00  0.00     0.161 C 
HETATM   21  C16 UNL     1       0.344  -2.817  -2.618  1.00  0.00     0.097 C 
HETATM   22  O4  UNL     1       2.322  -1.662  -1.979  1.00  0.00    -0.293 OA
ENDBRANCH   9  20
BRANCH   1  23
HETATM   23  C2  UNL     1       4.746   0.993  -0.155  1.00  0.00     0.061 C 
HETATM   24  C1  UNL     1       5.449   0.099   0.845  1.00  0.00     0.012 C 
ENDBRANCH   1  23
TORSDOF 5
