REMARK  4 active torsions:
REMARK  status: ('A' for Active; 'I' for Inactive)
REMARK    1  A    between atoms: C4_5  and  C5_6 
REMARK    2  A    between atoms: C10_12  and  N2_13 
REMARK       I    between atoms: N2_13  and  C11_15 
REMARK    3  A    between atoms: C11_15  and  C12_17 
REMARK    4  A    between atoms: C15_20  and  N3_21 
ROOT
HETATM    1  N2  UNL     1      -0.527  -0.627  -0.547  1.00  0.00    -0.321 N 
ATOM      2  H2  UNL     1      -1.177  -1.281  -0.982  1.00  0.00     0.169 HD
HETATM    3  C11 UNL     1      -1.097   0.310   0.311  1.00  0.00     0.256 C 
HETATM    4  O1  UNL     1      -0.429   1.172   0.911  1.00  0.00    -0.267 OA
ENDROOT
BRANCH   1   5
HETATM    5  C10 UNL     1       0.829  -0.791  -0.894  1.00  0.00     0.060 A 
HETATM    6  C1  UNL     1       1.217  -1.811  -1.792  1.00  0.00     0.073 A 
HETATM    7  N1  UNL     1       0.225  -2.665  -2.336  1.00  0.00    -0.100 NA
HETATM    8  C2  UNL     1       2.520  -2.017  -2.165  1.00  0.00     0.030 A 
HETATM    9  C3  UNL     1       3.508  -1.216  -1.663  1.00  0.00     0.015 A 
HETATM   10  C4  UNL     1       3.177  -0.218  -0.792  1.00  0.00    -0.017 A 
HETATM   11  C9  UNL     1       1.868  -0.027  -0.430  1.00  0.00     0.044 A 
BRANCH  10  12
HETATM   12  C5  UNL     1       4.257   0.644  -0.255  1.00  0.00     0.015 A 
HETATM   13  C6  UNL     1       4.140   1.692   0.624  1.00  0.00     0.020 A 
HETATM   14  C7  UNL     1       5.263   2.329   0.970  1.00  0.00     0.008 A 
HETATM   15  C8  UNL     1       6.436   1.889   0.424  1.00  0.00     0.050 A 
HETATM   16  S1  UNL     1       5.932   0.591  -0.561  1.00  0.00    -0.101 SA
ENDBRANCH  10  12
ENDBRANCH   1   5
BRANCH   3  17
HETATM   17  C12 UNL     1      -2.554   0.287   0.525  1.00  0.00     0.032 A 
HETATM   18  C13 UNL     1      -3.174   1.405   1.036  1.00  0.00     0.019 A 
HETATM   19  C14 UNL     1      -4.539   1.419   1.257  1.00  0.00     0.037 A 
HETATM   20  C15 UNL     1      -5.293   0.295   0.962  1.00  0.00     0.102 A 
HETATM   21  C16 UNL     1      -4.692  -0.816   0.458  1.00  0.00     0.037 A 
HETATM   22  C17 UNL     1      -3.312  -0.811   0.240  1.00  0.00     0.019 A 
BRANCH  20  23
HETATM   23  N3  UNL     1      -6.692   0.288   1.182  1.00  0.00    -0.116 N 
HETATM   24  O2  UNL     1      -7.385  -0.695   0.929  1.00  0.00    -0.532 OA
HETATM   25  O3  UNL     1      -7.324   1.414   1.698  1.00  0.00    -0.532 OA
ENDBRANCH  20  23
ENDBRANCH   3  17
TORSDOF 4
