REMARK  7 active torsions:
REMARK  status: ('A' for Active; 'I' for Inactive)
REMARK    1  A    between atoms: C2_2  and  O1_5 
REMARK    2  A    between atoms: O1_5  and  C5_6 
REMARK       I    between atoms: C5_6  and  N1_8 
REMARK    3  A    between atoms: N1_8  and  C6_10 
REMARK    4  A    between atoms: C9_13  and  N2_14 
REMARK       I    between atoms: N2_14  and  C10_16 
REMARK    5  A    between atoms: C10_16  and  C11_18 
REMARK    6  A    between atoms: C18_25  and  N3_26 
REMARK    7  A    between atoms: N3_26  and  O4_28 
ROOT
HETATM    1  C6  UNL     1       0.923   0.619  -0.159  1.00  0.00     0.065 A 
HETATM    2  C7  UNL     1       0.413  -0.545   0.371  1.00  0.00     0.034 A 
HETATM    3  C8  UNL     1      -0.949  -0.757   0.508  1.00  0.00     0.032 A 
HETATM    4  C9  UNL     1      -1.899   0.196   0.117  1.00  0.00     0.037 A 
HETATM    5  C17 UNL     1      -1.390   1.344  -0.406  1.00  0.00     0.063 A 
HETATM    6  C18 UNL     1      -0.028   1.564  -0.546  1.00  0.00     0.083 A 
ENDROOT
BRANCH   4   7
HETATM    7  N2  UNL     1      -3.257  -0.125   0.318  1.00  0.00    -0.323 N 
HETATM    8  C10 UNL     1      -4.331   0.552  -0.258  1.00  0.00     0.256 C 
HETATM    9  O3  UNL     1      -4.232   1.555  -1.049  1.00  0.00    -0.267 OA
ATOM     10  H2  UNL     1      -3.470  -0.912   0.931  1.00  0.00     0.169 HD
BRANCH   8  11
HETATM   11  C11 UNL     1      -5.701   0.087   0.061  1.00  0.00     0.032 A 
HETATM   12  C12 UNL     1      -6.754   0.968  -0.057  1.00  0.00     0.017 A 
HETATM   13  C13 UNL     1      -8.011   0.543   0.225  1.00  0.00     0.001 A 
HETATM   14  C14 UNL     1      -8.289  -0.746   0.629  1.00  0.00     0.000 A 
HETATM   15  C15 UNL     1      -7.236  -1.621   0.745  1.00  0.00     0.001 A 
HETATM   16  C16 UNL     1      -5.931  -1.203   0.459  1.00  0.00     0.017 A 
ENDBRANCH   8  11
ENDBRANCH   4   7
BRANCH   6  17
HETATM   17  N3  UNL     1       0.429   2.798  -1.106  1.00  0.00    -0.267 N 
ATOM     18  H3  UNL     1       0.764   3.611  -0.589  1.00  0.00     0.194 HD
BRANCH  17  19
HETATM   19  O4  UNL     1       0.334   2.684  -2.450  1.00  0.00    -0.289 OA
ATOM     20  H4  UNL     1       0.638   3.504  -2.822  1.00  0.00     0.244 HD
ENDBRANCH  17  19
ENDBRANCH   6  17
BRANCH   1  21
HETATM   21  N1  UNL     1       2.283   0.903  -0.329  1.00  0.00    -0.300 N 
HETATM   22  C5  UNL     1       3.395   0.105  -0.014  1.00  0.00     0.366 C 
HETATM   23  O2  UNL     1       3.363  -1.026   0.486  1.00  0.00    -0.238 OA
ATOM     24  H1  UNL     1       2.495   1.813  -0.737  1.00  0.00     0.171 HD
BRANCH  22  25
HETATM   25  O1  UNL     1       4.702   0.577  -0.266  1.00  0.00    -0.294 OA
BRANCH  25  26
HETATM   26  C2  UNL     1       5.839  -0.200   0.039  1.00  0.00     0.061 C 
HETATM   27  C1  UNL     1       7.065   0.597  -0.353  1.00  0.00     0.046 C 
HETATM   28  C3  UNL     1       5.942  -0.442   1.545  1.00  0.00     0.046 C 
HETATM   29  C4  UNL     1       5.884  -1.500  -0.725  1.00  0.00     0.046 C 
ENDBRANCH  25  26
ENDBRANCH  22  25
ENDBRANCH   1  21
TORSDOF 7
