REMARK  7 active torsions:
REMARK  status: ('A' for Active; 'I' for Inactive)
REMARK    1  A    between atoms: C2_2  and  N1_4 
REMARK       I    between atoms: N1_4  and  C4_6 
REMARK    2  A    between atoms: C4_6  and  C5_8 
REMARK    3  A    between atoms: C5_8  and  C6_9 
REMARK       I    between atoms: C6_9  and  N2_11 
REMARK    4  A    between atoms: N2_11  and  C7_13 
REMARK    5  A    between atoms: C14_20  and  C15_21 
REMARK    6  A    between atoms: C20_28  and  C21_29 
REMARK    7  A    between atoms: C22_30  and  C23_31 
ROOT
HETATM    1  C6  UNL     1      -0.819   0.638  -0.023  1.00  0.00     0.236 C 
HETATM    2  O2  UNL     1      -0.792   1.214   1.097  1.00  0.00    -0.272 OA
HETATM    3  N2  UNL     1       0.404   0.120  -0.572  1.00  0.00    -0.355 N 
ATOM      4  H2  UNL     1       0.402  -0.351  -1.477  1.00  0.00     0.162 HD
ENDROOT
BRANCH   1   5
HETATM    5  C5  UNL     1      -2.113   0.534  -0.694  1.00  0.00     0.122 C 
HETATM    6  C18 UNL     1      -2.184   1.241  -2.016  1.00  0.00     0.030 C 
HETATM    7  C19 UNL     1      -3.642   1.604  -2.213  1.00  0.00     0.019 C 
HETATM    8  C20 UNL     1      -4.268   1.594  -0.839  1.00  0.00     0.067 C 
HETATM    9  C24 UNL     1      -3.172   1.211   0.104  1.00  0.00     0.046 C 
BRANCH   5  10
HETATM   10  C4  UNL     1      -2.396  -0.930  -0.873  1.00  0.00     0.236 C 
HETATM   11  N1  UNL     1      -2.488  -1.786   0.247  1.00  0.00    -0.356 N 
ATOM     12  H1  UNL     1      -2.362  -1.408   1.186  1.00  0.00     0.162 HD
HETATM   13  O1  UNL     1      -2.546  -1.369  -2.019  1.00  0.00    -0.272 OA
BRANCH  11  14
HETATM   14  C2  UNL     1      -2.760  -3.193   0.070  1.00  0.00     0.076 C 
HETATM   15  C1  UNL     1      -1.630  -4.011   0.706  1.00  0.00     0.032 C 
HETATM   16  C3  UNL     1      -4.072  -3.482   0.795  1.00  0.00     0.032 C 
ENDBRANCH  11  14
ENDBRANCH   5  10
BRANCH   8  17
HETATM   17  C21 UNL     1      -4.714   2.961  -0.542  1.00  0.00    -0.099 C 
HETATM   18  C22 UNL     1      -5.081   4.090  -0.318  1.00  0.00    -0.075 C 
BRANCH  18  19
HETATM   19  C23 UNL     1      -5.529   5.470  -0.071  1.00  0.00     0.315 C 
HETATM   20  F1  UNL     1      -4.910   6.289  -0.991  1.00  0.00    -0.242 F 
ENDBRANCH  18  19
ENDBRANCH   8  17
ENDBRANCH   1   5
BRANCH   3  21
HETATM   21  C7  UNL     1       1.616   0.268   0.155  1.00  0.00     0.092 C 
HETATM   22  C8  UNL     1       2.665   1.091  -0.551  1.00  0.00     0.010 C 
HETATM   23  C9  UNL     1       3.356   0.362  -1.659  1.00  0.00     0.011 C 
HETATM   24  C17 UNL     1       3.712   1.440   0.489  1.00  0.00     0.025 C 
HETATM   25  C10 UNL     1       4.050  -0.865  -1.111  1.00  0.00    -0.013 C 
HETATM   26  C11 UNL     1       2.942  -1.752  -0.547  1.00  0.00     0.011 C 
HETATM   27  C16 UNL     1       5.023  -0.559  -0.022  1.00  0.00     0.023 C 
HETATM   28  C12 UNL     1       2.239  -1.048   0.564  1.00  0.00     0.010 C 
HETATM   29  C13 UNL     1       3.257  -0.736   1.641  1.00  0.00     0.025 C 
HETATM   30  C14 UNL     1       4.314   0.204   1.077  1.00  0.00     0.040 C 
BRANCH  30  31
HETATM   31  C15 UNL     1       5.216   0.549   2.188  1.00  0.00     0.239 C 
HETATM   32  N3  UNL     1       5.931  -0.464   2.860  1.00  0.00    -0.061 NA
HETATM   33  O3  UNL     1       5.344   1.734   2.531  1.00  0.00    -0.276 OA
ENDBRANCH  30  31
ENDBRANCH   3  21
TORSDOF 7
