REMARK  3 active torsions:
REMARK  status: ('A' for Active; 'I' for Inactive)
REMARK    1  A    between atoms: N3_14  and  C11_15 
REMARK    2  A    between atoms: C11_15  and  C12_16 
REMARK    3  A    between atoms: C12_16  and  C13_17 
ROOT
HETATM    1  C1  UNL     1      -1.934   1.840  -0.528  1.00  0.00     0.037 C 
HETATM    2  C2  UNL     1      -1.923   0.427   0.064  1.00  0.00     0.021 C 
HETATM    3  C3  UNL     1      -3.369   0.161   0.517  1.00  0.00     0.037 C 
HETATM    4  C4  UNL     1      -0.983   0.411   1.183  1.00  0.00     0.055 C 
HETATM    5  C5  UNL     1       0.155  -0.549   1.166  1.00  0.00     0.086 C 
HETATM    6  C6  UNL     1      -0.307  -1.994   1.195  1.00  0.00     0.027 C 
HETATM    7  C7  UNL     1      -0.246  -2.398  -0.273  1.00  0.00     0.030 C 
HETATM    8  C8  UNL     1       0.514  -1.292  -0.992  1.00  0.00     0.120 C 
HETATM    9  C9  UNL     1      -0.455  -0.339  -1.708  1.00  0.00     0.208 C 
HETATM   10  C10 UNL     1      -0.569  -0.650  -3.116  1.00  0.00     0.086 C 
HETATM   11  N1  UNL     1      -0.657  -0.889  -4.227  1.00  0.00    -0.195 NA
HETATM   12  N2  UNL     1      -1.712  -0.476  -1.023  1.00  0.00    -0.396 N 
ATOM     13  H2  UNL     1      -2.407  -1.172  -1.295  1.00  0.00     0.155 HD
HETATM   14  N3  UNL     1       1.038  -0.546   0.093  1.00  0.00    -0.381 N 
ENDROOT
BRANCH  14  15
HETATM   15  C11 UNL     1       1.960   0.463  -0.137  1.00  0.00     0.064 C 
BRANCH  15  16
HETATM   16  C12 UNL     1       3.038   0.451   0.938  1.00  0.00     0.115 C 
BRANCH  16  17
HETATM   17  C13 UNL     1       4.000   1.574   0.604  1.00  0.00     0.357 C 
HETATM   18  F1  UNL     1       4.531   1.323  -0.647  1.00  0.00    -0.214 F 
HETATM   19  F2  UNL     1       3.240   2.741   0.523  1.00  0.00    -0.214 F 
ENDBRANCH  16  17
ENDBRANCH  15  16
ENDBRANCH  14  15
TORSDOF 3
