REMARK  4 active torsions:
REMARK  status: ('A' for Active; 'I' for Inactive)
REMARK    1  A    between atoms: C2_2  and  C3_5 
REMARK    2  A    between atoms: C3_5  and  N1_6 
REMARK    3  A    between atoms: N1_6  and  C4_8 
REMARK    4  A    between atoms: C7_11  and  N2_12 
ROOT
HETATM    1  C4  UNL     1       1.691   0.174  -0.614  1.00  0.00     0.077 C 
HETATM    2  C5  UNL     1       0.793  -1.038  -0.793  1.00  0.00     0.027 C 
HETATM    3  C6  UNL     1      -0.258  -1.188   0.264  1.00  0.00     0.038 C 
HETATM    4  C7  UNL     1      -1.051   0.038   0.560  1.00  0.00     0.223 C 
HETATM    5  C13 UNL     1      -0.266   1.296   0.433  1.00  0.00     0.038 C 
HETATM    6  C14 UNL     1       1.253   1.110   0.481  1.00  0.00     0.027 C 
ENDROOT
BRANCH   1   7
HETATM    7  N1  UNL     1       3.060  -0.179  -0.481  1.00  0.00    -0.411 N 
ATOM      8  H1  UNL     1       3.489  -0.882  -1.083  1.00  0.00     0.153 HD
BRANCH   7   9
HETATM    9  C3  UNL     1       3.817   0.496   0.539  1.00  0.00     0.192 C 
BRANCH   9  10
HETATM   10  C2  UNL     1       5.304   0.260   0.286  1.00  0.00     0.255 C 
HETATM   11  C1  UNL     1       5.628  -1.230   0.252  1.00  0.00     0.091 C 
HETATM   12  F1  UNL     1       6.029   0.930   1.232  1.00  0.00    -0.205 F 
HETATM   13  F2  UNL     1       5.666   0.834  -0.942  1.00  0.00    -0.205 F 
ENDBRANCH   9  10
ENDBRANCH   7   9
ENDBRANCH   1   7
BRANCH   4  14
HETATM   14  N2  UNL     1      -2.260   0.188  -0.214  1.00  0.00     0.093 N 
HETATM   15  C8  UNL     1      -2.987   1.277   0.318  1.00  0.00     0.273 C 
HETATM   16  C9  UNL     1      -4.460   1.252   0.229  1.00  0.00     0.030 C 
HETATM   17  C10 UNL     1      -5.084  -0.112   0.193  1.00  0.00     0.003 C 
HETATM   18  C11 UNL     1      -4.357  -0.866  -0.921  1.00  0.00     0.030 C 
HETATM   19  C12 UNL     1      -2.933  -1.019  -0.460  1.00  0.00     0.273 C 
ENDBRANCH   4  14
TORSDOF 4
