REMARK  9 active torsions:
REMARK  status: ('A' for Active; 'I' for Inactive)
REMARK    1  A    between atoms: C2_2  and  C3_3 
REMARK    2  A    between atoms: C4_4  and  C5_5 
REMARK    3  A    between atoms: C8_9  and  O1_10 
REMARK    4  A    between atoms: C11_14  and  O2_15 
REMARK    5  A    between atoms: C14_19  and  C15_20 
REMARK    6  A    between atoms: C21_26  and  C22_27 
REMARK    7  A    between atoms: C22_27  and  C23_28 
REMARK    8  A    between atoms: C27_34  and  C28_35 
REMARK    9  A    between atoms: C28_35  and  O4_36 
ROOT
HETATM    1  C5  UNL     1      -1.443  -0.125   1.407  1.00  0.00     0.051 C 
HETATM    2  C6  UNL     1      -2.737  -0.782   1.214  1.00  0.00    -0.016 A 
HETATM    3  C7  UNL     1      -2.779  -1.859   2.107  1.00  0.00     0.075 A 
HETATM    4 CL1  UNL     1      -1.405  -2.196   3.177  1.00  0.00    -0.081 Cl
HETATM    5  C8  UNL     1      -3.869  -2.695   2.198  1.00  0.00     0.096 A 
HETATM    6  C9  UNL     1      -4.974  -2.505   1.407  1.00  0.00     0.007 A 
HETATM    7  C10 UNL     1      -6.172  -3.375   1.464  1.00  0.00     0.054 C 
HETATM    8  C11 UNL     1      -4.950  -1.440   0.513  1.00  0.00     0.081 A 
HETATM    9  C12 UNL     1      -3.845  -0.590   0.418  1.00  0.00    -0.012 A 
HETATM   10  C13 UNL     1      -4.033   0.450  -0.595  1.00  0.00     0.076 C 
HETATM   11  C14 UNL     1      -2.897   1.277  -0.973  1.00  0.00    -0.075 C 
HETATM   12  C18 UNL     1      -1.830   1.639  -0.280  1.00  0.00    -0.018 C 
HETATM   13  C19 UNL     1      -1.418   1.334   1.106  1.00  0.00     0.016 C 
HETATM   14  C20 UNL     1      -2.240   2.060   2.148  1.00  0.00     0.015 C 
ENDROOT
BRANCH   1  15
HETATM   15  C4  UNL     1      -0.426  -0.818   0.576  1.00  0.00    -0.016 C 
HETATM   16  C3  UNL     1       0.866  -0.731   0.833  1.00  0.00     0.003 C 
BRANCH  16  17
HETATM   17  C2  UNL     1       1.895  -1.394   0.043  1.00  0.00    -0.066 C 
HETATM   18  C1  UNL     1       1.424  -2.197  -1.097  1.00  0.00     0.048 C 
HETATM   19  C21 UNL     1       3.162  -1.258   0.364  1.00  0.00    -0.018 C 
BRANCH  19  20
HETATM   20  C22 UNL     1       4.310  -1.852  -0.320  1.00  0.00     0.061 C 
BRANCH  20  21
HETATM   21  C23 UNL     1       5.209  -0.705  -0.807  1.00  0.00     0.144 C 
HETATM   22  C24 UNL     1       4.364   0.120  -1.740  1.00  0.00     0.157 C 
HETATM   23  N1  UNL     1       5.202   1.226  -2.199  1.00  0.00    -0.352 N 
HETATM   24  C25 UNL     1       5.236   1.696  -3.551  1.00  0.00     0.152 C 
HETATM   25  C26 UNL     1       6.007   1.817  -1.155  1.00  0.00     0.250 C 
HETATM   26  O3  UNL     1       6.863   2.667  -1.433  1.00  0.00    -0.270 OA
HETATM   27  C27 UNL     1       5.711   1.319   0.215  1.00  0.00     0.237 C 
HETATM   28  O5  UNL     1       5.648  -0.044   0.306  1.00  0.00    -0.367 OA
BRANCH  27  29
HETATM   29  C28 UNL     1       6.710   1.911   1.195  1.00  0.00     0.205 C 
BRANCH  29  30
HETATM   30  O4  UNL     1       6.351   1.589   2.496  1.00  0.00    -0.398 OA
ATOM     31  H4  UNL     1       6.976   1.959   3.109  1.00  0.00     0.209 HD
ENDBRANCH  29  30
ENDBRANCH  27  29
ENDBRANCH  20  21
ENDBRANCH  19  20
ENDBRANCH  16  17
ENDBRANCH   1  15
BRANCH   5  32
HETATM   32  O1  UNL     1      -3.884  -3.765   3.100  1.00  0.00    -0.358 OA
ATOM     33  H1  UNL     1      -4.636  -4.342   3.163  1.00  0.00     0.217 HD
ENDBRANCH   5  32
BRANCH   8  34
HETATM   34  O2  UNL     1      -6.039  -1.227  -0.285  1.00  0.00    -0.359 OA
ATOM     35  H2  UNL     1      -6.023  -0.499  -0.896  1.00  0.00     0.217 HD
ENDBRANCH   8  34
BRANCH  11  36
HETATM   36  C15 UNL     1      -2.970   1.802  -2.392  1.00  0.00     0.006 C 
HETATM   37  C16 UNL     1      -3.097   0.691  -3.388  1.00  0.00     0.014 C 
HETATM   38  C17 UNL     1      -4.246   2.626  -2.452  1.00  0.00     0.014 C 
ENDBRANCH  11  36
TORSDOF 9
