REMARK  8 active torsions:
REMARK  status: ('A' for Active; 'I' for Inactive)
REMARK    1  A    between atoms: C2_2  and  O1_3 
REMARK    2  A    between atoms: O1_3  and  C3_4 
REMARK    3  A    between atoms: C3_4  and  C4_6 
REMARK    4  A    between atoms: C19_22  and  C20_23 
REMARK    5  A    between atoms: C20_23  and  O3_25 
REMARK    6  A    between atoms: C20_23  and  C22_27 
REMARK    7  A    between atoms: C22_27  and  C23_28 
REMARK    8  A    between atoms: C23_28  and  C24_29 
ROOT
HETATM    1  C4  UNL     1      -4.435  -0.122  -0.746  1.00  0.00     0.079 C 
HETATM    2  C5  UNL     1      -4.246   0.064  -2.263  1.00  0.00     0.029 C 
HETATM    3  C6  UNL     1      -5.158  -1.461  -0.636  1.00  0.00     0.188 C 
HETATM    4  F1  UNL     1      -6.143  -1.411  -1.635  1.00  0.00    -0.248 F 
HETATM    5  C7  UNL     1      -4.292  -2.639  -0.888  1.00  0.00     0.039 C 
HETATM    6  C8  UNL     1      -2.811  -2.391  -0.807  1.00  0.00     0.012 C 
HETATM    7  C9  UNL     1      -2.508  -1.405   0.267  1.00  0.00    -0.035 C 
HETATM    8  C10 UNL     1      -2.948  -2.032   1.566  1.00  0.00     0.016 C 
HETATM    9  C11 UNL     1      -0.991  -1.164   0.380  1.00  0.00    -0.002 C 
HETATM   10  C12 UNL     1      -0.332  -1.005  -0.929  1.00  0.00     0.006 C 
HETATM   11  C13 UNL     1       0.793  -0.001  -1.024  1.00  0.00     0.010 C 
HETATM   12  C14 UNL     1       1.606  -0.001   0.208  1.00  0.00    -0.034 C 
HETATM   13  C15 UNL     1       2.275  -1.303   0.388  1.00  0.00     0.016 C 
HETATM   14  C16 UNL     1       0.678   0.439   1.313  1.00  0.00    -0.001 C 
HETATM   15  C17 UNL     1       1.602   0.343   2.491  1.00  0.00     0.006 C 
HETATM   16  C18 UNL     1       2.860   0.993   1.885  1.00  0.00     0.009 C 
HETATM   17  C19 UNL     1       2.597   1.091   0.385  1.00  0.00     0.028 C 
HETATM   18  C27 UNL     1      -0.660  -0.145   1.421  1.00  0.00    -0.005 C 
HETATM   19  C28 UNL     1      -1.670   0.967   1.581  1.00  0.00     0.006 C 
HETATM   20  C29 UNL     1      -3.057   0.759   1.190  1.00  0.00     0.007 C 
HETATM   21  C30 UNL     1      -3.123  -0.102  -0.050  1.00  0.00     0.015 C 
ENDROOT
BRANCH  17  22
HETATM   22  C20 UNL     1       3.791   1.272  -0.396  1.00  0.00     0.059 C 
HETATM   23  C21 UNL     1       3.493   1.455  -1.869  1.00  0.00     0.046 C 
BRANCH  22  24
HETATM   24  O3  UNL     1       4.249   2.594  -0.055  1.00  0.00    -0.390 OA
ATOM     25  H3  UNL     1       5.038   2.714  -0.571  1.00  0.00     0.210 HD
ENDBRANCH  22  24
BRANCH  22  26
HETATM   26  C22 UNL     1       4.997   0.436  -0.132  1.00  0.00     0.041 C 
BRANCH  26  27
HETATM   27  C23 UNL     1       6.162   0.763  -1.045  1.00  0.00     0.045 C 
BRANCH  27  28
HETATM   28  C24 UNL     1       7.362  -0.108  -0.743  1.00  0.00     0.096 C 
HETATM   29  C25 UNL     1       7.854   0.058   0.669  1.00  0.00     0.051 C 
HETATM   30  C26 UNL     1       7.116  -1.552  -1.085  1.00  0.00     0.051 C 
HETATM   31  F2  UNL     1       8.387   0.332  -1.580  1.00  0.00    -0.244 F 
ENDBRANCH  27  28
ENDBRANCH  26  27
ENDBRANCH  22  26
ENDBRANCH  17  22
BRANCH   1  32
HETATM   32  C3  UNL     1      -5.393   0.918  -0.309  1.00  0.00     0.270 C 
HETATM   33  O2  UNL     1      -5.841   1.761  -1.128  1.00  0.00    -0.264 OA
BRANCH  32  34
HETATM   34  O1  UNL     1      -5.860   1.047   0.992  1.00  0.00    -0.321 OA
BRANCH  34  35
HETATM   35  C2  UNL     1      -6.788   2.081   1.338  1.00  0.00     0.174 C 
HETATM   36  C1  UNL     1      -8.051   1.915   0.518  1.00  0.00     0.034 C 
ENDBRANCH  34  35
ENDBRANCH  32  34
ENDBRANCH   1  32
TORSDOF 8
