REMARK  5 active torsions:
REMARK  status: ('A' for Active; 'I' for Inactive)
REMARK    1  A    between atoms: C2_2  and  C5_5 
REMARK    2  A    between atoms: C6_6  and  C7_7 
REMARK    3  A    between atoms: N1_8  and  N2_10 
REMARK    4  A    between atoms: N2_10  and  C8_12 
REMARK    5  A    between atoms: C8_12  and  N3_14 
ROOT
HETATM    1  N2  UNL     1       1.003  -0.202   1.457  1.00  0.00    -0.277 N 
ATOM      2  H2  UNL     1       1.171   0.735   1.824  1.00  0.00     0.189 HD
ENDROOT
BRANCH   1   3
HETATM    3  N1  UNL     1      -0.095  -0.924   1.899  1.00  0.00    -0.310 N 
HETATM    4  C7  UNL     1      -1.252  -0.709   1.311  1.00  0.00     0.107 C 
ATOM      5  H1  UNL     1      -0.008  -1.601   2.657  1.00  0.00     0.186 HD
BRANCH   4   6
HETATM    6  C6  UNL     1      -1.288   0.264   0.251  1.00  0.00     0.015 C 
HETATM    7  C5  UNL     1      -2.378   0.561  -0.403  1.00  0.00    -0.017 C 
BRANCH   7   8
HETATM    8  C2  UNL     1      -3.672  -0.067  -0.120  1.00  0.00    -0.034 C 
HETATM    9  C1  UNL     1      -4.715   0.601  -1.040  1.00  0.00     0.018 C 
HETATM   10  C3  UNL     1      -3.619  -1.552  -0.427  1.00  0.00     0.018 C 
HETATM   11  C4  UNL     1      -4.189   0.166   1.280  1.00  0.00     0.018 C 
ENDBRANCH   7   8
ENDBRANCH   4   6
ENDBRANCH   1   3
BRANCH   1  12
HETATM   12  C8  UNL     1       1.890  -0.747   0.507  1.00  0.00     0.188 C 
HETATM   13  S1  UNL     1       1.660  -2.247  -0.109  1.00  0.00    -0.039 SA
BRANCH  12  14
HETATM   14  N3  UNL     1       3.004   0.008   0.070  1.00  0.00    -0.356 N 
HETATM   15  C9  UNL     1       3.933  -0.540  -0.912  1.00  0.00     0.135 C 
HETATM   16  C10 UNL     1       5.193  -0.964  -0.147  1.00  0.00     0.093 C 
HETATM   17  S2  UNL     1       5.788   0.562   0.681  1.00  0.00    -0.166 SA
HETATM   18  C11 UNL     1       4.567   1.854   0.227  1.00  0.00     0.093 C 
HETATM   19  C12 UNL     1       3.191   1.334   0.626  1.00  0.00     0.135 C 
ENDBRANCH  12  14
ENDBRANCH   1  12
TORSDOF 5
