REMARK  4 active torsions:
REMARK  status: ('A' for Active; 'I' for Inactive)
REMARK    1  A    between atoms: C7_7  and  N1_8 
REMARK       I    between atoms: N1_8  and  C8_10 
REMARK    2  A    between atoms: C8_10  and  C9_12 
REMARK    3  A    between atoms: N2_15  and  S1_16 
REMARK    4  A    between atoms: S1_16  and  N3_19 
ROOT
HETATM    1  C9  UNL     1      -0.517   0.118  -0.787  1.00  0.00     0.087 C 
HETATM    2  C10 UNL     1       0.053   0.234   0.602  1.00  0.00     0.060 C 
HETATM    3  C11 UNL     1       1.430  -0.312   0.616  1.00  0.00     0.083 C 
HETATM    4  N2  UNL     1       2.240  -0.105  -0.498  1.00  0.00    -0.257 N 
HETATM    5  C17 UNL     1       1.803   0.577  -1.628  1.00  0.00     0.083 C 
HETATM    6  C18 UNL     1       0.351   0.862  -1.761  1.00  0.00     0.060 C 
ENDROOT
BRANCH   1   7
HETATM    7  C8  UNL     1      -1.916   0.609  -0.795  1.00  0.00     0.222 C 
HETATM    8  N1  UNL     1      -2.912  -0.016   0.006  1.00  0.00    -0.356 N 
ATOM      9  H1  UNL     1      -2.637  -0.810   0.585  1.00  0.00     0.162 HD
HETATM   10  O1  UNL     1      -2.190   1.589  -1.528  1.00  0.00    -0.273 OA
BRANCH   8  11
HETATM   11  C7  UNL     1      -4.281   0.409   0.044  1.00  0.00     0.088 C 
HETATM   12  C2  UNL     1      -5.189  -0.669  -0.519  1.00  0.00     0.004 C 
HETATM   13  C1  UNL     1      -5.290  -0.484  -2.032  1.00  0.00     0.012 C 
HETATM   14  C3  UNL     1      -6.566  -0.623   0.107  1.00  0.00     0.006 C 
HETATM   15  C4  UNL     1      -7.038   0.795   0.342  1.00  0.00     0.001 C 
HETATM   16  C5  UNL     1      -6.076   1.579   1.207  1.00  0.00     0.002 C 
HETATM   17  C6  UNL     1      -4.767   0.805   1.397  1.00  0.00     0.025 C 
ENDBRANCH   8  11
ENDBRANCH   1   7
BRANCH   4  18
HETATM   18  S1  UNL     1       3.635  -1.058  -0.624  1.00  0.00     0.308 S 
HETATM   19  O2  UNL     1       4.292  -0.879  -1.949  1.00  0.00    -0.188 OA
HETATM   20  O3  UNL     1       3.205  -2.513  -0.555  1.00  0.00    -0.188 OA
BRANCH  18  21
HETATM   21  N3  UNL     1       4.713  -0.799   0.684  1.00  0.00    -0.187 NA
HETATM   22  C12 UNL     1       5.184   0.550   0.752  1.00  0.00     0.109 C 
HETATM   23  C13 UNL     1       6.263   0.804  -0.246  1.00  0.00     0.021 C 
HETATM   24  C14 UNL     1       7.332  -0.235  -0.237  1.00  0.00     0.081 C 
HETATM   25  C15 UNL     1       7.119  -1.294   0.821  1.00  0.00     0.256 C 
HETATM   26  F1  UNL     1       7.949  -2.354   0.512  1.00  0.00    -0.205 F 
HETATM   27  F2  UNL     1       7.533  -0.816   2.065  1.00  0.00    -0.205 F 
HETATM   28  C16 UNL     1       5.708  -1.808   0.842  1.00  0.00     0.188 C 
ENDBRANCH  18  21
ENDBRANCH   4  18
TORSDOF 4
