REMARK  5 active torsions:
REMARK  status: ('A' for Active; 'I' for Inactive)
REMARK    1  A    between atoms: C2_2  and  C4_4 
REMARK    2  A    between atoms: C4_4  and  N1_5 
REMARK    3  A    between atoms: C4_4  and  C22_30 
REMARK       I    between atoms: N1_5  and  C5_7 
REMARK       I    between atoms: C5_7  and  N2_9 
REMARK    4  A    between atoms: N2_9  and  C6_11 
REMARK    5  A    between atoms: N3_23  and  C18_24 
ROOT
HETATM    1  C18 UNL     1      -1.577   2.732  -1.348  1.00  0.00     0.191 C 
HETATM    2  C19 UNL     1      -0.501   2.669  -2.400  1.00  0.00     0.048 C 
HETATM    3  C20 UNL     1      -1.740   4.128  -0.946  1.00  0.00     0.084 C 
HETATM    4  N4  UNL     1      -1.907   5.260  -0.611  1.00  0.00    -0.195 NA
ENDROOT
BRANCH   1   5
HETATM    5  N3  UNL     1      -1.353   1.878  -0.208  1.00  0.00    -0.324 N 
HETATM    6  C16 UNL     1      -2.332   0.870   0.139  1.00  0.00     0.037 C 
HETATM    7  C8  UNL     1      -1.591  -0.271   0.746  1.00  0.00     0.020 C 
HETATM    8  C15 UNL     1      -2.894   0.194  -1.099  1.00  0.00     0.036 C 
HETATM    9  C17 UNL     1      -3.371   1.525   0.969  1.00  0.00     0.039 C 
HETATM   10  C7  UNL     1      -0.933   0.046   2.051  1.00  0.00     0.042 C 
HETATM   11  C9  UNL     1      -2.471  -1.447   0.629  1.00  0.00    -0.004 C 
HETATM   12  C6  UNL     1       0.225   0.973   1.633  1.00  0.00     0.179 C 
HETATM   13  C21 UNL     1      -0.217   1.970   0.655  1.00  0.00     0.244 C 
HETATM   14  O2  UNL     1       0.444   3.054   0.521  1.00  0.00    -0.271 OA
HETATM   15  C10 UNL     1      -3.491  -1.673   1.696  1.00  0.00     0.005 C 
HETATM   16  C14 UNL     1      -3.044  -1.264  -0.762  1.00  0.00    -0.008 C 
HETATM   17  C11 UNL     1      -4.314  -2.885   1.211  1.00  0.00     0.000 C 
HETATM   18  C12 UNL     1      -5.202  -2.273   0.115  1.00  0.00     0.000 C 
HETATM   19  C13 UNL     1      -4.375  -1.819  -1.026  1.00  0.00     0.005 C 
BRANCH  12  20
HETATM   20  N2  UNL     1       1.284   0.145   1.153  1.00  0.00    -0.330 N 
HETATM   21  C5  UNL     1       2.374   0.376   0.331  1.00  0.00     0.317 C 
HETATM   22  N1  UNL     1       3.322  -0.656   0.088  1.00  0.00    -0.328 N 
HETATM   23  O1  UNL     1       2.572   1.480  -0.230  1.00  0.00    -0.247 OA
ATOM     24  H1  UNL     1       3.199  -1.533   0.594  1.00  0.00     0.165 HD
ATOM     25  H2  UNL     1       1.226  -0.818   1.485  1.00  0.00     0.165 HD
BRANCH  22  26
HETATM   26  C4  UNL     1       4.439  -0.565  -0.811  1.00  0.00     0.190 C 
BRANCH  26  27
HETATM   27  C2  UNL     1       5.736  -0.383  -0.045  1.00  0.00     0.011 C 
HETATM   28  C1  UNL     1       5.626   0.931   0.754  1.00  0.00     0.012 C 
HETATM   29  C3  UNL     1       6.936  -0.278  -0.921  1.00  0.00     0.012 C 
ENDBRANCH  26  27
BRANCH  26  30
HETATM   30  C22 UNL     1       4.436  -1.749  -1.689  1.00  0.00     0.197 C 
HETATM   31  O3  UNL     1       3.512  -2.622  -1.493  1.00  0.00    -0.646 OA
HETATM   32  O4  UNL     1       5.306  -2.031  -2.708  1.00  0.00    -0.646 OA
ENDBRANCH  26  30
ENDBRANCH  22  26
ENDBRANCH  12  20
ENDBRANCH   1   5
TORSDOF 5
