REMARK  4 active torsions:
REMARK  status: ('A' for Active; 'I' for Inactive)
REMARK    1  A    between atoms: C2_2  and  C4_4 
REMARK       I    between atoms: N3_10  and  C6_12 
REMARK    2  A    between atoms: C6_12  and  C7_14 
REMARK    3  A    between atoms: C7_14  and  N4_15 
REMARK    4  A    between atoms: N4_15  and  C8_18 
ROOT
HETATM    1  C4  UNL     1       5.082  -0.482   0.162  1.00  0.00     0.073 A 
HETATM    2  N1  UNL     1       4.892   0.382  -0.823  1.00  0.00    -0.296 N 
ATOM      3  H1  UNL     1       5.694   0.746  -1.337  1.00  0.00     0.187 HD
HETATM    4  N2  UNL     1       3.722   0.761  -1.134  1.00  0.00    -0.279 N 
ATOM      5  H2  UNL     1       3.583   1.427  -1.894  1.00  0.00     0.189 HD
HETATM    6  C5  UNL     1       2.676   0.283  -0.462  1.00  0.00     0.167 A 
HETATM    7  N3  UNL     1       1.409   0.492  -0.567  1.00  0.00    -0.305 N 
ATOM      8  H3  UNL     1       0.832  -0.024   0.097  1.00  0.00     0.171 HD
HETATM    9  C6  UNL     1       0.713   1.300  -1.433  1.00  0.00     0.249 C 
HETATM   10  O1  UNL     1       1.235   1.794  -2.458  1.00  0.00    -0.271 OA
HETATM   11  S1  UNL     1       3.476  -0.764   0.669  1.00  0.00    -0.037 SA
ENDROOT
BRANCH   9  12
HETATM   12  C7  UNL     1      -0.723   1.610  -1.155  1.00  0.00     0.335 C 
BRANCH  12  13
HETATM   13  N4  UNL     1      -1.150   0.952   0.056  1.00  0.00    -0.063 N 
ATOM     14  H42 UNL     1      -0.978  -0.052   0.010  1.00  0.00     0.278 HD
ATOM     15  H41 UNL     1      -0.538   1.186   0.838  1.00  0.00     0.278 HD
BRANCH  13  16
HETATM   16  C8  UNL     1      -2.533   1.231   0.374  1.00  0.00     0.186 C 
HETATM   17  C9  UNL     1      -2.964   0.421   1.536  1.00  0.00     0.033 C 
HETATM   18  C10 UNL     1      -2.930  -1.058   1.371  1.00  0.00     0.002 C 
HETATM   19  C11 UNL     1      -4.001  -1.668   0.547  1.00  0.00     0.000 C 
HETATM   20  C12 UNL     1      -5.316  -0.968   0.539  1.00  0.00     0.000 C 
HETATM   21  C13 UNL     1      -5.418  -0.171  -0.744  1.00  0.00     0.000 C 
HETATM   22  C14 UNL     1      -4.835   1.202  -0.640  1.00  0.00     0.002 C 
HETATM   23  C15 UNL     1      -3.361   1.150  -0.854  1.00  0.00     0.033 C 
ENDBRANCH  13  16
ENDBRANCH  12  13
ENDBRANCH   9  12
BRANCH   1  24
HETATM   24  C2  UNL     1       6.367  -1.057   0.685  1.00  0.00     0.036 C 
HETATM   25  C1  UNL     1       6.889  -1.996  -0.372  1.00  0.00     0.016 C 
HETATM   26  C3  UNL     1       7.346  -0.020   1.103  1.00  0.00     0.016 C 
ENDBRANCH   1  24
TORSDOF 4
