REMARK  6 active torsions:
REMARK  status: ('A' for Active; 'I' for Inactive)
REMARK    1  A    between atoms: C2_2  and  N1_3 
REMARK    2  A    between atoms: N1_3  and  C3_5 
REMARK    3  A    between atoms: C7_13  and  C8_14 
REMARK    4  A    between atoms: C8_14  and  O1_15 
REMARK    5  A    between atoms: N4_18  and  C10_19 
REMARK    6  A    between atoms: C10_19  and  C11_20 
ROOT
HETATM    1  C3  UNL     1       3.195   0.314   0.661  1.00  0.00     0.116 A 
HETATM    2  N2  UNL     1       3.068   1.397   1.434  1.00  0.00    -0.338 N 
ATOM      3  H2  UNL     1       3.861   2.017   1.599  1.00  0.00     0.168 HD
HETATM    4  C4  UNL     1       1.873   1.649   1.988  1.00  0.00     0.183 A 
HETATM    5  N3  UNL     1       0.824   0.842   1.779  1.00  0.00    -0.338 N 
ATOM      6  H3  UNL     1      -0.062   1.079   2.225  1.00  0.00     0.168 HD
HETATM    7  C5  UNL     1       0.874  -0.272   1.008  1.00  0.00     0.123 A 
HETATM    8  C6  UNL     1       2.132  -0.517   0.439  1.00  0.00     0.062 A 
HETATM    9  C7  UNL     1       2.025  -1.673  -0.303  1.00  0.00    -0.002 A 
HETATM   10  C9  UNL     1       0.721  -2.088  -0.162  1.00  0.00     0.103 A 
HETATM   11  N4  UNL     1       0.026  -1.240   0.630  1.00  0.00    -0.341 N 
ENDROOT
BRANCH  11  12
HETATM   12  C10 UNL     1      -1.366  -1.324   1.014  1.00  0.00     0.134 C 
BRANCH  12  13
HETATM   13  C11 UNL     1      -2.330  -0.677   0.089  1.00  0.00     0.004 C 
HETATM   14  C12 UNL     1      -2.077   0.794  -0.075  1.00  0.00     0.006 C 
HETATM   15  C13 UNL     1      -3.069   1.443  -1.011  1.00  0.00     0.000 C 
HETATM   16  C14 UNL     1      -4.434   1.584  -0.432  1.00  0.00     0.000 C 
HETATM   17  C15 UNL     1      -5.332   0.412  -0.736  1.00  0.00     0.000 C 
HETATM   18  C16 UNL     1      -4.797  -0.896  -0.270  1.00  0.00     0.000 C 
HETATM   19  C17 UNL     1      -3.710  -0.797   0.755  1.00  0.00     0.006 C 
ENDBRANCH  12  13
ENDBRANCH  11  12
BRANCH   9  20
HETATM   20  C8  UNL     1       3.122  -2.324  -1.093  1.00  0.00     0.205 C 
BRANCH  20  21
HETATM   21  O1  UNL     1       2.692  -3.465  -1.722  1.00  0.00    -0.396 OA
ATOM     22  H1  UNL     1       3.387  -3.877  -2.222  1.00  0.00     0.209 HD
ENDBRANCH  20  21
ENDBRANCH   9  20
BRANCH   1  23
HETATM   23  N1  UNL     1       4.323   0.018   0.098  1.00  0.00    -0.376 N 
ATOM     24  H1  UNL     1       4.380  -0.816  -0.486  1.00  0.00     0.161 HD
BRANCH  23  25
HETATM   25  C2  UNL     1       5.503   0.834   0.272  1.00  0.00     0.116 C 
HETATM   26  C1  UNL     1       5.477   2.080  -0.571  1.00  0.00     0.026 C 
ENDBRANCH  23  25
ENDBRANCH   1  23
TORSDOF 6
