REMARK  12 active torsions:
REMARK  status: ('A' for Active; 'I' for Inactive)
REMARK    1  A    between atoms: C2_2  and  C3_3 
REMARK    2  A    between atoms: C3_3  and  O1_4 
REMARK    3  A    between atoms: C3_3  and  C4_6 
REMARK    4  A    between atoms: C4_6  and  C5_7 
REMARK    5  A    between atoms: C5_7  and  N1_8 
REMARK    6  A    between atoms: C5_7  and  C22_33 
REMARK       I    between atoms: N1_8  and  C6_10 
REMARK    7  A    between atoms: C6_10  and  C7_12 
REMARK       I    between atoms: N2_17  and  C12_18 
REMARK    8  A    between atoms: C12_18  and  C13_20 
REMARK    9  A    between atoms: C13_20  and  N3_21 
REMARK   10  A    between atoms: C13_20  and  C19_30 
REMARK       I    between atoms: N3_21  and  C14_23 
REMARK   11  A    between atoms: C14_23  and  O5_25 
REMARK   12  A    between atoms: O5_25  and  C15_26 
REMARK       I    between atoms: C22_33  and  N4_35 
ROOT
HETATM    1  C7  UNL     1      -1.105   2.822   0.126  1.00  0.00     0.179 C 
HETATM    2  C8  UNL     1      -1.676   4.107  -0.355  1.00  0.00     0.035 C 
HETATM    3  C9  UNL     1      -2.154   4.055  -1.780  1.00  0.00     0.004 C 
HETATM    4  C10 UNL     1      -1.108   3.472  -2.706  1.00  0.00     0.020 C 
HETATM    5  C11 UNL     1      -0.617   2.134  -2.191  1.00  0.00     0.127 C 
HETATM    6  N2  UNL     1      -0.166   2.219  -0.821  1.00  0.00    -0.337 N 
HETATM    7  C12 UNL     1       1.101   1.726  -0.370  1.00  0.00     0.243 C 
HETATM    8  O3  UNL     1       1.302   1.830   0.896  1.00  0.00    -0.271 OA
ENDROOT
BRANCH   1   9
HETATM    9  C6  UNL     1      -2.092   1.873   0.650  1.00  0.00     0.241 C 
HETATM   10  N1  UNL     1      -2.173   0.499   0.353  1.00  0.00    -0.346 N 
ATOM     11  H1  UNL     1      -1.482   0.106  -0.287  1.00  0.00     0.163 HD
HETATM   12  O2  UNL     1      -2.953   2.344   1.446  1.00  0.00    -0.271 OA
BRANCH  10  13
HETATM   13  C5  UNL     1      -3.175  -0.390   0.899  1.00  0.00     0.179 C 
BRANCH  13  14
HETATM   14  C4  UNL     1      -2.626  -1.675   1.413  1.00  0.00     0.070 C 
BRANCH  14  15
HETATM   15  C3  UNL     1      -1.620  -1.543   2.514  1.00  0.00     0.142 C 
BRANCH  15  16
HETATM   16  C2  UNL     1      -2.141  -0.870   3.718  1.00  0.00    -0.006 C 
HETATM   17  C1  UNL     1      -3.343  -1.144   4.176  1.00  0.00     0.009 C 
ENDBRANCH  15  16
BRANCH  15  18
HETATM   18  O1  UNL     1      -0.426  -0.941   2.062  1.00  0.00    -0.392 OA
ATOM     19  H1  UNL     1      -0.090  -1.375   1.286  1.00  0.00     0.210 HD
ENDBRANCH  15  18
ENDBRANCH  14  15
ENDBRANCH  13  14
BRANCH  13  20
HETATM   20  C22 UNL     1      -4.076  -0.763  -0.260  1.00  0.00     0.240 C 
HETATM   21  O6  UNL     1      -3.891  -0.316  -1.418  1.00  0.00    -0.271 OA
HETATM   22  N4  UNL     1      -5.171  -1.640  -0.071  1.00  0.00    -0.364 N 
HETATM   23  C23 UNL     1      -6.025  -1.992  -1.176  1.00  0.00     0.149 C 
ATOM     24  H4  UNL     1      -5.357  -2.026   0.855  1.00  0.00     0.161 HD
ENDBRANCH  13  20
ENDBRANCH  10  13
ENDBRANCH   1   9
BRANCH   7  25
HETATM   25  C13 UNL     1       2.144   1.132  -1.202  1.00  0.00     0.182 C 
BRANCH  25  26
HETATM   26  N3  UNL     1       2.816   0.112  -0.354  1.00  0.00    -0.323 N 
HETATM   27  C14 UNL     1       2.915  -1.242  -0.787  1.00  0.00     0.362 C 
HETATM   28  O4  UNL     1       2.433  -1.585  -1.890  1.00  0.00    -0.238 OA
ATOM     29  H3  UNL     1       3.210   0.384   0.547  1.00  0.00     0.165 HD
BRANCH  27  30
HETATM   30  O5  UNL     1       3.528  -2.216  -0.033  1.00  0.00    -0.294 OA
BRANCH  30  31
HETATM   31  C15 UNL     1       3.681  -3.560  -0.354  1.00  0.00     0.061 C 
HETATM   32  C16 UNL     1       4.431  -4.200   0.822  1.00  0.00     0.046 C 
HETATM   33  C17 UNL     1       4.493  -3.833  -1.588  1.00  0.00     0.046 C 
HETATM   34  C18 UNL     1       2.362  -4.306  -0.473  1.00  0.00     0.046 C 
ENDBRANCH  30  31
ENDBRANCH  27  30
ENDBRANCH  25  26
BRANCH  25  35
HETATM   35  C19 UNL     1       3.241   2.093  -1.619  1.00  0.00     0.009 C 
HETATM   36  C20 UNL     1       3.988   2.696  -0.474  1.00  0.00     0.012 C 
HETATM   37  C21 UNL     1       2.746   3.226  -2.479  1.00  0.00     0.012 C 
ENDBRANCH  25  35
ENDBRANCH   7  25
TORSDOF 12
