REMARK  12 active torsions:
REMARK  status: ('A' for Active; 'I' for Inactive)
REMARK    1  A    between atoms: C2_2  and  C4_4 
REMARK    2  A    between atoms: C4_4  and  N1_5 
REMARK    3  A    between atoms: C4_4  and  C10_14 
REMARK       I    between atoms: N1_5  and  C5_7 
REMARK    4  A    between atoms: C5_7  and  C6_9 
REMARK       I    between atoms: C10_14  and  N2_16 
REMARK    5  A    between atoms: C12_18  and  N3_19 
REMARK    6  A    between atoms: N3_19  and  C13_22 
REMARK    7  A    between atoms: C13_22  and  C14_23 
REMARK    8  A    between atoms: C14_23  and  C15_24 
REMARK    9  A    between atoms: C14_23  and  C23_35 
REMARK       I    between atoms: C15_24  and  N4_26 
REMARK   10  A    between atoms: N4_26  and  C16_28 
REMARK   11  A    between atoms: C16_28  and  C19_31 
REMARK   12  A    between atoms: C23_35  and  O5_37 
ROOT
HETATM    1  N3  UNL     1      -0.789   2.258   2.054  1.00  0.00    -0.067 N 
ATOM      2  H31 UNL     1      -1.024   3.201   1.743  1.00  0.00     0.277 HD
ATOM      3  H32 UNL     1      -1.087   2.324   3.027  1.00  0.00     0.277 HD
ENDROOT
BRANCH   1   4
HETATM    4  C12 UNL     1       0.647   2.024   1.965  1.00  0.00     0.221 C 
HETATM    5  C11 UNL     1       1.176   0.767   2.558  1.00  0.00     0.160 C 
HETATM    6  N2  UNL     1       2.137   0.743   1.478  1.00  0.00    -0.346 N 
HETATM    7  C10 UNL     1       3.435   0.249   1.290  1.00  0.00     0.243 C 
HETATM    8  C25 UNL     1       1.167   1.462   0.684  1.00  0.00     0.160 C 
HETATM    9  O3  UNL     1       3.978  -0.342   2.288  1.00  0.00    -0.271 OA
BRANCH   7  10
HETATM   10  C4  UNL     1       4.174   0.387   0.014  1.00  0.00     0.180 C 
BRANCH  10  11
HETATM   11  C2  UNL     1       3.447  -0.192  -1.173  1.00  0.00     0.009 C 
HETATM   12  C1  UNL     1       3.306  -1.696  -1.070  1.00  0.00     0.012 C 
HETATM   13  C3  UNL     1       4.285   0.067  -2.423  1.00  0.00     0.012 C 
ENDBRANCH  10  11
BRANCH  10  14
HETATM   14  N1  UNL     1       5.510  -0.178   0.114  1.00  0.00    -0.345 N 
HETATM   15  C5  UNL     1       6.688   0.558  -0.005  1.00  0.00     0.247 C 
HETATM   16  O1  UNL     1       6.635   1.794  -0.213  1.00  0.00    -0.271 OA
ATOM     17  H1  UNL     1       5.591  -1.181   0.283  1.00  0.00     0.163 HD
BRANCH  15  18
HETATM   18  C6  UNL     1       8.006  -0.072   0.107  1.00  0.00     0.213 C 
HETATM   19  C7  UNL     1       8.823  -0.060  -1.149  1.00  0.00     0.043 C 
HETATM   20  C8  UNL     1       9.894  -1.103  -0.802  1.00  0.00     0.029 C 
HETATM   21  C9  UNL     1       9.216  -1.838   0.351  1.00  0.00     0.168 C 
HETATM   22  O2  UNL     1       7.880  -1.461   0.339  1.00  0.00    -0.376 OA
ENDBRANCH  15  18
ENDBRANCH  10  14
ENDBRANCH   7  10
ENDBRANCH   1   4
BRANCH   1  23
HETATM   23  C13 UNL     1      -1.550   1.296   1.360  1.00  0.00     0.249 C 
BRANCH  23  24
HETATM   24  C14 UNL     1      -3.021   1.262   1.472  1.00  0.00     0.132 C 
BRANCH  24  25
HETATM   25  C15 UNL     1      -3.489   0.107   0.603  1.00  0.00     0.226 C 
HETATM   26  O4  UNL     1      -2.652  -0.578  -0.004  1.00  0.00    -0.273 OA
HETATM   27  N4  UNL     1      -4.862  -0.189   0.485  1.00  0.00    -0.351 N 
ATOM     28  H4  UNL     1      -5.548   0.376   0.986  1.00  0.00     0.163 HD
BRANCH  27  29
HETATM   29  C16 UNL     1      -5.300  -1.285  -0.339  1.00  0.00     0.032 C 
HETATM   30  C17 UNL     1      -4.824  -1.019  -1.768  1.00  0.00     0.039 C 
HETATM   31  C18 UNL     1      -4.726  -2.598   0.116  1.00  0.00     0.039 C 
BRANCH  29  32
HETATM   32  C19 UNL     1      -6.817  -1.315  -0.321  1.00  0.00    -0.027 C 
HETATM   33  C20 UNL     1      -7.347  -2.441  -1.168  1.00  0.00     0.017 C 
HETATM   34  C21 UNL     1      -7.358  -0.001  -0.819  1.00  0.00     0.017 C 
HETATM   35  C22 UNL     1      -7.289  -1.504   1.089  1.00  0.00     0.017 C 
ENDBRANCH  29  32
ENDBRANCH  27  29
ENDBRANCH  24  25
BRANCH  24  36
HETATM   36  C23 UNL     1      -3.758   2.485   1.065  1.00  0.00     0.128 C 
HETATM   37  C24 UNL     1      -3.425   3.676   1.908  1.00  0.00     0.040 C 
BRANCH  36  38
HETATM   38  O5  UNL     1      -3.489   2.823  -0.283  1.00  0.00    -0.395 OA
ATOM     39  H5  UNL     1      -3.961   3.606  -0.543  1.00  0.00     0.210 HD
ENDBRANCH  36  38
ENDBRANCH  24  36
ENDBRANCH  23  24
ENDBRANCH   1  23
TORSDOF 12
