REMARK  5 active torsions:
REMARK  status: ('A' for Active; 'I' for Inactive)
REMARK    1  A    between atoms: C2_9  and  S1_10 
REMARK    2  A    between atoms: S1_10  and  N5_11 
REMARK    3  A    between atoms: S1_10  and  N6_15 
REMARK    4  A    between atoms: N6_15  and  C3_17 
REMARK    5  A    between atoms: C4_23  and  N9_24 
ROOT
HETATM    1  S1  UNL     1      -0.384   0.393   0.437  1.00  0.00     0.174 S 
HETATM    2  O1  UNL     1      -0.412   0.903   1.260  1.00  0.00    -0.220 OA
ENDROOT
BRANCH   1   3
HETATM    3  C2  UNL     1      -1.881  -1.038   0.357  1.00  0.00     0.235 A 
HETATM    4  N1  UNL     1      -3.135  -0.793   0.081  1.00  0.00    -0.255 N 
HETATM    5  C1  UNL     1      -3.810   0.445  -0.303  1.00  0.00     0.182 C 
HETATM    6  N2  UNL     1      -3.837  -1.938   0.215  1.00  0.00    -0.224 N 
HETATM    7  N3  UNL     1      -2.997  -2.888   0.577  1.00  0.00    -0.226 N 
ATOM      8  H2  UNL     1      -4.840  -2.049   0.063  1.00  0.00     0.210 HD
HETATM    9  N4  UNL     1      -1.776  -2.312   0.661  1.00  0.00    -0.259 N 
ATOM     10  H3  UNL     1      -3.224  -3.866   0.758  1.00  0.00     0.210 HD
ATOM     11  H4  UNL     1      -0.913  -2.790   0.919  1.00  0.00     0.191 HD
ENDBRANCH   1   3
BRANCH   1  12
HETATM   12  N5  UNL     1      -0.613   1.513  -1.172  1.00  0.00    -0.338 N 
ATOM     13  H52 UNL     1      -1.329   1.398  -1.889  1.00  0.00     0.167 HD
ATOM     14  H51 UNL     1       0.124   2.217  -1.133  1.00  0.00     0.167 HD
ENDBRANCH   1  12
BRANCH   1  15
HETATM   15  N6  UNL     1       1.306  -0.617   0.449  1.00  0.00    -0.276 N 
ATOM     16  H6  UNL     1       1.317  -1.625   0.607  1.00  0.00     0.179 HD
BRANCH  15  17
HETATM   17  C3  UNL     1       2.367   0.020   0.256  1.00  0.00     0.182 A 
HETATM   18  N7  UNL     1       2.597   1.313   0.033  1.00  0.00    -0.221 N 
HETATM   19  O2  UNL     1       3.865   1.526  -0.111  1.00  0.00    -0.153 OA
ATOM     20  H7  UNL     1       1.876   2.033  -0.017  1.00  0.00     0.198 HD
HETATM   21  N8  UNL     1       4.509   0.401   0.010  1.00  0.00    -0.222 N 
HETATM   22  C4  UNL     1       3.633  -0.581   0.240  1.00  0.00     0.168 A 
ATOM     23  H8  UNL     1       5.520   0.288  -0.060  1.00  0.00     0.198 HD
BRANCH  22  24
HETATM   24  N9  UNL     1       3.927  -1.824   0.410  1.00  0.00    -0.381 N 
ATOM     25  H92 UNL     1       3.258  -2.574   0.586  1.00  0.00     0.157 HD
ATOM     26  H91 UNL     1       4.848  -2.261   0.398  1.00  0.00     0.157 HD
ENDBRANCH  22  24
ENDBRANCH  15  17
ENDBRANCH   1  15
TORSDOF 5
