REMARK  15 active torsions:
REMARK  status: ('A' for Active; 'I' for Inactive)
REMARK    1  A    between atoms: N1_1  and  C1_4 
REMARK    2  A    between atoms: C2_7  and  C3_8 
REMARK    3  A    between atoms: N4_13  and  C4_14 
REMARK    4  A    between atoms: C5_16  and  C6_17 
REMARK    5  A    between atoms: C6_17  and  O4_18 
REMARK    6  A    between atoms: O4_18  and  C7_19 
REMARK    7  A    between atoms: C8_23  and  O5_24 
REMARK    8  A    between atoms: O5_24  and  C9_25 
REMARK    9  A    between atoms: C10_26  and  N6_27 
REMARK   10  A    between atoms: C12_32  and  N7_33 
REMARK   11  A    between atoms: C13_37  and  O6_38 
REMARK   12  A    between atoms: C14_40  and  N8_41 
REMARK   13  A    between atoms: C15_45  and  N9_46 
REMARK   14  A    between atoms: C17_51  and  N10_52 
REMARK   15  A    between atoms: C18_57  and  O8_58 
ROOT
HETATM    1  C7  UNL     1       0.198  -1.321   0.204  1.00  0.00     0.354 C 
HETATM    2  N5  UNL     1      -0.736  -0.260   0.011  1.00  0.00    -0.018 N 
ATOM      3  H51 UNL     1      -0.980  -0.124  -0.970  1.00  0.00     0.283 HD
ATOM      4  H52 UNL     1      -0.328   0.659   0.180  1.00  0.00     0.283 HD
HETATM    5  C8  UNL     1      -1.906  -0.522   0.853  1.00  0.00     0.355 C 
HETATM    6  C15 UNL     1      -1.432  -0.057   2.212  1.00  0.00     0.241 C 
HETATM    7  C16 UNL     1      -0.350  -1.019   2.647  1.00  0.00     0.074 C 
HETATM    8  C17 UNL     1       0.184  -1.903   1.590  1.00  0.00     0.241 C 
ENDROOT
BRANCH   1   9
HETATM    9  O4  UNL     1       1.488  -0.999  -0.208  1.00  0.00    -0.353 OA
BRANCH   9  10
HETATM   10  C6  UNL     1       1.895  -1.763  -1.268  1.00  0.00     0.231 C 
BRANCH  10  11
HETATM   11  C5  UNL     1       3.272  -1.443  -1.738  1.00  0.00     0.289 C 
HETATM   12  O3  UNL     1       4.267  -1.611  -0.794  1.00  0.00    -0.327 OA
HETATM   13  C4  UNL     1       4.596  -0.398  -0.285  1.00  0.00     0.320 C 
HETATM   14  C18 UNL     1       3.728   0.579  -1.020  1.00  0.00     0.311 C 
HETATM   15  O7  UNL     1       3.310  -0.108  -2.128  1.00  0.00    -0.325 OA
BRANCH  13  16
HETATM   16  N4  UNL     1       5.980   0.008  -0.496  1.00  0.00    -0.087 N 
HETATM   17  C1  UNL     1       6.994  -0.574  -1.112  1.00  0.00     0.697 A 
HETATM   18  N2  UNL     1       8.063   0.272  -0.997  1.00  0.00    -0.167 N 
HETATM   19  C2  UNL     1       7.705   1.371  -0.313  1.00  0.00     0.213 A 
ATOM     20  H2  UNL     1       8.994   0.094  -1.375  1.00  0.00     0.186 HD
HETATM   21  N3  UNL     1       6.410   1.182  -0.014  1.00  0.00    -0.260 N 
ATOM     22  H3  UNL     1       5.833   1.841   0.508  1.00  0.00     0.189 HD
BRANCH  17  23
HETATM   23  N1  UNL     1       6.988  -1.708  -1.701  1.00  0.00    -0.233 N 
ATOM     24  H12 UNL     1       7.771  -2.157  -2.176  1.00  0.00     0.174 HD
ATOM     25  H11 UNL     1       6.191  -2.339  -1.787  1.00  0.00     0.174 HD
ENDBRANCH  17  23
BRANCH  19  26
HETATM   26  C3  UNL     1       8.538   2.516   0.030  1.00  0.00     0.247 C 
HETATM   27  O1  UNL     1       9.737   2.564  -0.312  1.00  0.00    -0.642 OA
HETATM   28  O2  UNL     1       8.002   3.566   0.743  1.00  0.00    -0.642 OA
ENDBRANCH  19  26
ENDBRANCH  13  16
BRANCH  14  29
HETATM   29  O8  UNL     1       4.469   1.682  -1.486  1.00  0.00    -0.367 OA
ATOM     30  H8  UNL     1       3.919   2.301  -1.952  1.00  0.00     0.212 HD
ENDBRANCH  14  29
ENDBRANCH  10  11
ENDBRANCH   9  10
ENDBRANCH   1   9
BRANCH   8  31
HETATM   31  N10 UNL     1       1.585  -2.201   1.931  1.00  0.00    -0.071 N 
ATOM     32 3H10 UNL     1       2.049  -2.798   1.247  1.00  0.00     0.274 HD
ATOM     33 2H10 UNL     1       2.204  -1.396   1.837  1.00  0.00     0.274 HD
ATOM     34 1H10 UNL     1       1.576  -2.596   2.871  1.00  0.00     0.274 HD
ENDBRANCH   8  31
BRANCH   5  35
HETATM   35  O5  UNL     1      -3.021   0.136   0.467  1.00  0.00    -0.348 OA
BRANCH  35  36
HETATM   36  C9  UNL     1      -4.130  -0.599   0.118  1.00  0.00     0.187 C 
HETATM   37  C10 UNL     1      -4.320  -0.310  -1.397  1.00  0.00     0.216 C 
HETATM   38  C11 UNL     1      -4.163   1.168  -1.498  1.00  0.00     0.070 C 
HETATM   39  C12 UNL     1      -5.056   1.984  -0.650  1.00  0.00     0.216 C 
HETATM   40  C13 UNL     1      -5.623   1.361   0.580  1.00  0.00     0.181 C 
HETATM   41  C14 UNL     1      -5.434  -0.119   0.685  1.00  0.00     0.244 C 
BRANCH  37  42
HETATM   42  N6  UNL     1      -3.415  -1.022  -2.219  1.00  0.00    -0.072 N 
ATOM     43  H63 UNL     1      -2.451  -0.846  -1.934  1.00  0.00     0.274 HD
ATOM     44  H62 UNL     1      -3.466  -2.023  -2.032  1.00  0.00     0.274 HD
ATOM     45  H61 UNL     1      -3.540  -0.832  -3.213  1.00  0.00     0.274 HD
ENDBRANCH  37  42
BRANCH  39  46
HETATM   46  N7  UNL     1      -6.118   2.535  -1.509  1.00  0.00    -0.072 N 
ATOM     47  H73 UNL     1      -5.751   3.052  -2.308  1.00  0.00     0.274 HD
ATOM     48  H72 UNL     1      -6.618   1.815  -2.030  1.00  0.00     0.274 HD
ATOM     49  H71 UNL     1      -6.735   3.098  -0.923  1.00  0.00     0.274 HD
ENDBRANCH  39  46
BRANCH  40  50
HETATM   50  O6  UNL     1      -5.149   1.957   1.748  1.00  0.00    -0.391 OA
ATOM     51  H6  UNL     1      -5.510   1.560   2.532  1.00  0.00     0.210 HD
ENDBRANCH  40  50
BRANCH  41  52
HETATM   52  N8  UNL     1      -5.756  -0.598   1.999  1.00  0.00    -0.070 N 
ATOM     53  H83 UNL     1      -5.724  -1.617   2.015  1.00  0.00     0.274 HD
ATOM     54  H82 UNL     1      -4.996  -0.382   2.644  1.00  0.00     0.274 HD
ATOM     55  H81 UNL     1      -6.642  -0.272   2.384  1.00  0.00     0.274 HD
ENDBRANCH  41  52
ENDBRANCH  35  36
ENDBRANCH   5  35
BRANCH   6  56
HETATM   56  N9  UNL     1      -2.436   0.150   3.185  1.00  0.00    -0.071 N 
ATOM     57  H93 UNL     1      -3.138   0.796   2.825  1.00  0.00     0.274 HD
ATOM     58  H92 UNL     1      -2.998  -0.695   3.286  1.00  0.00     0.274 HD
ATOM     59  H91 UNL     1      -2.116   0.464   4.101  1.00  0.00     0.274 HD
ENDBRANCH   6  56
TORSDOF 15
