REMARK  0 active torsions:
REMARK  status: ('A' for Active; 'I' for Inactive)
ROOT
HETATM    1  N1  UNL     1       3.824   0.504  -0.072  1.00  0.00    -0.172 NA
HETATM    2  C1  UNL     1       2.668   0.447  -0.071  1.00  0.00     0.184 C 
HETATM    3  N2  UNL     1       1.239   0.398  -0.075  1.00  0.00    -0.290 N 
HETATM    4  C2  UNL     1       0.582   1.650   0.179  1.00  0.00     0.214 C 
HETATM    5  S1  UNL     1      -1.072   1.727  -0.546  1.00  0.00    -0.143 SA
HETATM    6  C3  UNL     1      -1.646   0.063  -0.790  1.00  0.00     0.058 A 
HETATM    7  C4  UNL     1      -1.792  -0.736   0.479  1.00  0.00     0.027 A 
HETATM    8  C5  UNL     1      -0.743  -1.025  -0.596  1.00  0.00     0.040 A 
HETATM    9  C6  UNL     1       0.669  -0.866  -0.324  1.00  0.00     0.082 C 
ENDROOT
TORSDOF 0
