REMARK  7 active torsions:
REMARK  status: ('A' for Active; 'I' for Inactive)
REMARK    1  A    between atoms: C4_5  and  C5_6 
REMARK    2  A    between atoms: C5_6  and  N2_7 
REMARK    3  A    between atoms: N2_7  and  C6_9 
REMARK    4  A    between atoms: C6_9  and  C7_10 
REMARK    5  A    between atoms: C7_10  and  C8_11 
REMARK    6  A    between atoms: C8_11  and  N3_12 
REMARK    7  A    between atoms: N3_12  and  C9_14 
ROOT
HETATM    1  C6  UNL     1       0.820  -0.002   0.253  1.00  0.00     0.115 C 
ENDROOT
BRANCH   1   2
HETATM    2  N2  UNL     1      -0.561   0.224   0.019  1.00  0.00    -0.417 N 
ATOM      3  H2  UNL     1      -0.877   0.836  -0.733  1.00  0.00     0.153 HD
BRANCH   2   4
HETATM    4  C5  UNL     1      -1.489  -0.435   0.872  1.00  0.00     0.152 C 
BRANCH   4   5
HETATM    5  C4  UNL     1      -2.856  -0.037   0.429  1.00  0.00    -0.041 A 
HETATM    6  C3  UNL     1      -3.299   1.195   0.906  1.00  0.00     0.011 A 
HETATM    7  C2  UNL     1      -4.539   1.706   0.587  1.00  0.00     0.027 A 
HETATM    8  C1  UNL     1      -5.333   0.934  -0.236  1.00  0.00     0.046 A 
HETATM    9  N1  UNL     1      -6.627   1.401  -0.610  1.00  0.00    -0.102 NA
HETATM   10  C13 UNL     1      -4.918  -0.291  -0.722  1.00  0.00     0.027 A 
HETATM   11  C12 UNL     1      -3.661  -0.774  -0.380  1.00  0.00     0.011 A 
ENDBRANCH   4   5
ENDBRANCH   2   4
ENDBRANCH   1   2
BRANCH   1  12
HETATM   12  C7  UNL     1       1.268  -1.414  -0.071  1.00  0.00     0.039 C 
BRANCH  12  13
HETATM   13  C8  UNL     1       2.770  -1.550   0.205  1.00  0.00     0.125 C 
BRANCH  13  14
HETATM   14  N3  UNL     1       3.498  -0.629  -0.609  1.00  0.00    -0.356 N 
ATOM     15  H3  UNL     1       3.038  -0.232  -1.428  1.00  0.00     0.163 HD
BRANCH  14  16
HETATM   16  C9  UNL     1       4.700  -0.281  -0.355  1.00  0.00     0.223 A 
HETATM   17  N4  UNL     1       5.445   0.581  -1.077  1.00  0.00    -0.330 N 
HETATM   18  C10 UNL     1       6.634   0.663  -0.470  1.00  0.00     0.116 A 
ATOM     19  H4  UNL     1       5.157   1.075  -1.922  1.00  0.00     0.168 HD
HETATM   20  C11 UNL     1       6.589  -0.159   0.620  1.00  0.00     0.162 A 
HETATM   21  O1  UNL     1       5.395  -0.718   0.659  1.00  0.00    -0.290 OA
ENDBRANCH  14  16
ENDBRANCH  13  14
ENDBRANCH  12  13
ENDBRANCH   1  12
TORSDOF 7
