REMARK  7 active torsions:
REMARK  status: ('A' for Active; 'I' for Inactive)
REMARK    1  A    between atoms: C4_7  and  C5_8 
REMARK    2  A    between atoms: C5_8  and  C6_9 
REMARK    3  A    between atoms: C7_13  and  C8_14 
REMARK    4  A    between atoms: C8_14  and  C9_15 
REMARK    5  A    between atoms: C9_15  and  C10_16 
REMARK    6  A    between atoms: C10_16  and  C11_17 
REMARK    7  A    between atoms: C11_17  and  N3_18 
ROOT
HETATM    1  C6  UNL     1      -0.819   1.058  -0.452  1.00  0.00     0.108 A 
HETATM    2  N2  UNL     1      -0.099   1.738   0.457  1.00  0.00    -0.247 N 
ATOM      3  H2  UNL     1      -0.374   2.615   0.900  1.00  0.00     0.196 HD
HETATM    4  O1  UNL     1       0.988   1.102   0.673  1.00  0.00    -0.223 OA
HETATM    5  C7  UNL     1       1.018   0.018  -0.064  1.00  0.00     0.148 A 
HETATM    6  N4  UNL     1      -0.110  -0.018  -0.772  1.00  0.00    -0.327 N 
ATOM      7  H4  UNL     1      -0.380  -0.741  -1.439  1.00  0.00     0.169 HD
ENDROOT
BRANCH   1   8
HETATM    8  C5  UNL     1      -2.135   1.538  -0.915  1.00  0.00     0.118 C 
BRANCH   8   9
HETATM    9  C4  UNL     1      -3.263   1.072  -0.125  1.00  0.00    -0.035 A 
HETATM   10  C3  UNL     1      -3.886  -0.110  -0.468  1.00  0.00     0.012 A 
HETATM   11  C2  UNL     1      -4.966  -0.608   0.243  1.00  0.00     0.048 A 
HETATM   12  C1  UNL     1      -5.421   0.101   1.317  1.00  0.00     0.098 A 
HETATM   13  N1  UNL     1      -6.420  -0.331   1.999  1.00  0.00    -0.385 N 
HETATM   14  N5  UNL     1      -4.826   1.254   1.665  1.00  0.00    -0.352 N 
ATOM     15  H12 UNL     1      -6.872  -1.206   1.735  1.00  0.00     0.157 HD
ATOM     16  H11 UNL     1      -6.760   0.199   2.802  1.00  0.00     0.157 HD
HETATM   17  C12 UNL     1      -3.762   1.749   0.967  1.00  0.00     0.097 A 
ATOM     18  H5  UNL     1      -5.178   1.772   2.470  1.00  0.00     0.166 HD
ENDBRANCH   8   9
ENDBRANCH   1   8
BRANCH   5  19
HETATM   19  C8  UNL     1       2.162  -0.937  -0.036  1.00  0.00     0.087 C 
BRANCH  19  20
HETATM   20  C9  UNL     1       3.137  -0.469  -1.092  1.00  0.00     0.010 C 
BRANCH  20  21
HETATM   21  C10 UNL     1       4.359  -1.325  -1.206  1.00  0.00     0.027 C 
BRANCH  21  22
HETATM   22  C11 UNL     1       5.101  -1.334   0.113  1.00  0.00     0.229 C 
BRANCH  22  23
HETATM   23  N3  UNL     1       5.479   0.050   0.431  1.00  0.00    -0.079 N 
ATOM     24  H33 UNL     1       6.010   0.496  -0.317  1.00  0.00     0.274 HD
ATOM     25  H32 UNL     1       4.682   0.687   0.431  1.00  0.00     0.274 HD
ATOM     26  H31 UNL     1       5.979   0.044   1.320  1.00  0.00     0.274 HD
ENDBRANCH  22  23
ENDBRANCH  21  22
ENDBRANCH  20  21
ENDBRANCH  19  20
ENDBRANCH   5  19
TORSDOF 7
