REMARK  6 active torsions:
REMARK  status: ('A' for Active; 'I' for Inactive)
REMARK    1  A    between atoms: C2_2  and  C3_3 
REMARK    2  A    between atoms: C3_3  and  C4_4 
REMARK    3  A    between atoms: N1_6  and  C6_7 
REMARK    4  A    between atoms: C8_13  and  N4_14 
REMARK    5  A    between atoms: C9_19  and  O1_20 
REMARK    6  A    between atoms: C12_25  and  C14_27 
ROOT
HETATM    1  C6  UNL     1       1.202  -0.488  -0.140  1.00  0.00     0.683 A 
HETATM    2  N2  UNL     1       1.947  -1.257   0.642  1.00  0.00    -0.173 N 
ATOM      3  H2  UNL     1       1.591  -2.022   1.215  1.00  0.00     0.186 HD
HETATM    4  C7  UNL     1       3.212  -0.894   0.574  1.00  0.00     0.168 A 
HETATM    5  N3  UNL     1       4.307  -1.414   1.213  1.00  0.00    -0.174 N 
ATOM      6  H3  UNL     1       4.227  -2.201   1.856  1.00  0.00     0.186 HD
HETATM    7  C8  UNL     1       5.490  -0.837   0.951  1.00  0.00     0.679 A 
HETATM    8  N5  UNL     1       5.593   0.196   0.106  1.00  0.00    -0.168 N 
ATOM      9  H5  UNL     1       6.518   0.594  -0.056  1.00  0.00     0.186 HD
HETATM   10  C9  UNL     1       4.554   0.736  -0.538  1.00  0.00     0.188 A 
HETATM   11  C11 UNL     1       3.308   0.162  -0.290  1.00  0.00     0.145 A 
HETATM   12  N6  UNL     1       2.065   0.398  -0.719  1.00  0.00    -0.184 N 
ATOM     13  H6  UNL     1       1.801   1.129  -1.379  1.00  0.00     0.184 HD
ENDROOT
BRANCH   1  14
HETATM   14  N1  UNL     1      -0.185  -0.575  -0.325  1.00  0.00    -0.202 N 
HETATM   15  C5  UNL     1      -0.861   0.358  -1.226  1.00  0.00     0.174 C 
HETATM   16  C4  UNL     1      -1.887   1.104  -0.414  1.00  0.00     0.141 C 
HETATM   17  O2  UNL     1      -2.369   0.446   0.647  1.00  0.00    -0.371 OA
HETATM   18  C15 UNL     1      -2.359  -0.939   0.661  1.00  0.00     0.081 C 
HETATM   19  C12 UNL     1      -1.015  -1.559   0.341  1.00  0.00     0.089 C 
HETATM   20  C16 UNL     1      -3.497  -1.512  -0.154  1.00  0.00     0.048 C 
HETATM   21  C17 UNL     1      -2.706  -1.263   2.120  1.00  0.00     0.048 C 
HETATM   22  C13 UNL     1      -0.382  -2.166   1.568  1.00  0.00     0.043 C 
BRANCH  16  23
HETATM   23  C3  UNL     1      -2.953   1.630  -1.337  1.00  0.00     0.033 C 
BRANCH  23  24
HETATM   24  C2  UNL     1      -4.028   2.399  -0.588  1.00  0.00    -0.002 C 
HETATM   25  C1  UNL     1      -3.483   3.585   0.148  1.00  0.00     0.005 C 
ENDBRANCH  23  24
ENDBRANCH  16  23
BRANCH  19  26
HETATM   26  C14 UNL     1      -1.121  -2.705  -0.662  1.00  0.00     0.149 C 
HETATM   27 CL1  UNL     1      -2.087  -4.062  -0.063  1.00  0.00    -0.128 Cl
ENDBRANCH  19  26
ENDBRANCH   1  14
BRANCH  10  28
HETATM   28  O1  UNL     1       4.619   1.793  -1.410  1.00  0.00    -0.339 OA
HETATM   29  C10 UNL     1       5.803   2.458  -1.746  1.00  0.00     0.211 C 
ENDBRANCH  10  28
BRANCH   7  30
HETATM   30  N4  UNL     1       6.559  -1.310   1.545  1.00  0.00    -0.234 N 
ATOM     31  H42 UNL     1       6.481  -2.097   2.189  1.00  0.00     0.174 HD
ATOM     32  H41 UNL     1       7.458  -0.871   1.346  1.00  0.00     0.174 HD
ENDBRANCH   7  30
TORSDOF 6
