REMARK  9 active torsions:
REMARK  status: ('A' for Active; 'I' for Inactive)
REMARK    1  A    between atoms: C2_2  and  O2_4 
REMARK    2  A    between atoms: O2_4  and  C3_5 
REMARK    3  A    between atoms: C12_15  and  N1_16 
REMARK    4  A    between atoms: N1_16  and  O3_17 
REMARK    5  A    between atoms: C14_20  and  C15_21 
REMARK    6  A    between atoms: C15_21  and  C16_22 
REMARK    7  A    between atoms: C16_22  and  C18_24 
REMARK    8  A    between atoms: C18_24  and  O4_25 
REMARK    9  A    between atoms: C19_27  and  O5_29 
ROOT
HETATM    1  C3  UNL     1       1.961   0.174  -0.256  1.00  0.00     0.196 C 
HETATM    2  C4  UNL     1       1.538   0.155  -1.652  1.00  0.00    -0.037 C 
HETATM    3  C5  UNL     1       2.291   0.650  -2.587  1.00  0.00     0.090 C 
HETATM    4 CL1  UNL     1       1.830   0.650  -4.272  1.00  0.00    -0.097 Cl
HETATM    5  C6  UNL     1       0.245  -0.438  -2.032  1.00  0.00     0.039 C 
HETATM    6  C7  UNL     1      -0.386  -1.139  -0.836  1.00  0.00     0.022 C 
HETATM    7  C8  UNL     1      -0.472  -0.175   0.347  1.00  0.00     0.021 C 
HETATM    8  C9  UNL     1      -0.943  -1.035   1.528  1.00  0.00     0.029 C 
HETATM    9  C10 UNL     1      -2.195  -1.794   1.356  1.00  0.00     0.050 C 
HETATM   10  C11 UNL     1      -2.061  -3.188   0.793  1.00  0.00     0.017 C 
HETATM   11  C12 UNL     1      -3.213  -0.984   0.631  1.00  0.00     0.121 C 
HETATM   12  C13 UNL     1      -2.789   0.356   0.253  1.00  0.00     0.051 C 
HETATM   13  C14 UNL     1      -1.520   0.839   0.082  1.00  0.00    -0.043 C 
HETATM   14  C19 UNL     1       0.886   0.267   0.768  1.00  0.00     0.096 C 
HETATM   15  C20 UNL     1       1.430  -0.504   2.010  1.00  0.00     0.050 C 
ENDROOT
BRANCH  13  16
HETATM   16  C15 UNL     1      -1.489   2.173  -0.384  1.00  0.00     0.016 C 
BRANCH  16  17
HETATM   17  C16 UNL     1      -0.822   3.185  -0.767  1.00  0.00    -0.040 C 
HETATM   18  C17 UNL     1      -1.842   4.417  -1.140  1.00  0.00     0.050 C 
BRANCH  17  19
HETATM   19  C18 UNL     1       0.442   3.629  -1.028  1.00  0.00     0.138 C 
BRANCH  19  20
HETATM   20  O4  UNL     1       0.649   4.881  -1.456  1.00  0.00    -0.372 OA
ATOM     21  H4  UNL     1       1.529   5.190  -1.638  1.00  0.00     0.216 HD
ENDBRANCH  19  20
ENDBRANCH  17  19
ENDBRANCH  16  17
ENDBRANCH  13  16
BRANCH  14  22
HETATM   22  O5  UNL     1       0.785   1.540   1.296  1.00  0.00    -0.386 OA
ATOM     23  H5  UNL     1       0.098   1.599   1.950  1.00  0.00     0.210 HD
ENDBRANCH  14  22
BRANCH   1  24
HETATM   24  O2  UNL     1       2.743  -1.023  -0.001  1.00  0.00    -0.309 OA
BRANCH  24  25
HETATM   25  C2  UNL     1       4.008  -1.056   0.468  1.00  0.00     0.255 C 
HETATM   26  C1  UNL     1       4.805  -2.264   0.645  1.00  0.00     0.126 C 
HETATM   27  O1  UNL     1       4.566   0.067   0.766  1.00  0.00    -0.266 OA
ENDBRANCH  24  25
ENDBRANCH   1  24
BRANCH  11  28
HETATM   28  N1  UNL     1      -4.308  -1.441   0.364  1.00  0.00    -0.288 NA
BRANCH  28  29
HETATM   29  O3  UNL     1      -5.348  -2.133   0.208  1.00  0.00    -0.218 OA
ATOM     30  H3  UNL     1      -6.203  -2.490  -0.001  1.00  0.00     0.261 HD
ENDBRANCH  28  29
ENDBRANCH  11  28
TORSDOF 9
