REMARK  4 active torsions:
REMARK  status: ('A' for Active; 'I' for Inactive)
REMARK    1  A    between atoms: C4_11  and  N4_12 
REMARK    2  A    between atoms: N4_12  and  C5_14 
REMARK    3  A    between atoms: C5_14  and  C6_15 
REMARK    4  A    between atoms: N5_16  and  N6_18 
ROOT
HETATM    1  N1  UNL     1      -3.556   2.916  -0.725  1.00  0.00    -0.234 N 
ATOM      2  H11 UNL     1      -3.261   3.889  -0.813  1.00  0.00     0.174 HD
ATOM      3  H12 UNL     1      -4.560   2.938  -0.901  1.00  0.00     0.174 HD
HETATM    4  C1  UNL     1      -2.895   1.843  -0.457  1.00  0.00     0.676 A 
HETATM    5  N2  UNL     1      -3.283   0.562  -0.341  1.00  0.00    -0.193 N 
ATOM      6  H2  UNL     1      -4.245   0.244  -0.462  1.00  0.00     0.184 HD
HETATM    7  C2  UNL     1      -2.256  -0.248  -0.048  1.00  0.00     0.066 A 
HETATM    8  C3  UNL     1      -1.150   0.561   0.027  1.00  0.00     0.117 A 
HETATM    9  N3  UNL     1      -1.549   1.814  -0.221  1.00  0.00    -0.186 N 
ATOM     10  H3  UNL     1      -0.937   2.630  -0.232  1.00  0.00     0.184 HD
HETATM   11  C4  UNL     1       0.226   0.190   0.317  1.00  0.00     0.146 C 
HETATM   12  N7  UNL     1       0.734  -0.959   0.588  1.00  0.00    -0.281 N 
ATOM     13  H7  UNL     1       1.740  -0.968   0.757  1.00  0.00     0.188 HD
HETATM   14  N8  UNL     1       0.086  -2.213   0.683  1.00  0.00    -0.268 N 
ATOM     15  H8  UNL     1       0.675  -3.043   0.747  1.00  0.00     0.190 HD
HETATM   16  C7  UNL     1      -1.313  -2.405   0.696  1.00  0.00     0.241 C 
HETATM   17  O1  UNL     1      -1.663  -3.443   1.362  1.00  0.00    -0.271 OA
HETATM   18  C8  UNL     1      -2.448  -1.689   0.124  1.00  0.00     0.164 C 
ENDROOT
BRANCH  11  19
HETATM   19  N4  UNL     1       1.169   1.254   0.302  1.00  0.00    -0.369 N 
ATOM     20  H4  UNL     1       0.930   2.094   0.829  1.00  0.00     0.161 HD
BRANCH  19  21
HETATM   21  C5  UNL     1       2.419   1.253  -0.384  1.00  0.00     0.167 C 
BRANCH  21  22
HETATM   22  C6  UNL     1       3.393   0.304   0.200  1.00  0.00     0.099 C 
HETATM   23  N5  UNL     1       4.065  -0.448  -0.577  1.00  0.00    -0.321 N 
ATOM     24  H5  UNL     1       3.925  -0.389  -1.586  1.00  0.00     0.185 HD
BRANCH  23  25
HETATM   25  N6  UNL     1       4.983  -1.343  -0.063  1.00  0.00    -0.346 N 
ATOM     26  H62 UNL     1       5.111  -1.389   0.948  1.00  0.00     0.176 HD
ATOM     27  H61 UNL     1       5.521  -1.945  -0.686  1.00  0.00     0.176 HD
ENDBRANCH  23  25
ENDBRANCH  21  22
ENDBRANCH  19  21
ENDBRANCH  11  19
TORSDOF 4
