REMARK  7 active torsions:
REMARK  status: ('A' for Active; 'I' for Inactive)
REMARK    1  A    between atoms: C2_2  and  N1_3 
REMARK    2  A    between atoms: N1_3  and  C4_5 
REMARK    3  A    between atoms: C4_5  and  O1_6 
REMARK    4  A    between atoms: C4_5  and  N2_8 
REMARK    5  A    between atoms: N2_8  and  N3_9 
REMARK    6  A    between atoms: N2_8  and  C9_16 
REMARK    7  A    between atoms: C8_13  and  O2_14 
ROOT
HETATM    1  N2  UNL     1      -0.445  -0.152  -0.020  1.00  0.00    -0.239 N 
ENDROOT
BRANCH   1   2
HETATM    2  C4  UNL     1       0.656  -0.835  -0.500  1.00  0.00     0.237 C 
BRANCH   2   3
HETATM    3  N1  UNL     1       2.034  -0.736  -0.475  1.00  0.00    -0.351 N 
HETATM    4  C3  UNL     1       2.803  -1.866  -1.138  1.00  0.00     0.153 C 
BRANCH   3   5
HETATM    5  C2  UNL     1       2.889   0.257   0.071  1.00  0.00     0.121 C 
HETATM    6  C1  UNL     1       3.280   1.314  -0.954  1.00  0.00     0.026 C 
ENDBRANCH   3   5
ENDBRANCH   2   3
BRANCH   2   7
HETATM    7  O1  UNL     1       0.246  -1.923  -1.200  1.00  0.00    -0.331 OA
ATOM      8  H1  UNL     1      -0.701  -1.991  -1.217  1.00  0.00     0.221 HD
ENDBRANCH   2   7
ENDBRANCH   1   2
BRANCH   1   9
HETATM    9  N3  UNL     1      -1.718  -0.702  -0.475  1.00  0.00    -0.240 N 
HETATM   10  C5  UNL     1      -2.550  -0.141  -1.357  1.00  0.00     0.119 A 
HETATM   11  C6  UNL     1      -3.655  -0.979  -1.535  1.00  0.00     0.024 A 
HETATM   12  C7  UNL     1      -3.431  -2.066  -0.710  1.00  0.00     0.059 A 
HETATM   13  C8  UNL     1      -2.219  -1.857  -0.069  1.00  0.00     0.161 A 
BRANCH  13  14
HETATM   14  O2  UNL     1      -1.676  -2.763   0.846  1.00  0.00    -0.345 OA
ATOM     15  H2  UNL     1      -2.036  -3.592   1.138  1.00  0.00     0.219 HD
ENDBRANCH  13  14
ENDBRANCH   1   9
BRANCH   1  16
HETATM   16  C9  UNL     1      -0.621   0.959   0.856  1.00  0.00     0.047 C 
HETATM   17  C10 UNL     1      -2.121   1.277   1.054  1.00  0.00     0.040 C 
HETATM   18  C11 UNL     1      -0.122   0.614   2.262  1.00  0.00     0.040 C 
HETATM   19  C12 UNL     1      -0.018   2.255   0.445  1.00  0.00     0.040 C 
ENDBRANCH   1  16
TORSDOF 7
