REMARK  8 active torsions:
REMARK  status: ('A' for Active; 'I' for Inactive)
REMARK    1  A    between atoms: O1_2  and  C2_3 
REMARK    2  A    between atoms: C2_3  and  C3_5 
REMARK    3  A    between atoms: C3_5  and  C4_6 
REMARK    4  A    between atoms: C4_6  and  O3_7 
REMARK    5  A    between atoms: O3_7  and  C5_8 
REMARK    6  A    between atoms: C5_8  and  C6_10 
REMARK    7  A    between atoms: C16_20  and  O5_22 
REMARK    8  A    between atoms: C24_31  and  O7_32 
ROOT
HETATM    1  C6  UNL     1       0.990  -0.166   0.615  1.00  0.00     0.052 C 
HETATM    2  C7  UNL     1       0.843   1.061   1.420  1.00  0.00     0.026 C 
HETATM    3  C8  UNL     1       1.330  -1.420   1.414  1.00  0.00     0.028 C 
HETATM    4  C9  UNL     1       0.289  -1.964   2.261  1.00  0.00    -0.046 C 
HETATM    5  C10 UNL     1       0.417  -3.491   2.286  1.00  0.00     0.015 C 
HETATM    6  C11 UNL     1       0.556  -1.552   3.714  1.00  0.00     0.015 C 
HETATM    7  C12 UNL     1      -1.077  -1.499   1.886  1.00  0.00     0.018 C 
HETATM    8  C13 UNL     1      -1.302  -1.228   0.395  1.00  0.00    -0.031 C 
HETATM    9  C14 UNL     1      -1.282  -2.672  -0.184  1.00  0.00     0.016 C 
HETATM   10  C15 UNL     1      -0.213  -0.476  -0.281  1.00  0.00     0.046 C 
HETATM   11  C16 UNL     1      -0.637   0.570  -1.225  1.00  0.00     0.061 C 
HETATM   12  C17 UNL     1       0.299   1.604  -1.701  1.00  0.00     0.046 C 
HETATM   13  C18 UNL     1      -1.898   1.299  -0.876  1.00  0.00     0.052 C 
HETATM   14  C19 UNL     1      -3.041   0.349  -0.630  1.00  0.00    -0.004 C 
HETATM   15  C20 UNL     1      -3.546  -0.158  -1.998  1.00  0.00     0.021 C 
HETATM   16  C21 UNL     1      -4.134   1.261  -0.197  1.00  0.00     0.017 A 
HETATM   17  C22 UNL     1      -4.358   1.575   1.115  1.00  0.00    -0.024 A 
HETATM   18  C23 UNL     1      -5.409   2.451   1.232  1.00  0.00     0.152 A 
HETATM   19  O6  UNL     1      -5.827   2.672   0.009  1.00  0.00    -0.299 OA
HETATM   20  C24 UNL     1      -5.120   2.003  -0.867  1.00  0.00     0.190 A 
HETATM   21  C25 UNL     1      -3.439   0.891   2.073  1.00  0.00     0.042 C 
HETATM   22  C26 UNL     1      -3.434  -0.551   1.598  1.00  0.00     0.011 C 
HETATM   23  C27 UNL     1      -2.718  -0.753   0.295  1.00  0.00     0.007 C 
ENDROOT
BRANCH   1  24
HETATM   24  C5  UNL     1       2.264  -0.079  -0.178  1.00  0.00     0.267 C 
HETATM   25  O4  UNL     1       2.347  -0.561  -1.325  1.00  0.00    -0.264 OA
BRANCH  24  26
HETATM   26  O3  UNL     1       3.380   0.539   0.357  1.00  0.00    -0.320 OA
BRANCH  26  27
HETATM   27  C4  UNL     1       4.612   0.678  -0.276  1.00  0.00     0.188 C 
BRANCH  27  28
HETATM   28  C3  UNL     1       4.585   1.452  -1.566  1.00  0.00     0.138 C 
BRANCH  28  29
HETATM   29  C2  UNL     1       5.973   1.506  -2.105  1.00  0.00     0.260 C 
HETATM   30  O2  UNL     1       6.209   2.106  -3.187  1.00  0.00    -0.265 OA
BRANCH  29  31
HETATM   31  O1  UNL     1       7.023   0.904  -1.433  1.00  0.00    -0.326 OA
HETATM   32  C1  UNL     1       8.331   0.988  -1.994  1.00  0.00     0.213 C 
ENDBRANCH  29  31
ENDBRANCH  28  29
ENDBRANCH  27  28
ENDBRANCH  26  27
ENDBRANCH  24  26
ENDBRANCH   1  24
BRANCH  11  33
HETATM   33  O5  UNL     1      -0.989  -0.089  -2.453  1.00  0.00    -0.390 OA
ATOM     34  H5  UNL     1      -1.263   0.586  -3.062  1.00  0.00     0.210 HD
ENDBRANCH  11  33
BRANCH  20  35
HETATM   35  O7  UNL     1      -5.294   2.010  -2.232  1.00  0.00    -0.340 OA
ATOM     36  H7  UNL     1      -5.961   2.512  -2.685  1.00  0.00     0.220 HD
ENDBRANCH  20  35
TORSDOF 8
