REMARK  6 active torsions:
REMARK  status: ('A' for Active; 'I' for Inactive)
REMARK    1  A    between atoms: C5_6  and  O2_7 
REMARK    2  A    between atoms: C12_15  and  S1_16 
REMARK    3  A    between atoms: S1_16  and  S2_17 
REMARK    4  A    between atoms: S2_17  and  C13_18 
REMARK    5  A    between atoms: N1_21  and  O3_22 
REMARK    6  A    between atoms: C20_28  and  O4_29 
ROOT
HETATM    1  C1  UNL     1       3.449   1.635  -0.122  1.00  0.00     0.027 C 
HETATM    2  C2  UNL     1       3.897   0.458   0.171  1.00  0.00     0.008 A 
HETATM    3  C3  UNL     1       5.360   0.312   0.393  1.00  0.00     0.141 A 
HETATM    4  C4  UNL     1       5.913  -0.859   0.665  1.00  0.00     0.226 A 
HETATM    5  O1  UNL     1       5.060  -1.946   0.733  1.00  0.00    -0.261 OA
HETATM    6  C5  UNL     1       3.705  -1.857   0.536  1.00  0.00     0.197 A 
HETATM    7  C6  UNL     1       3.045  -0.702   0.253  1.00  0.00     0.040 A 
HETATM    8  C7  UNL     1       1.626  -0.692   0.044  1.00  0.00    -0.034 C 
HETATM    9  C8  UNL     1       1.136  -0.426  -1.367  1.00  0.00     0.048 C 
HETATM   10  C9  UNL     1      -0.400  -0.353  -1.061  1.00  0.00    -0.028 C 
HETATM   11  C10 UNL     1      -0.807  -1.741  -0.702  1.00  0.00     0.016 C 
HETATM   12  C11 UNL     1      -1.033   0.105  -2.348  1.00  0.00     0.016 C 
HETATM   13  C12 UNL     1      -0.348   0.657   0.011  1.00  0.00     0.099 C 
HETATM   14  C20 UNL     1       0.711   0.037   0.947  1.00  0.00     0.163 C 
HETATM   15  O5  UNL     1       7.280  -0.665   0.817  1.00  0.00    -0.290 OA
HETATM   16  C21 UNL     1       7.602   0.685   0.619  1.00  0.00     0.171 A 
HETATM   17  C22 UNL     1       8.226   1.335   1.834  1.00  0.00     0.079 C 
HETATM   18  C23 UNL     1       8.483   0.912  -0.580  1.00  0.00     0.079 C 
HETATM   19  O6  UNL     1       6.353   1.264   0.367  1.00  0.00    -0.309 OA
ENDROOT
BRANCH  14  20
HETATM   20  O4  UNL     1       1.214   0.880   1.877  1.00  0.00    -0.390 OA
ATOM     21  H4  UNL     1       0.626   1.349   2.457  1.00  0.00     0.210 HD
ENDBRANCH  14  20
BRANCH   6  22
HETATM   22  O2  UNL     1       2.934  -3.025   0.629  1.00  0.00    -0.340 OA
ATOM     23  H2  UNL     1       1.996  -2.963   0.493  1.00  0.00     0.220 HD
ENDBRANCH   6  22
BRANCH  13  24
HETATM   24  S1  UNL     1      -1.713   1.389   0.749  1.00  0.00    -0.088 SA
BRANCH  24  25
HETATM   25  S2  UNL     1      -2.863  -0.044   1.768  1.00  0.00    -0.088 SA
BRANCH  25  26
HETATM   26  C13 UNL     1      -4.105  -0.489   0.532  1.00  0.00     0.085 C 
HETATM   27  C14 UNL     1      -4.980  -1.548   1.131  1.00  0.00     0.008 C 
HETATM   28  C15 UNL     1      -6.285  -1.521   1.130  1.00  0.00     0.115 C 
HETATM   29  N1  UNL     1      -7.029  -0.461   0.547  1.00  0.00    -0.263 N 
HETATM   30  C16 UNL     1      -6.296   0.509  -0.228  1.00  0.00     0.053 C 
HETATM   31  C17 UNL     1      -7.067   1.828  -0.160  1.00  0.00     0.041 C 
HETATM   32  C18 UNL     1      -6.210   0.134  -1.690  1.00  0.00     0.041 C 
HETATM   33  C19 UNL     1      -4.941   0.780   0.359  1.00  0.00     0.052 C 
BRANCH  29  34
HETATM   34  O3  UNL     1      -8.356  -0.424   0.753  1.00  0.00    -0.287 OA
ATOM     35  H3  UNL     1      -8.854   0.285   0.363  1.00  0.00     0.244 HD
ENDBRANCH  29  34
ENDBRANCH  25  26
ENDBRANCH  24  25
ENDBRANCH  13  24
TORSDOF 6
