REMARK  6 active torsions:
REMARK  status: ('A' for Active; 'I' for Inactive)
REMARK    1  A    between atoms: C2_2  and  O1_3 
REMARK    2  A    between atoms: C4_6  and  C5_7 
REMARK    3  A    between atoms: C5_7  and  C6_8 
REMARK    4  A    between atoms: N1_9  and  O2_11 
REMARK    5  A    between atoms: O2_11  and  C7_12 
REMARK    6  A    between atoms: C15_20  and  O3_22 
ROOT
HETATM    1  C5  UNL     1      -1.252  -2.277   0.483  1.00  0.00     0.052 C 
ENDROOT
BRANCH   1   2
HETATM    2  C4  UNL     1      -2.335  -1.690  -0.327  1.00  0.00     0.002 C 
HETATM    3  C3  UNL     1      -3.634  -2.385   0.115  1.00  0.00     0.043 C 
HETATM    4  C2  UNL     1      -4.319  -1.718   1.241  1.00  0.00     0.055 C 
HETATM    5  C1  UNL     1      -5.570  -2.556   1.543  1.00  0.00     0.045 C 
HETATM    6  C26 UNL     1      -4.682  -0.312   0.821  1.00  0.00     0.043 C 
HETATM    7  C25 UNL     1      -3.916   0.203  -0.352  1.00  0.00     0.005 C 
HETATM    8  C17 UNL     1      -2.462  -0.207  -0.400  1.00  0.00    -0.036 C 
HETATM    9  C22 UNL     1      -4.160   1.687  -0.432  1.00  0.00    -0.043 C 
HETATM   10  C18 UNL     1      -1.972   0.175  -1.812  1.00  0.00     0.016 C 
HETATM   11  C19 UNL     1      -1.613   0.545   0.565  1.00  0.00     0.010 C 
HETATM   12  C20 UNL     1      -2.160   1.888   0.981  1.00  0.00     0.002 C 
HETATM   13  C21 UNL     1      -2.983   2.544  -0.092  1.00  0.00     0.009 C 
HETATM   14  C23 UNL     1      -5.287   2.132   0.521  1.00  0.00     0.015 C 
HETATM   15  C24 UNL     1      -4.623   2.108  -1.824  1.00  0.00     0.015 C 
BRANCH   4  16
HETATM   16  O1  UNL     1      -3.621  -1.661   2.434  1.00  0.00    -0.390 OA
ATOM     17  H1  UNL     1      -2.847  -1.143   2.247  1.00  0.00     0.210 HD
ENDBRANCH   4  16
ENDBRANCH   1   2
BRANCH   1  18
HETATM   18  C6  UNL     1       0.095  -1.738   0.179  1.00  0.00     0.087 C 
HETATM   19  N1  UNL     1       1.041  -1.764   1.057  1.00  0.00    -0.279 N 
ATOM     20  H1  UNL     1       0.867  -2.161   1.980  1.00  0.00     0.193 HD
BRANCH  19  21
HETATM   21  O2  UNL     1       2.278  -1.259   0.752  1.00  0.00    -0.248 OA
BRANCH  21  22
HETATM   22  C7  UNL     1       3.070  -1.972  -0.190  1.00  0.00     0.288 C 
HETATM   23  C8  UNL     1       4.311  -2.435   0.574  1.00  0.00     0.064 C 
HETATM   24  C9  UNL     1       4.919  -1.162   1.166  1.00  0.00     0.015 C 
HETATM   25  C10 UNL     1       5.167  -0.224   0.024  1.00  0.00     0.049 C 
HETATM   26  C11 UNL     1       3.893   0.028  -0.773  1.00  0.00     0.131 C 
HETATM   27  C15 UNL     1       5.704   1.106   0.442  1.00  0.00     0.060 C 
HETATM   28  C12 UNL     1       4.243   1.028  -1.849  1.00  0.00     0.032 C 
HETATM   29  O4  UNL     1       3.427  -1.171  -1.270  1.00  0.00    -0.353 OA
HETATM   30  C13 UNL     1       5.726   1.209  -2.010  1.00  0.00     0.006 C 
HETATM   31  C14 UNL     1       6.412   1.702  -0.773  1.00  0.00     0.038 C 
HETATM   32  C16 UNL     1       6.637   1.018   1.620  1.00  0.00     0.046 C 
BRANCH  27  33
HETATM   33  O3  UNL     1       4.635   1.980   0.716  1.00  0.00    -0.390 OA
ATOM     34  H3  UNL     1       4.976   2.826   0.982  1.00  0.00     0.210 HD
ENDBRANCH  27  33
ENDBRANCH  21  22
ENDBRANCH  19  21
ENDBRANCH   1  18
TORSDOF 6
