REMARK  8 active torsions:
REMARK  status: ('A' for Active; 'I' for Inactive)
REMARK    1  A    between atoms: O1_1  and  C1_3 
REMARK    2  A    between atoms: C1_3  and  C2_4 
REMARK    3  A    between atoms: C3_6  and  C4_7 
REMARK    4  A    between atoms: C4_7  and  O2_8 
REMARK    5  A    between atoms: N1_10  and  O3_12 
REMARK    6  A    between atoms: C5_14  and  O4_15 
REMARK    7  A    between atoms: C6_17  and  O5_18 
REMARK    8  A    between atoms: C7_20  and  O6_21 
ROOT
HETATM    1  C2  UNL     1      -1.444   0.930   0.682  1.00  0.00     0.103 C 
HETATM    2  S1  UNL     1       0.284   1.098   1.205  1.00  0.00    -0.143 SA
HETATM    3  C3  UNL     1       1.220  -0.418   0.856  1.00  0.00     0.155 C 
HETATM    4  C5  UNL     1       0.608  -1.198  -0.277  1.00  0.00     0.171 C 
HETATM    5  C6  UNL     1      -0.896  -1.314  -0.135  1.00  0.00     0.178 C 
HETATM    6  C7  UNL     1      -1.603  -0.035  -0.447  1.00  0.00     0.165 C 
ENDROOT
BRANCH   3   7
HETATM    7  C4  UNL     1       2.652  -0.164   0.601  1.00  0.00     0.152 C 
HETATM    8  N1  UNL     1       3.167  -0.524  -0.522  1.00  0.00    -0.250 N 
ATOM      9  H1  UNL     1       2.562  -0.978  -1.206  1.00  0.00     0.196 HD
BRANCH   7  10
HETATM   10  O2  UNL     1       3.498   0.449   1.508  1.00  0.00    -0.347 OA
ATOM     11  H2  UNL     1       4.419   0.612   1.344  1.00  0.00     0.219 HD
ENDBRANCH   7  10
BRANCH   8  12
HETATM   12  O3  UNL     1       4.482  -0.331  -0.849  1.00  0.00    -0.288 OA
ATOM     13  H3  UNL     1       4.862  -0.597  -1.678  1.00  0.00     0.244 HD
ENDBRANCH   8  12
ENDBRANCH   3   7
BRANCH   4  14
HETATM   14  O4  UNL     1       0.915  -0.617  -1.486  1.00  0.00    -0.391 OA
ATOM     15  H4  UNL     1       0.529  -1.109  -2.201  1.00  0.00     0.210 HD
ENDBRANCH   4  14
BRANCH   1  16
HETATM   16  C1  UNL     1      -1.932   2.326   0.322  1.00  0.00     0.181 C 
BRANCH  16  17
HETATM   17  O1  UNL     1      -3.259   2.304  -0.096  1.00  0.00    -0.400 OA
ATOM     18  H1  UNL     1      -3.564   3.175  -0.321  1.00  0.00     0.209 HD
ENDBRANCH  16  17
ENDBRANCH   1  16
BRANCH   5  19
HETATM   19  O5  UNL     1      -1.313  -2.270  -1.066  1.00  0.00    -0.390 OA
ATOM     20  H5  UNL     1      -2.256  -2.343  -0.977  1.00  0.00     0.210 HD
ENDBRANCH   5  19
BRANCH   6  21
HETATM   21  O6  UNL     1      -2.977  -0.334  -0.548  1.00  0.00    -0.392 OA
ATOM     22  H6  UNL     1      -3.078  -0.948  -1.266  1.00  0.00     0.210 HD
ENDBRANCH   6  21
TORSDOF 8
