REMARK  8 active torsions:
REMARK  status: ('A' for Active; 'I' for Inactive)
REMARK    1  A    between atoms: O1_1  and  N1_3 
REMARK    2  A    between atoms: C1_5  and  O2_6 
REMARK    3  A    between atoms: C1_5  and  O3_8 
REMARK    4  A    between atoms: O3_8  and  C2_9 
REMARK    5  A    between atoms: C2_9  and  C3_10 
REMARK    6  A    between atoms: C4_11  and  O4_12 
REMARK    7  A    between atoms: C6_15  and  O5_16 
REMARK    8  A    between atoms: C7_19  and  O6_20 
ROOT
HETATM    1  C3  UNL     1       0.095  -0.255   0.276  1.00  0.00     0.072 C 
HETATM    2  C4  UNL     1      -0.948  -1.025   1.096  1.00  0.00     0.130 C 
HETATM    3  C5  UNL     1      -2.162  -0.148   1.020  1.00  0.00     0.085 C 
HETATM    4  C6  UNL     1      -2.082   0.547  -0.326  1.00  0.00     0.144 C 
HETATM    5  S1  UNL     1      -3.440  -0.030  -1.375  1.00  0.00    -0.053 SA
HETATM    6  C7  UNL     1      -0.731   0.166  -0.913  1.00  0.00     0.172 C 
ENDROOT
BRANCH   1   7
HETATM    7  C2  UNL     1       1.177  -1.219  -0.071  1.00  0.00     0.189 C 
BRANCH   7   8
HETATM    8  O3  UNL     1       2.218  -0.678  -0.825  1.00  0.00    -0.315 OA
BRANCH   8   9
HETATM    9  C1  UNL     1       2.974   0.376  -0.334  1.00  0.00     0.282 C 
HETATM   10  N1  UNL     1       2.996   0.544   0.954  1.00  0.00    -0.227 N 
ATOM     11  H1  UNL     1       2.467  -0.091   1.552  1.00  0.00     0.198 HD
BRANCH  10  12
HETATM   12  O1  UNL     1       3.718   1.560   1.521  1.00  0.00    -0.286 OA
ATOM     13  H1  UNL     1       3.734   1.683   2.463  1.00  0.00     0.244 HD
ENDBRANCH  10  12
BRANCH   9  14
HETATM   14  O2  UNL     1       3.689   1.233  -1.193  1.00  0.00    -0.326 OA
ATOM     15  H2  UNL     1       3.673   1.110  -2.135  1.00  0.00     0.221 HD
ENDBRANCH   9  14
ENDBRANCH   8   9
ENDBRANCH   7   8
ENDBRANCH   1   7
BRANCH   2  16
HETATM   16  O4  UNL     1      -1.225  -2.194   0.362  1.00  0.00    -0.395 OA
ATOM     17  H4  UNL     1      -1.871  -2.671   0.870  1.00  0.00     0.210 HD
ENDBRANCH   2  16
BRANCH   6  18
HETATM   18  O6  UNL     1      -0.225   1.297  -1.547  1.00  0.00    -0.391 OA
ATOM     19  H6  UNL     1      -0.745   1.562  -2.296  1.00  0.00     0.210 HD
ENDBRANCH   6  18
BRANCH   4  20
HETATM   20  O5  UNL     1      -2.185   1.922  -0.120  1.00  0.00    -0.376 OA
ATOM     21  H5  UNL     1      -2.135   2.357  -0.963  1.00  0.00     0.211 HD
ENDBRANCH   4  20
TORSDOF 8
