REMARK  8 active torsions:
REMARK  status: ('A' for Active; 'I' for Inactive)
REMARK    1  A    between atoms: C4_5  and  C5_6 
REMARK    2  A    between atoms: C6_9  and  O4_10 
REMARK    3  A    between atoms: O4_10  and  C7_11 
REMARK    4  A    between atoms: C7_11  and  C8_12 
REMARK       I    between atoms: C8_12  and  N1_14 
REMARK    5  A    between atoms: N1_14  and  C9_16 
REMARK    6  A    between atoms: C9_16  and  C10_17 
REMARK    7  A    between atoms: C10_17  and  S1_18 
REMARK    8  A    between atoms: S1_18  and  N2_19 
ROOT
HETATM    1  C1  UNL     1      -6.213   2.007  -1.206  1.00  0.00     0.077 C 
HETATM    2  C2  UNL     1      -4.939   1.404  -0.724  1.00  0.00     0.056 A 
HETATM    3  O1  UNL     1      -3.710   1.755  -0.977  1.00  0.00    -0.313 OA
HETATM    4  C3  UNL     1      -2.841   0.984  -0.372  1.00  0.00     0.106 A 
HETATM    5  C4  UNL     1      -1.455   0.945  -0.321  1.00  0.00     0.109 A 
HETATM    6  C6  UNL     1      -0.772  -0.001   0.415  1.00  0.00     0.095 A 
HETATM    7  C11 UNL     1      -1.539  -0.915   1.106  1.00  0.00    -0.021 A 
HETATM    8  C12 UNL     1      -0.844  -1.956   1.916  1.00  0.00     0.052 C 
HETATM    9  C13 UNL     1      -2.912  -0.920   1.090  1.00  0.00    -0.040 A 
HETATM   10  C14 UNL     1      -3.707  -1.920   1.846  1.00  0.00     0.050 C 
HETATM   11  C15 UNL     1      -3.584   0.043   0.340  1.00  0.00     0.014 A 
HETATM   12  C16 UNL     1      -4.925   0.293   0.129  1.00  0.00    -0.019 A 
HETATM   13  C17 UNL     1      -6.063  -0.447   0.681  1.00  0.00     0.052 C 
ENDROOT
BRANCH   6  14
HETATM   14  O4  UNL     1       0.591  -0.078   0.494  1.00  0.00    -0.340 OA
BRANCH  14  15
HETATM   15  C7  UNL     1       1.434  -0.803  -0.340  1.00  0.00     0.278 C 
BRANCH  15  16
HETATM   16  C8  UNL     1       2.837  -0.607   0.103  1.00  0.00     0.241 C 
HETATM   17  O5  UNL     1       3.086   0.119   1.082  1.00  0.00    -0.271 OA
HETATM   18  N1  UNL     1       3.884  -1.248  -0.596  1.00  0.00    -0.358 N 
ATOM     19  H1  UNL     1       3.657  -1.843  -1.393  1.00  0.00     0.162 HD
BRANCH  18  20
HETATM   20  C9  UNL     1       5.261  -1.085  -0.215  1.00  0.00     0.139 C 
BRANCH  20  21
HETATM   21  C10 UNL     1       5.700   0.326  -0.339  1.00  0.00     0.182 C 
BRANCH  21  22
HETATM   22  S1  UNL     1       7.409   0.545   0.122  1.00  0.00     0.226 S 
HETATM   23  O6  UNL     1       8.225  -0.306  -0.817  1.00  0.00    -0.206 OA
HETATM   24  O7  UNL     1       7.585   0.077   1.521  1.00  0.00    -0.206 OA
BRANCH  22  25
HETATM   25  N2  UNL     1       7.781   2.221  -0.069  1.00  0.00    -0.328 N 
ATOM     26  H22 UNL     1       7.132   2.941  -0.388  1.00  0.00     0.168 HD
ATOM     27  H21 UNL     1       8.758   2.346   0.195  1.00  0.00     0.168 HD
ENDBRANCH  22  25
ENDBRANCH  21  22
ENDBRANCH  20  21
ENDBRANCH  18  20
ENDBRANCH  15  16
ENDBRANCH  14  15
ENDBRANCH   6  14
BRANCH   5  28
HETATM   28  C5  UNL     1      -0.715   1.936  -1.072  1.00  0.00     0.215 C 
HETATM   29  O2  UNL     1      -0.417   3.012  -0.530  1.00  0.00    -0.644 OA
HETATM   30  O3  UNL     1      -0.334   1.706  -2.387  1.00  0.00    -0.644 OA
ENDBRANCH   5  28
TORSDOF 8
