REMARK  0 active torsions:
REMARK  status: ('A' for Active; 'I' for Inactive)
ROOT
HETATM    1  N1  UNL     1       3.962  -0.602   0.609  1.00  0.00    -0.073 NA
HETATM    2  C1  UNL     1       2.645  -0.193   0.273  1.00  0.00     0.168 C 
HETATM    3  N2  UNL     1       1.598  -0.891   0.508  1.00  0.00    -0.284 N 
ATOM      4  H2  UNL     1       1.719  -1.796   0.963  1.00  0.00     0.188 HD
HETATM    5  N3  UNL     1       0.297  -0.491   0.180  1.00  0.00    -0.321 N 
HETATM    6  C2  UNL     1      -0.593  -1.556  -0.202  1.00  0.00     0.143 C 
HETATM    7  C3  UNL     1      -2.030  -1.324   0.058  1.00  0.00     0.021 C 
HETATM    8  C4  UNL     1      -2.455   0.094   0.182  1.00  0.00     0.004 C 
HETATM    9  C5  UNL     1      -1.457   0.938  -0.594  1.00  0.00     0.028 C 
HETATM   10  C6  UNL     1      -0.151   0.858   0.213  1.00  0.00     0.112 C 
HETATM   11  C7  UNL     1       0.751   1.879  -0.371  1.00  0.00     0.108 C 
HETATM   12  S1  UNL     1       2.456   1.374  -0.522  1.00  0.00    -0.094 SA
ENDROOT
TORSDOF 0
