REMARK  2 active torsions:
REMARK  status: ('A' for Active; 'I' for Inactive)
REMARK    1  A    between atoms: N1_3  and  O1_4 
REMARK    2  A    between atoms: C9_14  and  O4_16 
ROOT
HETATM    1  C1  UNL     1      -0.337   2.153  -0.840  1.00  0.00     0.034 C 
HETATM    2  C2  UNL     1      -0.475   1.168   0.258  1.00  0.00     0.151 C 
HETATM    3  N1  UNL     1      -1.822   0.579   0.169  1.00  0.00    -0.156 NA
HETATM    4  C3  UNL     1      -1.648  -0.684  -0.490  1.00  0.00     0.136 C 
HETATM    5  C4  UNL     1      -2.418  -0.756  -1.810  1.00  0.00     0.066 C 
HETATM    6  C5  UNL     1      -2.061  -1.834   0.393  1.00  0.00     0.066 C 
HETATM    7  O2  UNL     1      -0.300  -0.790  -0.840  1.00  0.00    -0.324 OA
HETATM    8  C6  UNL     1       0.373  -0.047   0.159  1.00  0.00     0.215 C 
HETATM    9  O3  UNL     1       0.195  -0.775   1.341  1.00  0.00    -0.351 OA
HETATM   10  C7  UNL     1       1.343  -1.466   1.589  1.00  0.00     0.174 C 
HETATM   11  C8  UNL     1       2.483  -0.748   0.952  1.00  0.00     0.069 C 
HETATM   12  C9  UNL     1       1.798   0.135  -0.087  1.00  0.00     0.114 C 
HETATM   13  C10 UNL     1       2.360   1.494   0.017  1.00  0.00     0.052 C 
ENDROOT
BRANCH  12  14
HETATM   14  O4  UNL     1       2.134  -0.399  -1.336  1.00  0.00    -0.385 OA
ATOM     15  H4  UNL     1       3.063  -0.280  -1.496  1.00  0.00     0.210 HD
ENDBRANCH  12  14
BRANCH   3  16
HETATM   16  O1  UNL     1      -2.311   0.465   1.424  1.00  0.00    -0.310 OA
ATOM     17  H1  UNL     1      -3.180   0.085   1.367  1.00  0.00     0.237 HD
ENDBRANCH   3  16
TORSDOF 2
