REMARK  1 active torsions:
REMARK  status: ('A' for Active; 'I' for Inactive)
REMARK    1  A    between atoms: C3_4  and  O1_5 
ROOT
HETATM    1  C1  UNL     1       0.514   2.081   0.377  1.00  0.00     0.146 C 
HETATM    2  N1  UNL     1       0.345   0.728   0.801  1.00  0.00    -0.389 N 
HETATM    3  C2  UNL     1       1.525   0.171   1.338  1.00  0.00     0.150 C 
HETATM    4  C3  UNL     1       2.435  -0.470   0.320  1.00  0.00     0.137 C 
HETATM    5  C4  UNL     1       1.684  -1.377  -0.610  1.00  0.00     0.053 C 
HETATM    6  C5  UNL     1       0.226  -1.400  -0.437  1.00  0.00     0.106 C 
HETATM    7  S1  UNL     1      -0.289  -2.377   1.037  1.00  0.00    -0.085 SA
HETATM    8  C6  UNL     1      -1.742  -1.402   1.366  1.00  0.00     0.138 C 
HETATM    9  N2  UNL     1      -2.584  -1.654   2.268  1.00  0.00    -0.380 N 
ATOM     10  H21 UNL     1      -3.416  -1.095   2.456  1.00  0.00     0.158 HD
ATOM     11  H22 UNL     1      -2.598  -2.417   2.945  1.00  0.00     0.158 HD
HETATM   12  N3  UNL     1      -1.722  -0.350   0.432  1.00  0.00    -0.339 N 
HETATM   13  C7  UNL     1      -2.942   0.388   0.059  1.00  0.00     0.154 C 
HETATM   14  C8  UNL     1      -0.406  -0.094  -0.092  1.00  0.00     0.114 C 
HETATM   15  C9  UNL     1      -0.574   0.671  -1.407  1.00  0.00     0.064 C 
ENDROOT
BRANCH   4  16
HETATM   16  O1  UNL     1       3.197   0.490  -0.375  1.00  0.00    -0.394 OA
ATOM     17  H1  UNL     1       3.770   0.086  -1.016  1.00  0.00     0.210 HD
ENDBRANCH   4  16
TORSDOF 1
