REMARK  4 active torsions:
REMARK  status: ('A' for Active; 'I' for Inactive)
REMARK    1  A    between atoms: N1_2  and  C3_4 
REMARK    2  A    between atoms: C3_4  and  C4_5 
REMARK    3  A    between atoms: C8_9  and  C9_10 
REMARK    4  A    between atoms: C9_10  and  N2_11 
ROOT
HETATM    1  C4  UNL     1      -0.175  -0.291  -0.011  1.00  0.00     0.019 C 
HETATM    2  C5  UNL     1      -0.137  -1.441  -0.931  1.00  0.00     0.007 C 
HETATM    3  C6  UNL     1      -1.085  -1.064  -2.051  1.00  0.00     0.001 C 
HETATM    4  C7  UNL     1      -2.256  -0.516  -1.224  1.00  0.00     0.007 C 
HETATM    5  C8  UNL     1      -1.502   0.396  -0.283  1.00  0.00     0.017 C 
ENDROOT
BRANCH   5   6
HETATM    6  C9  UNL     1      -2.270   0.656   0.986  1.00  0.00     0.234 C 
BRANCH   6   7
HETATM    7  N2  UNL     1      -2.584  -0.535   1.719  1.00  0.00    -0.079 N 
ATOM      8  H23 UNL     1      -3.079  -1.203   1.128  1.00  0.00     0.274 HD
ATOM      9  H22 UNL     1      -1.739  -1.073   1.912  1.00  0.00     0.274 HD
ATOM     10  H21 UNL     1      -3.104  -0.359   2.579  1.00  0.00     0.274 HD
ENDBRANCH   6   7
ENDBRANCH   5   6
BRANCH   1  11
HETATM   11  C3  UNL     1       0.906   0.721  -0.171  1.00  0.00     0.276 C 
BRANCH  11  12
HETATM   12  N1  UNL     1       2.236   0.240   0.005  1.00  0.00     0.080 N 
HETATM   13  C1  UNL     1       3.133   1.391  -0.197  1.00  0.00     0.309 C 
HETATM   14  C2  UNL     1       2.526  -0.265   1.318  1.00  0.00     0.309 C 
ENDBRANCH  11  12
ENDBRANCH   1  11
TORSDOF 4
