REMARK  1 active torsions:
REMARK  status: ('A' for Active; 'I' for Inactive)
REMARK    1  A    between atoms: N3_8  and  N4_10 
ROOT
HETATM    1  C1  UNL     1       5.763   0.659   0.542  1.00  0.00     0.071 C 
HETATM    2  C2  UNL     1       4.610  -0.167   0.037  1.00  0.00     0.047 A 
HETATM    3  N1  UNL     1       4.651  -1.145  -0.872  1.00  0.00    -0.302 N 
ATOM      4  H1  UNL     1       5.498  -1.457  -1.346  1.00  0.00     0.186 HD
HETATM    5  N2  UNL     1       3.459  -1.651  -1.074  1.00  0.00    -0.283 N 
ATOM      6  H2  UNL     1       3.231  -2.407  -1.720  1.00  0.00     0.188 HD
HETATM    7  C3  UNL     1       2.579  -0.994  -0.274  1.00  0.00     0.158 A 
HETATM    8  N3  UNL     1       1.299  -1.217  -0.196  1.00  0.00    -0.283 N 
ATOM      9  H3  UNL     1       0.863  -1.941  -0.767  1.00  0.00     0.188 HD
HETATM   10  C12 UNL     1       3.294  -0.058   0.429  1.00  0.00     0.104 A 
HETATM   11 CL1  UNL     1       2.671   1.074   1.610  1.00  0.00    -0.078 Cl
ENDROOT
BRANCH   8  12
HETATM   12  N4  UNL     1       0.539  -0.453   0.677  1.00  0.00    -0.307 N 
HETATM   13  C4  UNL     1      -0.754  -0.400   0.470  1.00  0.00     0.004 C 
HETATM   14  C5  UNL     1      -1.349   0.470   1.522  1.00  0.00     0.054 C 
HETATM   15  C11 UNL     1      -1.193  -1.183  -0.682  1.00  0.00     0.054 C 
HETATM   16  C6  UNL     1      -2.816   0.146   1.623  1.00  0.00     0.006 C 
HETATM   17  C7  UNL     1      -3.682   1.215   1.030  1.00  0.00     0.000 C 
HETATM   18  C8  UNL     1      -3.865   1.182  -0.437  1.00  0.00     0.000 C 
HETATM   19  C9  UNL     1      -2.651   0.805  -1.246  1.00  0.00     0.000 C 
HETATM   20  C10 UNL     1      -2.452  -0.679  -1.332  1.00  0.00     0.006 C 
ATOM     21  H4  UNL     1       0.971   0.050   1.452  1.00  0.00     0.186 HD
ENDBRANCH   8  12
TORSDOF 1
