REMARK  14 active torsions:
REMARK  status: ('A' for Active; 'I' for Inactive)
REMARK    1  A    between atoms: N1_2  and  C2_5 
REMARK    2  A    between atoms: C2_5  and  C3_6 
REMARK    3  A    between atoms: C3_6  and  C4_7 
REMARK    4  A    between atoms: C4_7  and  O1_8 
REMARK    5  A    between atoms: O1_8  and  C5_9 
REMARK    6  A    between atoms: C5_9  and  C6_10 
REMARK    7  A    between atoms: C6_10  and  O2_11 
REMARK    8  A    between atoms: C6_10  and  C7_13 
REMARK    9  A    between atoms: C7_13  and  O3_14 
REMARK   10  A    between atoms: C7_13  and  C8_16 
REMARK   11  A    between atoms: C8_16  and  N2_17 
REMARK   12  A    between atoms: C17_26  and  O4_27 
REMARK   13  A    between atoms: C22_33  and  O5_34 
REMARK   14  A    between atoms: C23_36  and  O6_37 
ROOT
HETATM    1  N2  UNL     1       0.365   1.179   0.945  1.00  0.00     0.123 N 
HETATM    2  C9  UNL     1      -0.891   1.916   1.184  1.00  0.00     0.288 C 
HETATM    3  C10 UNL     1      -1.957   0.913   1.074  1.00  0.00     0.019 C 
HETATM    4  C11 UNL     1      -2.170   0.232   2.342  1.00  0.00     0.020 C 
HETATM    5  C12 UNL     1      -3.265   1.345   0.486  1.00  0.00     0.020 C 
HETATM    6  C13 UNL     1      -3.521   0.375  -0.619  1.00  0.00     0.008 C 
HETATM    7  C14 UNL     1      -4.895  -0.053  -0.874  1.00  0.00    -0.017 C 
HETATM    8  C15 UNL     1      -5.609   1.145  -1.539  1.00  0.00     0.018 C 
HETATM    9  C16 UNL     1      -5.739  -0.411   0.296  1.00  0.00     0.018 C 
HETATM   10  C17 UNL     1      -4.868  -1.125  -1.953  1.00  0.00     0.126 C 
HETATM   11  C18 UNL     1      -3.595  -1.184  -2.720  1.00  0.00     0.033 C 
HETATM   12  C19 UNL     1      -2.331  -1.256  -1.950  1.00  0.00     0.015 C 
HETATM   13  C20 UNL     1      -2.449  -0.710  -0.523  1.00  0.00    -0.003 C 
HETATM   14  C21 UNL     1      -2.800  -1.881   0.320  1.00  0.00     0.019 C 
HETATM   15  C22 UNL     1      -1.378   0.153  -0.099  1.00  0.00     0.128 C 
HETATM   16  C23 UNL     1      -0.056  -0.104   0.316  1.00  0.00     0.393 C 
ENDROOT
BRANCH   1  17
HETATM   17  C8  UNL     1       1.068   0.953   2.154  1.00  0.00     0.310 C 
BRANCH  17  18
HETATM   18  C7  UNL     1       2.493   0.473   2.024  1.00  0.00     0.177 C 
BRANCH  18  19
HETATM   19  C6  UNL     1       3.439   1.539   1.501  1.00  0.00     0.172 C 
BRANCH  19  20
HETATM   20  C5  UNL     1       3.239   1.783   0.057  1.00  0.00     0.201 C 
BRANCH  20  21
HETATM   21  O1  UNL     1       3.349   0.623  -0.670  1.00  0.00    -0.388 OA
BRANCH  21  22
HETATM   22  C4  UNL     1       4.586   0.065  -0.546  1.00  0.00     0.169 C 
BRANCH  22  23
HETATM   23  C3  UNL     1       4.725  -1.195  -1.398  1.00  0.00     0.054 C 
BRANCH  23  24
HETATM   24  C2  UNL     1       6.147  -1.695  -1.160  1.00  0.00     0.234 C 
BRANCH  24  25
HETATM   25  N1  UNL     1       7.071  -0.661  -1.566  1.00  0.00    -0.079 N 
HETATM   26  C1  UNL     1       8.435  -1.057  -1.373  1.00  0.00     0.266 C 
ATOM     27  H12 UNL     1       6.871   0.221  -1.095  1.00  0.00     0.276 HD
ATOM     28  H11 UNL     1       6.902  -0.370  -2.529  1.00  0.00     0.276 HD
ENDBRANCH  24  25
ENDBRANCH  23  24
ENDBRANCH  22  23
ENDBRANCH  21  22
ENDBRANCH  20  21
ENDBRANCH  19  20
BRANCH  19  29
HETATM   29  O2  UNL     1       3.323   2.708   2.288  1.00  0.00    -0.391 OA
ATOM     30  H2  UNL     1       3.452   2.551   3.216  1.00  0.00     0.210 HD
ENDBRANCH  19  29
ENDBRANCH  18  19
BRANCH  18  31
HETATM   31  O3  UNL     1       2.979   0.226   3.366  1.00  0.00    -0.391 OA
ATOM     32  H3  UNL     1       2.387  -0.441   3.693  1.00  0.00     0.210 HD
ENDBRANCH  18  31
ENDBRANCH  17  18
ENDBRANCH   1  17
BRANCH  16  33
HETATM   33  O6  UNL     1       0.241  -1.174   1.119  1.00  0.00    -0.365 OA
ATOM     34  H6  UNL     1      -0.027  -1.992   0.718  1.00  0.00     0.212 HD
ENDBRANCH  16  33
BRANCH  15  35
HETATM   35  O5  UNL     1      -1.271   1.162  -1.113  1.00  0.00    -0.384 OA
ATOM     36  H5  UNL     1      -0.907   0.685  -1.850  1.00  0.00     0.210 HD
ENDBRANCH  15  35
BRANCH  10  37
HETATM   37  O4  UNL     1      -5.893  -0.889  -2.904  1.00  0.00    -0.395 OA
ATOM     38  H4  UNL     1      -5.876  -1.558  -3.578  1.00  0.00     0.210 HD
ENDBRANCH  10  37
TORSDOF 14
