REMARK  14 active torsions:
REMARK  status: ('A' for Active; 'I' for Inactive)
REMARK    1  A    between atoms: C2_2  and  C3_3 
REMARK    2  A    between atoms: C3_3  and  C4_4 
REMARK    3  A    between atoms: C4_4  and  C5_5 
REMARK    4  A    between atoms: C5_5  and  C6_6 
REMARK    5  A    between atoms: C6_6  and  O1_7 
REMARK    6  A    between atoms: O1_7  and  C7_8 
REMARK    7  A    between atoms: C7_8  and  O2_9 
REMARK    8  A    between atoms: O2_9  and  C8_10 
REMARK    9  A    between atoms: C11_14  and  O4_15 
REMARK   10  A    between atoms: C14_19  and  O5_20 
REMARK   11  A    between atoms: C15_23  and  O7_24 
REMARK   12  A    between atoms: C19_29  and  O8_30 
REMARK   13  A    between atoms: C20_32  and  O9_33 
REMARK   14  A    between atoms: C21_35  and  O10_36 
ROOT
HETATM    1  C8  UNL     1       0.340  -0.231  -0.561  1.00  0.00     0.293 C 
HETATM    2  O3  UNL     1      -0.756   0.400  -1.188  1.00  0.00    -0.353 OA
HETATM    3  C9  UNL     1      -1.709  -0.572  -1.348  1.00  0.00     0.135 C 
HETATM    4  C10 UNL     1      -2.645  -0.387  -2.478  1.00  0.00     0.073 C 
HETATM    5  C11 UNL     1      -3.985   0.201  -2.083  1.00  0.00     0.090 C 
HETATM    6  C12 UNL     1      -4.976  -0.870  -1.752  1.00  0.00     0.085 C 
HETATM    7  C13 UNL     1      -5.416  -0.853  -0.346  1.00  0.00     0.015 A 
HETATM    8  C14 UNL     1      -6.542  -1.364   0.240  1.00  0.00     0.192 A 
HETATM    9  O6  UNL     1      -6.485  -1.095   1.526  1.00  0.00    -0.264 OA
HETATM   10  C15 UNL     1      -5.397  -0.441   1.826  1.00  0.00     0.193 A 
HETATM   11  C16 UNL     1      -4.696  -0.267   0.681  1.00  0.00     0.019 A 
HETATM   12  C17 UNL     1      -3.399   0.372   0.273  1.00  0.00     0.065 C 
HETATM   13  C18 UNL     1      -2.415  -0.742  -0.010  1.00  0.00     0.057 C 
HETATM   14  C19 UNL     1      -1.438  -0.922   1.105  1.00  0.00     0.159 C 
HETATM   15  C20 UNL     1      -0.001  -0.962   0.675  1.00  0.00     0.202 C 
HETATM   16  C21 UNL     1      -3.738   1.175  -0.981  1.00  0.00     0.162 C 
ENDROOT
BRANCH   1  17
HETATM   17  O2  UNL     1       1.317   0.739  -0.321  1.00  0.00    -0.335 OA
BRANCH  17  18
HETATM   18  C7  UNL     1       2.438   0.497  -1.130  1.00  0.00     0.341 C 
BRANCH  18  19
HETATM   19  O1  UNL     1       3.406   1.450  -0.898  1.00  0.00    -0.367 OA
BRANCH  19  20
HETATM   20  C6  UNL     1       3.816   1.459   0.399  1.00  0.00     0.170 C 
BRANCH  20  21
HETATM   21  C5  UNL     1       4.417   0.152   0.804  1.00  0.00     0.026 C 
BRANCH  21  22
HETATM   22  C4  UNL     1       5.588  -0.163  -0.074  1.00  0.00     0.002 C 
BRANCH  22  23
HETATM   23  C3  UNL     1       6.629   0.894   0.021  1.00  0.00    -0.000 C 
BRANCH  23  24
HETATM   24  C2  UNL     1       7.126   1.028   1.428  1.00  0.00    -0.005 C 
HETATM   25  C1  UNL     1       7.698  -0.329   1.832  1.00  0.00     0.005 C 
ENDBRANCH  23  24
ENDBRANCH  22  23
ENDBRANCH  21  22
ENDBRANCH  20  21
ENDBRANCH  19  20
ENDBRANCH  18  19
ENDBRANCH  17  18
ENDBRANCH   1  17
BRANCH  15  26
HETATM   26  O9  UNL     1       0.839  -0.488   1.712  1.00  0.00    -0.388 OA
ATOM     27  H9  UNL     1       0.620  -0.959   2.508  1.00  0.00     0.210 HD
ENDBRANCH  15  26
BRANCH  14  28
HETATM   28  O8  UNL     1      -1.577   0.136   2.003  1.00  0.00    -0.392 OA
ATOM     29  H8  UNL     1      -0.955   0.021   2.712  1.00  0.00     0.210 HD
ENDBRANCH  14  28
BRANCH   5  30
HETATM   30  O4  UNL     1      -4.476   0.911  -3.187  1.00  0.00    -0.387 OA
ATOM     31  H4  UNL     1      -5.316   1.280  -2.939  1.00  0.00     0.210 HD
ENDBRANCH   5  30
BRANCH  16  32
HETATM   32  O10 UNL     1      -4.856   1.946  -0.668  1.00  0.00    -0.392 OA
ATOM     33  H10 UNL     1      -4.699   2.566   0.034  1.00  0.00     0.210 HD
ENDBRANCH  16  32
BRANCH  10  34
HETATM   34  O7  UNL     1      -4.972   0.024   3.075  1.00  0.00    -0.340 OA
ATOM     35  H7  UNL     1      -4.180   0.500   3.293  1.00  0.00     0.220 HD
ENDBRANCH  10  34
BRANCH   8  36
HETATM   36  O5  UNL     1      -7.599  -2.055  -0.350  1.00  0.00    -0.340 OA
ATOM     37  H5  UNL     1      -8.381  -2.410   0.057  1.00  0.00     0.220 HD
ENDBRANCH   8  36
TORSDOF 14
