REMARK  7 active torsions:
REMARK  status: ('A' for Active; 'I' for Inactive)
REMARK    1  A    between atoms: C3_3  and  N1_4 
REMARK    2  A    between atoms: C7_8  and  C8_9 
REMARK    3  A    between atoms: C8_9  and  O1_10 
REMARK    4  A    between atoms: C10_15  and  O2_16 
REMARK    5  A    between atoms: O2_16  and  C11_17 
REMARK    6  A    between atoms: C11_17  and  C12_18 
REMARK    7  A    between atoms: C15_22  and  N3_23 
ROOT
HETATM    1  C1  UNL     1       1.900   1.717   0.237  1.00  0.00     0.054 C 
HETATM    2  C2  UNL     1       1.038   0.512   0.322  1.00  0.00     0.011 A 
HETATM    3  C3  UNL     1       1.665  -0.728   0.357  1.00  0.00     0.112 A 
HETATM    4  N2  UNL     1       0.882  -1.814   0.437  1.00  0.00    -0.349 N 
ATOM      5  H2  UNL     1       1.328  -2.731   0.463  1.00  0.00     0.167 HD
HETATM    6  C9  UNL     1      -0.453  -1.758   0.484  1.00  0.00     0.128 A 
HETATM    7  C10 UNL     1      -1.096  -0.540   0.449  1.00  0.00     0.111 A 
HETATM    8  C15 UNL     1      -0.314   0.648   0.365  1.00  0.00     0.075 A 
ENDROOT
BRANCH   3   9
HETATM    9  N1  UNL     1       3.070  -0.872   0.310  1.00  0.00    -0.360 N 
HETATM   10  C4  UNL     1       4.001  -0.312   1.253  1.00  0.00     0.125 C 
HETATM   11  C5  UNL     1       5.068  -1.382   1.340  1.00  0.00     0.022 C 
HETATM   12  C6  UNL     1       5.234  -1.719  -0.147  1.00  0.00     0.029 C 
HETATM   13  C7  UNL     1       3.829  -1.595  -0.668  1.00  0.00     0.109 C 
BRANCH  13  14
HETATM   14  C8  UNL     1       3.772  -0.957  -2.028  1.00  0.00     0.189 C 
BRANCH  14  15
HETATM   15  O1  UNL     1       4.501  -1.655  -2.960  1.00  0.00    -0.399 OA
ATOM     16  H1  UNL     1       4.465  -1.252  -3.819  1.00  0.00     0.209 HD
ENDBRANCH  14  15
ENDBRANCH  13  14
ENDBRANCH   3   9
BRANCH   8  17
HETATM   17  N3  UNL     1      -0.930   1.911   0.327  1.00  0.00    -0.374 N 
HETATM   18  C16 UNL     1      -1.229   2.681   1.546  1.00  0.00     0.149 C 
HETATM   19  C17 UNL     1      -1.456   4.103   1.118  1.00  0.00     0.187 C 
HETATM   20  O3  UNL     1      -2.645   4.148   0.382  1.00  0.00    -0.388 OA
HETATM   21  C18 UNL     1      -2.691   3.205  -0.611  1.00  0.00     0.187 C 
HETATM   22  C19 UNL     1      -1.333   2.582  -0.904  1.00  0.00     0.149 C 
ENDBRANCH   8  17
BRANCH   7  23
HETATM   23  O2  UNL     1      -2.381  -0.389   0.491  1.00  0.00    -0.344 OA
BRANCH  23  24
HETATM   24  C11 UNL     1      -3.619  -0.774   0.546  1.00  0.00     0.218 C 
BRANCH  24  25
HETATM   25  C12 UNL     1      -4.254  -1.589  -0.558  1.00  0.00     0.118 C 
HETATM   26  C13 UNL     1      -3.638  -2.912  -0.838  1.00  0.00     0.053 C 
HETATM   27  C14 UNL     1      -5.693  -1.847  -0.103  1.00  0.00     0.053 C 
HETATM   28  F1  UNL     1      -4.245  -0.798  -1.695  1.00  0.00    -0.241 F 
ENDBRANCH  24  25
ENDBRANCH  23  24
ENDBRANCH   7  23
TORSDOF 7
