REMARK  6 active torsions:
REMARK  status: ('A' for Active; 'I' for Inactive)
REMARK    1  A    between atoms: O1_1  and  C1_3 
REMARK    2  A    between atoms: C1_3  and  C2_4 
REMARK    3  A    between atoms: C1_3  and  C13_18 
REMARK    4  A    between atoms: C2_4  and  N1_5 
REMARK    5  A    between atoms: N2_8  and  C5_9 
REMARK    6  A    between atoms: C16_21  and  N3_22 
ROOT
HETATM    1  C1  UNL     1       1.297   0.895   0.338  1.00  0.00     0.189 C 
ENDROOT
BRANCH   1   2
HETATM    2  O1  UNL     1       0.914   1.833  -0.584  1.00  0.00    -0.386 OA
ATOM      3  H1  UNL     1       1.392   2.654  -0.581  1.00  0.00     0.210 HD
ENDBRANCH   1   2
BRANCH   1   4
HETATM    4  C2  UNL     1       0.548  -0.391   0.333  1.00  0.00     0.099 C 
BRANCH   4   5
HETATM    5  N1  UNL     1      -0.830  -0.261   0.573  1.00  0.00    -0.368 N 
HETATM    6  C3  UNL     1      -1.580  -1.471   0.599  1.00  0.00     0.147 C 
HETATM    7  C4  UNL     1      -2.858  -1.464  -0.188  1.00  0.00     0.143 C 
HETATM    8  N2  UNL     1      -3.627  -0.273   0.005  1.00  0.00    -0.374 N 
HETATM    9  C11 UNL     1      -2.992   0.897   0.506  1.00  0.00     0.167 C 
HETATM   10  C12 UNL     1      -1.503   0.918   0.269  1.00  0.00     0.083 C 
BRANCH   8  11
HETATM   11  C5  UNL     1      -4.999  -0.258  -0.303  1.00  0.00     0.030 A 
HETATM   12  C6  UNL     1      -5.574  -1.375  -0.871  1.00  0.00     0.032 A 
HETATM   13  C7  UNL     1      -6.918  -1.379  -1.179  1.00  0.00     0.044 A 
HETATM   14  C8  UNL     1      -7.727  -0.271  -0.930  1.00  0.00     0.116 A 
HETATM   15  F1  UNL     1      -9.041  -0.301  -1.241  1.00  0.00    -0.206 F 
HETATM   16  C9  UNL     1      -7.151   0.845  -0.362  1.00  0.00     0.044 A 
HETATM   17  C10 UNL     1      -5.787   0.844  -0.051  1.00  0.00     0.032 A 
ENDBRANCH   8  11
ENDBRANCH   4   5
ENDBRANCH   1   4
BRANCH   1  18
HETATM   18  C13 UNL     1       2.775   0.635   0.189  1.00  0.00    -0.025 A 
HETATM   19  C14 UNL     1       3.665   1.687   0.092  1.00  0.00     0.012 A 
HETATM   20  C15 UNL     1       5.026   1.488  -0.053  1.00  0.00     0.031 A 
HETATM   21  C16 UNL     1       5.552   0.213  -0.107  1.00  0.00     0.041 A 
HETATM   22  C19 UNL     1       4.665  -0.836  -0.010  1.00  0.00     0.031 A 
HETATM   23  C20 UNL     1       3.285  -0.637   0.137  1.00  0.00     0.012 A 
BRANCH  21  24
HETATM   24  N3  UNL     1       6.950  -0.018  -0.258  1.00  0.00    -0.302 N 
HETATM   25  C17 UNL     1       7.520  -0.588  -1.334  1.00  0.00     0.206 A 
HETATM   26  N4  UNL     1       8.841  -0.622  -1.084  1.00  0.00    -0.295 N 
HETATM   27  N5  UNL     1       9.096  -0.099   0.097  1.00  0.00    -0.295 N 
ATOM     28  H4  UNL     1       9.545  -0.999  -1.719  1.00  0.00     0.187 HD
HETATM   29  C18 UNL     1       7.928   0.279   0.618  1.00  0.00     0.206 A 
ATOM     30  H5  UNL     1      10.014  -0.001   0.531  1.00  0.00     0.187 HD
ENDBRANCH  21  24
ENDBRANCH   1  18
TORSDOF 6
