REMARK  5 active torsions:
REMARK  status: ('A' for Active; 'I' for Inactive)
REMARK    1  A    between atoms: O1_2  and  C2_3 
REMARK    2  A    between atoms: C6_7  and  O2_8 
REMARK    3  A    between atoms: C8_10  and  O3_11 
REMARK    4  A    between atoms: C15_19  and  C16_20 
REMARK    5  A    between atoms: C16_20  and  O4_23 
ROOT
HETATM    1  C2  UNL     1      -2.162  -1.063   1.110  1.00  0.00     0.104 A 
HETATM    2  C3  UNL     1      -0.854  -0.930   0.658  1.00  0.00     0.048 A 
HETATM    3  C4  UNL     1      -0.614  -0.326  -0.541  1.00  0.00    -0.042 A 
HETATM    4  C5  UNL     1      -1.692   0.152  -1.299  1.00  0.00    -0.015 A 
HETATM    5  C6  UNL     1      -2.996   0.035  -0.878  1.00  0.00     0.111 A 
HETATM    6  C8  UNL     1      -3.201  -0.581   0.337  1.00  0.00     0.135 A 
HETATM    7  C10 UNL     1      -1.363   0.805  -2.593  1.00  0.00     0.042 C 
HETATM    8  C11 UNL     1      -0.348   1.895  -2.215  1.00  0.00     0.013 C 
HETATM    9  C12 UNL     1       0.831   1.356  -1.500  1.00  0.00     0.028 C 
HETATM   10  C13 UNL     1       1.119   2.154  -0.263  1.00  0.00     0.175 C 
HETATM   11  F1  UNL     1       1.040   3.499  -0.522  1.00  0.00    -0.249 F 
HETATM   12  C14 UNL     1       2.496   1.741   0.213  1.00  0.00     0.045 C 
HETATM   13  C15 UNL     1       2.384   0.309   0.678  1.00  0.00     0.022 C 
HETATM   14  C19 UNL     1       1.869  -0.619  -0.368  1.00  0.00     0.017 C 
HETATM   15  C20 UNL     1       0.717  -0.114  -1.158  1.00  0.00     0.026 C 
ENDROOT
BRANCH  13  16
HETATM   16  C16 UNL     1       3.742  -0.163   1.155  1.00  0.00     0.054 C 
HETATM   17  C17 UNL     1       3.615  -1.617   1.625  1.00  0.00     0.045 C 
HETATM   18  C18 UNL     1       4.793  -0.107   0.069  1.00  0.00     0.045 C 
BRANCH  16  19
HETATM   19  O4  UNL     1       4.173   0.555   2.269  1.00  0.00    -0.390 OA
ATOM     20  H4  UNL     1       5.025   0.259   2.568  1.00  0.00     0.210 HD
ENDBRANCH  16  19
ENDBRANCH  13  16
BRANCH   1  21
HETATM   21  O1  UNL     1      -2.451  -1.671   2.324  1.00  0.00    -0.353 OA
HETATM   22  C1  UNL     1      -1.462  -2.191   3.176  1.00  0.00     0.210 C 
ENDBRANCH   1  21
BRANCH   5  23
HETATM   23  O2  UNL     1      -3.991   0.532  -1.686  1.00  0.00    -0.352 OA
HETATM   24  C7  UNL     1      -4.493   1.845  -1.628  1.00  0.00     0.210 C 
ENDBRANCH   5  23
BRANCH   6  25
HETATM   25  O3  UNL     1      -4.500  -0.718   0.796  1.00  0.00    -0.351 OA
HETATM   26  C9  UNL     1      -5.223  -1.886   0.450  1.00  0.00     0.210 C 
ENDBRANCH   6  25
TORSDOF 5
