REMARK  2 active torsions:
REMARK  status: ('A' for Active; 'I' for Inactive)
REMARK    1  A    between atoms: C7_13  and  C8_14 
REMARK    2  A    between atoms: C8_14  and  N4_15 
ROOT
HETATM    1  N1  UNL     1      -0.123  -2.399  -1.438  1.00  0.00    -0.086 NA
HETATM    2  C1  UNL     1       0.480  -1.221  -0.953  1.00  0.00     0.123 C 
HETATM    3  N2  UNL     1       1.732  -1.297  -0.518  1.00  0.00    -0.348 N 
ATOM      4  H2  UNL     1       2.288  -2.152  -0.509  1.00  0.00     0.163 HD
HETATM    5  C2  UNL     1       2.197  -0.031  -0.067  1.00  0.00     0.199 C 
HETATM    6  C3  UNL     1       3.173  -0.082   1.072  1.00  0.00     0.061 C 
HETATM    7  C4  UNL     1       4.522   0.158   0.476  1.00  0.00     0.004 C 
HETATM    8  C5  UNL     1       4.313   0.506  -0.980  1.00  0.00     0.004 C 
HETATM    9  C6  UNL     1       2.853   0.784  -1.153  1.00  0.00     0.061 C 
HETATM   10  N3  UNL     1       0.961   0.624   0.300  1.00  0.00    -0.036 N 
ATOM     11  H31 UNL     1       1.007   1.637   0.410  1.00  0.00     0.281 HD
ATOM     12  H32 UNL     1       0.631   0.457   1.250  1.00  0.00     0.281 HD
HETATM   13  C7  UNL     1       0.069   0.116  -0.813  1.00  0.00     0.280 C 
ENDROOT
BRANCH  13  14
HETATM   14  C8  UNL     1      -1.288   0.607  -0.579  1.00  0.00     0.312 C 
BRANCH  14  15
HETATM   15  N4  UNL     1      -2.042   0.280   0.559  1.00  0.00     0.093 N 
HETATM   16  C9  UNL     1      -3.056   1.360   0.689  1.00  0.00     0.275 C 
HETATM   17  C10 UNL     1      -4.398   0.738   0.685  1.00  0.00     0.069 C 
HETATM   18  C11 UNL     1      -4.214  -0.596   0.031  1.00  0.00     0.200 C 
HETATM   19  F1  UNL     1      -5.122  -1.521   0.449  1.00  0.00    -0.248 F 
HETATM   20  C12 UNL     1      -2.785  -0.928   0.527  1.00  0.00     0.309 C 
ENDBRANCH  14  15
ENDBRANCH  13  14
TORSDOF 2
