REMARK  3 active torsions:
REMARK  status: ('A' for Active; 'I' for Inactive)
REMARK    1  A    between atoms: C5_5  and  C6_6 
REMARK    2  A    between atoms: C6_6  and  C7_7 
REMARK    3  A    between atoms: C7_7  and  N1_8 
ROOT
HETATM    1  C6  UNL     1      -0.142  -1.725  -0.244  1.00  0.00     0.079 C 
ENDROOT
BRANCH   1   2
HETATM    2  C5  UNL     1      -1.442  -1.543   0.454  1.00  0.00     0.040 A 
HETATM    3  C4  UNL     1      -2.393  -0.554   0.179  1.00  0.00     0.016 A 
HETATM    4  C3  UNL     1      -2.374   0.453  -0.756  1.00  0.00     0.016 A 
HETATM    5  C12 UNL     1      -3.464  -0.711   1.035  1.00  0.00     0.060 A 
HETATM    6  C2  UNL     1      -3.441   1.309  -0.831  1.00  0.00     0.001 A 
HETATM    7  C1  UNL     1      -4.504   1.140   0.030  1.00  0.00     0.002 A 
HETATM    8  C13 UNL     1      -4.546   0.139   0.974  1.00  0.00     0.032 A 
HETATM    9  N5  UNL     1      -3.164  -1.770   1.806  1.00  0.00    -0.300 N 
HETATM   10  N4  UNL     1      -1.975  -2.255   1.461  1.00  0.00    -0.303 N 
ATOM     11  H5  UNL     1      -3.759  -2.145   2.545  1.00  0.00     0.187 HD
ATOM     12  H4  UNL     1      -1.528  -3.059   1.901  1.00  0.00     0.186 HD
ENDBRANCH   1   2
BRANCH   1  13
HETATM   13  C7  UNL     1       0.842  -0.679   0.227  1.00  0.00     0.127 C 
BRANCH  13  14
HETATM   14  N1  UNL     1       2.118  -0.790  -0.401  1.00  0.00    -0.376 N 
HETATM   15  C8  UNL     1       3.014   0.120  -0.232  1.00  0.00     0.102 A 
HETATM   16  C9  UNL     1       4.224  -0.073  -0.882  1.00  0.00     0.065 A 
HETATM   17  N3  UNL     1       2.853   1.215   0.514  1.00  0.00    -0.339 N 
HETATM   18  C10 UNL     1       5.228   0.861  -0.746  1.00  0.00     0.092 A 
HETATM   19  N2  UNL     1       5.045   1.971   0.019  1.00  0.00    -0.362 N 
HETATM   20  C11 UNL     1       3.854   2.106   0.625  1.00  0.00     0.181 A 
ATOM     21  H2  UNL     1       5.780   2.670   0.128  1.00  0.00     0.165 HD
ATOM     22  H3  UNL     1       1.971   1.376   1.000  1.00  0.00     0.168 HD
ATOM     23  H1  UNL     1       2.323  -1.598  -0.989  1.00  0.00     0.161 HD
ENDBRANCH  13  14
ENDBRANCH   1  13
TORSDOF 3
