REMARK  2 active torsions:
REMARK  status: ('A' for Active; 'I' for Inactive)
REMARK    1  A    between atoms: C2_3  and  C3_4 
REMARK    2  A    between atoms: N2_12  and  O1_13 
ROOT
HETATM    1  N1  UNL     1      -3.029   2.601   2.109  1.00  0.00    -0.197 NA
HETATM    2  C1  UNL     1      -2.934   1.633   1.495  1.00  0.00     0.063 C 
HETATM    3  C2  UNL     1      -2.836   0.414   0.736  1.00  0.00     0.165 C 
ENDROOT
BRANCH   3   4
HETATM    4  C3  UNL     1      -1.437   0.130   0.324  1.00  0.00    -0.001 A 
HETATM    5  C4  UNL     1      -0.372   0.947   0.638  1.00  0.00     0.025 A 
HETATM    6  C5  UNL     1       0.894   0.595   0.207  1.00  0.00    -0.006 A 
HETATM    7  C6  UNL     1       1.970   1.402   0.514  1.00  0.00     0.014 A 
HETATM    8  C10 UNL     1       1.143  -0.545  -0.529  1.00  0.00     0.074 A 
HETATM    9  C7  UNL     1       3.239   1.063   0.090  1.00  0.00     0.001 A 
HETATM   10  C8  UNL     1       3.497  -0.073  -0.646  1.00  0.00     0.002 A 
HETATM   11  C9  UNL     1       2.423  -0.883  -0.954  1.00  0.00     0.033 A 
HETATM   12  N2  UNL     1       0.081  -1.325  -0.822  1.00  0.00    -0.210 N 
HETATM   13  C11 UNL     1      -1.161  -1.005  -0.414  1.00  0.00     0.151 A 
HETATM   14  N3  UNL     1      -2.234  -1.862  -0.752  1.00  0.00    -0.080 NA
BRANCH  12  15
HETATM   15  O1  UNL     1       0.349  -2.463  -1.561  1.00  0.00    -0.281 OA
ATOM     16  H1  UNL     1      -0.398  -3.012  -1.767  1.00  0.00     0.245 HD
ENDBRANCH  12  15
ENDBRANCH   3   4
TORSDOF 2
