REMARK  16 active torsions:
REMARK  status: ('A' for Active; 'I' for Inactive)
REMARK    1  A    between atoms: C2_2  and  C3_3 
REMARK    2  A    between atoms: C3_3  and  C4_4 
REMARK    3  A    between atoms: C4_4  and  C5_5 
REMARK    4  A    between atoms: C5_5  and  C6_6 
REMARK    5  A    between atoms: C6_6  and  C7_7 
REMARK    6  A    between atoms: C7_7  and  C8_8 
REMARK    7  A    between atoms: C8_8  and  N1_9 
REMARK    8  A    between atoms: C8_8  and  C24_32 
REMARK       I    between atoms: N1_9  and  C9_11 
REMARK    9  A    between atoms: C9_11  and  C10_13 
REMARK   10  A    between atoms: C10_13  and  C11_14 
REMARK   11  A    between atoms: C10_13  and  N2_20 
REMARK   12  A    between atoms: C11_14  and  C12_15 
REMARK       I    between atoms: N2_20  and  C17_22 
REMARK       I    between atoms: C17_22  and  N3_24 
REMARK   13  A    between atoms: N3_24  and  C18_26 
REMARK       I    between atoms: C24_32  and  N4_34 
REMARK       I    between atoms: N5_37  and  C27_38 
REMARK   14  A    between atoms: C27_38  and  C28_40 
REMARK   15  A    between atoms: C28_40  and  C30_42 
REMARK   16  A    between atoms: C32_44  and  C33_45 
ROOT
HETATM    1  C8  UNL     1       1.304   0.633   0.323  1.00  0.00     0.176 C 
ENDROOT
BRANCH   1   2
HETATM    2  C7  UNL     1       1.517   2.109  -0.048  1.00  0.00     0.035 C 
BRANCH   2   3
HETATM    3  C6  UNL     1       0.406   2.607  -0.928  1.00  0.00     0.002 C 
BRANCH   3   4
HETATM    4  C5  UNL     1       0.578   4.051  -1.360  1.00  0.00     0.000 C 
BRANCH   4   5
HETATM    5  C4  UNL     1       0.641   4.984  -0.180  1.00  0.00     0.000 C 
BRANCH   5   6
HETATM    6  C3  UNL     1       0.756   6.415  -0.594  1.00  0.00    -0.000 C 
BRANCH   6   7
HETATM    7  C2  UNL     1       2.000   6.629  -1.416  1.00  0.00    -0.005 C 
HETATM    8  C1  UNL     1       2.010   8.120  -1.767  1.00  0.00     0.005 C 
ENDBRANCH   6   7
ENDBRANCH   5   6
ENDBRANCH   4   5
ENDBRANCH   3   4
ENDBRANCH   2   3
ENDBRANCH   1   2
BRANCH   1   9
HETATM    9  N1  UNL     1       0.018   0.521   1.037  1.00  0.00    -0.346 N 
HETATM   10  C9  UNL     1      -1.164   0.071   0.419  1.00  0.00     0.241 C 
HETATM   11  O1  UNL     1      -1.110  -0.241  -0.812  1.00  0.00    -0.271 OA
ATOM     12  H1  UNL     1      -0.016   0.781   2.023  1.00  0.00     0.163 HD
BRANCH  10  13
HETATM   13  C10 UNL     1      -2.488  -0.069   1.084  1.00  0.00     0.178 C 
BRANCH  13  14
HETATM   14  C11 UNL     1      -2.636   0.977   2.114  1.00  0.00     0.039 C 
BRANCH  14  15
HETATM   15  C12 UNL     1      -3.925   0.962   2.876  1.00  0.00    -0.012 C 
HETATM   16  C13 UNL     1      -3.849   2.116   3.876  1.00  0.00     0.005 C 
HETATM   17  C14 UNL     1      -4.492   1.646   5.140  1.00  0.00     0.000 C 
HETATM   18  C15 UNL     1      -4.161   0.173   5.160  1.00  0.00     0.000 C 
HETATM   19  C16 UNL     1      -4.163  -0.261   3.691  1.00  0.00     0.005 C 
ENDBRANCH  14  15
ENDBRANCH  13  14
BRANCH  13  20
HETATM   20  N2  UNL     1      -3.553  -0.124   0.109  1.00  0.00    -0.330 N 
HETATM   21  C17 UNL     1      -4.273  -1.293  -0.228  1.00  0.00     0.317 C 
HETATM   22  O2  UNL     1      -3.995  -2.374   0.339  1.00  0.00    -0.247 OA
HETATM   23  N3  UNL     1      -5.317  -1.252  -1.213  1.00  0.00    -0.339 N 
ATOM     24  H3  UNL     1      -5.521  -0.352  -1.649  1.00  0.00     0.164 HD
ATOM     25  H2  UNL     1      -3.803   0.741  -0.370  1.00  0.00     0.165 HD
BRANCH  23  26
HETATM   26  C18 UNL     1      -6.096  -2.385  -1.630  1.00  0.00     0.086 C 
HETATM   27  C19 UNL     1      -5.970  -2.575  -3.137  1.00  0.00     0.025 C 
HETATM   28  C20 UNL     1      -6.660  -3.802  -3.617  1.00  0.00     0.002 C 
HETATM   29  C21 UNL     1      -7.579  -4.354  -2.557  1.00  0.00     0.000 C 
HETATM   30  C22 UNL     1      -8.381  -3.225  -1.967  1.00  0.00     0.002 C 
HETATM   31  C23 UNL     1      -7.561  -2.217  -1.227  1.00  0.00     0.025 C 
ENDBRANCH  23  26
ENDBRANCH  13  20
ENDBRANCH  10  13
ENDBRANCH   1   9
BRANCH   1  32
HETATM   32  C24 UNL     1       2.396   0.246   1.223  1.00  0.00     0.242 C 
HETATM   33  O3  UNL     1       2.094   0.022   2.455  1.00  0.00    -0.271 OA
HETATM   34  N4  UNL     1       3.754   0.083   0.912  1.00  0.00    -0.346 N 
HETATM   35  C25 UNL     1       4.240   0.249  -0.423  1.00  0.00     0.145 C 
HETATM   36  C34 UNL     1       4.751  -0.252   1.934  1.00  0.00     0.162 C 
HETATM   37  C26 UNL     1       5.434  -0.618  -0.740  1.00  0.00     0.147 C 
HETATM   38  N5  UNL     1       5.707  -1.639   0.225  1.00  0.00    -0.334 N 
HETATM   39  C27 UNL     1       6.425  -2.787  -0.258  1.00  0.00     0.224 C 
HETATM   40  C32 UNL     1       5.343  -1.602   1.606  1.00  0.00     0.206 C 
HETATM   41  O4  UNL     1       6.681  -3.708   0.556  1.00  0.00    -0.273 OA
BRANCH  39  42
HETATM   42  C28 UNL     1       6.876  -2.937  -1.654  1.00  0.00     0.074 C 
HETATM   43  C29 UNL     1       7.875  -1.879  -2.051  1.00  0.00     0.020 C 
BRANCH  42  44
HETATM   44  C30 UNL     1       7.491  -4.320  -1.861  1.00  0.00     0.009 C 
HETATM   45  C31 UNL     1       6.480  -5.394  -1.567  1.00  0.00     0.006 C 
ENDBRANCH  42  44
ENDBRANCH  39  42
BRANCH  40  46
HETATM   46  C33 UNL     1       4.358  -2.675   1.969  1.00  0.00     0.198 C 
HETATM   47  O5  UNL     1       4.019  -2.668   3.200  1.00  0.00    -0.646 OA
HETATM   48  O6  UNL     1       3.860  -3.588   1.068  1.00  0.00    -0.646 OA
ENDBRANCH  40  46
ENDBRANCH   1  32
TORSDOF 16
