REMARK  4 active torsions:
REMARK  status: ('A' for Active; 'I' for Inactive)
REMARK    1  A    between atoms: C2_2  and  C3_3 
REMARK    2  A    between atoms: C3_3  and  C4_4 
REMARK    3  A    between atoms: C4_4  and  S1_5 
REMARK    4  A    between atoms: S1_5  and  C5_6 
ROOT
HETATM    1  C5  UNL     1      -0.173  -1.700   0.587  1.00  0.00     0.105 A 
HETATM    2  N1  UNL     1      -0.833  -0.649   0.351  1.00  0.00    -0.356 N 
ATOM      3  H1  UNL     1      -0.409   0.233   0.065  1.00  0.00     0.162 HD
HETATM    4  C6  UNL     1      -2.222  -0.829   0.527  1.00  0.00     0.105 A 
HETATM    5  C7  UNL     1      -2.774   0.126   1.562  1.00  0.00     0.053 C 
HETATM    6  C8  UNL     1      -2.742   1.525   1.042  1.00  0.00     0.004 C 
HETATM    7  C9  UNL     1      -3.548   1.622  -0.229  1.00  0.00     0.000 C 
HETATM    8  C10 UNL     1      -2.879   0.762  -1.297  1.00  0.00     0.004 C 
HETATM    9  C11 UNL     1      -2.894  -0.655  -0.817  1.00  0.00     0.053 C 
HETATM   10  N2  UNL     1      -2.400  -2.193   0.928  1.00  0.00    -0.352 N 
ATOM     11  H2  UNL     1      -3.279  -2.665   1.141  1.00  0.00     0.163 HD
HETATM   12  C12 UNL     1      -1.094  -2.748   0.966  1.00  0.00     0.132 A 
HETATM   13  S2  UNL     1      -0.711  -4.306   1.371  1.00  0.00    -0.058 SA
ENDROOT
BRANCH   1  14
HETATM   14  S1  UNL     1       1.591  -1.870   0.475  1.00  0.00    -0.109 SA
BRANCH  14  15
HETATM   15  C4  UNL     1       2.302  -0.298  -0.032  1.00  0.00     0.081 C 
BRANCH  15  16
HETATM   16  C3  UNL     1       3.830  -0.398  -0.142  1.00  0.00     0.010 C 
BRANCH  16  17
HETATM   17  C2  UNL     1       4.301   0.980  -0.573  1.00  0.00    -0.004 C 
HETATM   18  C1  UNL     1       5.789   1.047  -0.727  1.00  0.00     0.005 C 
ENDBRANCH  16  17
ENDBRANCH  15  16
ENDBRANCH  14  15
ENDBRANCH   1  14
TORSDOF 4
