REMARK  10 active torsions:
REMARK  status: ('A' for Active; 'I' for Inactive)
REMARK    1  A    between atoms: N1_1  and  C1_5 
REMARK    2  A    between atoms: C3_8  and  O2_9 
REMARK    3  A    between atoms: O2_9  and  C4_10 
REMARK    4  A    between atoms: C6_12  and  C7_13 
REMARK    5  A    between atoms: C7_13  and  O3_14 
REMARK    6  A    between atoms: O3_14  and  C8_15 
REMARK    7  A    between atoms: C9_16  and  O4_17 
REMARK    8  A    between atoms: C10_19  and  O5_20 
REMARK    9  A    between atoms: C11_22  and  O6_23 
REMARK   10  A    between atoms: C12_25  and  O7_26 
ROOT
HETATM    1  C4  UNL     1       1.583   0.935  -0.534  1.00  0.00     0.267 C 
HETATM    2  C5  UNL     1       1.178   0.920  -1.992  1.00  0.00     0.095 C 
HETATM    3  C6  UNL     1      -0.142   1.377  -1.357  1.00  0.00     0.153 C 
HETATM    4  O8  UNL     1       0.240   0.717  -0.230  1.00  0.00    -0.353 OA
ENDROOT
BRANCH   3   5
HETATM    5  C7  UNL     1      -1.280   0.894  -2.179  1.00  0.00     0.200 C 
BRANCH   5   6
HETATM    6  O3  UNL     1      -2.472   0.897  -1.545  1.00  0.00    -0.378 OA
BRANCH   6   7
HETATM    7  C8  UNL     1      -2.677   0.124  -0.462  1.00  0.00     0.184 C 
HETATM    8  C9  UNL     1      -3.758  -0.951  -0.791  1.00  0.00     0.181 C 
HETATM    9  C10 UNL     1      -4.290  -1.392   0.537  1.00  0.00     0.180 C 
HETATM   10  C11 UNL     1      -4.011  -0.291   1.508  1.00  0.00     0.180 C 
HETATM   11  C12 UNL     1      -3.322   0.816   0.701  1.00  0.00     0.181 C 
BRANCH   8  12
HETATM   12  O4  UNL     1      -4.740  -0.298  -1.501  1.00  0.00    -0.390 OA
ATOM     13  H4  UNL     1      -5.398  -0.953  -1.701  1.00  0.00     0.210 HD
ENDBRANCH   8  12
BRANCH   9  14
HETATM   14  O5  UNL     1      -3.635  -2.564   0.962  1.00  0.00    -0.390 OA
ATOM     15  H5  UNL     1      -3.973  -2.844   1.805  1.00  0.00     0.210 HD
ENDBRANCH   9  14
BRANCH  10  16
HETATM   16  O6  UNL     1      -5.158   0.274   2.055  1.00  0.00    -0.390 OA
ATOM     17  H6  UNL     1      -4.981   0.974   2.672  1.00  0.00     0.210 HD
ENDBRANCH  10  16
BRANCH  11  18
HETATM   18  O7  UNL     1      -2.455   1.439   1.565  1.00  0.00    -0.390 OA
ATOM     19  H7  UNL     1      -2.864   1.878   2.302  1.00  0.00     0.210 HD
ENDBRANCH  11  18
ENDBRANCH   6   7
ENDBRANCH   5   6
ENDBRANCH   3   5
BRANCH   1  20
HETATM   20  O2  UNL     1       2.424  -0.147  -0.276  1.00  0.00    -0.308 OA
BRANCH  20  21
HETATM   21  C3  UNL     1       3.614   0.238   0.322  1.00  0.00     0.474 C 
HETATM   22  O1  UNL     1       3.700  -0.373   1.549  1.00  0.00    -0.335 OA
HETATM   23  C2  UNL     1       4.592  -1.418   1.465  1.00  0.00     0.235 C 
HETATM   24  C1  UNL     1       5.622  -0.854   0.479  1.00  0.00     0.409 C 
HETATM   25  N2  UNL     1       4.713  -0.222  -0.491  1.00  0.00     0.006 N 
ATOM     26  H22 UNL     1       5.146   0.502  -1.064  1.00  0.00     0.285 HD
ATOM     27  H21 UNL     1       4.440  -0.825  -1.267  1.00  0.00     0.285 HD
BRANCH  24  28
HETATM   28  N1  UNL     1       6.428   0.178   1.097  1.00  0.00    -0.048 N 
ATOM     29  H13 UNL     1       5.849   0.916   1.498  1.00  0.00     0.276 HD
ATOM     30  H12 UNL     1       6.872  -0.155   1.953  1.00  0.00     0.276 HD
ATOM     31  H11 UNL     1       7.113   0.553   0.441  1.00  0.00     0.276 HD
ENDBRANCH  24  28
ENDBRANCH  20  21
ENDBRANCH   1  20
TORSDOF 10
