REMARK  8 active torsions:
REMARK  status: ('A' for Active; 'I' for Inactive)
REMARK    1  A    between atoms: N1_1  and  C1_5 
REMARK    2  A    between atoms: C1_5  and  C2_6 
REMARK    3  A    between atoms: C2_6  and  C3_7 
REMARK    4  A    between atoms: C3_7  and  C4_8 
REMARK    5  A    between atoms: C4_8  and  C5_9 
REMARK    6  A    between atoms: N2_11  and  C7_12 
REMARK    7  A    between atoms: C7_12  and  C8_13 
REMARK    8  A    between atoms: C10_20  and  N6_21 
REMARK       I    between atoms: N6_21  and  C11_23 
REMARK       I    between atoms: C11_23  and  N7_24 
REMARK       I    between atoms: C11_23  and  N8_28 
ROOT
HETATM    1  C8  UNL     1      -2.389  -0.337   1.173  1.00  0.00     0.049 A 
HETATM    2  C9  UNL     1      -2.197  -1.612   1.669  1.00  0.00     0.142 A 
HETATM    3  N3  UNL     1      -1.200  -2.034   2.580  1.00  0.00    -0.081 NA
HETATM    4  N4  UNL     1      -3.158  -2.413   1.116  1.00  0.00    -0.286 N 
ATOM      5  H4  UNL     1      -3.264  -3.411   1.299  1.00  0.00     0.188 HD
HETATM    6  N5  UNL     1      -3.928  -1.706   0.311  1.00  0.00    -0.284 N 
ATOM      7  H5  UNL     1      -4.719  -2.060  -0.227  1.00  0.00     0.188 HD
HETATM    8  C10 UNL     1      -3.486  -0.440   0.325  1.00  0.00     0.130 A 
ENDROOT
BRANCH   1   9
HETATM    9  C7  UNL     1      -1.591   0.860   1.487  1.00  0.00     0.192 C 
BRANCH   9  10
HETATM   10  N2  UNL     1      -0.305   0.898   0.815  1.00  0.00    -0.281 N 
HETATM   11  C6  UNL     1       0.882   0.424   1.232  1.00  0.00     0.134 A 
HETATM   12  C5  UNL     1       1.848   0.668   0.278  1.00  0.00     0.040 A 
HETATM   13  N10 UNL     1       1.191   1.299  -0.708  1.00  0.00    -0.287 N 
HETATM   14  N9  UNL     1      -0.083   1.428  -0.377  1.00  0.00    -0.020 NA
ATOM     15  H10 UNL     1       1.610   1.628  -1.578  1.00  0.00     0.184 HD
BRANCH  12  16
HETATM   16  C4  UNL     1       3.284   0.342   0.272  1.00  0.00     0.059 C 
BRANCH  16  17
HETATM   17  C3  UNL     1       3.919   0.817  -1.008  1.00  0.00     0.008 C 
BRANCH  17  18
HETATM   18  C2  UNL     1       5.390   0.527  -1.092  1.00  0.00     0.027 C 
BRANCH  18  19
HETATM   19  C1  UNL     1       5.704  -0.948  -1.010  1.00  0.00     0.229 C 
BRANCH  19  20
HETATM   20  N1  UNL     1       7.165  -1.072  -1.109  1.00  0.00    -0.079 N 
ATOM     21  H13 UNL     1       7.553  -0.623  -1.939  1.00  0.00     0.274 HD
ATOM     22  H12 UNL     1       7.665  -0.514  -0.417  1.00  0.00     0.274 HD
ATOM     23  H11 UNL     1       7.377  -2.068  -1.054  1.00  0.00     0.274 HD
ENDBRANCH  19  20
ENDBRANCH  18  19
ENDBRANCH  17  18
ENDBRANCH  16  17
ENDBRANCH  12  16
ENDBRANCH   9  10
ENDBRANCH   1   9
BRANCH   8  24
HETATM   24  N6  UNL     1      -3.963   0.545  -0.320  1.00  0.00    -0.326 N 
HETATM   25  C11 UNL     1      -5.086   0.499  -1.205  1.00  0.00     0.481 C 
HETATM   26  N7  UNL     1      -6.290   0.042  -0.638  1.00  0.00    -0.033 N 
HETATM   27  N8  UNL     1      -5.302   1.858  -1.715  1.00  0.00    -0.033 N 
ATOM     28  H73 UNL     1      -6.148  -0.872  -0.208  1.00  0.00     0.278 HD
ATOM     29  H72 UNL     1      -6.519   0.597   0.187  1.00  0.00     0.278 HD
ATOM     30  H71 UNL     1      -7.091   0.009  -1.269  1.00  0.00     0.278 HD
ATOM     31  H83 UNL     1      -5.409   2.549  -0.972  1.00  0.00     0.278 HD
ATOM     32  H82 UNL     1      -4.470   2.257  -2.149  1.00  0.00     0.278 HD
ATOM     33  H81 UNL     1      -6.103   1.825  -2.346  1.00  0.00     0.278 HD
ATOM     34  H6  UNL     1      -3.505   1.448  -0.196  1.00  0.00     0.165 HD
ENDBRANCH   8  24
TORSDOF 8
