REMARK  6 active torsions:
REMARK  status: ('A' for Active; 'I' for Inactive)
REMARK    1  A    between atoms: C4_4  and  C5_5 
REMARK       I    between atoms: C5_5  and  N1_7 
REMARK    2  A    between atoms: N1_7  and  N2_9 
REMARK    3  A    between atoms: N3_17  and  C13_18 
REMARK    4  A    between atoms: C13_18  and  C14_19 
REMARK    5  A    between atoms: C15_20  and  C16_21 
REMARK    6  A    between atoms: C16_21  and  C17_22 
ROOT
HETATM    1  C1  UNL     1       1.955  -3.456  -0.334  1.00  0.00     0.032 C 
HETATM    2  C2  UNL     1       1.649  -2.100  -0.988  1.00  0.00     0.081 C 
HETATM    3  C3  UNL     1       0.198  -1.886  -0.946  1.00  0.00     0.039 C 
HETATM    4  C4  UNL     1      -0.275  -0.994   0.176  1.00  0.00     0.086 C 
HETATM    5  C11 UNL     1       0.599   0.247   0.214  1.00  0.00     0.058 C 
HETATM    6  C12 UNL     1       2.015  -0.188   0.495  1.00  0.00     0.060 C 
HETATM    7  N3  UNL     1       2.474  -1.079  -0.475  1.00  0.00    -0.379 N 
ENDROOT
BRANCH   4   8
HETATM    8  C5  UNL     1      -1.661  -0.557  -0.124  1.00  0.00     0.240 C 
HETATM    9  O1  UNL     1      -2.097  -0.843  -1.299  1.00  0.00    -0.271 OA
HETATM   10  N1  UNL     1      -2.489   0.133   0.800  1.00  0.00    -0.272 N 
ATOM     11  H1  UNL     1      -2.075   0.331   1.711  1.00  0.00     0.189 HD
BRANCH  10  12
HETATM   12  N2  UNL     1      -3.767   0.563   0.620  1.00  0.00    -0.325 N 
HETATM   13  C6  UNL     1      -3.872   1.826  -0.001  1.00  0.00     0.142 C 
HETATM   14  C7  UNL     1      -5.272   2.388  -0.094  1.00  0.00     0.021 C 
HETATM   15  C8  UNL     1      -6.349   1.429   0.289  1.00  0.00     0.003 C 
HETATM   16  C9  UNL     1      -6.014   0.072  -0.249  1.00  0.00     0.021 C 
HETATM   17  C10 UNL     1      -4.682  -0.450   0.232  1.00  0.00     0.142 C 
ENDBRANCH  10  12
ENDBRANCH   4   8
BRANCH   7  18
HETATM   18  C13 UNL     1       3.620  -0.764  -1.234  1.00  0.00     0.216 C 
BRANCH  18  19
HETATM   19  C14 UNL     1       4.564   0.070  -0.489  1.00  0.00    -0.087 C 
HETATM   20  C15 UNL     1       5.353   0.714   0.150  1.00  0.00    -0.104 C 
BRANCH  20  21
HETATM   21  C16 UNL     1       6.332   1.455   0.966  1.00  0.00     0.109 C 
BRANCH  21  22
HETATM   22  C17 UNL     1       7.482   1.993   0.168  1.00  0.00     0.126 C 
HETATM   23 CL1  UNL     1       6.970   3.130  -1.080  1.00  0.00    -0.130 Cl
ENDBRANCH  21  22
ENDBRANCH  20  21
ENDBRANCH  18  19
ENDBRANCH   7  18
TORSDOF 6
