REMARK  6 active torsions:
REMARK  status: ('A' for Active; 'I' for Inactive)
REMARK    1  A    between atoms: O1_2  and  C2_3 
REMARK    2  A    between atoms: C3_6  and  O2_7 
REMARK    3  A    between atoms: C5_10  and  O3_12 
REMARK    4  A    between atoms: O3_12  and  C7_13 
REMARK    5  A    between atoms: C10_17  and  O5_18 
REMARK    6  A    between atoms: C11_20  and  O6_21 
ROOT
HETATM    1  C2  UNL     1       2.346   0.268  -0.158  1.00  0.00     0.249 C 
HETATM    2  N1  UNL     1       1.529   1.286  -0.709  1.00  0.00    -0.363 N 
ATOM      3  H1  UNL     1       1.939   2.125  -1.121  1.00  0.00     0.158 HD
HETATM    4  C3  UNL     1       0.143   1.104  -0.670  1.00  0.00     0.141 C 
HETATM    5  C4  UNL     1      -0.486   0.173  -1.682  1.00  0.00     0.100 C 
HETATM    6  C5  UNL     1      -1.485  -0.184  -0.571  1.00  0.00     0.082 C 
HETATM    7  C6  UNL     1      -1.831  -1.628  -0.585  1.00  0.00     0.047 C 
HETATM    8  C9  UNL     1      -0.414   0.249   0.403  1.00  0.00     0.107 C 
HETATM    9  C10 UNL     1       0.473  -0.795   0.944  1.00  0.00     0.163 C 
HETATM   10  C11 UNL     1       1.842  -0.189   1.198  1.00  0.00     0.195 C 
ENDROOT
BRANCH   6  11
HETATM   11  O3  UNL     1      -2.584   0.710  -0.517  1.00  0.00    -0.310 OA
BRANCH  11  12
HETATM   12  C7  UNL     1      -3.541   0.482   0.444  1.00  0.00     0.255 C 
HETATM   13  C8  UNL     1      -4.718   1.386   0.551  1.00  0.00     0.126 C 
HETATM   14  O4  UNL     1      -3.469  -0.473   1.254  1.00  0.00    -0.266 OA
ENDBRANCH  11  12
ENDBRANCH   6  11
BRANCH   4  15
HETATM   15  O2  UNL     1      -0.533   2.345  -0.733  1.00  0.00    -0.370 OA
ATOM     16  H2  UNL     1      -1.475   2.221  -0.707  1.00  0.00     0.212 HD
ENDBRANCH   4  15
BRANCH   9  17
HETATM   17  O5  UNL     1       0.641  -1.910   0.154  1.00  0.00    -0.392 OA
ATOM     18  H5  UNL     1       1.213  -2.583   0.503  1.00  0.00     0.210 HD
ENDBRANCH   9  17
BRANCH  10  19
HETATM   19  O6  UNL     1       2.714  -1.116   1.756  1.00  0.00    -0.389 OA
ATOM     20  H6  UNL     1       2.398  -1.402   2.605  1.00  0.00     0.210 HD
ENDBRANCH  10  19
BRANCH   1  21
HETATM   21  O1  UNL     1       3.654   0.731  -0.057  1.00  0.00    -0.369 OA
HETATM   22  C1  UNL     1       4.532  -0.036  -0.821  1.00  0.00     0.204 C 
ENDBRANCH   1  21
TORSDOF 6
