REMARK  9 active torsions:
REMARK  status: ('A' for Active; 'I' for Inactive)
REMARK       I    between atoms: C1_4  and  N3_6 
REMARK    1  A    between atoms: N3_6  and  N4_8 
REMARK       I    between atoms: N4_8  and  C2_10 
REMARK    2  A    between atoms: C2_10  and  C3_12 
REMARK    3  A    between atoms: N5_14  and  C5_15 
REMARK    4  A    between atoms: C5_15  and  N6_16 
REMARK    5  A    between atoms: N6_16  and  N7_17 
REMARK    6  A    between atoms: N6_16  and  C6_20 
REMARK    7  A    between atoms: C9_23  and  C10_24 
REMARK    8  A    between atoms: C17_31  and  N8_32 
REMARK    9  A    between atoms: N8_32  and  O2_34 
ROOT
HETATM    1  N6  UNL     1      -0.088  -0.064  -1.025  1.00  0.00    -0.277 N 
ENDROOT
BRANCH   1   2
HETATM    2  C5  UNL     1       0.521   1.201  -1.372  1.00  0.00     0.298 C 
BRANCH   2   3
HETATM    3  N5  UNL     1       1.727   1.408  -0.592  1.00  0.00    -0.267 N 
HETATM    4  C4  UNL     1       2.999   1.041  -0.910  1.00  0.00     0.150 A 
HETATM    5  C3  UNL     1       3.836   1.431   0.113  1.00  0.00     0.136 A 
HETATM    6  N10 UNL     1       3.061   2.020   1.023  1.00  0.00    -0.280 N 
HETATM    7  N9  UNL     1       1.800   1.995   0.579  1.00  0.00    -0.239 N 
ATOM      8  H10 UNL     1       3.376   2.421   1.906  1.00  0.00     0.189 HD
ATOM      9  H9  UNL     1       1.002   2.381   1.083  1.00  0.00     0.208 HD
BRANCH   5  10
HETATM   10  C2  UNL     1       5.279   1.214   0.135  1.00  0.00     0.289 C 
HETATM   11  N4  UNL     1       5.940   0.574  -0.933  1.00  0.00    -0.262 N 
ATOM     12  H4  UNL     1       5.412   0.251  -1.744  1.00  0.00     0.190 HD
HETATM   13  O1  UNL     1       5.913   1.620   1.146  1.00  0.00    -0.264 OA
BRANCH  11  14
HETATM   14  N3  UNL     1       7.314   0.387  -0.873  1.00  0.00    -0.271 N 
HETATM   15  C1  UNL     1       7.880  -0.361   0.171  1.00  0.00     0.200 C 
HETATM   16  N1  UNL     1       7.160  -1.193   0.843  1.00  0.00    -0.372 N 
HETATM   17  N2  UNL     1       9.256  -0.184   0.474  1.00  0.00    -0.062 NA
ATOM     18  H12 UNL     1       7.571  -1.737   1.602  1.00  0.00     0.158 HD
ATOM     19  H11 UNL     1       6.172  -1.320   0.625  1.00  0.00     0.158 HD
ATOM     20  H3  UNL     1       7.914   0.794  -1.590  1.00  0.00     0.189 HD
ENDBRANCH  11  14
ENDBRANCH   5  10
ENDBRANCH   2   3
ENDBRANCH   1   2
BRANCH   1  21
HETATM   21  N7  UNL     1       0.670  -1.227  -1.216  1.00  0.00    -0.341 N 
ATOM     22  H72 UNL     1       1.614  -1.132  -1.589  1.00  0.00     0.177 HD
ATOM     23  H71 UNL     1       0.240  -2.119  -0.971  1.00  0.00     0.177 HD
ENDBRANCH   1  21
BRANCH   1  24
HETATM   24  C6  UNL     1      -1.388  -0.195  -0.511  1.00  0.00     0.080 A 
HETATM   25  C7  UNL     1      -1.643  -0.750   0.724  1.00  0.00     0.034 A 
HETATM   26  C8  UNL     1      -2.916  -0.878   1.231  1.00  0.00     0.014 A 
HETATM   27  C9  UNL     1      -4.004  -0.448   0.506  1.00  0.00    -0.024 A 
HETATM   28  C16 UNL     1      -3.773   0.114  -0.740  1.00  0.00     0.046 A 
HETATM   29  C17 UNL     1      -2.486   0.240  -1.244  1.00  0.00     0.083 A 
BRANCH  27  30
HETATM   30  C10 UNL     1      -5.336  -0.600   1.074  1.00  0.00    -0.026 A 
HETATM   31  C11 UNL     1      -5.676  -1.645   1.915  1.00  0.00     0.012 A 
HETATM   32  C12 UNL     1      -6.945  -1.725   2.411  1.00  0.00     0.001 A 
HETATM   33  C13 UNL     1      -7.909  -0.793   2.102  1.00  0.00     0.000 A 
HETATM   34  C14 UNL     1      -7.591   0.243   1.275  1.00  0.00     0.001 A 
HETATM   35  C15 UNL     1      -6.304   0.324   0.771  1.00  0.00     0.012 A 
ENDBRANCH  27  30
BRANCH  29  36
HETATM   36  N8  UNL     1      -2.217   0.811  -2.518  1.00  0.00    -0.267 N 
ATOM     37  H8  UNL     1      -1.296   0.932  -2.940  1.00  0.00     0.194 HD
BRANCH  36  38
HETATM   38  O2  UNL     1      -3.404   1.167  -3.072  1.00  0.00    -0.289 OA
ATOM     39  H2  UNL     1      -3.224   1.549  -3.923  1.00  0.00     0.244 HD
ENDBRANCH  36  38
ENDBRANCH  29  36
ENDBRANCH   1  24
TORSDOF 9
