REMARK  4 active torsions:
REMARK  status: ('A' for Active; 'I' for Inactive)
REMARK    1  A    between atoms: C3_3  and  C4_4 
REMARK       I    between atoms: C4_4  and  N1_6 
REMARK    2  A    between atoms: N1_6  and  C5_8 
REMARK    3  A    between atoms: C7_14  and  O3_15 
REMARK    4  A    between atoms: C8_20  and  C10_22 
REMARK       I    between atoms: C10_22  and  N4_24 
ROOT
HETATM    1  C1  UNL     1       0.892   0.764  -1.185  1.00  0.00     0.025 C 
HETATM    2  C2  UNL     1       0.993   0.152  -0.045  1.00  0.00     0.013 C 
HETATM    3  C3  UNL     1       0.044   0.077   1.055  1.00  0.00     0.131 C 
HETATM    4  N3  UNL     1       0.767  -0.048   2.149  1.00  0.00    -0.259 N 
ATOM      5  H3  UNL     1       0.389  -0.123   3.093  1.00  0.00     0.194 HD
HETATM    6  O4  UNL     1       2.109  -0.063   1.833  1.00  0.00    -0.254 OA
HETATM    7  C8  UNL     1       2.181  -0.624   0.499  1.00  0.00     0.194 C 
HETATM    8  C9  UNL     1       1.796  -2.058   0.528  1.00  0.00     0.065 C 
ENDROOT
BRANCH   3   9
HETATM    9  C4  UNL     1      -1.397   0.130   1.044  1.00  0.00     0.275 C 
HETATM   10  O1  UNL     1      -2.005   0.091   2.173  1.00  0.00    -0.266 OA
HETATM   11  N1  UNL     1      -2.204   0.218  -0.090  1.00  0.00    -0.312 N 
ATOM     12  H1  UNL     1      -1.787   0.247  -1.020  1.00  0.00     0.170 HD
BRANCH  11  13
HETATM   13  C5  UNL     1      -3.636   0.267   0.071  1.00  0.00     0.133 A 
HETATM   14  S1  UNL     1      -4.526   0.232   1.529  1.00  0.00    -0.007 SA
HETATM   15  C6  UNL     1      -6.093   0.328   0.859  1.00  0.00     0.292 A 
HETATM   16  O2  UNL     1      -7.228   0.344   1.456  1.00  0.00    -0.260 OA
HETATM   17  N2  UNL     1      -5.852   0.382  -0.448  1.00  0.00    -0.296 N 
HETATM   18  C7  UNL     1      -4.624   0.353  -0.871  1.00  0.00     0.178 A 
ATOM     19  H2  UNL     1      -6.624   0.446  -1.112  1.00  0.00     0.171 HD
BRANCH  18  20
HETATM   20  O3  UNL     1      -4.254   0.405  -2.248  1.00  0.00    -0.344 OA
ATOM     21  H3  UNL     1      -4.940   0.465  -2.902  1.00  0.00     0.219 HD
ENDBRANCH  18  20
ENDBRANCH  11  13
ENDBRANCH   3   9
BRANCH   7  22
HETATM   22  C10 UNL     1       3.429  -0.295  -0.174  1.00  0.00     0.259 C 
HETATM   23  O5  UNL     1       3.626  -0.719  -1.341  1.00  0.00    -0.270 OA
HETATM   24  N4  UNL     1       4.452   0.491   0.424  1.00  0.00    -0.362 N 
HETATM   25  C11 UNL     1       5.683   0.800  -0.272  1.00  0.00     0.149 C 
ATOM     26  H4  UNL     1       4.315   0.847   1.370  1.00  0.00     0.162 HD
ENDBRANCH   7  22
TORSDOF 4
