REMARK  4 active torsions:
REMARK  status: ('A' for Active; 'I' for Inactive)
REMARK    1  A    between atoms: C6_9  and  N3_10 
REMARK    2  A    between atoms: C9_18  and  S1_19 
REMARK    3  A    between atoms: S1_19  and  C10_20 
REMARK    4  A    between atoms: C13_24  and  C14_25 
ROOT
HETATM    1  C1  UNL     1       4.275  -2.656  -1.827  1.00  0.00     0.070 C 
HETATM    2  C2  UNL     1       3.788  -1.561  -0.945  1.00  0.00     0.032 A 
HETATM    3  N1  UNL     1       2.503  -1.197  -0.722  1.00  0.00    -0.344 N 
ATOM      4  H1  UNL     1       1.689  -1.644  -1.144  1.00  0.00     0.167 HD
HETATM    5  C3  UNL     1       2.454  -0.169   0.130  1.00  0.00     0.126 A 
HETATM    6  C4  UNL     1       3.744   0.164   0.488  1.00  0.00     0.078 A 
HETATM    7  C5  UNL     1       4.583  -0.711  -0.187  1.00  0.00     0.086 A 
HETATM    8  N2  UNL     1       5.993  -0.706  -0.095  1.00  0.00    -0.099 NA
HETATM    9  C6  UNL     1       4.016   1.200   1.366  1.00  0.00     0.117 A 
HETATM   10  N4  UNL     1       2.989   1.898   1.881  1.00  0.00    -0.314 N 
ATOM     11  H4  UNL     1       3.162   2.666   2.529  1.00  0.00     0.170 HD
HETATM   12  C7  UNL     1       1.711   1.569   1.528  1.00  0.00     0.186 A 
HETATM   13  N5  UNL     1       1.462   0.559   0.673  1.00  0.00    -0.301 N 
HETATM   14  C8  UNL     1       0.037   0.427   0.477  1.00  0.00     0.170 C 
HETATM   15  C9  UNL     1      -0.575   1.393   1.438  1.00  0.00     0.170 C 
HETATM   16  N8  UNL     1       0.519   2.179   1.955  1.00  0.00    -0.346 N 
ATOM     17  H8  UNL     1       0.442   3.021   2.525  1.00  0.00     0.163 HD
ENDROOT
BRANCH  15  18
HETATM   18  S1  UNL     1      -1.742   2.525   0.598  1.00  0.00    -0.095 SA
BRANCH  18  19
HETATM   19  C10 UNL     1      -3.143   1.556   0.019  1.00  0.00     0.046 A 
HETATM   20  C11 UNL     1      -4.256   1.949  -0.667  1.00  0.00     0.054 A 
HETATM   21  C12 UNL     1      -5.159   1.007  -0.973  1.00  0.00     0.070 A 
HETATM   22  N6  UNL     1      -6.389   1.293  -1.702  1.00  0.00    -0.101 NA
HETATM   23  C13 UNL     1      -4.890  -0.276  -0.571  1.00  0.00     0.095 A 
HETATM   24  S2  UNL     1      -3.388  -0.119   0.218  1.00  0.00    -0.076 SA
BRANCH  23  25
HETATM   25  C14 UNL     1      -5.726  -1.481  -0.784  1.00  0.00     0.273 C 
HETATM   26  N7  UNL     1      -5.246  -2.718  -0.277  1.00  0.00    -0.057 NA
HETATM   27  O1  UNL     1      -6.806  -1.438  -1.379  1.00  0.00    -0.270 OA
ENDBRANCH  23  25
ENDBRANCH  18  19
ENDBRANCH  15  18
BRANCH   9  28
HETATM   28  N3  UNL     1       5.243   1.447   1.649  1.00  0.00    -0.385 N 
ATOM     29  H32 UNL     1       6.022   0.917   1.258  1.00  0.00     0.157 HD
ATOM     30  H31 UNL     1       5.443   2.210   2.296  1.00  0.00     0.157 HD
ENDBRANCH   9  28
TORSDOF 4
