REMARK  10 active torsions:
REMARK  status: ('A' for Active; 'I' for Inactive)
REMARK    1  A    between atoms: N1_1  and  C1_4 
REMARK    2  A    between atoms: N5_14  and  C4_15 
REMARK    3  A    between atoms: C4_15  and  C5_16 
REMARK    4  A    between atoms: C5_16  and  C6_17 
REMARK    5  A    between atoms: C6_17  and  C7_23 
REMARK    6  A    between atoms: N6_18  and  N7_20 
REMARK       I    between atoms: C7_23  and  N8_25 
REMARK       I    between atoms: N8_25  and  C8_27 
REMARK       I    between atoms: C8_27  and  N9_28 
REMARK       I    between atoms: C8_27  and  N10_32 
REMARK    7  A    between atoms: N10_32  and  C9_35 
REMARK    8  A    between atoms: C10_37  and  C11_38 
REMARK    9  A    between atoms: C11_38  and  O4_39 
REMARK   10  A    between atoms: C12_41  and  O5_42 
ROOT
HETATM    1  C7  UNL     1       0.710  -0.761   0.909  1.00  0.00     0.268 C 
HETATM    2  O2  UNL     1       0.211   0.033   1.776  1.00  0.00    -0.266 OA
HETATM    3  N8  UNL     1      -0.091  -1.172  -0.184  1.00  0.00    -0.306 N 
ATOM      4  H8  UNL     1       0.290  -1.804  -0.888  1.00  0.00     0.166 HD
HETATM    5  C8  UNL     1      -1.444  -0.696  -0.300  1.00  0.00     0.488 C 
HETATM    6  N9  UNL     1      -1.559   0.227  -1.416  1.00  0.00    -0.032 N 
ATOM      7  H91 UNL     1      -2.518   0.564  -1.498  1.00  0.00     0.278 HD
ATOM      8  H92 UNL     1      -1.225  -0.185  -2.287  1.00  0.00     0.278 HD
ATOM      9  H93 UNL     1      -0.890   0.994  -1.346  1.00  0.00     0.278 HD
HETATM   10  N10 UNL     1      -2.405  -1.770  -0.387  1.00  0.00     0.006 N 
ATOM     11 1H10 UNL     1      -2.282  -2.420   0.389  1.00  0.00     0.285 HD
ATOM     12 2H10 UNL     1      -2.180  -2.386  -1.168  1.00  0.00     0.285 HD
ENDROOT
BRANCH   1  13
HETATM   13  C6  UNL     1       2.084  -1.210   1.083  1.00  0.00     0.094 C 
HETATM   14  N6  UNL     1       2.535  -2.029   0.171  1.00  0.00    -0.306 N 
ATOM     15  H6  UNL     1       1.900  -2.303  -0.579  1.00  0.00     0.186 HD
BRANCH  13  16
HETATM   16  C5  UNL     1       2.897  -0.744   2.206  1.00  0.00     0.086 C 
BRANCH  16  17
HETATM   17  C4  UNL     1       3.173   0.737   2.211  1.00  0.00     0.158 C 
BRANCH  17  18
HETATM   18  N5  UNL     1       3.882   1.159   1.018  1.00  0.00    -0.259 N 
HETATM   19  N4  UNL     1       3.353   1.540  -0.118  1.00  0.00    -0.238 N 
HETATM   20  N3  UNL     1       4.322   1.846  -0.996  1.00  0.00    -0.278 N 
ATOM     21  H4  UNL     1       2.352   1.596  -0.308  1.00  0.00     0.208 HD
HETATM   22  C3  UNL     1       5.516   1.654  -0.398  1.00  0.00     0.164 A 
ATOM     23  H3  UNL     1       4.179   2.169  -1.953  1.00  0.00     0.189 HD
HETATM   24  C2  UNL     1       6.824   1.808  -0.813  1.00  0.00     0.291 A 
HETATM   25  C15 UNL     1       5.216   1.221   0.872  1.00  0.00     0.172 A 
HETATM   26  N2  UNL     1       7.815   1.526   0.053  1.00  0.00    -0.154 N 
HETATM   27  O1  UNL     1       7.116   2.203  -1.971  1.00  0.00    -0.265 OA
HETATM   28  C1  UNL     1       7.506   1.101   1.300  1.00  0.00     0.680 A 
ATOM     29  H2  UNL     1       8.790   1.632  -0.228  1.00  0.00     0.187 HD
HETATM   30  N12 UNL     1       6.236   0.946   1.718  1.00  0.00    -0.173 N 
ATOM     31  H12 UNL     1       6.044   0.623   2.666  1.00  0.00     0.186 HD
BRANCH  28  32
HETATM   32  N1  UNL     1       8.503   0.848   2.087  1.00  0.00    -0.234 N 
ATOM     33  H12 UNL     1       9.465   0.965   1.770  1.00  0.00     0.174 HD
ATOM     34  H11 UNL     1       8.270   0.528   3.027  1.00  0.00     0.174 HD
ENDBRANCH  28  32
ENDBRANCH  17  18
ENDBRANCH  16  17
ENDBRANCH  13  16
BRANCH  14  35
HETATM   35  N7  UNL     1       3.813  -2.549   0.153  1.00  0.00    -0.345 N 
ATOM     36  H72 UNL     1       4.435  -2.264   0.910  1.00  0.00     0.176 HD
ATOM     37  H71 UNL     1       4.165  -3.189  -0.559  1.00  0.00     0.176 HD
ENDBRANCH  14  35
ENDBRANCH   1  13
BRANCH  10  38
HETATM   38  C9  UNL     1      -3.762  -1.344  -0.467  1.00  0.00     0.419 C 
HETATM   39  O3  UNL     1      -4.025  -0.441  -1.492  1.00  0.00    -0.342 OA
HETATM   40  C10 UNL     1      -5.415  -0.390  -1.611  1.00  0.00     0.178 C 
HETATM   41  C12 UNL     1      -6.048   0.840  -1.084  1.00  0.00     0.167 C 
HETATM   42  C13 UNL     1      -5.418   1.453   0.123  1.00  0.00     0.157 C 
HETATM   43  N11 UNL     1      -4.872   0.531   1.065  1.00  0.00    -0.355 N 
HETATM   44  C14 UNL     1      -4.082  -0.625   0.798  1.00  0.00     0.274 C 
ATOM     45  H11 UNL     1      -5.071   0.722   2.047  1.00  0.00     0.162 HD
HETATM   46  O6  UNL     1      -3.544  -1.152   1.825  1.00  0.00    -0.269 OA
BRANCH  40  47
HETATM   47  C11 UNL     1      -5.702  -0.435  -3.119  1.00  0.00     0.198 C 
BRANCH  47  48
HETATM   48  O4  UNL     1      -5.192  -1.603  -3.659  1.00  0.00    -0.398 OA
ATOM     49  H4  UNL     1      -5.370  -1.631  -4.592  1.00  0.00     0.209 HD
ENDBRANCH  47  48
ENDBRANCH  40  47
BRANCH  41  50
HETATM   50  O5  UNL     1      -7.408   0.549  -0.831  1.00  0.00    -0.391 OA
ATOM     51  H5  UNL     1      -7.814   1.338  -0.493  1.00  0.00     0.210 HD
ENDBRANCH  41  50
ENDBRANCH  10  38
TORSDOF 10
