REMARK  5 active torsions:
REMARK  status: ('A' for Active; 'I' for Inactive)
REMARK       I    between atoms: C1_2  and  N1_3 
REMARK       I    between atoms: C1_2  and  N2_11 
REMARK    1  A    between atoms: N1_3  and  C2_5 
REMARK    2  A    between atoms: N2_11  and  C6_12 
REMARK    3  A    between atoms: N2_11  and  C12_20 
REMARK    4  A    between atoms: C6_12  and  C7_13 
REMARK    5  A    between atoms: C7_13  and  N3_14 
ROOT
HETATM    1  O1  UNL     1      -2.047   1.730  -0.128  1.00  0.00    -0.247 OA
HETATM    2  C1  UNL     1      -0.800   1.481  -0.029  1.00  0.00     0.319 C 
HETATM    3  N1  UNL     1       0.150   2.520  -0.080  1.00  0.00    -0.335 N 
ATOM      4  H1  UNL     1       1.149   2.328  -0.003  1.00  0.00     0.164 HD
HETATM    5  N2  UNL     1      -0.400   0.140   0.132  1.00  0.00    -0.328 N 
ENDROOT
BRANCH   5   6
HETATM    6  C6  UNL     1       0.970  -0.225   0.265  1.00  0.00     0.158 C 
BRANCH   6   7
HETATM    7  C7  UNL     1       1.636  -0.491  -1.052  1.00  0.00     0.292 C 
BRANCH   7   8
HETATM    8  N3  UNL     1       3.002  -0.856  -0.941  1.00  0.00     0.094 N 
HETATM    9  C8  UNL     1       3.876   0.196  -0.484  1.00  0.00     0.298 C 
HETATM   10  C9  UNL     1       5.265  -0.439  -0.336  1.00  0.00     0.198 C 
HETATM   11  O2  UNL     1       5.270  -1.342   0.708  1.00  0.00    -0.388 OA
HETATM   12  C10 UNL     1       4.003  -1.842   0.995  1.00  0.00     0.198 C 
HETATM   13  C11 UNL     1       3.269  -2.105  -0.312  1.00  0.00     0.298 C 
ENDBRANCH   7   8
ENDBRANCH   6   7
ENDBRANCH   5   6
BRANCH   5  14
HETATM   14  C12 UNL     1      -1.477  -0.872   0.153  1.00  0.00     0.089 C 
HETATM   15  C13 UNL     1      -2.153  -0.914  -1.202  1.00  0.00     0.025 C 
HETATM   16  C14 UNL     1      -2.521  -2.323  -1.605  1.00  0.00     0.002 C 
HETATM   17  C15 UNL     1      -3.760  -2.826  -0.913  1.00  0.00     0.000 C 
HETATM   18  C16 UNL     1      -3.492  -3.479   0.398  1.00  0.00     0.000 C 
HETATM   19  C17 UNL     1      -3.913  -2.565   1.556  1.00  0.00     0.000 C 
HETATM   20  C18 UNL     1      -2.735  -1.794   2.110  1.00  0.00     0.002 C 
HETATM   21  C19 UNL     1      -2.425  -0.569   1.280  1.00  0.00     0.025 C 
ENDBRANCH   5  14
BRANCH   3  22
HETATM   22  C2  UNL     1      -0.352   3.888  -0.248  1.00  0.00     0.125 C 
HETATM   23  C3  UNL     1       0.122   4.784   0.904  1.00  0.00     0.068 C 
HETATM   24  C4  UNL     1       0.710   5.726  -0.118  1.00  0.00     0.208 C 
HETATM   25  F1  UNL     1       2.036   5.988   0.167  1.00  0.00    -0.246 F 
HETATM   26  C5  UNL     1       0.491   4.672  -1.199  1.00  0.00     0.226 C 
HETATM   27  F2  UNL     1      -0.243   5.138  -2.267  1.00  0.00    -0.244 F 
ENDBRANCH   3  22
TORSDOF 5
