REMARK  1 active torsions:
REMARK  status: ('A' for Active; 'I' for Inactive)
REMARK       I    between atoms: C1_2  and  N1_3 
REMARK       I    between atoms: C1_2  and  N2_10 
REMARK    1  A    between atoms: N2_10  and  O2_12 
ROOT
HETATM    1  O1  UNL     1       2.207   1.693  -0.559  1.00  0.00    -0.245 OA
HETATM    2  C1  UNL     1       2.188   0.474  -0.288  1.00  0.00     0.343 C 
HETATM    3  N1  UNL     1       1.142  -0.328  -0.743  1.00  0.00    -0.315 N 
ATOM      4  H1  UNL     1       1.371  -1.046  -1.430  1.00  0.00     0.170 HD
HETATM    5  C2  UNL     1      -0.084  -0.241  -0.373  1.00  0.00    -0.009 C 
HETATM    6  C3  UNL     1      -0.766   0.657   0.581  1.00  0.00     0.052 C 
HETATM    7  C4  UNL     1      -2.241   0.600   0.223  1.00  0.00     0.006 C 
HETATM    8  C5  UNL     1      -2.393  -0.865  -0.152  1.00  0.00     0.006 C 
HETATM    9  C6  UNL     1      -1.136  -1.141  -0.913  1.00  0.00     0.052 C 
HETATM   10  N2  UNL     1       3.222  -0.110   0.482  1.00  0.00    -0.219 N 
ATOM     11  H2  UNL     1       3.185  -1.108   0.692  1.00  0.00     0.199 HD
ENDROOT
BRANCH  10  12
HETATM   12  O2  UNL     1       4.273   0.637   0.953  1.00  0.00    -0.286 OA
ATOM     13  H2  UNL     1       4.967   0.245   1.470  1.00  0.00     0.244 HD
ENDBRANCH  10  12
TORSDOF 1
