REMARK  1 active torsions:
REMARK  status: ('A' for Active; 'I' for Inactive)
REMARK    1  A    between atoms: O1_1  and  C1_3 
ROOT
HETATM    1  C1  UNL     1       1.410   0.958   0.521  1.00  0.00     0.153 C 
HETATM    2  C2  UNL     1       2.363  -0.181   0.912  1.00  0.00     0.038 C 
HETATM    3  C3  UNL     1       1.683  -0.978  -0.212  1.00  0.00     0.044 C 
HETATM    4  C4  UNL     1       0.451  -0.150   0.169  1.00  0.00     0.090 C 
HETATM    5  O2  UNL     1      -0.203  -0.725   1.229  1.00  0.00    -0.377 OA
HETATM    6  C5  UNL     1      -1.113  -1.590   0.582  1.00  0.00     0.174 C 
HETATM    7  C6  UNL     1      -1.760  -0.633  -0.400  1.00  0.00     0.016 C 
HETATM    8  C7  UNL     1      -2.183   0.647   0.241  1.00  0.00     0.007 C 
HETATM    9  C8  UNL     1      -1.277   1.387  -0.726  1.00  0.00     0.009 C 
HETATM   10  C9  UNL     1      -0.517   0.102  -0.919  1.00  0.00     0.029 C 
ENDROOT
BRANCH   1  11
HETATM   11  O1  UNL     1       1.921   1.592  -0.600  1.00  0.00    -0.393 OA
ATOM     12  H1  UNL     1       1.331   2.297  -0.842  1.00  0.00     0.210 HD
ENDBRANCH   1  11
TORSDOF 1
