REMARK  1 active torsions:
REMARK  status: ('A' for Active; 'I' for Inactive)
REMARK    1  A    between atoms: O1_1  and  C1_3 
ROOT
HETATM    1  C1  UNL     1       0.072  -0.343   0.056  1.00  0.00     0.138 C 
HETATM    2  C2  UNL     1      -1.217   0.178   0.643  1.00  0.00     0.118 C 
HETATM    3  S1  UNL     1      -1.147   2.001   0.386  1.00  0.00    -0.095 SA
HETATM    4  S2  UNL     1       1.015   2.097   0.327  1.00  0.00    -0.095 SA
HETATM    5  C3  UNL     1       1.219   0.316   0.764  1.00  0.00     0.118 C 
ENDROOT
BRANCH   1   6
HETATM    6  O1  UNL     1       0.122  -1.704   0.355  1.00  0.00    -0.394 OA
ATOM      7  H1  UNL     1       0.933  -2.032  -0.015  1.00  0.00     0.210 HD
ENDBRANCH   1   6
TORSDOF 1
