REMARK  13 active torsions:
REMARK  status: ('A' for Active; 'I' for Inactive)
REMARK    1  A    between atoms: C2_2  and  C3_3 
REMARK    2  A    between atoms: C3_3  and  C4_4 
REMARK    3  A    between atoms: C5_5  and  C6_6 
REMARK    4  A    between atoms: C7_7  and  C8_8 
REMARK    5  A    between atoms: C9_9  and  C10_10 
REMARK    6  A    between atoms: C10_10  and  C11_11 
REMARK    7  A    between atoms: C10_10  and  O2_14 
REMARK    8  A    between atoms: C11_11  and  O1_12 
REMARK    9  A    between atoms: O2_14  and  C12_15 
REMARK   10  A    between atoms: C15_19  and  O4_20 
REMARK   11  A    between atoms: C16_22  and  O5_23 
REMARK   12  A    between atoms: C17_25  and  S1_26 
REMARK   13  A    between atoms: S1_26  and  O6_27 
ROOT
HETATM    1  C12 UNL     1      -1.110   1.039  -2.407  1.00  0.00     0.279 C 
HETATM    2  O3  UNL     1      -1.221   2.378  -2.574  1.00  0.00    -0.352 OA
HETATM    3  C13 UNL     1      -2.522   2.765  -2.731  1.00  0.00     0.152 C 
HETATM    4  C14 UNL     1      -3.019   3.193  -1.343  1.00  0.00     0.042 C 
HETATM    5  C15 UNL     1      -3.428   1.739  -3.334  1.00  0.00     0.176 C 
HETATM    6  C16 UNL     1      -2.750   0.697  -4.161  1.00  0.00     0.170 C 
HETATM    7  C17 UNL     1      -1.334   0.420  -3.797  1.00  0.00     0.162 C 
ENDROOT
BRANCH   1   8
HETATM    8  O2  UNL     1      -1.793   0.417  -1.412  1.00  0.00    -0.349 OA
BRANCH   8   9
HETATM    9  C10 UNL     1      -1.064  -0.259  -0.465  1.00  0.00     0.171 C 
BRANCH   9  10
HETATM   10  C9  UNL     1      -1.158   0.229   0.900  1.00  0.00     0.007 C 
HETATM   11  C8  UNL     1      -0.195   0.060   1.787  1.00  0.00    -0.001 C 
BRANCH  11  12
HETATM   12  C7  UNL     1       1.008  -0.621   1.440  1.00  0.00    -0.000 C 
HETATM   13  C6  UNL     1       1.997  -0.829   2.271  1.00  0.00    -0.000 C 
BRANCH  13  14
HETATM   14  C5  UNL     1       2.009  -0.401   3.653  1.00  0.00    -0.004 C 
HETATM   15  C4  UNL     1       3.006  -0.602   4.483  1.00  0.00    -0.027 C 
BRANCH  15  16
HETATM   16  C3  UNL     1       4.238  -1.285   4.113  1.00  0.00     0.027 C 
BRANCH  16  17
HETATM   17  C2  UNL     1       4.501  -2.539   4.944  1.00  0.00    -0.001 C 
HETATM   18  C1  UNL     1       5.829  -3.092   4.409  1.00  0.00     0.005 C 
ENDBRANCH  16  17
ENDBRANCH  15  16
ENDBRANCH  13  14
ENDBRANCH  11  12
ENDBRANCH   9  10
BRANCH   9  19
HETATM   19  C11 UNL     1      -1.264  -1.770  -0.594  1.00  0.00     0.200 C 
BRANCH  19  20
HETATM   20  O1  UNL     1      -2.608  -2.111  -0.476  1.00  0.00    -0.398 OA
ATOM     21  H1  UNL     1      -2.732  -3.049  -0.556  1.00  0.00     0.209 HD
ENDBRANCH  19  20
ENDBRANCH   9  19
ENDBRANCH   8   9
ENDBRANCH   1   8
BRANCH   7  22
HETATM   22  S1  UNL     1      -0.124   1.003  -4.961  1.00  0.00    -0.003 SA
BRANCH  22  23
HETATM   23  O6  UNL     1      -0.640   1.931  -6.013  1.00  0.00    -0.329 OA
ATOM     24  H6  UNL     1       0.007   2.243  -6.635  1.00  0.00     0.227 HD
ENDBRANCH  22  23
ENDBRANCH   7  22
BRANCH   6  25
HETATM   25  O5  UNL     1      -2.786   1.025  -5.536  1.00  0.00    -0.391 OA
ATOM     26  H5  UNL     1      -2.355   0.362  -6.062  1.00  0.00     0.210 HD
ENDBRANCH   6  25
BRANCH   5  27
HETATM   27  O4  UNL     1      -4.378   2.373  -4.132  1.00  0.00    -0.390 OA
ATOM     28  H4  UNL     1      -4.953   1.721  -4.515  1.00  0.00     0.210 HD
ENDBRANCH   5  27
TORSDOF 13
