REMARK  8 active torsions:
REMARK  status: ('A' for Active; 'I' for Inactive)
REMARK    1  A    between atoms: C2_2  and  C5_5 
REMARK    2  A    between atoms: C8_8  and  N1_10 
REMARK    3  A    between atoms: C15_19  and  C16_20 
REMARK    4  A    between atoms: C16_20  and  C17_21 
REMARK    5  A    between atoms: C27_36  and  C28_37 
REMARK       I    between atoms: C28_37  and  N4_39 
REMARK    6  A    between atoms: N4_39  and  C29_41 
REMARK    7  A    between atoms: C29_41  and  C30_42 
REMARK    8  A    between atoms: C30_42  and  N5_43 
ROOT
HETATM    1  N1  UNL     1      -1.730  -0.542  -0.704  1.00  0.00    -0.404 N 
HETATM    2  C10 UNL     1      -1.014  -0.077  -1.830  1.00  0.00     0.120 C 
HETATM    3  C11 UNL     1      -0.053   1.057  -1.543  1.00  0.00     0.059 C 
HETATM    4  C12 UNL     1       0.835   0.809  -0.381  1.00  0.00     0.141 C 
HETATM    5  C13 UNL     1       0.186  -0.164   0.623  1.00  0.00     0.059 C 
HETATM    6  C14 UNL     1      -1.327   0.079   0.504  1.00  0.00     0.120 C 
HETATM    7  N2  UNL     1       2.121   0.216  -0.709  1.00  0.00    -0.060 N 
ATOM      8  H21 UNL     1       2.296   0.186  -1.713  1.00  0.00     0.278 HD
ATOM      9  H22 UNL     1       2.148  -0.789  -0.535  1.00  0.00     0.278 HD
HETATM   10  C15 UNL     1       3.128   0.924   0.004  1.00  0.00     0.205 C 
HETATM   11  C26 UNL     1       2.442   1.699   1.084  1.00  0.00     0.050 C 
HETATM   12  C27 UNL     1       1.101   2.055   0.378  1.00  0.00     0.116 C 
ENDROOT
BRANCH  12  13
HETATM   13  C28 UNL     1       1.277   3.282  -0.401  1.00  0.00     0.224 C 
HETATM   14  O1  UNL     1       1.322   3.302  -1.655  1.00  0.00    -0.273 OA
HETATM   15  N4  UNL     1       1.411   4.537   0.249  1.00  0.00    -0.359 N 
ATOM     16  H4  UNL     1       1.381   4.566   1.268  1.00  0.00     0.162 HD
BRANCH  15  17
HETATM   17  C29 UNL     1       1.589   5.780  -0.479  1.00  0.00     0.150 C 
BRANCH  17  18
HETATM   18  C30 UNL     1       1.702   6.959   0.454  1.00  0.00     0.249 C 
BRANCH  18  19
HETATM   19  N5  UNL     1       0.547   7.135   1.277  1.00  0.00    -0.078 N 
ATOM     20  H53 UNL     1      -0.298   7.200   0.709  1.00  0.00     0.274 HD
ATOM     21  H52 UNL     1       0.335   6.281   1.794  1.00  0.00     0.274 HD
ATOM     22  H51 UNL     1       0.623   7.933   1.908  1.00  0.00     0.274 HD
ENDBRANCH  18  19
ENDBRANCH  17  18
ENDBRANCH  15  17
ENDBRANCH  12  13
BRANCH  10  23
HETATM   23  C16 UNL     1       4.322   0.117   0.434  1.00  0.00     0.086 C 
HETATM   24  C18 UNL     1       3.852  -0.998   1.300  1.00  0.00     0.021 C 
HETATM   25  C19 UNL     1       4.823  -2.038   1.691  1.00  0.00     0.001 C 
HETATM   26  C20 UNL     1       4.187  -3.436   1.652  1.00  0.00     0.005 C 
HETATM   27  C21 UNL     1       5.134  -4.460   1.153  1.00  0.00     0.044 C 
HETATM   28  C22 UNL     1       5.759  -4.218  -0.163  1.00  0.00     0.055 C 
HETATM   29  N3  UNL     1       4.960  -3.798  -1.228  1.00  0.00    -0.402 N 
HETATM   30  C23 UNL     1       5.316  -2.611  -1.924  1.00  0.00     0.118 C 
ATOM     31  H3  UNL     1       4.136  -4.333  -1.502  1.00  0.00     0.158 HD
HETATM   32  C24 UNL     1       4.388  -1.444  -1.555  1.00  0.00     0.021 C 
HETATM   33  C25 UNL     1       5.076  -0.366  -0.791  1.00  0.00     0.022 C 
BRANCH  23  34
HETATM   34  C17 UNL     1       5.317   0.949   1.215  1.00  0.00     0.397 C 
HETATM   35  F1  UNL     1       4.766   1.484   2.366  1.00  0.00    -0.170 F 
HETATM   36  F2  UNL     1       5.882   1.944   0.423  1.00  0.00    -0.170 F 
HETATM   37  F3  UNL     1       6.380   0.170   1.608  1.00  0.00    -0.170 F 
ENDBRANCH  23  34
ENDBRANCH  10  23
BRANCH   1  38
HETATM   38  C8  UNL     1      -3.094  -0.876  -0.863  1.00  0.00     0.024 C 
HETATM   39  C7  UNL     1      -3.929   0.304  -1.271  1.00  0.00     0.031 C 
HETATM   40  C6  UNL     1      -5.372   0.201  -0.986  1.00  0.00     0.008 C 
HETATM   41  C5  UNL     1      -5.909  -1.109  -0.536  1.00  0.00    -0.007 C 
HETATM   42  C32 UNL     1      -5.024  -1.884   0.384  1.00  0.00     0.008 C 
HETATM   43  C31 UNL     1      -3.630  -1.330   0.488  1.00  0.00     0.031 C 
HETATM   44  C9  UNL     1      -3.252  -2.030  -1.826  1.00  0.00     0.038 C 
BRANCH  41  45
HETATM   45  C2  UNL     1      -7.207  -0.824   0.237  1.00  0.00    -0.048 C 
HETATM   46  C1  UNL     1      -8.213  -0.127  -0.643  1.00  0.00     0.015 C 
HETATM   47  C3  UNL     1      -6.962  -0.094   1.517  1.00  0.00     0.015 C 
HETATM   48  C4  UNL     1      -7.796  -2.187   0.575  1.00  0.00     0.015 C 
ENDBRANCH  41  45
ENDBRANCH   1  38
TORSDOF 8
