REMARK  6 active torsions:
REMARK  status: ('A' for Active; 'I' for Inactive)
REMARK    1  A    between atoms: C2_2  and  C3_3 
REMARK    2  A    between atoms: C5_5  and  C6_6 
REMARK    3  A    between atoms: C6_6  and  C9_9 
REMARK    4  A    between atoms: C10_10  and  O1_11 
REMARK    5  A    between atoms: C17_21  and  O2_22 
REMARK    6  A    between atoms: N2_27  and  O3_29 
ROOT
HETATM    1  C9  UNL     1       1.057  -0.124  -0.270  1.00  0.00     0.021 A 
HETATM    2  C10 UNL     1       0.795  -1.328  -0.962  1.00  0.00     0.084 A 
HETATM    3  C11 UNL     1      -0.473  -1.822  -1.123  1.00  0.00    -0.001 A 
HETATM    4  C12 UNL     1      -0.746  -3.096  -1.856  1.00  0.00     0.054 C 
HETATM    5  C13 UNL     1      -1.520  -1.105  -0.584  1.00  0.00     0.055 A 
HETATM    6  N1  UNL     1      -2.861  -1.341  -0.583  1.00  0.00    -0.353 N 
ATOM      7  H1  UNL     1      -3.322  -2.142  -1.013  1.00  0.00     0.166 HD
HETATM    8  C14 UNL     1      -3.480  -0.342   0.080  1.00  0.00     0.064 A 
HETATM    9  C15 UNL     1      -2.557   0.570   0.527  1.00  0.00    -0.014 A 
HETATM   10  C16 UNL     1      -1.320   0.074   0.100  1.00  0.00     0.034 A 
HETATM   11  C17 UNL     1      -0.008   0.557   0.249  1.00  0.00     0.088 A 
HETATM   12  C18 UNL     1      -3.189   1.693   1.264  1.00  0.00     0.048 C 
HETATM   13  C19 UNL     1      -4.654   1.511   1.068  1.00  0.00     0.066 C 
HETATM   14  C20 UNL     1      -4.791   0.150   0.514  1.00  0.00     0.059 C 
HETATM   15  N2  UNL     1      -5.875  -0.510   0.420  1.00  0.00    -0.269 N 
ATOM     16  H2  UNL     1      -5.861  -1.448   0.019  1.00  0.00     0.194 HD
ENDROOT
BRANCH   1  17
HETATM   17  C6  UNL     1       2.461   0.326  -0.149  1.00  0.00     0.003 C 
HETATM   18  C7  UNL     1       2.586   1.642   0.522  1.00  0.00     0.025 C 
HETATM   19  C8  UNL     1       2.956   0.444  -1.599  1.00  0.00     0.025 C 
BRANCH  17  20
HETATM   20  C5  UNL     1       3.276  -0.669   0.559  1.00  0.00    -0.006 C 
HETATM   21  C3  UNL     1       4.567  -0.800   0.617  1.00  0.00    -0.066 C 
HETATM   22  C4  UNL     1       5.163  -1.943   1.440  1.00  0.00     0.048 C 
BRANCH  21  23
HETATM   23  C2  UNL     1       5.564   0.034  -0.025  1.00  0.00    -0.004 C 
HETATM   24  C1  UNL     1       6.876  -0.215   0.122  1.00  0.00     0.012 C 
ENDBRANCH  21  23
ENDBRANCH  17  20
ENDBRANCH   1  17
BRANCH   2  25
HETATM   25  O1  UNL     1       1.889  -2.003  -1.481  1.00  0.00    -0.359 OA
ATOM     26  H1  UNL     1       1.713  -2.812  -1.946  1.00  0.00     0.217 HD
ENDBRANCH   2  25
BRANCH  11  27
HETATM   27  O2  UNL     1       0.098   1.735   0.944  1.00  0.00    -0.359 OA
ATOM     28  H2  UNL     1      -0.642   2.208   1.305  1.00  0.00     0.217 HD
ENDBRANCH  11  27
BRANCH  15  29
HETATM   29  O3  UNL     1      -7.059   0.025   0.851  1.00  0.00    -0.285 OA
HETATM   30  C21 UNL     1      -8.221   0.122   0.082  1.00  0.00     0.237 C 
ENDBRANCH  15  29
TORSDOF 6
