REMARK  9 active torsions:
REMARK  status: ('A' for Active; 'I' for Inactive)
REMARK    1  A    between atoms: C2_2  and  C3_3 
REMARK    2  A    between atoms: C3_3  and  C4_4 
REMARK    3  A    between atoms: C4_4  and  C5_5 
REMARK    4  A    between atoms: C14_19  and  C15_20 
REMARK       I    between atoms: C15_20  and  N3_22 
REMARK    5  A    between atoms: N3_22  and  C16_24 
REMARK    6  A    between atoms: C16_24  and  C17_25 
REMARK    7  A    between atoms: C17_25  and  C18_26 
REMARK    8  A    between atoms: C18_26  and  N4_27 
REMARK    9  A    between atoms: C24_33  and  N5_34 
ROOT
HETATM    1  C4  UNL     1      -3.539   0.429   0.256  1.00  0.00     0.108 C 
HETATM    2  O1  UNL     1      -4.154   0.656   1.493  1.00  0.00    -0.373 OA
HETATM    3  C10 UNL     1      -3.344   1.084   2.496  1.00  0.00     0.174 C 
HETATM    4  C11 UNL     1      -2.313   0.050   2.933  1.00  0.00     0.069 C 
HETATM    5  C12 UNL     1      -1.616  -0.406   1.705  1.00  0.00    -0.000 A 
HETATM    6  C13 UNL     1      -2.220  -0.210   0.498  1.00  0.00     0.069 A 
HETATM    7  N1  UNL     1      -1.573  -0.627  -0.627  1.00  0.00    -0.301 N 
ATOM      8  H1  UNL     1      -2.017  -0.484  -1.534  1.00  0.00     0.186 HD
HETATM    9  N2  UNL     1      -0.394  -1.208  -0.578  1.00  0.00    -0.293 N 
ATOM     10  H2  UNL     1       0.055  -1.505  -1.444  1.00  0.00     0.187 HD
HETATM   11  C14 UNL     1       0.222  -1.414   0.580  1.00  0.00     0.143 A 
HETATM   12  C24 UNL     1      -0.373  -1.019   1.755  1.00  0.00     0.068 A 
ENDROOT
BRANCH  11  13
HETATM   13  C15 UNL     1       1.524  -2.048   0.606  1.00  0.00     0.271 C 
HETATM   14  O2  UNL     1       2.105  -2.266   1.719  1.00  0.00    -0.266 OA
HETATM   15  N3  UNL     1       2.148  -2.423  -0.603  1.00  0.00    -0.355 N 
ATOM     16  H3  UNL     1       1.646  -2.236  -1.471  1.00  0.00     0.162 HD
BRANCH  15  17
HETATM   17  C16 UNL     1       3.431  -3.045  -0.702  1.00  0.00     0.125 C 
BRANCH  17  18
HETATM   18  C17 UNL     1       4.489  -2.129  -0.142  1.00  0.00     0.050 C 
BRANCH  18  19
HETATM   19  C18 UNL     1       4.444  -0.844  -0.946  1.00  0.00     0.274 C 
BRANCH  19  20
HETATM   20  N4  UNL     1       5.411   0.122  -0.506  1.00  0.00     0.088 N 
HETATM   21  C19 UNL     1       6.761  -0.255  -0.760  1.00  0.00     0.272 C 
HETATM   22  C20 UNL     1       7.381   0.635  -1.794  1.00  0.00     0.030 C 
HETATM   23  C21 UNL     1       7.528   2.012  -1.148  1.00  0.00     0.003 C 
HETATM   24  C22 UNL     1       6.116   2.468  -0.835  1.00  0.00     0.030 C 
HETATM   25  C23 UNL     1       5.098   1.394  -1.075  1.00  0.00     0.272 C 
ENDBRANCH  19  20
ENDBRANCH  18  19
ENDBRANCH  17  18
ENDBRANCH  15  17
ENDBRANCH  11  13
BRANCH  12  26
HETATM   26  N5  UNL     1       0.175  -1.205   2.896  1.00  0.00    -0.397 N 
ATOM     27  H52 UNL     1      -0.266  -0.912   3.768  1.00  0.00     0.156 HD
ATOM     28  H51 UNL     1       1.089  -1.656   2.933  1.00  0.00     0.156 HD
ENDBRANCH  12  26
BRANCH   1  29
HETATM   29  C3  UNL     1      -3.293   1.737  -0.371  1.00  0.00     0.045 C 
BRANCH  29  30
HETATM   30  C2  UNL     1      -4.490   2.591  -0.667  1.00  0.00    -0.001 C 
HETATM   31  C1  UNL     1      -4.027   3.944  -1.267  1.00  0.00     0.005 C 
ENDBRANCH  29  30
ENDBRANCH   1  29
BRANCH   1  32
HETATM   32  C5  UNL     1      -4.396  -0.560  -0.483  1.00  0.00     0.026 C 
HETATM   33  C6  UNL     1      -4.349  -1.901   0.230  1.00  0.00     0.008 C 
HETATM   34  C7  UNL     1      -5.678  -2.122   0.901  1.00  0.00     0.001 C 
HETATM   35  C8  UNL     1      -6.649  -1.405  -0.028  1.00  0.00     0.001 C 
HETATM   36  C9  UNL     1      -5.849  -0.213  -0.543  1.00  0.00     0.008 C 
ENDBRANCH   1  32
TORSDOF 9
