REMARK  9 active torsions:
REMARK  status: ('A' for Active; 'I' for Inactive)
REMARK    1  A    between atoms: C2_2  and  C4_4 
REMARK    2  A    between atoms: C2_2  and  C15_15 
REMARK    3  A    between atoms: C4_4  and  C5_5 
REMARK    4  A    between atoms: C15_15  and  O2_17 
REMARK    5  A    between atoms: O2_17  and  C16_18 
REMARK    6  A    between atoms: C16_18  and  C17_19 
REMARK    7  A    between atoms: C16_18  and  C18_22 
REMARK    8  A    between atoms: C18_22  and  O5_24 
REMARK    9  A    between atoms: C18_22  and  O6_26 
ROOT
HETATM    1  C1  UNL     1       0.384   0.349   2.725  1.00  0.00     0.025 C 
HETATM    2  C2  UNL     1       0.657  -0.090   1.341  1.00  0.00     0.041 C 
HETATM    3  C3  UNL     1       0.864  -1.623   1.326  1.00  0.00     0.025 C 
ENDROOT
BRANCH   2   4
HETATM    4  C4  UNL     1      -0.180   0.371   0.238  1.00  0.00     0.028 C 
BRANCH   4   5
HETATM    5  C5  UNL     1      -1.612   0.119   0.125  1.00  0.00    -0.038 C 
HETATM    6  C6  UNL     1      -2.059   0.787  -1.205  1.00  0.00     0.014 C 
HETATM    7  C7  UNL     1      -3.532   0.764  -1.387  1.00  0.00    -0.013 C 
HETATM    8  C8  UNL     1      -4.005  -0.666  -1.447  1.00  0.00     0.009 C 
HETATM    9  C12 UNL     1      -4.279   1.453  -0.269  1.00  0.00     0.009 C 
HETATM   10  C9  UNL     1      -3.561  -1.331  -0.163  1.00  0.00    -0.013 C 
HETATM   11  C10 UNL     1      -4.242  -0.675   1.014  1.00  0.00     0.009 C 
HETATM   12  C14 UNL     1      -2.048  -1.303  -0.017  1.00  0.00     0.014 C 
HETATM   13  C11 UNL     1      -3.884   0.786   1.001  1.00  0.00    -0.013 C 
HETATM   14  C13 UNL     1      -2.383   0.873   1.177  1.00  0.00     0.014 C 
ENDBRANCH   4   5
ENDBRANCH   2   4
BRANCH   2  15
HETATM   15  C15 UNL     1       2.053   0.414   1.008  1.00  0.00     0.268 C 
HETATM   16  O1  UNL     1       2.740   1.065   1.834  1.00  0.00    -0.264 OA
BRANCH  15  17
HETATM   17  O2  UNL     1       2.618   0.169  -0.231  1.00  0.00    -0.299 OA
BRANCH  17  18
HETATM   18  C16 UNL     1       3.910   0.612  -0.598  1.00  0.00     0.293 C 
BRANCH  18  19
HETATM   19  C17 UNL     1       3.861   1.577  -1.723  1.00  0.00     0.209 C 
HETATM   20  O3  UNL     1       4.875   2.106  -2.222  1.00  0.00    -0.646 OA
HETATM   21  O4  UNL     1       2.625   1.916  -2.256  1.00  0.00    -0.646 OA
ENDBRANCH  18  19
BRANCH  18  22
HETATM   22  C18 UNL     1       4.843  -0.547  -0.870  1.00  0.00     0.193 C 
HETATM   23  C19 UNL     1       4.995  -1.363   0.374  1.00  0.00     0.082 C 
BRANCH  22  24
HETATM   24  O5  UNL     1       6.093  -0.043  -1.225  1.00  0.00    -0.363 OA
ATOM     25  H5  UNL     1       6.679  -0.771  -1.396  1.00  0.00     0.213 HD
ENDBRANCH  22  24
BRANCH  22  26
HETATM   26  O6  UNL     1       4.401  -1.337  -1.926  1.00  0.00    -0.363 OA
ATOM     27  H6  UNL     1       4.987  -2.065  -2.097  1.00  0.00     0.213 HD
ENDBRANCH  22  26
ENDBRANCH  18  22
ENDBRANCH  17  18
ENDBRANCH  15  17
ENDBRANCH   2  15
TORSDOF 9
