REMARK  3 active torsions:
REMARK  status: ('A' for Active; 'I' for Inactive)
REMARK    1  A    between atoms: N1_1  and  C1_5 
REMARK    2  A    between atoms: C1_5  and  C2_6 
REMARK    3  A    between atoms: C2_6  and  N2_7 
ROOT
HETATM    1  N2  UNL     1      -0.292  -0.222   0.503  1.00  0.00     0.117 N 
HETATM    2  C3  UNL     1      -1.376   0.520   1.128  1.00  0.00     0.302 C 
HETATM    3  C4  UNL     1      -2.543   0.193   0.227  1.00  0.00     0.264 C 
HETATM    4  N3  UNL     1      -1.978  -0.258  -1.023  1.00  0.00    -0.047 N 
ATOM      5  H31 UNL     1      -2.384   0.191  -1.844  1.00  0.00     0.279 HD
ATOM      6  H32 UNL     1      -2.236  -1.213  -1.270  1.00  0.00     0.279 HD
HETATM    7  C5  UNL     1      -0.526  -0.050  -0.890  1.00  0.00     0.502 C 
ENDROOT
BRANCH   1   8
HETATM    8  C2  UNL     1       0.934   0.284   1.018  1.00  0.00     0.301 C 
BRANCH   8   9
HETATM    9  C1  UNL     1       2.176  -0.378   0.483  1.00  0.00     0.259 C 
BRANCH   9  10
HETATM   10  N1  UNL     1       2.330  -0.258  -0.933  1.00  0.00    -0.078 N 
ATOM     11  H13 UNL     1       1.501  -0.606  -1.415  1.00  0.00     0.274 HD
ATOM     12  H12 UNL     1       2.294   0.721  -1.216  1.00  0.00     0.274 HD
ATOM     13  H11 UNL     1       3.171  -0.706  -1.295  1.00  0.00     0.274 HD
ENDBRANCH   9  10
ENDBRANCH   8   9
ENDBRANCH   1   8
TORSDOF 3
