REMARK  4 active torsions:
REMARK  status: ('A' for Active; 'I' for Inactive)
REMARK    1  A    between atoms: C2_2  and  C3_3 
REMARK    2  A    between atoms: C3_3  and  C4_4 
REMARK    3  A    between atoms: C4_4  and  N1_5 
REMARK    4  A    between atoms: N1_5  and  C5_8 
ROOT
HETATM    1  C5  UNL     1       1.262   0.337  -0.088  1.00  0.00     0.190 C 
HETATM    2  C6  UNL     1       1.795   1.718  -0.224  1.00  0.00     0.033 C 
HETATM    3  C7  UNL     1       0.851   2.370  -1.251  1.00  0.00     0.003 C 
HETATM    4  C8  UNL     1      -0.386   2.669  -0.493  1.00  0.00     0.010 C 
HETATM    5  C9  UNL     1      -0.974   1.507   0.260  1.00  0.00    -0.035 C 
HETATM    6  C10 UNL     1      -1.146   2.014   1.712  1.00  0.00     0.016 C 
HETATM    7  C11 UNL     1      -2.423   1.370  -0.222  1.00  0.00    -0.006 C 
HETATM    8  C12 UNL     1      -3.339   0.832   0.814  1.00  0.00     0.006 C 
HETATM    9  C13 UNL     1      -4.204  -0.303   0.367  1.00  0.00     0.010 C 
HETATM   10  C14 UNL     1      -3.386  -1.563   0.165  1.00  0.00    -0.036 A 
HETATM   11  C15 UNL     1      -4.209  -2.659  -0.539  1.00  0.00     0.016 C 
HETATM   12  C16 UNL     1      -2.284  -1.910   0.829  1.00  0.00     0.020 A 
HETATM   13  C17 UNL     1      -2.127  -1.244  -0.446  1.00  0.00    -0.032 A 
HETATM   14  C18 UNL     1      -2.686  -0.693  -1.662  1.00  0.00     0.011 C 
HETATM   15  C19 UNL     1      -2.552   0.816  -1.599  1.00  0.00     0.006 C 
HETATM   16  C20 UNL     1      -0.750  -0.916  -0.475  1.00  0.00     0.017 C 
HETATM   17  C21 UNL     1      -0.207   0.267   0.316  1.00  0.00     0.025 C 
ENDROOT
BRANCH   1  18
HETATM   18  N1  UNL     1       2.105  -0.461   0.737  1.00  0.00    -0.070 N 
ATOM     19  H12 UNL     1       1.672  -1.360   0.950  1.00  0.00     0.277 HD
ATOM     20  H11 UNL     1       2.163  -0.083   1.682  1.00  0.00     0.277 HD
BRANCH  18  21
HETATM   21  C4  UNL     1       3.421  -0.636   0.159  1.00  0.00     0.232 C 
BRANCH  21  22
HETATM   22  C3  UNL     1       4.305  -1.506   1.021  1.00  0.00     0.027 C 
BRANCH  22  23
HETATM   23  C2  UNL     1       5.648  -1.687   0.388  1.00  0.00    -0.003 C 
HETATM   24  C1  UNL     1       6.436  -0.449   0.149  1.00  0.00     0.005 C 
ENDBRANCH  22  23
ENDBRANCH  21  22
ENDBRANCH  18  21
ENDBRANCH   1  18
TORSDOF 4
