REMARK  9 active torsions:
REMARK  status: ('A' for Active; 'I' for Inactive)
REMARK    1  A    between atoms: O1_2  and  C2_3 
REMARK    2  A    between atoms: C5_7  and  C6_8 
REMARK    3  A    between atoms: C7_9  and  C8_10 
REMARK       I    between atoms: C8_10  and  N1_12 
REMARK    4  A    between atoms: C18_27  and  C19_28 
REMARK    5  A    between atoms: C19_28  and  N4_29 
REMARK    6  A    between atoms: N4_29  and  O4_30 
REMARK    7  A    between atoms: O4_30  and  C20_31 
REMARK    8  A    between atoms: C20_31  and  C21_32 
REMARK    9  A    between atoms: C21_32  and  N5_33 
ROOT
HETATM    1  C2  UNL     1      -1.040   0.328   3.139  1.00  0.00     0.082 A 
HETATM    2  C3  UNL     1       0.144  -0.156   3.662  1.00  0.00     0.057 A 
HETATM    3  C4  UNL     1       1.348   0.184   3.141  1.00  0.00     0.024 A 
HETATM    4 BR1  UNL     1       2.981  -0.523   3.834  1.00  0.00    -0.050 Br
HETATM    5  C5  UNL     1       1.341   1.065   2.029  1.00  0.00    -0.018 A 
HETATM    6  C17 UNL     1       0.181   1.531   1.520  1.00  0.00     0.029 A 
HETATM    7  C18 UNL     1      -1.076   1.194   2.031  1.00  0.00     0.029 A 
ENDROOT
BRANCH   5   8
HETATM    8  C6  UNL     1       2.693   1.421   1.597  1.00  0.00     0.018 C 
HETATM    9  C7  UNL     1       3.542   0.910   0.829  1.00  0.00     0.076 C 
BRANCH   9  10
HETATM   10  C8  UNL     1       3.765  -0.189  -0.049  1.00  0.00     0.255 C 
HETATM   11  O2  UNL     1       2.844  -0.937  -0.464  1.00  0.00    -0.268 OA
HETATM   12  N1  UNL     1       5.089  -0.503  -0.538  1.00  0.00    -0.244 N 
HETATM   13  C9  UNL     1       5.393  -1.302  -1.655  1.00  0.00     0.082 C 
HETATM   14  C16 UNL     1       6.052  -0.098   0.491  1.00  0.00     0.334 C 
HETATM   15  C10 UNL     1       6.311  -0.599  -2.635  1.00  0.00     0.083 C 
HETATM   16  C11 UNL     1       7.655  -0.274  -2.148  1.00  0.00    -0.025 A 
HETATM   17  C12 UNL     1       8.212  -0.144  -0.863  1.00  0.00     0.108 A 
HETATM   18  C14 UNL     1       8.740  -0.012  -3.003  1.00  0.00     0.043 A 
HETATM   19  N2  UNL     1       9.495   0.162  -0.899  1.00  0.00    -0.371 N 
HETATM   20  N3  UNL     1       7.481  -0.284   0.358  1.00  0.00    -0.294 N 
HETATM   21  C13 UNL     1       9.878   0.262  -2.201  1.00  0.00     0.092 A 
ATOM     22  H2  UNL     1      10.098   0.300  -0.088  1.00  0.00     0.161 HD
HETATM   23  C15 UNL     1      10.010   0.277  -3.638  1.00  0.00     0.037 A 
ATOM     24  H3  UNL     1       8.005  -0.533   1.197  1.00  0.00     0.172 HD
HETATM   25  O3  UNL     1       5.735   0.400   1.549  1.00  0.00    -0.246 OA
ENDBRANCH   9  10
ENDBRANCH   5   8
BRANCH   7  26
HETATM   26  C19 UNL     1      -2.280   1.478   1.286  1.00  0.00     0.232 C 
BRANCH  26  27
HETATM   27  N4  UNL     1      -3.387   1.064   1.145  1.00  0.00    -0.293 NA
BRANCH  27  28
HETATM   28  O4  UNL     1      -4.570   0.572   1.033  1.00  0.00    -0.208 OA
BRANCH  28  29
HETATM   29  C20 UNL     1      -4.408  -0.823   0.422  1.00  0.00     0.247 C 
BRANCH  29  30
HETATM   30  C21 UNL     1      -5.137  -0.681  -0.837  1.00  0.00     0.302 C 
BRANCH  30  31
HETATM   31  N5  UNL     1      -6.464  -0.474  -1.015  1.00  0.00     0.090 N 
HETATM   32  C22 UNL     1      -6.620   0.085  -2.390  1.00  0.00     0.272 C 
HETATM   33  C23 UNL     1      -8.042   0.470  -2.660  1.00  0.00     0.030 C 
HETATM   34  C24 UNL     1      -8.963  -0.401  -1.789  1.00  0.00     0.003 C 
HETATM   35  C25 UNL     1      -8.738  -0.184  -0.324  1.00  0.00     0.030 C 
HETATM   36  C26 UNL     1      -7.259   0.208  -0.104  1.00  0.00     0.272 C 
ENDBRANCH  30  31
ENDBRANCH  29  30
ENDBRANCH  28  29
ENDBRANCH  27  28
ENDBRANCH  26  27
ENDBRANCH   7  26
BRANCH   1  37
HETATM   37  O1  UNL     1      -2.284  -0.018   3.705  1.00  0.00    -0.355 OA
HETATM   38  C1  UNL     1      -2.184  -0.874   4.822  1.00  0.00     0.210 C 
ENDBRANCH   1  37
TORSDOF 9
