REMARK  9 active torsions:
REMARK  status: ('A' for Active; 'I' for Inactive)
REMARK    1  A    between atoms: C2_2  and  C4_4 
REMARK    2  A    between atoms: C4_4  and  C5_5 
REMARK    3  A    between atoms: C5_5  and  C6_6 
REMARK    4  A    between atoms: C7_7  and  C8_8 
REMARK    5  A    between atoms: C8_8  and  C9_9 
REMARK    6  A    between atoms: C10_10  and  O1_11 
REMARK    7  A    between atoms: C12_14  and  C13_15 
REMARK    8  A    between atoms: C14_16  and  C15_17 
REMARK    9  A    between atoms: C19_24  and  O3_25 
ROOT
HETATM    1  C9  UNL     1      -0.141  -0.698   0.065  1.00  0.00     0.046 C 
HETATM    2  C10 UNL     1       0.562  -0.160  -1.111  1.00  0.00     0.125 C 
HETATM    3  C11 UNL     1       2.005  -0.592  -1.238  1.00  0.00     0.040 C 
HETATM    4  C12 UNL     1       2.680  -0.247   0.073  1.00  0.00     0.013 C 
HETATM    5  C18 UNL     1       2.109  -1.210   1.081  1.00  0.00     0.040 C 
HETATM    6  C19 UNL     1       0.654  -0.898   1.307  1.00  0.00     0.125 C 
ENDROOT
BRANCH   1   7
HETATM    7  C8  UNL     1      -1.285   0.272   0.417  1.00  0.00     0.036 C 
BRANCH   7   8
HETATM    8  C7  UNL     1      -2.195   0.363  -0.728  1.00  0.00    -0.030 C 
HETATM    9  C6  UNL     1      -3.452   0.042  -0.684  1.00  0.00    -0.031 C 
BRANCH   9  10
HETATM   10  C5  UNL     1      -4.149  -0.456   0.499  1.00  0.00     0.027 C 
BRANCH  10  11
HETATM   11  C4  UNL     1      -5.269   0.498   0.871  1.00  0.00     0.007 C 
BRANCH  11  12
HETATM   12  C2  UNL     1      -6.237   0.579  -0.281  1.00  0.00    -0.023 C 
HETATM   13  C1  UNL     1      -7.382   1.533   0.086  1.00  0.00     0.009 C 
HETATM   14  C3  UNL     1      -6.769  -0.813  -0.547  1.00  0.00     0.009 C 
ENDBRANCH  11  12
ENDBRANCH  10  11
ENDBRANCH   9  10
ENDBRANCH   7   8
ENDBRANCH   1   7
BRANCH   2  15
HETATM   15  O1  UNL     1       0.549   1.230  -1.230  1.00  0.00    -0.395 OA
ATOM     16  H1  UNL     1       1.003   1.577  -1.989  1.00  0.00     0.210 HD
ENDBRANCH   2  15
BRANCH   6  17
HETATM   17  O3  UNL     1       0.601   0.213   2.153  1.00  0.00    -0.395 OA
ATOM     18  H3  UNL     1       1.109   0.085   2.946  1.00  0.00     0.210 HD
ENDBRANCH   6  17
BRANCH   4  19
HETATM   19  C13 UNL     1       4.156  -0.346  -0.027  1.00  0.00    -0.018 C 
HETATM   20  C14 UNL     1       4.962   0.647   0.219  1.00  0.00     0.052 C 
BRANCH  20  21
HETATM   21  C15 UNL     1       6.404   0.463   0.097  1.00  0.00     0.137 C 
HETATM   22  N1  UNL     1       7.295   1.359   0.312  1.00  0.00    -0.369 N 
HETATM   23  C16 UNL     1       8.591   0.786   0.085  1.00  0.00     0.148 C 
ATOM     24  H1  UNL     1       7.113   2.321   0.598  1.00  0.00     0.161 HD
HETATM   25  C17 UNL     1       8.291  -0.394  -0.808  1.00  0.00     0.197 C 
HETATM   26  O2  UNL     1       6.999  -0.755  -0.283  1.00  0.00    -0.334 OA
ENDBRANCH  20  21
ENDBRANCH   4  19
TORSDOF 9
