REMARK  7 active torsions:
REMARK  status: ('A' for Active; 'I' for Inactive)
REMARK    1  A    between atoms: N1_1  and  C1_4 
REMARK    2  A    between atoms: N5_18  and  C7_19 
REMARK    3  A    between atoms: C7_19  and  C8_20 
REMARK    4  A    between atoms: C8_20  and  C9_21 
REMARK    5  A    between atoms: C9_21  and  N6_22 
REMARK       I    between atoms: N6_22  and  C10_24 
REMARK    6  A    between atoms: N8_26  and  N9_28 
REMARK    7  A    between atoms: N9_28  and  N10_30 
ROOT
HETATM    1  C1  UNL     1      -1.834   1.738   0.132  1.00  0.00     0.682 A 
HETATM    2  N2  UNL     1      -2.977   1.775  -0.602  1.00  0.00    -0.175 N 
ATOM      3  H2  UNL     1      -3.152   2.570  -1.217  1.00  0.00     0.186 HD
HETATM    4  C2  UNL     1      -3.876   0.789  -0.532  1.00  0.00     0.143 A 
HETATM    5  N3  UNL     1      -5.035   0.790  -1.246  1.00  0.00    -0.337 N 
ATOM      6  H3  UNL     1      -5.237   1.572  -1.869  1.00  0.00     0.168 HD
HETATM    7  C3  UNL     1      -5.923  -0.221  -1.148  1.00  0.00     0.184 A 
HETATM    8  N4  UNL     1      -5.700  -1.276  -0.339  1.00  0.00    -0.319 N 
ATOM      9  H4  UNL     1      -6.377  -2.036  -0.272  1.00  0.00     0.169 HD
HETATM   10  C4  UNL     1      -4.559  -1.301   0.380  1.00  0.00     0.265 A 
HETATM   11  O1  UNL     1      -4.324  -2.272   1.142  1.00  0.00    -0.267 OA
HETATM   12  C5  UNL     1      -3.620  -0.284   0.308  1.00  0.00     0.145 A 
HETATM   13  C6  UNL     1      -2.448  -0.298   1.044  1.00  0.00     0.281 A 
HETATM   14  O2  UNL     1      -2.235  -1.288   1.805  1.00  0.00    -0.266 OA
HETATM   15  N5  UNL     1      -1.554   0.717   0.953  1.00  0.00    -0.147 N 
ENDROOT
BRANCH  15  16
HETATM   16  C7  UNL     1      -0.359   0.569   1.736  1.00  0.00     0.153 C 
BRANCH  16  17
HETATM   17  C8  UNL     1       0.720  -0.248   1.117  1.00  0.00     0.041 C 
BRANCH  17  18
HETATM   18  C9  UNL     1       1.242   0.227  -0.191  1.00  0.00     0.124 C 
BRANCH  18  19
HETATM   19  N6  UNL     1       2.300  -0.576  -0.756  1.00  0.00    -0.363 N 
HETATM   20  C10 UNL     1       3.594  -0.673  -0.243  1.00  0.00     0.204 C 
HETATM   21  N7  UNL     1       4.006  -0.348   1.076  1.00  0.00    -0.062 NA
HETATM   22  N8  UNL     1       4.539  -1.103  -1.037  1.00  0.00    -0.260 N 
ATOM     23  H8  UNL     1       4.299  -1.351  -1.997  1.00  0.00     0.191 HD
ATOM     24  H6  UNL     1       2.085  -1.114  -1.595  1.00  0.00     0.162 HD
BRANCH  22  25
HETATM   25  N9  UNL     1       5.849  -1.234  -0.625  1.00  0.00    -0.247 N 
ATOM     26  H9  UNL     1       6.217  -2.164  -0.423  1.00  0.00     0.207 HD
BRANCH  25  27
HETATM   27  N10 UNL     1       6.688  -0.119  -0.477  1.00  0.00    -0.331 N 
ATOM     28 2H10 UNL     1       6.304   0.803  -0.683  1.00  0.00     0.178 HD
ATOM     29 1H10 UNL     1       7.657  -0.216  -0.172  1.00  0.00     0.178 HD
ENDBRANCH  25  27
ENDBRANCH  22  25
ENDBRANCH  18  19
ENDBRANCH  17  18
ENDBRANCH  16  17
ENDBRANCH  15  16
BRANCH   1  30
HETATM   30  N1  UNL     1      -1.068   2.763  -0.001  1.00  0.00    -0.234 N 
ATOM     31  H12 UNL     1      -1.281   3.540  -0.626  1.00  0.00     0.174 HD
ATOM     32  H11 UNL     1      -0.210   2.735   0.550  1.00  0.00     0.174 HD
ENDBRANCH   1  30
TORSDOF 7
