REMARK  8 active torsions:
REMARK  status: ('A' for Active; 'I' for Inactive)
REMARK    1  A    between atoms: N1_1  and  C1_5 
REMARK    2  A    between atoms: C1_5  and  C2_6 
REMARK    3  A    between atoms: C2_6  and  C3_7 
REMARK    4  A    between atoms: C3_7  and  N2_8 
REMARK    5  A    between atoms: C5_13  and  N4_14 
REMARK    6  A    between atoms: N4_14  and  N5_16 
REMARK       I    between atoms: N5_16  and  C6_18 
REMARK       I    between atoms: C6_18  and  N6_19 
REMARK       I    between atoms: C6_18  and  N7_23 
REMARK    7  A    between atoms: C8_30  and  S1_31 
REMARK    8  A    between atoms: S1_31  and  N9_32 
ROOT
HETATM    1  N2  UNL     1       1.685   0.593   0.318  1.00  0.00    -0.374 N 
ATOM      2  H2  UNL     1       1.504   1.591   0.422  1.00  0.00     0.161 HD
HETATM    3  C4  UNL     1       0.597   0.147  -0.003  1.00  0.00     0.141 A 
HETATM    4  N3  UNL     1      -0.471   1.018  -0.124  1.00  0.00    -0.174 N 
ATOM      5  H3  UNL     1      -0.301   2.009   0.048  1.00  0.00     0.186 HD
HETATM    6  C5  UNL     1      -1.694   0.649  -0.447  1.00  0.00     0.698 A 
HETATM    7  N8  UNL     1      -1.980  -0.640  -0.686  1.00  0.00    -0.199 N 
ATOM      8  H8  UNL     1      -2.924  -0.935  -0.937  1.00  0.00     0.183 HD
HETATM    9  C7  UNL     1      -0.988  -1.518  -0.584  1.00  0.00     0.135 A 
HETATM   10  C8  UNL     1       0.324  -1.192  -0.247  1.00  0.00     0.139 A 
ENDROOT
BRANCH   6  11
HETATM   11  N4  UNL     1      -2.688   1.496  -0.554  1.00  0.00    -0.133 N 
ATOM     12  H4  UNL     1      -2.515   2.486  -0.380  1.00  0.00     0.205 HD
BRANCH  11  13
HETATM   13  N5  UNL     1      -3.974   1.084  -0.898  1.00  0.00    -0.270 N 
HETATM   14  C6  UNL     1      -4.950   0.696   0.090  1.00  0.00     0.495 C 
HETATM   15  N6  UNL     1      -6.181   0.323  -0.581  1.00  0.00    -0.032 N 
HETATM   16  N7  UNL     1      -5.264   1.763   1.010  1.00  0.00    -0.032 N 
ATOM     17  H63 UNL     1      -6.525   1.059  -1.198  1.00  0.00     0.279 HD
ATOM     18  H62 UNL     1      -6.035  -0.399  -1.287  1.00  0.00     0.279 HD
ATOM     19  H61 UNL     1      -6.871   0.049   0.118  1.00  0.00     0.279 HD
ATOM     20  H73 UNL     1      -4.419   2.126   1.452  1.00  0.00     0.279 HD
ATOM     21  H72 UNL     1      -5.561   2.601   0.511  1.00  0.00     0.279 HD
ATOM     22  H71 UNL     1      -5.954   1.489   1.709  1.00  0.00     0.279 HD
ATOM     23  H5  UNL     1      -4.234   1.056  -1.884  1.00  0.00     0.184 HD
ENDBRANCH  11  13
ENDBRANCH   6  11
BRANCH   1  24
HETATM   24  C3  UNL     1       2.999   0.488   0.611  1.00  0.00     0.123 C 
BRANCH  24  25
HETATM   25  C2  UNL     1       3.782   1.818   0.552  1.00  0.00     0.047 C 
BRANCH  25  26
HETATM   26  C1  UNL     1       5.218   1.486   0.909  1.00  0.00     0.231 C 
BRANCH  26  27
HETATM   27  N1  UNL     1       5.793   0.533  -0.015  1.00  0.00    -0.079 N 
ATOM     28  H13 UNL     1       5.222  -0.310  -0.083  1.00  0.00     0.274 HD
ATOM     29  H12 UNL     1       5.715   0.856  -0.979  1.00  0.00     0.274 HD
ATOM     30  H11 UNL     1       6.759   0.310   0.225  1.00  0.00     0.274 HD
ENDBRANCH  26  27
ENDBRANCH  25  26
ENDBRANCH  24  25
ENDBRANCH   1  24
BRANCH  10  31
HETATM   31  S1  UNL     1       1.544  -2.441  -0.183  1.00  0.00     0.261 S 
HETATM   32  O1  UNL     1       2.169  -2.450   1.157  1.00  0.00    -0.201 OA
HETATM   33  O2  UNL     1       2.524  -2.348  -1.320  1.00  0.00    -0.201 OA
BRANCH  31  34
HETATM   34  N9  UNL     1       0.724  -3.970  -0.446  1.00  0.00    -0.324 N 
ATOM     35  H92 UNL     1      -0.276  -4.091  -0.605  1.00  0.00     0.169 HD
ATOM     36  H91 UNL     1       1.436  -4.699  -0.409  1.00  0.00     0.169 HD
ENDBRANCH  31  34
ENDBRANCH  10  31
TORSDOF 8
