REMARK  7 active torsions:
REMARK  status: ('A' for Active; 'I' for Inactive)
REMARK    1  A    between atoms: O1_2  and  C2_3 
REMARK    2  A    between atoms: C2_3  and  C3_4 
REMARK    3  A    between atoms: C3_4  and  O2_6 
REMARK    4  A    between atoms: O2_6  and  C5_7 
REMARK    5  A    between atoms: C7_10  and  C8_11 
REMARK       I    between atoms: C8_11  and  N1_13 
REMARK    6  A    between atoms: N1_13  and  N2_15 
REMARK    7  A    between atoms: C9_20  and  O5_21 
ROOT
HETATM    1  C5  UNL     1       0.415  -0.049   0.091  1.00  0.00     0.177 C 
HETATM    2  C6  UNL     1       1.281   0.727  -0.912  1.00  0.00     0.203 C 
HETATM    3  O3  UNL     1       2.273   1.161  -0.031  1.00  0.00    -0.371 OA
HETATM    4  C7  UNL     1       2.696   0.004   0.611  1.00  0.00     0.246 C 
HETATM    5  C9  UNL     1       1.495  -0.924   0.688  1.00  0.00     0.187 C 
ENDROOT
BRANCH   4   6
HETATM    6  C8  UNL     1       3.809  -0.576  -0.166  1.00  0.00     0.268 C 
HETATM    7  O4  UNL     1       4.338  -1.635   0.247  1.00  0.00    -0.269 OA
HETATM    8  N1  UNL     1       4.324  -0.007  -1.361  1.00  0.00    -0.254 N 
ATOM      9  H1  UNL     1       4.259  -0.481  -2.262  1.00  0.00     0.191 HD
BRANCH   8  10
HETATM   10  N2  UNL     1       4.861   1.113  -1.235  1.00  0.00    -0.247 N 
HETATM   11  N3  UNL     1       5.011   2.336  -1.286  1.00  0.00    -0.331 N 
ATOM     12  H32 UNL     1       4.104   2.555  -1.699  1.00  0.00     0.178 HD
ATOM     13  H31 UNL     1       5.450   3.251  -1.183  1.00  0.00     0.178 HD
ATOM     14  H2  UNL     1       5.753   0.839  -0.823  1.00  0.00     0.207 HD
ENDBRANCH   8  10
ENDBRANCH   4   6
BRANCH   5  15
HETATM   15  O5  UNL     1       1.686  -2.079  -0.074  1.00  0.00    -0.390 OA
ATOM     16  H5  UNL     1       2.364  -2.628   0.301  1.00  0.00     0.210 HD
ENDBRANCH   5  15
BRANCH   1  17
HETATM   17  O2  UNL     1      -0.600  -0.730  -0.497  1.00  0.00    -0.374 OA
BRANCH  17  18
HETATM   18  C3  UNL     1      -1.806  -0.305   0.059  1.00  0.00     0.141 C 
HETATM   19  C4  UNL     1      -2.381  -1.490   0.809  1.00  0.00     0.042 C 
BRANCH  18  20
HETATM   20  C2  UNL     1      -2.753   0.235  -0.963  1.00  0.00     0.198 C 
BRANCH  20  21
HETATM   21  O1  UNL     1      -3.930   0.627  -0.351  1.00  0.00    -0.393 OA
HETATM   22  C1  UNL     1      -3.783   1.614   0.605  1.00  0.00     0.201 C 
ENDBRANCH  20  21
ENDBRANCH  18  20
ENDBRANCH  17  18
ENDBRANCH   1  17
TORSDOF 7
