REMARK  6 active torsions:
REMARK  status: ('A' for Active; 'I' for Inactive)
REMARK    1  A    between atoms: C2_2  and  O1_3 
REMARK    2  A    between atoms: C2_2  and  C3_5 
REMARK    3  A    between atoms: C11_14  and  C12_15 
REMARK    4  A    between atoms: C16_23  and  N3_24 
REMARK    5  A    between atoms: N3_24  and  C17_26 
REMARK    6  A    between atoms: C17_26  and  C18_27 
ROOT
HETATM    1  C3  UNL     1       2.738   0.735   0.213  1.00  0.00     0.117 C 
HETATM    2  C4  UNL     1       1.983   0.998  -1.118  1.00  0.00     0.023 C 
HETATM    3  C5  UNL     1       2.605   0.175  -2.217  1.00  0.00     0.090 C 
HETATM    4  C6  UNL     1       2.763  -1.309  -1.882  1.00  0.00     0.151 C 
HETATM    5  O2  UNL     1       3.666  -1.938  -2.376  1.00  0.00    -0.293 OA
HETATM    6  C7  UNL     1       1.829  -2.018  -0.959  1.00  0.00     0.075 C 
HETATM    7  C8  UNL     1       1.443  -1.463   0.223  1.00  0.00     0.019 C 
HETATM    8  C9  UNL     1       0.488  -2.492   0.785  1.00  0.00     0.080 A 
HETATM    9  C10 UNL     1      -0.365  -2.442   1.910  1.00  0.00     0.059 A 
HETATM   10  C11 UNL     1      -0.823  -1.742   0.630  1.00  0.00     0.117 A 
HETATM   11  O3  UNL     1      -0.943  -0.468   0.582  1.00  0.00    -0.341 OA
HETATM   12  C16 UNL     1      -0.265   0.639   0.300  1.00  0.00     0.148 C 
HETATM   13  C21 UNL     1       0.511   0.714  -1.003  1.00  0.00     0.069 C 
HETATM   14  C22 UNL     1       0.762   0.609   1.533  1.00  0.00     0.184 C 
HETATM   15  N4  UNL     1       1.724  -0.154   0.717  1.00  0.00    -0.371 N 
ENDROOT
BRANCH  10  16
HETATM   16  C12 UNL     1      -1.849  -2.479  -0.184  1.00  0.00     0.063 A 
HETATM   17  C13 UNL     1      -1.798  -2.814  -1.508  1.00  0.00     0.117 A 
HETATM   18  N1  UNL     1      -2.939  -3.443  -1.786  1.00  0.00    -0.360 N 
HETATM   19  C14 UNL     1      -3.724  -3.528  -0.694  1.00  0.00     0.182 A 
ATOM     20  H1  UNL     1      -3.186  -3.812  -2.704  1.00  0.00     0.166 HD
HETATM   21  N2  UNL     1      -3.036  -2.927   0.288  1.00  0.00    -0.347 N 
HETATM   22  C15 UNL     1      -3.564  -2.816   1.628  1.00  0.00     0.157 C 
ENDBRANCH  10  16
BRANCH  12  23
HETATM   23  N3  UNL     1      -0.994   1.840   0.516  1.00  0.00    -0.390 N 
ATOM     24  H3  UNL     1      -0.783   2.474   1.287  1.00  0.00     0.156 HD
BRANCH  23  25
HETATM   25  C17 UNL     1      -2.042   2.099  -0.420  1.00  0.00     0.121 C 
BRANCH  25  26
HETATM   26  C18 UNL     1      -2.433   3.551  -0.302  1.00  0.00     0.003 A 
HETATM   27  C19 UNL     1      -3.518   4.077  -1.178  1.00  0.00     0.007 A 
HETATM   28  C20 UNL     1      -3.756   3.963   0.293  1.00  0.00     0.007 A 
ENDBRANCH  25  26
ENDBRANCH  23  25
ENDBRANCH  12  23
BRANCH   1  29
HETATM   29  C2  UNL     1       4.120   0.388   0.206  1.00  0.00     0.137 C 
HETATM   30  C1  UNL     1       4.617   0.513   1.688  1.00  0.00     0.041 C 
BRANCH  29  31
HETATM   31  O1  UNL     1       4.843   1.458  -0.386  1.00  0.00    -0.394 OA
ATOM     32  H1  UNL     1       4.542   1.382  -1.284  1.00  0.00     0.210 HD
ENDBRANCH  29  31
ENDBRANCH   1  29
TORSDOF 6
