REMARK  9 active torsions:
REMARK  status: ('A' for Active; 'I' for Inactive)
REMARK    1  A    between atoms: C2_2  and  C3_3 
REMARK    2  A    between atoms: C3_3  and  N1_4 
REMARK       I    between atoms: N1_4  and  C4_6 
REMARK    3  A    between atoms: C4_6  and  C5_8 
REMARK    4  A    between atoms: C5_8  and  N2_9 
REMARK    5  A    between atoms: N2_9  and  C6_11 
REMARK    6  A    between atoms: C6_11  and  O2_12 
REMARK    7  A    between atoms: C6_11  and  C7_14 
REMARK    8  A    between atoms: C7_14  and  S1_15 
REMARK    9  A    between atoms: S1_15  and  C8_16 
ROOT
HETATM    1  N2  UNL     1       0.529  -0.152   0.032  1.00  0.00    -0.356 N 
ATOM      2  H2  UNL     1       1.194  -0.258   0.798  1.00  0.00     0.162 HD
ENDROOT
BRANCH   1   3
HETATM    3  C5  UNL     1      -0.859  -0.642   0.173  1.00  0.00     0.113 C 
HETATM    4  C11 UNL     1      -1.154  -1.588  -0.951  1.00  0.00     0.041 C 
HETATM    5  C12 UNL     1      -1.807  -2.879  -0.517  1.00  0.00     0.003 C 
HETATM    6  C13 UNL     1      -1.031  -3.584   0.554  1.00  0.00     0.000 C 
HETATM    7  C14 UNL     1      -0.343  -2.623   1.493  1.00  0.00     0.003 C 
HETATM    8  C15 UNL     1      -1.088  -1.307   1.482  1.00  0.00     0.041 C 
BRANCH   3   9
HETATM    9  C4  UNL     1      -1.709   0.584   0.105  1.00  0.00     0.246 C 
HETATM   10  N1  UNL     1      -3.119   0.584   0.142  1.00  0.00    -0.359 N 
ATOM     11  H1  UNL     1      -3.617  -0.302   0.230  1.00  0.00     0.162 HD
HETATM   12  O1  UNL     1      -1.169   1.745   0.004  1.00  0.00    -0.271 OA
BRANCH  10  13
HETATM   13  C3  UNL     1      -3.877   1.821   0.057  1.00  0.00     0.122 C 
BRANCH  13  14
HETATM   14  C2  UNL     1      -5.347   1.619   0.124  1.00  0.00     0.015 C 
HETATM   15  C1  UNL     1      -6.072   2.938  -0.006  1.00  0.00     0.006 C 
ENDBRANCH  13  14
ENDBRANCH  10  13
ENDBRANCH   3   9
ENDBRANCH   1   3
BRANCH   1  16
HETATM   16  C6  UNL     1       0.923   0.464  -1.175  1.00  0.00     0.122 C 
BRANCH  16  17
HETATM   17  O2  UNL     1       0.052   0.537  -2.140  1.00  0.00    -0.349 OA
ATOM     18  H2  UNL     1       0.317   0.952  -2.953  1.00  0.00     0.219 HD
ENDBRANCH  16  17
BRANCH  16  19
HETATM   19  C7  UNL     1       2.257   1.037  -1.422  1.00  0.00     0.165 C 
BRANCH  19  20
HETATM   20  S1  UNL     1       3.557  -0.123  -1.810  1.00  0.00    -0.097 SA
BRANCH  20  21
HETATM   21  C8  UNL     1       5.038   0.265  -0.861  1.00  0.00     0.109 A 
HETATM   22  N3  UNL     1       5.137   1.205  -0.054  1.00  0.00    -0.358 N 
HETATM   23  C9  UNL     1       6.291   1.463   0.645  1.00  0.00     0.073 A 
ATOM     24  H3  UNL     1       4.329   1.809   0.095  1.00  0.00     0.166 HD
HETATM   25  C10 UNL     1       7.435   0.554   0.265  1.00  0.00     0.127 A 
HETATM   26  S2  UNL     1       6.595  -0.558  -0.888  1.00  0.00    -0.085 SA
HETATM   27  S3  UNL     1       7.375  -0.489  -2.427  1.00  0.00    -0.017 SA
ENDBRANCH  20  21
ENDBRANCH  19  20
ENDBRANCH  16  19
ENDBRANCH   1  16
TORSDOF 9
