REMARK  1 active torsions:
REMARK  status: ('A' for Active; 'I' for Inactive)
REMARK    1  A    between atoms: C2_3  and  O1_4 
ROOT
HETATM    1  N1  UNL     1       3.192  -0.519   1.593  1.00  0.00    -0.194 NA
HETATM    2  C1  UNL     1       2.314  -0.274   0.861  1.00  0.00     0.097 C 
HETATM    3  C2  UNL     1       1.195   0.043  -0.040  1.00  0.00     0.146 C 
HETATM    4  C3  UNL     1       0.470  -1.235  -0.270  1.00  0.00     0.053 C 
HETATM    5  C4  UNL     1      -0.954  -1.103  -0.660  1.00  0.00     0.004 C 
HETATM    6  C5  UNL     1      -1.694  -0.162   0.250  1.00  0.00     0.000 C 
HETATM    7  C6  UNL     1      -1.038   1.175   0.366  1.00  0.00     0.004 C 
HETATM    8  C7  UNL     1       0.429   1.187   0.457  1.00  0.00     0.053 C 
ENDROOT
BRANCH   3   9
HETATM    9  O1  UNL     1       1.824   0.375  -1.269  1.00  0.00    -0.376 OA
ATOM     10  H1  UNL     1       1.101   0.580  -1.851  1.00  0.00     0.211 HD
ENDBRANCH   3   9
TORSDOF 1
