REMARK  3 active torsions:
REMARK  status: ('A' for Active; 'I' for Inactive)
REMARK    1  A    between atoms: C2_2  and  O1_4 
REMARK    2  A    between atoms: C2_2  and  O2_6 
REMARK    3  A    between atoms: O2_6  and  C4_7 
ROOT
HETATM    1  C4  UNL     1       0.273  -0.060   0.427  1.00  0.00     0.263 C 
HETATM    2  C5  UNL     1       1.147   1.170   0.300  1.00  0.00     0.061 C 
HETATM    3  C6  UNL     1       2.201   0.809  -0.753  1.00  0.00     0.007 C 
HETATM    4  C7  UNL     1       3.122  -0.182  -0.066  1.00  0.00     0.026 C 
HETATM    5  C8  UNL     1       2.245  -1.270   0.517  1.00  0.00     0.171 C 
HETATM    6  O3  UNL     1       0.940  -1.205   0.090  1.00  0.00    -0.361 OA
ENDROOT
BRANCH   1   7
HETATM    7  O2  UNL     1      -0.778   0.086  -0.501  1.00  0.00    -0.326 OA
BRANCH   7   8
HETATM    8  C2  UNL     1      -2.015   0.138   0.135  1.00  0.00     0.157 C 
HETATM    9  C1  UNL     1      -2.283  -1.156   0.882  1.00  0.00     0.078 C 
HETATM   10  C3  UNL     1      -3.064   0.319  -0.922  1.00  0.00     0.078 C 
BRANCH   8  11
HETATM   11  O1  UNL     1      -2.108   1.208   1.026  1.00  0.00    -0.366 OA
ATOM     12  H1  UNL     1      -1.940   2.018   0.559  1.00  0.00     0.213 HD
ENDBRANCH   8  11
ENDBRANCH   7   8
ENDBRANCH   1   7
TORSDOF 3
