REMARK  2 active torsions:
REMARK  status: ('A' for Active; 'I' for Inactive)
REMARK    1  A    between atoms: C2_2  and  C3_3 
REMARK    2  A    between atoms: C3_3  and  O1_4 
ROOT
HETATM    1  C3  UNL     1       1.158   0.113  -0.366  1.00  0.00     0.219 C 
HETATM    2  O2  UNL     1       0.850  -1.076  -0.978  1.00  0.00    -0.195 OA
HETATM    3  O3  UNL     1      -0.182  -1.603  -0.399  1.00  0.00    -0.226 OA
HETATM    4  C4  UNL     1      -1.075  -0.543  -0.113  1.00  0.00     0.098 C 
HETATM    5  C5  UNL     1      -2.012  -1.020   0.967  1.00  0.00     0.049 C 
HETATM    6  C6  UNL     1      -1.761  -0.189  -1.384  1.00  0.00     0.049 C 
HETATM    7  C7  UNL     1      -0.098   0.489   0.374  1.00  0.00     0.088 C 
HETATM    8  C8  UNL     1      -0.526   1.891   0.196  1.00  0.00     0.019 C 
ENDROOT
BRANCH   1   9
HETATM    9  C2  UNL     1       2.284   0.003   0.610  1.00  0.00     0.033 C 
HETATM   10  C1  UNL     1       2.998  -1.069   0.790  1.00  0.00     0.012 C 
ENDBRANCH   1   9
BRANCH   1  11
HETATM   11  O1  UNL     1       1.521   1.111  -1.273  1.00  0.00    -0.360 OA
ATOM     12  H1  UNL     1       0.805   1.181  -1.894  1.00  0.00     0.213 HD
ENDBRANCH   1  11
TORSDOF 2
