REMARK  9 active torsions:
REMARK  status: ('A' for Active; 'I' for Inactive)
REMARK    1  A    between atoms: O1_2  and  C2_3 
REMARK    2  A    between atoms: C10_11  and  O2_12 
REMARK    3  A    between atoms: C14_18  and  C15_19 
REMARK    4  A    between atoms: C15_19  and  C16_20 
REMARK    5  A    between atoms: C15_19  and  O4_26 
REMARK    6  A    between atoms: C16_20  and  C17_21 
REMARK    7  A    between atoms: C17_21  and  C18_22 
REMARK    8  A    between atoms: O4_26  and  C22_27 
REMARK    9  A    between atoms: C25_31  and  O6_32 
ROOT
HETATM    1  C2  UNL     1      -2.682   0.977  -1.094  1.00  0.00     0.090 C 
HETATM    2  C3  UNL     1      -2.178   2.432  -1.161  1.00  0.00     0.042 C 
HETATM    3  C4  UNL     1      -1.999   2.825   0.265  1.00  0.00     0.014 C 
HETATM    4  C5  UNL     1      -1.769   1.576   1.171  1.00  0.00    -0.025 A 
HETATM    5  C6  UNL     1      -2.557   1.801   2.365  1.00  0.00     0.025 A 
HETATM    6  C7  UNL     1      -2.796   0.695   1.283  1.00  0.00    -0.011 A 
HETATM    7  C8  UNL     1      -3.427  -0.395   1.891  1.00  0.00    -0.014 C 
HETATM    8  C9  UNL     1      -3.102  -1.814   1.577  1.00  0.00     0.029 C 
HETATM    9  C10 UNL     1      -2.804  -2.291   0.246  1.00  0.00     0.050 C 
HETATM   10  C11 UNL     1      -1.354  -2.107  -0.242  1.00  0.00     0.079 C 
HETATM   11  C12 UNL     1      -0.566  -3.226   0.398  1.00  0.00     0.020 C 
HETATM   12  C13 UNL     1      -0.936  -0.723  -0.083  1.00  0.00     0.137 A 
HETATM   13  O3  UNL     1      -0.575  -0.787   1.226  1.00  0.00    -0.352 OA
HETATM   14  C14 UNL     1       0.119  -0.024   0.483  1.00  0.00     0.146 A 
HETATM   15  C24 UNL     1      -0.331   1.356   1.040  1.00  0.00     0.059 C 
HETATM   16  C25 UNL     1      -1.534   0.090  -1.098  1.00  0.00     0.191 C 
HETATM   17  C26 UNL     1      -3.644   1.030   0.055  1.00  0.00     0.055 C 
ENDROOT
BRANCH  14  18
HETATM   18  C15 UNL     1       1.626  -0.043   0.233  1.00  0.00     0.091 C 
BRANCH  18  19
HETATM   19  C16 UNL     1       2.112   1.240  -0.297  1.00  0.00     0.013 C 
BRANCH  19  20
HETATM   20  C17 UNL     1       3.517   1.478  -0.645  1.00  0.00     0.057 C 
BRANCH  20  21
HETATM   21  C18 UNL     1       4.545   1.361   0.380  1.00  0.00    -0.021 C 
HETATM   22  C19 UNL     1       5.630   0.639   0.138  1.00  0.00    -0.091 C 
HETATM   23  C20 UNL     1       5.890  -0.082  -1.140  1.00  0.00     0.042 C 
HETATM   24  C21 UNL     1       6.671   0.530   1.207  1.00  0.00     0.042 C 
ENDBRANCH  20  21
ENDBRANCH  19  20
ENDBRANCH  18  19
BRANCH  18  25
HETATM   25  O4  UNL     1       2.139  -1.201  -0.296  1.00  0.00    -0.281 OA
BRANCH  25  26
HETATM   26  C22 UNL     1       2.959  -2.125   0.313  1.00  0.00     0.259 C 
HETATM   27  C23 UNL     1       3.410  -3.311  -0.428  1.00  0.00     0.126 C 
HETATM   28  O5  UNL     1       3.238  -1.831   1.486  1.00  0.00    -0.265 OA
ENDBRANCH  25  26
ENDBRANCH  18  25
ENDBRANCH  14  18
BRANCH  16  29
HETATM   29  O6  UNL     1      -1.730  -0.752  -2.255  1.00  0.00    -0.389 OA
ATOM     30  H6  UNL     1      -0.978  -1.333  -2.258  1.00  0.00     0.210 HD
ENDBRANCH  16  29
BRANCH   9  31
HETATM   31  O2  UNL     1      -3.732  -2.158  -0.756  1.00  0.00    -0.364 OA
ATOM     32  H2  UNL     1      -3.536  -2.472  -1.631  1.00  0.00     0.217 HD
ENDBRANCH   9  31
BRANCH   1  33
HETATM   33  O1  UNL     1      -3.480   0.846  -2.225  1.00  0.00    -0.382 OA
HETATM   34  C1  UNL     1      -4.589   1.580  -2.354  1.00  0.00     0.202 C 
ENDBRANCH   1  33
TORSDOF 9
