REMARK  2 active torsions:
REMARK  status: ('A' for Active; 'I' for Inactive)
REMARK    1  A    between atoms: N1_1  and  C1_4 
REMARK    2  A    between atoms: C3_12  and  C4_13 
ROOT
HETATM    1  C4  UNL     1       0.569  -0.481  -1.225  1.00  0.00     0.170 A 
HETATM    2  N5  UNL     1       0.236  -0.672  -2.529  1.00  0.00    -0.281 N 
ATOM      3  H5  UNL     1       0.897  -0.747  -3.302  1.00  0.00     0.188 HD
HETATM    4  N6  UNL     1      -1.078  -0.745  -2.636  1.00  0.00    -0.287 N 
ATOM      5  H6  UNL     1      -1.591  -0.885  -3.507  1.00  0.00     0.188 HD
HETATM    6  C5  UNL     1      -1.636  -0.607  -1.421  1.00  0.00     0.103 A 
HETATM    7  N7  UNL     1      -0.592  -0.444  -0.556  1.00  0.00    -0.317 N 
HETATM    8  C6  UNL     1      -0.892  -0.263   0.867  1.00  0.00     0.136 C 
HETATM    9  C7  UNL     1      -2.022   0.773   0.884  1.00  0.00     0.082 C 
HETATM   10  C8  UNL     1      -3.271   0.248   0.269  1.00  0.00     0.208 C 
HETATM   11  C9  UNL     1      -3.045  -0.610  -0.947  1.00  0.00     0.139 C 
HETATM   12  N8  UNL     1      -4.126   1.344  -0.128  1.00  0.00    -0.040 N 
ATOM     13  H81 UNL     1      -3.942   1.658  -1.081  1.00  0.00     0.280 HD
ATOM     14  H82 UNL     1      -3.896   2.214   0.353  1.00  0.00     0.280 HD
HETATM   15  C10 UNL     1      -5.481   0.955   0.067  1.00  0.00     0.337 C 
HETATM   16  C11 UNL     1      -5.427  -0.336   0.792  1.00  0.00     0.245 C 
HETATM   17  O2  UNL     1      -6.374  -1.162   0.979  1.00  0.00    -0.272 OA
HETATM   18  N9  UNL     1      -4.090  -0.480   1.248  1.00  0.00    -0.327 N 
ATOM     19  H9  UNL     1      -3.768  -0.981   2.076  1.00  0.00     0.165 HD
ENDROOT
BRANCH   1  20
HETATM   20  C3  UNL     1       1.923  -0.348  -0.681  1.00  0.00     0.182 A 
HETATM   21  N4  UNL     1       3.039  -0.399  -1.426  1.00  0.00    -0.256 N 
HETATM   22  N3  UNL     1       4.096  -0.249  -0.652  1.00  0.00    -0.029 N 
ATOM     23  H4  UNL     1       3.065  -0.533  -2.437  1.00  0.00     0.190 HD
HETATM   24  C2  UNL     1       5.420  -0.222  -0.889  1.00  0.00     0.374 A 
HETATM   25  C12 UNL     1       3.672  -0.098   0.613  1.00  0.00     0.724 A 
HETATM   26  N2  UNL     1       6.299  -0.050   0.109  1.00  0.00    -0.139 N 
HETATM   27  O1  UNL     1       5.855  -0.360  -2.057  1.00  0.00    -0.244 OA
HETATM   28  C1  UNL     1       5.895   0.102   1.378  1.00  0.00     0.694 A 
ATOM     29  H2  UNL     1       7.297  -0.034  -0.102  1.00  0.00     0.189 HD
HETATM   30  N11 UNL     1       4.575   0.074   1.604  1.00  0.00    -0.020 N 
ATOM     31  H11 UNL     1       4.238   0.187   2.560  1.00  0.00     0.203 HD
HETATM   32  N10 UNL     1       2.324  -0.162   0.579  1.00  0.00    -0.169 N 
ATOM     33  H10 UNL     1       1.709  -0.081   1.388  1.00  0.00     0.186 HD
BRANCH  28  34
HETATM   34  N1  UNL     1       6.754   0.268   2.335  1.00  0.00    -0.234 N 
ATOM     35  H12 UNL     1       7.759   0.289   2.163  1.00  0.00     0.174 HD
ATOM     36  H11 UNL     1       6.447   0.384   3.301  1.00  0.00     0.174 HD
ENDBRANCH  28  34
ENDBRANCH   1  20
TORSDOF 2
