REMARK  3 active torsions:
REMARK  status: ('A' for Active; 'I' for Inactive)
REMARK    1  A    between atoms: C3_3  and  C4_4 
REMARK    2  A    between atoms: N1_7  and  O1_8 
REMARK    3  A    between atoms: N2_12  and  N3_13 
ROOT
HETATM    1  C1  UNL     1       0.348  -2.307  -0.209  1.00  0.00     0.073 C 
HETATM    2  C2  UNL     1       0.057  -0.862  -0.078  1.00  0.00     0.060 A 
HETATM    3  C3  UNL     1       0.992   0.191   0.043  1.00  0.00     0.089 A 
HETATM    4  N1  UNL     1       0.238   1.287   0.130  1.00  0.00    -0.209 N 
HETATM    5  C6  UNL     1      -1.097   0.975   0.070  1.00  0.00     0.127 A 
HETATM    6  C7  UNL     1      -2.238   1.943   0.135  1.00  0.00     0.093 C 
HETATM    7  N2  UNL     1      -1.179  -0.346  -0.057  1.00  0.00    -0.251 N 
ENDROOT
BRANCH   3   8
HETATM    8  C4  UNL     1       2.399  -0.077   0.051  1.00  0.00     0.041 C 
HETATM    9  C5  UNL     1       3.467   0.646   0.142  1.00  0.00     0.058 C 
HETATM   10 BR1  UNL     1       3.529   2.520   0.317  1.00  0.00    -0.064 Br
ENDBRANCH   3   8
BRANCH   4  11
HETATM   11  O1  UNL     1       0.656   2.580   0.262  1.00  0.00    -0.281 OA
ATOM     12  H1  UNL     1       0.119   3.361   0.324  1.00  0.00     0.245 HD
ENDBRANCH   4  11
BRANCH   7  13
HETATM   13  N3  UNL     1      -2.387  -1.085  -0.155  1.00  0.00    -0.337 N 
ATOM     14  H32 UNL     1      -2.450  -2.098  -0.252  1.00  0.00     0.177 HD
ATOM     15  H31 UNL     1      -3.328  -0.692  -0.139  1.00  0.00     0.177 HD
ENDBRANCH   7  13
TORSDOF 3
