REMARK  2 active torsions:
REMARK  status: ('A' for Active; 'I' for Inactive)
REMARK    1  A    between atoms: N2_5  and  C4_6 
REMARK    2  A    between atoms: C10_13  and  O1_14 
ROOT
HETATM    1  C4  UNL     1      -0.318   0.209   0.090  1.00  0.00     0.253 C 
HETATM    2  C5  UNL     1      -0.969   0.189   1.481  1.00  0.00     0.059 C 
HETATM    3  C6  UNL     1      -1.970  -0.948   1.234  1.00  0.00     0.094 C 
HETATM    4 CL1  UNL     1      -0.974  -2.437   1.182  1.00  0.00    -0.124 Cl
HETATM    5  C7  UNL     1      -2.518  -0.594  -0.117  1.00  0.00    -0.003 C 
HETATM    6  C8  UNL     1      -3.854   0.082   0.093  1.00  0.00     0.019 C 
HETATM    7  C9  UNL     1      -2.710  -1.828  -0.983  1.00  0.00     0.019 C 
HETATM    8  C10 UNL     1      -1.546   0.362  -0.773  1.00  0.00     0.161 C 
ENDROOT
BRANCH   1   9
HETATM    9  N2  UNL     1       0.611   1.278  -0.005  1.00  0.00     0.099 N 
HETATM   10  C3  UNL     1       1.311   1.257  -1.248  1.00  0.00     0.303 C 
HETATM   11  C2  UNL     1       2.476   0.318  -1.297  1.00  0.00     0.302 C 
HETATM   12  N1  UNL     1       3.315   0.408  -0.118  1.00  0.00     0.087 N 
HETATM   13  C1  UNL     1       4.347  -0.576  -0.125  1.00  0.00     0.310 C 
HETATM   14  C12 UNL     1       2.438   0.138   1.024  1.00  0.00     0.302 C 
HETATM   15  C11 UNL     1       1.507   1.338   1.106  1.00  0.00     0.303 C 
ENDBRANCH   1   9
BRANCH   8  16
HETATM   16  O1  UNL     1      -2.017   1.652  -0.851  1.00  0.00    -0.393 OA
ATOM     17  H1  UNL     1      -2.790   1.748  -1.394  1.00  0.00     0.210 HD
ENDBRANCH   8  16
TORSDOF 2
