REMARK  5 active torsions:
REMARK  status: ('A' for Active; 'I' for Inactive)
REMARK    1  A    between atoms: C2_2  and  O1_3 
REMARK    2  A    between atoms: O1_3  and  C3_4 
REMARK    3  A    between atoms: C3_4  and  C4_6 
REMARK       I    between atoms: C4_6  and  N1_8 
REMARK    4  A    between atoms: N1_8  and  C5_10 
REMARK    5  A    between atoms: N2_12  and  C7_14 
ROOT
HETATM    1  C4  UNL     1      -0.328   0.032   0.796  1.00  0.00     0.322 C 
HETATM    2  O3  UNL     1      -0.670  -0.225   1.969  1.00  0.00    -0.261 OA
HETATM    3  N1  UNL     1       1.017   0.295   0.498  1.00  0.00    -0.308 N 
ATOM      4  H1  UNL     1       1.283   0.504  -0.464  1.00  0.00     0.170 HD
ENDROOT
BRANCH   3   5
HETATM    5  C5  UNL     1       2.008   0.277   1.497  1.00  0.00     0.080 C 
HETATM    6  C6  UNL     1       1.734  -0.014   2.933  1.00  0.00     0.089 C 
HETATM    7  N2  UNL     1       3.233   0.527   1.164  1.00  0.00    -0.341 N 
ATOM      8  H2  UNL     1       3.973   0.521   1.866  1.00  0.00     0.167 HD
BRANCH   7   9
HETATM    9  C7  UNL     1       3.528   0.809  -0.191  1.00  0.00     0.074 C 
HETATM   10  C8  UNL     1       4.026  -0.306  -1.050  1.00  0.00     0.081 C 
HETATM   11  S1  UNL     1       3.312   2.313  -0.734  1.00  0.00    -0.066 SA
ENDBRANCH   7   9
ENDBRANCH   3   5
BRANCH   1  12
HETATM   12  C3  UNL     1      -1.334   0.061  -0.282  1.00  0.00     0.351 C 
HETATM   13  O2  UNL     1      -1.020   0.315  -1.466  1.00  0.00    -0.254 OA
BRANCH  12  14
HETATM   14  O1  UNL     1      -2.649  -0.205   0.061  1.00  0.00    -0.314 OA
BRANCH  14  15
HETATM   15  C2  UNL     1      -3.669  -0.194  -0.929  1.00  0.00     0.175 C 
HETATM   16  C1  UNL     1      -4.967  -0.517  -0.242  1.00  0.00     0.034 C 
ENDBRANCH  14  15
ENDBRANCH  12  14
ENDBRANCH   1  12
TORSDOF 5
