REMARK  1 active torsions:
REMARK  status: ('A' for Active; 'I' for Inactive)
REMARK    1  A    between atoms: C4_4  and  N1_5 
ROOT
HETATM    1  C1  UNL     1       2.543   0.505  -0.116  1.00  0.00     0.032 C 
HETATM    2  C2  UNL     1       1.155   0.167  -0.657  1.00  0.00     0.078 C 
HETATM    3  C3  UNL     1       0.169   0.953   0.148  1.00  0.00     0.047 C 
HETATM    4  C4  UNL     1      -1.267   0.528  -0.102  1.00  0.00     0.100 C 
HETATM    5  C5  UNL     1      -1.460  -0.944   0.124  1.00  0.00     0.066 C 
HETATM    6  C6  UNL     1      -0.131  -1.685   0.209  1.00  0.00     0.057 C 
HETATM    7  N2  UNL     1       0.850  -1.188  -0.661  1.00  0.00    -0.398 N 
ATOM      8  H2  UNL     1       1.338  -1.820  -1.295  1.00  0.00     0.159 HD
ENDROOT
BRANCH   4   9
HETATM    9  N1  UNL     1      -2.060   1.242   0.898  1.00  0.00    -0.138 NA
HETATM   10 CL1  UNL     1      -3.742   0.887   0.777  1.00  0.00    -0.004 Cl
ENDBRANCH   4   9
TORSDOF 1
