REMARK  6 active torsions:
REMARK  status: ('A' for Active; 'I' for Inactive)
REMARK    1  A    between atoms: C2_2  and  C11_19 
REMARK    2  A    between atoms: N1_3  and  O1_5 
REMARK    3  A    between atoms: O1_5  and  C3_6 
REMARK       I    between atoms: C3_6  and  N2_8 
REMARK    4  A    between atoms: N2_8  and  C4_10 
REMARK    5  A    between atoms: C4_10  and  C6_12 
REMARK    6  A    between atoms: C11_19  and  N3_21 
ROOT
HETATM    1  C3  UNL     1      -0.184  -0.587  -0.350  1.00  0.00     0.387 C 
HETATM    2  O2  UNL     1      -0.437  -0.456   0.896  1.00  0.00    -0.236 OA
HETATM    3  N2  UNL     1       1.142  -0.736  -0.817  1.00  0.00    -0.304 N 
ATOM      4  H2  UNL     1       1.376  -0.852  -1.803  1.00  0.00     0.171 HD
ENDROOT
BRANCH   1   5
HETATM    5  O1  UNL     1      -1.351  -0.571  -1.138  1.00  0.00    -0.181 OA
BRANCH   5   6
HETATM    6  N1  UNL     1      -2.498  -0.443  -0.521  1.00  0.00    -0.263 N 
HETATM    7  C2  UNL     1      -3.507   0.171  -0.307  1.00  0.00     0.036 C 
HETATM    8  C1  UNL     1      -3.909   1.461  -0.906  1.00  0.00     0.067 C 
ATOM      9  H1  UNL     1      -2.570  -1.273   0.067  1.00  0.00     0.194 HD
BRANCH   7  10
HETATM   10  C11 UNL     1      -4.482  -0.371   0.736  1.00  0.00     0.226 C 
HETATM   11  C12 UNL     1      -5.807  -0.651   0.149  1.00  0.00     0.046 C 
BRANCH  10  12
HETATM   12  N3  UNL     1      -4.557   0.513   1.848  1.00  0.00    -0.070 N 
ATOM     13  H33 UNL     1      -3.638   0.700   2.248  1.00  0.00     0.275 HD
ATOM     14  H32 UNL     1      -4.794   1.463   1.563  1.00  0.00     0.275 HD
ATOM     15  H31 UNL     1      -5.208   0.151   2.545  1.00  0.00     0.275 HD
ENDBRANCH  10  12
ENDBRANCH   7  10
ENDBRANCH   5   6
ENDBRANCH   1   5
BRANCH   3  16
HETATM   16  C4  UNL     1       2.149  -0.708   0.249  1.00  0.00     0.023 C 
HETATM   17  C5  UNL     1       2.038  -1.801   1.259  1.00  0.00     0.069 C 
BRANCH  16  18
HETATM   18  C6  UNL     1       3.496  -0.397  -0.259  1.00  0.00     0.016 A 
HETATM   19  C7  UNL     1       4.246   0.641   0.184  1.00  0.00     0.029 A 
HETATM   20  C8  UNL     1       5.415   0.904  -0.475  1.00  0.00    -0.019 A 
HETATM   21  C9  UNL     1       6.438   1.972  -0.262  1.00  0.00     0.056 C 
HETATM   22  S1  UNL     1       5.446  -0.282  -1.704  1.00  0.00    -0.082 SA
HETATM   23  C10 UNL     1       3.994  -1.083  -1.348  1.00  0.00     0.087 A 
HETATM   24 CL1  UNL     1       3.282  -2.519  -2.131  1.00  0.00    -0.075 Cl
ENDBRANCH  16  18
ENDBRANCH   3  16
TORSDOF 6
