REMARK  18 active torsions:
REMARK  status: ('A' for Active; 'I' for Inactive)
REMARK    1  A    between atoms: C2_2  and  N1_3 
REMARK    2  A    between atoms: N1_3  and  C3_5 
REMARK    3  A    between atoms: C3_5  and  O1_6 
REMARK    4  A    between atoms: C3_5  and  N2_8 
REMARK    5  A    between atoms: N2_8  and  C4_10 
REMARK    6  A    between atoms: C4_10  and  C5_11 
REMARK    7  A    between atoms: C4_10  and  C24_39 
REMARK       I    between atoms: C5_11  and  N3_13 
REMARK    8  A    between atoms: N3_13  and  C6_15 
REMARK    9  A    between atoms: C6_15  and  C7_16 
REMARK   10  A    between atoms: C6_15  and  C21_36 
REMARK       I    between atoms: C7_16  and  N4_18 
REMARK   11  A    between atoms: N4_18  and  C8_19 
REMARK   12  A    between atoms: C8_19  and  C9_20 
REMARK   13  A    between atoms: C8_19  and  C17_32 
REMARK   14  A    between atoms: C9_20  and  O4_21 
REMARK   15  A    between atoms: O4_21  and  C10_22 
REMARK   16  A    between atoms: C10_22  and  C11_23 
REMARK   17  A    between atoms: C16_29  and  O5_30 
REMARK   18  A    between atoms: C17_32  and  C18_33 
ROOT
HETATM    1  C6  UNL     1       1.530  -1.670  -0.547  1.00  0.00     0.194 C 
ENDROOT
BRANCH   1   2
HETATM    2  N3  UNL     1       2.724  -0.993  -0.402  1.00  0.00    -0.345 N 
HETATM    3  C5  UNL     1       3.434  -0.305   0.602  1.00  0.00     0.241 C 
HETATM    4  O2  UNL     1       2.892  -0.168   1.766  1.00  0.00    -0.271 OA
ATOM      5  H3  UNL     1       3.245  -0.990  -1.279  1.00  0.00     0.163 HD
BRANCH   3   6
HETATM    6  C4  UNL     1       4.725   0.210   0.279  1.00  0.00     0.180 C 
BRANCH   6   7
HETATM    7  N2  UNL     1       4.854   1.317  -0.620  1.00  0.00    -0.343 N 
ATOM      8  H2  UNL     1       4.424   1.249  -1.543  1.00  0.00     0.164 HD
BRANCH   7   9
HETATM    9  C3  UNL     1       5.534   2.472  -0.293  1.00  0.00     0.213 C 
BRANCH   9  10
HETATM   10  N1  UNL     1       5.982   3.677  -0.774  1.00  0.00    -0.357 N 
ATOM     11  H1  UNL     1       5.647   4.062  -1.657  1.00  0.00     0.163 HD
BRANCH  10  12
HETATM   12  C2  UNL     1       7.009   4.410   0.086  1.00  0.00     0.118 C 
HETATM   13  C1  UNL     1       8.314   3.554  -0.089  1.00  0.00     0.026 C 
ENDBRANCH  10  12
ENDBRANCH   9  10
BRANCH   9  14
HETATM   14  O1  UNL     1       5.932   2.308   1.057  1.00  0.00    -0.333 OA
ATOM     15  H1  UNL     1       5.622   1.474   1.390  1.00  0.00     0.220 HD
ENDBRANCH   9  14
ENDBRANCH   7   9
ENDBRANCH   6   7
BRANCH   6  16
HETATM   16  C24 UNL     1       5.632  -0.972  -0.101  1.00  0.00     0.009 C 
HETATM   17  C25 UNL     1       5.420  -2.071   0.916  1.00  0.00     0.012 C 
HETATM   18  C26 UNL     1       7.064  -0.550   0.008  1.00  0.00     0.012 C 
ENDBRANCH   6  16
ENDBRANCH   3   6
ENDBRANCH   1   2
BRANCH   1  19
HETATM   19  C7  UNL     1       0.465  -1.526   0.702  1.00  0.00     0.310 C 
HETATM   20  O3  UNL     1       0.834  -1.869   1.677  1.00  0.00    -0.255 OA
HETATM   21  N4  UNL     1      -0.635  -0.953  -0.046  1.00  0.00    -0.406 NA
BRANCH  21  22
HETATM   22  C8  UNL     1      -1.643  -0.451  -0.618  1.00  0.00     0.191 C 
BRANCH  22  23
HETATM   23  C9  UNL     1      -2.487   0.722  -0.131  1.00  0.00     0.207 C 
BRANCH  23  24
HETATM   24  O4  UNL     1      -3.337   0.952  -1.151  1.00  0.00    -0.388 OA
BRANCH  24  25
HETATM   25  C10 UNL     1      -4.118   1.967  -1.317  1.00  0.00     0.174 C 
BRANCH  25  26
HETATM   26  C11 UNL     1      -5.365   2.311  -0.586  1.00  0.00     0.040 C 
HETATM   27  C12 UNL     1      -5.349   2.468   0.883  1.00  0.00     0.034 C 
HETATM   28  C13 UNL     1      -6.847   2.758   1.086  1.00  0.00     0.036 C 
HETATM   29  C14 UNL     1      -7.310   4.143   0.699  1.00  0.00     0.033 C 
HETATM   30 CL1  UNL     1      -7.356   2.351   2.715  1.00  0.00    -0.119 Cl
HETATM   31  C15 UNL     1      -7.474   1.732   0.135  1.00  0.00     0.057 C 
HETATM   32  C16 UNL     1      -6.392   1.115  -0.700  1.00  0.00     0.126 C 
BRANCH  32  33
HETATM   33  O5  UNL     1      -6.790   0.956  -1.996  1.00  0.00    -0.395 OA
ATOM     34  H5  UNL     1      -7.407   0.237  -2.065  1.00  0.00     0.210 HD
ENDBRANCH  32  33
ENDBRANCH  25  26
ENDBRANCH  24  25
ENDBRANCH  23  24
ENDBRANCH  22  23
BRANCH  22  35
HETATM   35  C17 UNL     1      -2.743  -1.436  -1.050  1.00  0.00     0.045 C 
BRANCH  35  36
HETATM   36  C18 UNL     1      -3.460  -2.192  -0.042  1.00  0.00    -0.020 C 
HETATM   37  C19 UNL     1      -4.540  -3.047  -0.873  1.00  0.00     0.009 C 
HETATM   38  C20 UNL     1      -2.702  -3.325   0.564  1.00  0.00     0.009 C 
ENDBRANCH  35  36
ENDBRANCH  22  35
ENDBRANCH  21  22
ENDBRANCH   1  19
BRANCH   1  39
HETATM   39  C21 UNL     1       1.793  -3.095  -0.746  1.00  0.00     0.010 C 
HETATM   40  C22 UNL     1       2.478  -3.360  -2.064  1.00  0.00     0.012 C 
HETATM   41  C23 UNL     1       0.738  -4.107  -0.496  1.00  0.00     0.012 C 
ENDBRANCH   1  39
TORSDOF 18
