REMARK  15 active torsions:
REMARK  status: ('A' for Active; 'I' for Inactive)
REMARK    1  A    between atoms: C2_2  and  C4_4 
REMARK    2  A    between atoms: C2_2  and  N1_8 
REMARK    3  A    between atoms: C4_4  and  C5_5 
REMARK    4  A    between atoms: C5_5  and  O1_6 
REMARK    5  A    between atoms: N1_8  and  C6_11 
REMARK    6  A    between atoms: C6_11  and  C7_12 
REMARK    7  A    between atoms: C7_12  and  C8_13 
REMARK    8  A    between atoms: C8_13  and  C9_14 
REMARK    9  A    between atoms: C9_14  and  N2_15 
REMARK   10  A    between atoms: N2_15  and  C10_17 
REMARK   11  A    between atoms: C10_17  and  C11_18 
REMARK   12  A    between atoms: C11_18  and  C12_19 
REMARK   13  A    between atoms: C21_34  and  C22_35 
REMARK   14  A    between atoms: C22_35  and  C23_36 
REMARK   15  A    between atoms: C23_36  and  N5_37 
ROOT
HETATM    1  C9  UNL     1      -1.388   1.010   2.025  1.00  0.00     0.025 C 
HETATM    2  C18 UNL     1      -0.447   0.100   2.191  1.00  0.00     0.108 A 
HETATM    3  C19 UNL     1      -0.731  -1.186   2.581  1.00  0.00     0.276 A 
HETATM    4  O2  UNL     1      -1.902  -1.613   2.822  1.00  0.00    -0.266 OA
HETATM    5  N3  UNL     1       0.253  -2.101   2.741  1.00  0.00    -0.265 N 
ATOM      6  H3  UNL     1       0.011  -3.048   3.032  1.00  0.00     0.190 HD
HETATM    7  N4  UNL     1       1.514  -1.795   2.529  1.00  0.00    -0.294 N 
ATOM      8  H4  UNL     1       2.224  -2.516   2.660  1.00  0.00     0.187 HD
HETATM    9  C20 UNL     1       1.898  -0.577   2.149  1.00  0.00     0.095 A 
HETATM   10  C21 UNL     1       3.156  -0.227   1.919  1.00  0.00     0.010 C 
HETATM   11  C28 UNL     1       0.889   0.387   1.979  1.00  0.00     0.217 A 
HETATM   12  O3  UNL     1       1.268   1.508   1.632  1.00  0.00    -0.285 OA
ENDROOT
BRANCH   1  13
HETATM   13  C8  UNL     1      -2.815   0.835   2.215  1.00  0.00     0.059 C 
BRANCH  13  14
HETATM   14  C7  UNL     1      -3.702   1.112   1.013  1.00  0.00     0.033 C 
BRANCH  14  15
HETATM   15  C6  UNL     1      -3.444   0.272  -0.190  1.00  0.00     0.233 C 
BRANCH  15  16
HETATM   16  N1  UNL     1      -3.707  -1.129  -0.021  1.00  0.00    -0.067 N 
ATOM     17  H12 UNL     1      -4.675  -1.289   0.259  1.00  0.00     0.278 HD
ATOM     18  H11 UNL     1      -3.234  -1.493   0.806  1.00  0.00     0.278 HD
BRANCH  16  19
HETATM   19  C2  UNL     1      -3.370  -1.905  -1.197  1.00  0.00     0.120 C 
HETATM   20  C1  UNL     1      -1.889  -1.851  -1.483  1.00  0.00     0.046 C 
HETATM   21  C3  UNL     1      -4.099  -1.440  -2.440  1.00  0.00     0.046 C 
BRANCH  19  22
HETATM   22  C4  UNL     1      -3.757  -3.336  -0.941  1.00  0.00     0.064 C 
BRANCH  22  23
HETATM   23  C5  UNL     1      -3.039  -3.947   0.234  1.00  0.00     0.166 C 
BRANCH  23  24
HETATM   24  O1  UNL     1      -3.462  -5.276   0.376  1.00  0.00    -0.401 OA
ATOM     25  H1  UNL     1      -3.009  -5.661   1.117  1.00  0.00     0.209 HD
ENDBRANCH  23  24
ENDBRANCH  22  23
ENDBRANCH  19  22
ENDBRANCH  16  19
ENDBRANCH  15  16
ENDBRANCH  14  15
ENDBRANCH  13  14
ENDBRANCH   1  13
BRANCH   1  26
HETATM   26  N2  UNL     1      -0.954   2.338   1.659  1.00  0.00    -0.392 N 
ATOM     27  H2  UNL     1      -0.521   2.879   2.407  1.00  0.00     0.159 HD
BRANCH  26  28
HETATM   28  C10 UNL     1      -1.045   2.989   0.417  1.00  0.00     0.124 C 
BRANCH  28  29
HETATM   29  C11 UNL     1      -0.467   4.407   0.578  1.00  0.00     0.060 C 
BRANCH  29  30
HETATM   30  C12 UNL     1      -0.555   5.163  -0.695  1.00  0.00    -0.035 A 
HETATM   31  C13 UNL     1      -1.540   6.142  -0.850  1.00  0.00     0.009 A 
HETATM   32  C14 UNL     1      -1.655   6.864  -2.021  1.00  0.00     0.001 A 
HETATM   33  C15 UNL     1      -0.803   6.649  -3.081  1.00  0.00     0.002 A 
HETATM   34  C16 UNL     1       0.176   5.684  -2.940  1.00  0.00     0.024 A 
HETATM   35  C17 UNL     1       0.290   4.955  -1.758  1.00  0.00     0.040 A 
HETATM   36 CL1  UNL     1       1.555   3.731  -1.612  1.00  0.00    -0.084 Cl
ENDBRANCH  29  30
ENDBRANCH  28  29
ENDBRANCH  26  28
ENDBRANCH   1  26
BRANCH  10  37
HETATM   37  C22 UNL     1       4.269  -1.172   2.063  1.00  0.00     0.060 C 
BRANCH  37  38
HETATM   38  C23 UNL     1       5.163  -1.192   0.844  1.00  0.00     0.276 C 
BRANCH  38  39
HETATM   39  N5  UNL     1       4.523  -1.560  -0.373  1.00  0.00     0.088 N 
HETATM   40  C24 UNL     1       4.093  -2.924  -0.458  1.00  0.00     0.272 C 
HETATM   41  C25 UNL     1       5.309  -3.712  -0.892  1.00  0.00     0.032 C 
HETATM   42  C26 UNL     1       6.048  -2.756  -1.779  1.00  0.00     0.032 C 
HETATM   43  C27 UNL     1       5.495  -1.403  -1.447  1.00  0.00     0.272 C 
ENDBRANCH  38  39
ENDBRANCH  37  38
ENDBRANCH  10  37
TORSDOF 15
