REMARK  7 active torsions:
REMARK  status: ('A' for Active; 'I' for Inactive)
REMARK    1  A    between atoms: O1_1  and  C1_3 
REMARK    2  A    between atoms: C2_6  and  N2_7 
REMARK    3  A    between atoms: N2_7  and  C3_9 
REMARK    4  A    between atoms: C5_16  and  N5_17 
REMARK    5  A    between atoms: N5_17  and  N6_19 
REMARK    6  A    between atoms: C6_21  and  C7_22 
REMARK    7  A    between atoms: C15_33  and  C16_34 
ROOT
HETATM    1  C3  UNL     1      -0.368   0.535   1.749  1.00  0.00     0.700 A 
HETATM    2  N3  UNL     1      -0.298   1.819   2.128  1.00  0.00    -0.164 N 
ATOM      3  H3  UNL     1       0.506   2.137   2.668  1.00  0.00     0.186 HD
HETATM    4  C4  UNL     1      -1.280   2.708   1.806  1.00  0.00     0.208 A 
HETATM    5 CL1  UNL     1      -1.135   4.372   2.327  1.00  0.00    -0.044 Cl
HETATM    6  N4  UNL     1      -2.336   2.274   1.094  1.00  0.00    -0.163 N 
ATOM      7  H4  UNL     1      -3.078   2.929   0.847  1.00  0.00     0.187 HD
HETATM    8  C5  UNL     1      -2.430   1.002   0.705  1.00  0.00     0.713 A 
HETATM    9  N7  UNL     1      -1.430   0.140   1.044  1.00  0.00    -0.021 N 
ATOM     10  H7  UNL     1      -1.495  -0.835   0.750  1.00  0.00     0.203 HD
ENDROOT
BRANCH   1  11
HETATM   11  N2  UNL     1       0.678  -0.341   2.110  1.00  0.00    -0.176 N 
ATOM     12  H2  UNL     1       0.510  -1.005   2.866  1.00  0.00     0.186 HD
BRANCH  11  13
HETATM   13  C2  UNL     1       1.833  -0.349   1.539  1.00  0.00     0.122 A 
HETATM   14  N1  UNL     1       2.088   0.512   0.540  1.00  0.00    -0.322 N 
HETATM   15  C1  UNL     1       3.302   0.528  -0.085  1.00  0.00     0.152 A 
ATOM     16  H1  UNL     1       1.363   1.165   0.243  1.00  0.00     0.169 HD
HETATM   17  C15 UNL     1       4.319  -0.330   0.272  1.00  0.00     0.025 A 
HETATM   18  C14 UNL     1       4.073  -1.231   1.306  1.00  0.00     0.020 A 
HETATM   19  C13 UNL     1       2.840  -1.210   1.904  1.00  0.00     0.050 A 
BRANCH  15  20
HETATM   20  O1  UNL     1       3.463   1.465  -1.114  1.00  0.00    -0.345 OA
ATOM     21  H1  UNL     1       4.308   1.476  -1.549  1.00  0.00     0.219 HD
ENDBRANCH  15  20
BRANCH  17  22
HETATM   22  C16 UNL     1       5.606  -0.289  -0.411  1.00  0.00    -0.021 A 
HETATM   23  C17 UNL     1       6.198   0.931  -0.624  1.00  0.00     0.015 A 
HETATM   24  C18 UNL     1       7.424   1.037  -1.272  1.00  0.00     0.043 A 
HETATM   25  C19 UNL     1       8.084  -0.087  -1.722  1.00  0.00     0.116 A 
HETATM   26  F1  UNL     1       9.286   0.029  -2.357  1.00  0.00    -0.206 F 
HETATM   27  C20 UNL     1       7.499  -1.316  -1.514  1.00  0.00     0.043 A 
HETATM   28  C21 UNL     1       6.268  -1.405  -0.862  1.00  0.00     0.015 A 
ENDBRANCH  17  22
ENDBRANCH  11  13
ENDBRANCH   1  11
BRANCH   8  29
HETATM   29  N5  UNL     1      -3.454   0.603   0.020  1.00  0.00    -0.132 N 
ATOM     30  H5  UNL     1      -4.182   1.277  -0.215  1.00  0.00     0.205 HD
BRANCH  29  31
HETATM   31  N6  UNL     1      -3.590  -0.667  -0.392  1.00  0.00    -0.297 N 
HETATM   32  C6  UNL     1      -4.604  -1.359  -0.597  1.00  0.00     0.119 C 
ATOM     33  H6  UNL     1      -2.709  -1.149  -0.568  1.00  0.00     0.186 HD
BRANCH  32  34
HETATM   34  C7  UNL     1      -5.985  -1.006  -0.453  1.00  0.00    -0.019 A 
HETATM   35  C8  UNL     1      -6.424   0.203  -0.049  1.00  0.00     0.014 A 
HETATM   36  C9  UNL     1      -7.800   0.456   0.062  1.00  0.00     0.024 A 
HETATM   37  C10 UNL     1      -8.740  -0.497  -0.230  1.00  0.00     0.034 A 
HETATM   38 CL2  UNL     1     -10.446  -0.148  -0.081  1.00  0.00    -0.084 Cl
HETATM   39  C11 UNL     1      -8.282  -1.724  -0.640  1.00  0.00     0.024 A 
HETATM   40  C12 UNL     1      -6.941  -1.984  -0.753  1.00  0.00     0.014 A 
ENDBRANCH  32  34
ENDBRANCH  29  31
ENDBRANCH   8  29
TORSDOF 7
