REMARK  7 active torsions:
REMARK  status: ('A' for Active; 'I' for Inactive)
REMARK    1  A    between atoms: N1_1  and  C1_4 
REMARK    2  A    between atoms: C2_7  and  N3_8 
REMARK    3  A    between atoms: C6_12  and  O1_13 
REMARK    4  A    between atoms: O1_13  and  C7_14 
REMARK    5  A    between atoms: C11_18  and  N4_19 
REMARK    6  A    between atoms: N4_19  and  C12_21 
REMARK    7  A    between atoms: C13_24  and  C14_25 
ROOT
HETATM    1  C7  UNL     1       1.245   0.952  -0.189  1.00  0.00     0.080 A 
HETATM    2  C8  UNL     1       1.556   1.050   1.149  1.00  0.00     0.037 A 
HETATM    3  C9  UNL     1       0.590   1.250   2.114  1.00  0.00     0.005 A 
HETATM    4  C10 UNL     1      -0.712   1.356   1.747  1.00  0.00     0.029 A 
HETATM    5  C11 UNL     1      -1.110   1.268   0.419  1.00  0.00     0.036 A 
HETATM    6  C21 UNL     1      -0.074   1.064  -0.513  1.00  0.00     0.066 A 
ENDROOT
BRANCH   5   7
HETATM    7  N4  UNL     1      -2.404   1.383   0.080  1.00  0.00    -0.342 N 
ATOM      8  H4  UNL     1      -2.480   2.392  -0.051  1.00  0.00     0.167 HD
BRANCH   7   9
HETATM    9  C12 UNL     1      -3.528   1.037  -0.165  1.00  0.00     0.119 A 
HETATM   10  N5  UNL     1      -4.478   1.985  -0.511  1.00  0.00    -0.327 N 
HETATM   11  C13 UNL     1      -5.739   1.714  -0.799  1.00  0.00     0.149 A 
ATOM     12  H5  UNL     1      -4.183   2.961  -0.546  1.00  0.00     0.169 HD
HETATM   13  N6  UNL     1      -6.125   0.428  -0.752  1.00  0.00    -0.341 N 
HETATM   14  C15 UNL     1      -5.265  -0.551  -0.425  1.00  0.00     0.049 A 
ATOM     15  H6  UNL     1      -7.093   0.190  -0.969  1.00  0.00     0.167 HD
HETATM   16  C16 UNL     1      -5.673  -1.884  -0.378  1.00  0.00     0.054 A 
HETATM   17  C20 UNL     1      -3.947  -0.295  -0.121  1.00  0.00     0.035 A 
HETATM   18  C17 UNL     1      -4.812  -2.914  -0.045  1.00  0.00     0.036 A 
HETATM   19 CL1  UNL     1      -5.334  -4.585   0.010  1.00  0.00    -0.084 Cl
HETATM   20  C18 UNL     1      -3.500  -2.642   0.255  1.00  0.00     0.025 A 
HETATM   21  C19 UNL     1      -3.075  -1.328   0.215  1.00  0.00     0.019 A 
BRANCH  11  22
HETATM   22  C14 UNL     1      -6.723   2.797  -1.169  1.00  0.00     0.420 C 
HETATM   23  F1  UNL     1      -6.333   3.462  -2.302  1.00  0.00    -0.206 F 
HETATM   24  F2  UNL     1      -6.903   3.663  -0.098  1.00  0.00    -0.206 F 
ENDBRANCH  11  22
ENDBRANCH   7   9
ENDBRANCH   5   7
BRANCH   1  25
HETATM   25  O1  UNL     1       2.241   0.747  -1.165  1.00  0.00    -0.293 OA
BRANCH  25  26
HETATM   26  C6  UNL     1       3.549   0.649  -0.713  1.00  0.00     0.166 A 
HETATM   27  C5  UNL     1       4.188  -0.576  -0.573  1.00  0.00     0.105 A 
HETATM   28  C2  UNL     1       5.487  -0.680  -0.125  1.00  0.00     0.123 A 
HETATM   29  N2  UNL     1       6.128   0.455   0.178  1.00  0.00    -0.177 N 
HETATM   30  C1  UNL     1       5.549   1.659   0.057  1.00  0.00     0.679 A 
ATOM     31  H2  UNL     1       7.090   0.403   0.513  1.00  0.00     0.185 HD
HETATM   32  N7  UNL     1       4.286   1.734  -0.381  1.00  0.00    -0.170 N 
ATOM     33  H7  UNL     1       3.858   2.656  -0.469  1.00  0.00     0.186 HD
BRANCH  28  34
HETATM   34  N3  UNL     1       6.145  -1.932   0.021  1.00  0.00    -0.364 N 
HETATM   35  C3  UNL     1       7.257  -2.773   0.353  1.00  0.00     0.144 A 
HETATM   36  C4  UNL     1       6.006  -3.411  -0.129  1.00  0.00     0.144 A 
ENDBRANCH  28  34
BRANCH  30  37
HETATM   37  N1  UNL     1       6.232   2.720   0.369  1.00  0.00    -0.234 N 
ATOM     38  H12 UNL     1       7.194   2.663   0.703  1.00  0.00     0.174 HD
ATOM     39  H11 UNL     1       5.792   3.635   0.277  1.00  0.00     0.174 HD
ENDBRANCH  30  37
ENDBRANCH  25  26
ENDBRANCH   1  25
TORSDOF 7
