REMARK  2 active torsions:
REMARK  status: ('A' for Active; 'I' for Inactive)
REMARK    1  A    between atoms: C1_2  and  C2_4 
REMARK    2  A    between atoms: C2_4  and  N1_6 
ROOT
HETATM    1  N1  UNL     1      -0.619  -0.596   0.377  1.00  0.00    -0.360 N 
ATOM      2  H1  UNL     1      -1.040  -1.208   1.076  1.00  0.00     0.162 HD
HETATM    3  C3  UNL     1       0.647  -0.377   0.432  1.00  0.00     0.075 A 
HETATM    4  C4  UNL     1       1.563   0.435  -0.399  1.00  0.00     0.095 A 
HETATM    5  C5  UNL     1       2.617  -0.049   0.576  1.00  0.00     0.128 A 
HETATM    6  N2  UNL     1       1.656  -0.835   1.317  1.00  0.00    -0.380 N 
ATOM      7  H2  UNL     1       1.689  -1.453   2.128  1.00  0.00     0.160 HD
ENDROOT
BRANCH   1   8
HETATM    8  C2  UNL     1      -1.460  -0.017  -0.624  1.00  0.00     0.213 C 
HETATM    9 CL3  UNL     1      -1.551  -1.166  -1.990  1.00  0.00    -0.100 Cl
BRANCH   8  10
HETATM   10  C1  UNL     1      -2.883   0.194  -0.141  1.00  0.00     0.215 C 
HETATM   11 CL1  UNL     1      -3.800   0.858  -1.515  1.00  0.00    -0.105 Cl
HETATM   12 CL2  UNL     1      -2.952   1.247   1.274  1.00  0.00    -0.105 Cl
ENDBRANCH   8  10
ENDBRANCH   1   8
TORSDOF 2
