REMARK  12 active torsions:
REMARK  status: ('A' for Active; 'I' for Inactive)
REMARK    1  A    between atoms: C2_2  and  N1_3 
REMARK    2  A    between atoms: C2_2  and  C12_30 
REMARK    3  A    between atoms: N1_3  and  N2_5 
REMARK    4  A    between atoms: C3_6  and  C4_7 
REMARK    5  A    between atoms: C6_12  and  N5_13 
REMARK    6  A    between atoms: C7_18  and  N7_19 
REMARK    7  A    between atoms: C9_23  and  O1_24 
REMARK    8  A    between atoms: C12_30  and  C13_32 
REMARK    9  A    between atoms: C13_32  and  O4_33 
REMARK   10  A    between atoms: C13_32  and  C14_35 
REMARK   11  A    between atoms: C14_35  and  N10_36 
REMARK   12  A    between atoms: C14_35  and  C15_40 
ROOT
HETATM    1  N7  UNL     1      -2.652   1.019  -1.241  1.00  0.00    -0.278 N 
ATOM      2  H7  UNL     1      -2.550   0.151  -1.766  1.00  0.00     0.179 HD
HETATM    3  C8  UNL     1      -3.284   2.124  -1.817  1.00  0.00     0.183 C 
HETATM    4  N8  UNL     1      -3.822   3.042  -2.281  1.00  0.00    -0.172 NA
ENDROOT
BRANCH   1   5
HETATM    5  C7  UNL     1      -2.201   1.110  -0.043  1.00  0.00     0.146 A 
HETATM    6  C4  UNL     1      -1.572   0.007   0.528  1.00  0.00     0.084 A 
HETATM    7  C5  UNL     1      -1.204   0.184   1.859  1.00  0.00     0.148 A 
HETATM    8  N3  UNL     1      -0.537  -0.880   2.541  1.00  0.00    -0.081 NA
HETATM    9  N4  UNL     1      -1.447   1.326   2.500  1.00  0.00    -0.178 N 
HETATM   10  C6  UNL     1      -2.051   2.384   1.939  1.00  0.00     0.678 A 
ATOM     11  H4  UNL     1      -1.157   1.400   3.475  1.00  0.00     0.185 HD
HETATM   12  N6  UNL     1      -2.422   2.255   0.660  1.00  0.00    -0.175 N 
ATOM     13  H6  UNL     1      -2.884   3.038   0.198  1.00  0.00     0.186 HD
BRANCH   6  14
HETATM   14  C3  UNL     1      -1.462  -1.293  -0.125  1.00  0.00     0.129 A 
HETATM   15  N2  UNL     1      -0.847  -1.702  -1.215  1.00  0.00    -0.204 N 
HETATM   16  C11 UNL     1      -1.060  -3.081  -1.329  1.00  0.00     0.349 A 
HETATM   17  N9  UNL     1      -1.791  -3.520  -0.317  1.00  0.00    -0.281 N 
HETATM   18  O2  UNL     1      -0.616  -3.785  -2.261  1.00  0.00    -0.244 OA
HETATM   19  C9  UNL     1      -2.050  -2.453   0.435  1.00  0.00     0.176 A 
HETATM   20  C10 UNL     1      -2.232  -4.910  -0.067  1.00  0.00     0.163 C 
BRANCH  15  21
HETATM   21  N1  UNL     1       0.053  -1.062  -2.069  1.00  0.00    -0.314 N 
ATOM     22  H1  UNL     1       0.199  -1.529  -2.964  1.00  0.00     0.181 HD
BRANCH  21  23
HETATM   23  C2  UNL     1       0.793   0.126  -1.894  1.00  0.00     0.168 C 
HETATM   24  C1  UNL     1       1.591   0.364  -3.199  1.00  0.00     0.042 C 
BRANCH  23  25
HETATM   25  C12 UNL     1       1.778  -0.068  -0.779  1.00  0.00     0.181 C 
HETATM   26  O3  UNL     1       1.804  -1.134  -0.218  1.00  0.00    -0.293 OA
BRANCH  25  27
HETATM   27  C13 UNL     1       2.711   0.998  -0.353  1.00  0.00     0.228 C 
BRANCH  27  28
HETATM   28  O4  UNL     1       2.476   2.191  -1.028  1.00  0.00    -0.385 OA
ATOM     29  H4  UNL     1       3.075   2.876  -0.754  1.00  0.00     0.210 HD
ENDBRANCH  27  28
BRANCH  27  30
HETATM   30  C14 UNL     1       2.672   1.120   1.140  1.00  0.00     0.300 C 
BRANCH  30  31
HETATM   31  N10 UNL     1       2.959  -0.175   1.713  1.00  0.00    -0.065 N 
ATOM     32 3H10 UNL     1       2.338  -0.904   1.363  1.00  0.00     0.275 HD
ATOM     33 2H10 UNL     1       3.838  -0.567   1.375  1.00  0.00     0.275 HD
ATOM     34 1H10 UNL     1       2.932  -0.092   2.729  1.00  0.00     0.275 HD
ENDBRANCH  30  31
BRANCH  30  35
HETATM   35  C15 UNL     1       3.620   2.141   1.661  1.00  0.00     0.230 C 
HETATM   36  O5  UNL     1       4.484   1.787   2.444  1.00  0.00    -0.282 OA
HETATM   37  S1  UNL     1       3.478   3.841   1.139  1.00  0.00    -0.009 SA
ENDBRANCH  30  35
ENDBRANCH  27  30
ENDBRANCH  25  27
ENDBRANCH  23  25
ENDBRANCH  21  23
ENDBRANCH  15  21
BRANCH  19  38
HETATM   38  O1  UNL     1      -2.796  -2.452   1.611  1.00  0.00    -0.344 OA
ATOM     39  H1  UNL     1      -3.191  -3.230   1.987  1.00  0.00     0.219 HD
ENDBRANCH  19  38
ENDBRANCH   6  14
BRANCH  10  40
HETATM   40  N5  UNL     1      -2.277   3.482   2.571  1.00  0.00    -0.234 N 
ATOM     41  H52 UNL     1      -1.994   3.580   3.546  1.00  0.00     0.174 HD
ATOM     42  H51 UNL     1      -2.736   4.287   2.144  1.00  0.00     0.174 HD
ENDBRANCH  10  40
ENDBRANCH   1   5
TORSDOF 12
