REMARK  1 active torsions:
REMARK  status: ('A' for Active; 'I' for Inactive)
REMARK       I    between atoms: N3_4  and  C2_6 
REMARK    1  A    between atoms: C2_6  and  C3_8 
ROOT
HETATM    1  C3  UNL     1      -0.149   0.045  -0.104  1.00  0.00     0.053 C 
HETATM    2  C4  UNL     1      -0.677  -1.328   0.193  1.00  0.00     0.004 C 
HETATM    3  C5  UNL     1      -2.067  -1.252   0.784  1.00  0.00     0.006 C 
HETATM    4  C6  UNL     1      -2.995  -0.902  -0.381  1.00  0.00     0.005 C 
HETATM    5  C7  UNL     1      -2.016  -0.621  -1.491  1.00  0.00    -0.008 C 
HETATM    6  C8  UNL     1      -1.022  -1.773  -1.241  1.00  0.00     0.011 C 
HETATM    7  C9  UNL     1      -1.126   0.550  -1.177  1.00  0.00     0.013 C 
HETATM    8  C10 UNL     1      -1.614   1.543  -0.195  1.00  0.00    -0.003 A 
HETATM    9  C11 UNL     1      -0.581   2.562   0.243  1.00  0.00     0.011 A 
HETATM   10  C12 UNL     1      -0.553   1.148   0.801  1.00  0.00     0.009 A 
ENDROOT
BRANCH   1  11
HETATM   11  C2  UNL     1       1.257   0.017  -0.555  1.00  0.00     0.233 C 
HETATM   12  N3  UNL     1       2.215  -0.530   0.344  1.00  0.00    -0.303 N 
HETATM   13  C1  UNL     1       3.377  -0.034   0.528  1.00  0.00     0.203 C 
ATOM     14  H3  UNL     1       1.959  -1.365   0.871  1.00  0.00     0.171 HD
HETATM   15  N1  UNL     1       3.735   1.130  -0.205  1.00  0.00    -0.066 NA
HETATM   16  N2  UNL     1       4.255  -0.652   1.443  1.00  0.00    -0.066 NA
HETATM   17  O1  UNL     1       1.594   0.455  -1.678  1.00  0.00    -0.272 OA
ENDBRANCH   1  11
TORSDOF 1
