REMARK  3 active torsions:
REMARK  status: ('A' for Active; 'I' for Inactive)
REMARK    1  A    between atoms: C2_2  and  C4_4 
REMARK    2  A    between atoms: C7_7  and  C8_8 
REMARK    3  A    between atoms: C9_11  and  C10_12 
REMARK       I    between atoms: C10_12  and  N1_14 
ROOT
HETATM    1  C10 UNL     1       2.583   1.082   0.239  1.00  0.00     0.236 C 
HETATM    2  O3  UNL     1       3.685   0.627  -0.130  1.00  0.00    -0.272 OA
HETATM    3  N1  UNL     1       2.539   2.083   1.248  1.00  0.00    -0.264 N 
ATOM      4  H1  UNL     1       1.637   2.454   1.548  1.00  0.00     0.181 HD
HETATM    5  C11 UNL     1       3.729   2.574   1.844  1.00  0.00     0.184 C 
HETATM    6  N2  UNL     1       4.690   2.988   2.339  1.00  0.00    -0.172 NA
ENDROOT
BRANCH   1   7
HETATM    7  C9  UNL     1       1.337   0.613  -0.340  1.00  0.00     0.099 C 
HETATM    8  C7  UNL     1       1.411  -0.476  -1.345  1.00  0.00     0.104 C 
HETATM    9  C6  UNL     1       0.135  -1.308  -1.160  1.00  0.00     0.007 C 
HETATM   10  C5  UNL     1      -1.065  -0.435  -1.450  1.00  0.00     0.016 C 
HETATM   11  C13 UNL     1      -0.158  -1.173   0.294  1.00  0.00     0.005 A 
HETATM   12  C4  UNL     1      -1.056  -0.014  -0.005  1.00  0.00    -0.028 A 
HETATM   13  C12 UNL     1       0.308   0.146   0.670  1.00  0.00     0.014 A 
BRANCH   8  14
HETATM   14  C8  UNL     1       2.606  -1.316  -1.325  1.00  0.00     0.178 C 
HETATM   15  O1  UNL     1       3.430  -1.351  -2.272  1.00  0.00    -0.648 OA
HETATM   16  O2  UNL     1       2.868  -2.118  -0.230  1.00  0.00    -0.648 OA
ENDBRANCH   8  14
BRANCH  12  17
HETATM   17  C2  UNL     1      -2.297   0.200   0.777  1.00  0.00    -0.013 C 
HETATM   18  C1  UNL     1      -3.182   1.264   0.204  1.00  0.00     0.010 C 
HETATM   19  C3  UNL     1      -3.129  -1.078   0.855  1.00  0.00     0.010 C 
ENDBRANCH  12  17
ENDBRANCH   1   7
TORSDOF 3
