REMARK  0 active torsions:
REMARK  status: ('A' for Active; 'I' for Inactive)
ROOT
HETATM    1  F1  UNL     1       0.025  -0.215   3.159  1.00  0.00    -0.211 F 
HETATM    2  C1  UNL     1       0.342  -0.253   1.819  1.00  0.00     0.098 C 
HETATM    3  C2  UNL     1       1.481   0.312   1.461  1.00  0.00     0.081 C 
HETATM    4  C3  UNL     1       2.054   0.411   0.099  1.00  0.00     0.218 C 
HETATM    5  C4  UNL     1       3.316   1.196   0.038  1.00  0.00     0.078 C 
HETATM    6  C5  UNL     1       4.062   0.495  -1.082  1.00  0.00     0.032 C 
HETATM    7  C6  UNL     1       3.490  -0.882  -1.033  1.00  0.00     0.172 C 
HETATM    8  O1  UNL     1       2.308  -0.863  -0.352  1.00  0.00    -0.350 OA
HETATM    9  O2  UNL     1       1.045   0.973  -0.717  1.00  0.00    -0.195 OA
HETATM   10  O3  UNL     1       0.276   0.001  -1.083  1.00  0.00    -0.226 OA
HETATM   11  C7  UNL     1      -0.864  -0.162  -0.337  1.00  0.00     0.102 C 
HETATM   12  C8  UNL     1      -1.843  -0.958  -1.189  1.00  0.00     0.041 C 
HETATM   13  C9  UNL     1      -3.093  -1.267  -0.424  1.00  0.00     0.003 C 
HETATM   14  C10 UNL     1      -3.740  -0.048   0.150  1.00  0.00     0.000 C 
HETATM   15  C11 UNL     1      -2.807   0.946   0.731  1.00  0.00     0.003 C 
HETATM   16  C12 UNL     1      -1.535   1.146  -0.008  1.00  0.00     0.041 C 
HETATM   17  C13 UNL     1      -0.652  -0.932   0.941  1.00  0.00     0.111 C 
ENDROOT
TORSDOF 0
