REMARK  6 active torsions:
REMARK  status: ('A' for Active; 'I' for Inactive)
REMARK    1  A    between atoms: O1_2  and  N1_3 
REMARK    2  A    between atoms: C2_5  and  O2_6 
REMARK    3  A    between atoms: C2_5  and  C3_8 
REMARK    4  A    between atoms: C3_8  and  C4_9 
REMARK    5  A    between atoms: C10_16  and  N2_17 
REMARK    6  A    between atoms: N2_17  and  C11_19 
ROOT
HETATM    1  C11 UNL     1       4.835   0.977  -0.182  1.00  0.00     0.092 A 
HETATM    2  S1  UNL     1       6.152   1.431  -1.236  1.00  0.00    -0.083 SA
HETATM    3  C12 UNL     1       6.949   2.538  -0.233  1.00  0.00     0.053 A 
HETATM    4  C13 UNL     1       6.183   2.534   0.895  1.00  0.00     0.033 A 
HETATM    5  C14 UNL     1       5.099   1.732   0.920  1.00  0.00     0.078 A 
HETATM    6  C15 UNL     1       4.250   1.672   2.135  1.00  0.00     0.102 C 
HETATM    7  N3  UNL     1       3.598   1.638   3.117  1.00  0.00    -0.191 NA
ENDROOT
BRANCH   1   8
HETATM    8  N2  UNL     1       3.816   0.022  -0.496  1.00  0.00    -0.357 N 
ATOM      9  H2  UNL     1       3.933  -0.461  -1.387  1.00  0.00     0.162 HD
BRANCH   8  10
HETATM   10  C10 UNL     1       2.674  -0.349   0.245  1.00  0.00     0.221 C 
HETATM   11  O3  UNL     1       2.119  -1.537  -0.343  1.00  0.00    -0.361 OA
HETATM   12  C9  UNL     1       0.812  -1.642   0.032  1.00  0.00     0.132 C 
HETATM   13  C8  UNL     1       0.245  -3.003   0.182  1.00  0.00     0.033 C 
HETATM   14  C18 UNL     1      -0.084  -0.750  -0.858  1.00  0.00    -0.013 C 
HETATM   15  C7  UNL     1      -1.172  -2.902   0.688  1.00  0.00     0.007 C 
HETATM   16  C5  UNL     1      -2.017  -1.900  -0.118  1.00  0.00    -0.013 C 
HETATM   17  C4  UNL     1      -1.353  -0.588  -0.054  1.00  0.00     0.007 C 
HETATM   18  C6  UNL     1      -3.409  -2.045   0.360  1.00  0.00     0.010 C 
HETATM   19  C17 UNL     1       0.735   0.465  -1.081  1.00  0.00     0.016 C 
HETATM   20  C19 UNL     1      -0.328  -1.402  -2.203  1.00  0.00     0.018 C 
HETATM   21  C16 UNL     1       1.628   0.768   0.103  1.00  0.00     0.054 C 
BRANCH  17  22
HETATM   22  C3  UNL     1      -2.057   0.624  -0.480  1.00  0.00     0.091 C 
BRANCH  22  23
HETATM   23  C2  UNL     1      -3.287   1.000   0.220  1.00  0.00     0.135 C 
HETATM   24  N1  UNL     1      -4.381   1.079  -0.439  1.00  0.00    -0.249 N 
ATOM     25  H1  UNL     1      -4.353   0.873  -1.438  1.00  0.00     0.196 HD
BRANCH  24  26
HETATM   26  O1  UNL     1      -5.592   1.424   0.113  1.00  0.00    -0.284 OA
HETATM   27  C1  UNL     1      -6.172   2.690   0.025  1.00  0.00     0.237 C 
ENDBRANCH  24  26
BRANCH  23  28
HETATM   28  O2  UNL     1      -3.330   1.279   1.568  1.00  0.00    -0.348 OA
ATOM     29  H2  UNL     1      -2.518   1.220   2.057  1.00  0.00     0.219 HD
ENDBRANCH  23  28
ENDBRANCH  22  23
ENDBRANCH  17  22
ENDBRANCH   8  10
ENDBRANCH   1   8
TORSDOF 6
