REMARK  10 active torsions:
REMARK  status: ('A' for Active; 'I' for Inactive)
REMARK    1  A    between atoms: C2_2  and  O1_3 
REMARK    2  A    between atoms: O1_3  and  C3_4 
REMARK       I    between atoms: C3_4  and  N1_6 
REMARK    3  A    between atoms: C4_8  and  C6_10 
REMARK       I    between atoms: C6_10  and  N2_12 
REMARK    4  A    between atoms: N2_12  and  N3_14 
REMARK    5  A    between atoms: N3_14  and  N4_16 
REMARK    6  A    between atoms: N4_16  and  C7_18 
REMARK    7  A    between atoms: C9_20  and  C10_21 
REMARK    8  A    between atoms: C10_21  and  O4_22 
REMARK    9  A    between atoms: C10_21  and  N5_24 
REMARK   10  A    between atoms: C13_27  and  O5_28 
ROOT
HETATM    1  N4  UNL     1      -0.543   0.074   0.112  1.00  0.00    -0.271 N 
ATOM      2  H4  UNL     1      -0.268   1.048  -0.013  1.00  0.00     0.190 HD
ENDROOT
BRANCH   1   3
HETATM    3  N3  UNL     1       0.330  -0.963  -0.143  1.00  0.00    -0.238 N 
ATOM      4  H3  UNL     1       0.003  -1.877  -0.456  1.00  0.00     0.208 HD
BRANCH   3   5
HETATM    5  N2  UNL     1       1.662  -0.696   0.048  1.00  0.00    -0.250 N 
HETATM    6  C6  UNL     1       2.390   0.319  -0.633  1.00  0.00     0.283 C 
HETATM    7  O3  UNL     1       1.758   1.012  -1.464  1.00  0.00    -0.265 OA
ATOM      8  H2  UNL     1       2.167  -1.266   0.727  1.00  0.00     0.192 HD
BRANCH   6   9
HETATM    9  C4  UNL     1       3.794   0.572  -0.408  1.00  0.00     0.079 C 
HETATM   10  N1  UNL     1       4.509  -0.098   0.430  1.00  0.00    -0.301 N 
HETATM   11  C3  UNL     1       5.885   0.191   0.614  1.00  0.00     0.365 C 
ATOM     12  H1  UNL     1       4.078  -0.848   0.970  1.00  0.00     0.171 HD
HETATM   13  O2  UNL     1       6.382   0.275   1.789  1.00  0.00    -0.238 OA
HETATM   14  C5  UNL     1       4.465   1.659  -1.172  1.00  0.00     0.074 C 
BRANCH  11  15
HETATM   15  O1  UNL     1       6.783   0.402  -0.417  1.00  0.00    -0.304 OA
BRANCH  15  16
HETATM   16  C2  UNL     1       8.157   0.690  -0.159  1.00  0.00     0.176 C 
HETATM   17  C1  UNL     1       8.827  -0.433   0.612  1.00  0.00     0.034 C 
ENDBRANCH  15  16
ENDBRANCH  11  15
ENDBRANCH   6   9
ENDBRANCH   3   5
ENDBRANCH   1   3
BRANCH   1  18
HETATM   18  C7  UNL     1      -1.859  -0.286   0.562  1.00  0.00     0.126 A 
HETATM   19  C8  UNL     1      -2.892  -0.517  -0.310  1.00  0.00     0.064 A 
HETATM   20  C9  UNL     1      -4.159  -0.865   0.150  1.00  0.00     0.042 A 
HETATM   21  C13 UNL     1      -4.352  -0.974   1.504  1.00  0.00     0.145 A 
HETATM   22  C14 UNL     1      -3.246  -0.723   2.332  1.00  0.00     0.282 A 
HETATM   23  O6  UNL     1      -3.435  -0.826   3.593  1.00  0.00    -0.265 OA
HETATM   24  N6  UNL     1      -2.037  -0.390   1.889  1.00  0.00    -0.301 N 
HETATM   25  C15 UNL     1      -0.923  -0.139   2.797  1.00  0.00     0.161 C 
BRANCH  20  26
HETATM   26  C10 UNL     1      -5.238  -1.085  -0.830  1.00  0.00     0.393 C 
BRANCH  26  27
HETATM   27  O4  UNL     1      -6.003  -2.189  -0.532  1.00  0.00    -0.364 OA
ATOM     28  H4  UNL     1      -6.698  -2.331  -1.164  1.00  0.00     0.212 HD
ENDBRANCH  26  27
BRANCH  26  29
HETATM   29  N5  UNL     1      -5.967   0.059  -1.236  1.00  0.00     0.113 N 
HETATM   30  C11 UNL     1      -6.627   0.832  -0.254  1.00  0.00     0.313 C 
HETATM   31  C12 UNL     1      -5.200   0.940  -2.092  1.00  0.00     0.313 C 
ENDBRANCH  26  29
ENDBRANCH  20  26
BRANCH  21  32
HETATM   32  O5  UNL     1      -5.547  -1.313   2.109  1.00  0.00    -0.355 OA
ATOM     33  H5  UNL     1      -5.681  -1.388   3.047  1.00  0.00     0.218 HD
ENDBRANCH  21  32
ENDBRANCH   1  18
TORSDOF 10
