REMARK  7 active torsions:
REMARK  status: ('A' for Active; 'I' for Inactive)
REMARK    1  A    between atoms: C2_2  and  C3_3 
REMARK    2  A    between atoms: C2_2  and  C14_16 
REMARK    3  A    between atoms: C3_3  and  C4_4 
REMARK    4  A    between atoms: C8_8  and  C9_9 
REMARK    5  A    between atoms: C9_9  and  C10_10 
REMARK    6  A    between atoms: C10_10  and  O1_13 
REMARK    7  A    between atoms: C17_19  and  N1_20 
ROOT
HETATM    1  C14 UNL     1      -2.921   0.017   0.493  1.00  0.00    -0.042 A 
HETATM    2  C15 UNL     1      -4.133  -0.644   0.388  1.00  0.00     0.027 A 
HETATM    3  C16 UNL     1      -5.199  -0.097  -0.294  1.00  0.00     0.054 A 
HETATM    4  C17 UNL     1      -6.490  -0.498  -0.565  1.00  0.00     0.248 A 
HETATM    5  O4  UNL     1      -7.061   0.452  -1.274  1.00  0.00    -0.212 OA
HETATM    6  N2  UNL     1      -6.243   1.437  -1.484  1.00  0.00    -0.257 N 
ATOM      7  H2  UNL     1      -6.457   2.286  -2.007  1.00  0.00     0.195 HD
HETATM    8  C18 UNL     1      -5.084   1.157  -0.907  1.00  0.00     0.086 A 
HETATM    9  C19 UNL     1      -3.871   1.793  -0.788  1.00  0.00     0.080 A 
HETATM   10  C20 UNL     1      -3.704   3.044  -1.373  1.00  0.00     0.301 A 
HETATM   11  O5  UNL     1      -4.645   3.558  -1.992  1.00  0.00    -0.259 OA
HETATM   12  O6  UNL     1      -2.559   3.685  -1.275  1.00  0.00    -0.287 OA
HETATM   13  C21 UNL     1      -1.528   3.223  -0.649  1.00  0.00     0.147 A 
HETATM   14  C22 UNL     1      -1.597   1.992  -0.038  1.00  0.00     0.038 A 
HETATM   15  C23 UNL     1      -2.790   1.269  -0.112  1.00  0.00    -0.009 A 
ENDROOT
BRANCH   1  16
HETATM   16  C2  UNL     1      -1.776  -0.581   1.201  1.00  0.00     0.019 C 
HETATM   17  C1  UNL     1      -2.313  -1.768   2.019  1.00  0.00     0.015 C 
BRANCH  16  18
HETATM   18  C3  UNL     1      -0.808  -1.246   0.209  1.00  0.00     0.036 C 
BRANCH  18  19
HETATM   19  C4  UNL     1       0.266  -1.942   0.939  1.00  0.00    -0.023 C 
HETATM   20  C5  UNL     1       1.534  -1.720   0.860  1.00  0.00    -0.083 C 
HETATM   21  C6  UNL     1       2.625  -2.394   1.571  1.00  0.00     0.034 C 
HETATM   22  C13 UNL     1       2.216  -0.710   0.011  1.00  0.00     0.038 C 
HETATM   23  C7  UNL     1       3.444  -1.216   2.029  1.00  0.00     0.009 C 
HETATM   24  C8  UNL     1       3.296  -0.174   0.906  1.00  0.00    -0.007 C 
BRANCH  24  25
HETATM   25  C9  UNL     1       4.649  -0.036   0.307  1.00  0.00     0.041 C 
BRANCH  25  26
HETATM   26  C10 UNL     1       4.870   0.927  -0.778  1.00  0.00     0.051 C 
HETATM   27  C11 UNL     1       4.074   0.660  -2.009  1.00  0.00     0.045 C 
HETATM   28  C12 UNL     1       4.614   2.371  -0.337  1.00  0.00     0.045 C 
BRANCH  26  29
HETATM   29  O1  UNL     1       6.237   0.859  -1.121  1.00  0.00    -0.391 OA
ATOM     30  H1  UNL     1       6.380   1.482  -1.823  1.00  0.00     0.210 HD
ENDBRANCH  26  29
ENDBRANCH  25  26
ENDBRANCH  24  25
ENDBRANCH  18  19
ENDBRANCH  16  18
ENDBRANCH   1  16
BRANCH   4  31
HETATM   31  N1  UNL     1      -7.106  -1.717  -0.158  1.00  0.00    -0.087 N 
HETATM   32  O2  UNL     1      -8.303  -1.941  -0.486  1.00  0.00    -0.530 OA
HETATM   33  O3  UNL     1      -6.447  -2.660   0.580  1.00  0.00    -0.530 OA
ENDBRANCH   4  31
TORSDOF 7
