REMARK  10 active torsions:
REMARK  status: ('A' for Active; 'I' for Inactive)
REMARK    1  A    between atoms: C2_2  and  C3_3 
REMARK    2  A    between atoms: C3_3  and  C4_4 
REMARK    3  A    between atoms: C4_4  and  O1_5 
REMARK    4  A    between atoms: O1_5  and  C5_6 
REMARK    5  A    between atoms: C5_6  and  O3_8 
REMARK    6  A    between atoms: O3_8  and  N1_9 
REMARK    7  A    between atoms: N1_9  and  C6_11 
REMARK    8  A    between atoms: C6_11  and  C7_15 
REMARK    9  A    between atoms: C8_16  and  C9_17 
REMARK   10  A    between atoms: C14_24  and  N3_25 
ROOT
HETATM    1  C7  UNL     1      -1.422  -1.282  -0.192  1.00  0.00     0.055 A 
HETATM    2  C8  UNL     1      -1.590  -2.586  -0.497  1.00  0.00     0.004 A 
HETATM    3  C13 UNL     1      -2.864  -2.945  -0.957  1.00  0.00     0.065 A 
HETATM    4  S2  UNL     1      -3.734  -1.518  -0.933  1.00  0.00    -0.083 SA
HETATM    5  C14 UNL     1      -2.527  -0.456  -0.357  1.00  0.00     0.087 A 
ENDROOT
BRANCH   1   6
HETATM    6  C6  UNL     1      -0.098  -0.642   0.100  1.00  0.00     0.133 C 
HETATM    7  N2  UNL     1      -0.073   0.602   0.421  1.00  0.00    -0.383 N 
ATOM      8  H22 UNL     1       0.828   1.037   0.620  1.00  0.00     0.157 HD
ATOM      9  H21 UNL     1      -0.983   1.049   0.533  1.00  0.00     0.157 HD
BRANCH   6  10
HETATM   10  N1  UNL     1       1.158  -1.259  -0.054  1.00  0.00    -0.239 N 
ATOM     11  H1  UNL     1       1.315  -1.834  -0.882  1.00  0.00     0.196 HD
BRANCH  10  12
HETATM   12  O3  UNL     1       2.186  -1.127   0.854  1.00  0.00    -0.173 OA
BRANCH  12  13
HETATM   13  C5  UNL     1       3.286  -0.338   0.472  1.00  0.00     0.428 C 
HETATM   14  O2  UNL     1       3.271   0.199  -0.666  1.00  0.00    -0.227 OA
BRANCH  13  15
HETATM   15  O1  UNL     1       4.361  -0.136   1.288  1.00  0.00    -0.296 OA
BRANCH  15  16
HETATM   16  C4  UNL     1       5.490   0.636   0.972  1.00  0.00     0.185 C 
BRANCH  16  17
HETATM   17  C3  UNL     1       6.259   0.163  -0.218  1.00  0.00     0.053 C 
BRANCH  17  18
HETATM   18  C2  UNL     1       7.420   1.053  -0.449  1.00  0.00    -0.035 C 
HETATM   19  C1  UNL     1       7.682   2.094   0.305  1.00  0.00     0.007 C 
ENDBRANCH  17  18
ENDBRANCH  16  17
ENDBRANCH  15  16
ENDBRANCH  13  15
ENDBRANCH  12  13
ENDBRANCH  10  12
ENDBRANCH   6  10
ENDBRANCH   1   6
BRANCH   2  20
HETATM   20  C9  UNL     1      -0.687  -3.757  -0.220  1.00  0.00     0.016 A 
HETATM   21  C10 UNL     1       0.100  -4.031   0.853  1.00  0.00     0.020 A 
HETATM   22  C11 UNL     1       0.715  -5.222   0.896  1.00  0.00     0.008 A 
HETATM   23  C12 UNL     1       0.506  -6.084  -0.143  1.00  0.00     0.050 A 
HETATM   24  S1  UNL     1      -0.548  -5.187  -1.146  1.00  0.00    -0.101 SA
ENDBRANCH   2  20
BRANCH   5  25
HETATM   25  N3  UNL     1      -2.687   0.948  -0.119  1.00  0.00    -0.374 N 
HETATM   26  C15 UNL     1      -3.079   1.532   1.136  1.00  0.00     0.124 C 
HETATM   27  C16 UNL     1      -4.260   2.469   0.882  1.00  0.00     0.024 C 
HETATM   28  C17 UNL     1      -4.863   2.232  -0.503  1.00  0.00    -0.015 C 
HETATM   29  C18 UNL     1      -5.999   3.250  -0.615  1.00  0.00     0.010 C 
HETATM   30  C19 UNL     1      -3.850   2.497  -1.580  1.00  0.00     0.024 C 
HETATM   31  C20 UNL     1      -2.494   1.846  -1.235  1.00  0.00     0.124 C 
ENDBRANCH   5  25
TORSDOF 10
