REMARK  7 active torsions:
REMARK  status: ('A' for Active; 'I' for Inactive)
REMARK    1  A    between atoms: C2_2  and  C3_3 
REMARK    2  A    between atoms: C3_3  and  N1_4 
REMARK    3  A    between atoms: C6_8  and  N2_9 
REMARK    4  A    between atoms: N2_9  and  C7_12 
REMARK    5  A    between atoms: C7_12  and  C8_13 
REMARK    6  A    between atoms: C8_13  and  C9_14 
REMARK    7  A    between atoms: C9_14  and  N3_15 
ROOT
HETATM    1  N2  UNL     1      -0.214  -0.328   0.922  1.00  0.00    -0.047 N 
ATOM      2  H21 UNL     1      -0.761  -0.816   1.632  1.00  0.00     0.280 HD
ATOM      3  H22 UNL     1      -0.409   0.636   1.192  1.00  0.00     0.280 HD
ENDROOT
BRANCH   1   4
HETATM    4  C6  UNL     1      -0.728  -0.604  -0.401  1.00  0.00     0.338 C 
HETATM    5  O1  UNL     1      -1.349  -1.865  -0.302  1.00  0.00    -0.356 OA
HETATM    6  C5  UNL     1      -1.973  -1.932   0.957  1.00  0.00     0.190 C 
HETATM    7  C4  UNL     1      -2.850  -0.718   1.229  1.00  0.00     0.143 C 
HETATM    8  N1  UNL     1      -3.017   0.048   0.040  1.00  0.00    -0.403 N 
HETATM    9  C11 UNL     1      -1.865   0.354  -0.716  1.00  0.00     0.178 C 
BRANCH   8  10
HETATM   10  C3  UNL     1      -4.212  -0.298  -0.694  1.00  0.00     0.143 C 
BRANCH  10  11
HETATM   11  C2  UNL     1      -5.368   0.193   0.102  1.00  0.00    -0.018 C 
HETATM   12  C1  UNL     1      -6.211   1.017  -0.463  1.00  0.00     0.008 C 
ENDBRANCH  10  11
ENDBRANCH   8  10
ENDBRANCH   1   4
BRANCH   1  13
HETATM   13  C7  UNL     1       1.187  -0.625   1.064  1.00  0.00     0.237 C 
BRANCH  13  14
HETATM   14  C8  UNL     1       2.071   0.337   0.298  1.00  0.00     0.047 C 
BRANCH  14  15
HETATM   15  C9  UNL     1       3.527  -0.083   0.519  1.00  0.00     0.123 C 
BRANCH  15  16
HETATM   16  N3  UNL     1       4.366   0.822  -0.121  1.00  0.00    -0.367 N 
HETATM   17  C10 UNL     1       5.521   1.048  -0.267  1.00  0.00     0.196 C 
HETATM   18  N4  UNL     1       6.582   0.264   0.304  1.00  0.00    -0.067 NA
HETATM   19  N5  UNL     1       5.965   2.164  -1.062  1.00  0.00    -0.067 NA
ATOM     20  H3  UNL     1       3.811   1.512  -0.627  1.00  0.00     0.161 HD
ENDBRANCH  15  16
ENDBRANCH  14  15
ENDBRANCH  13  14
ENDBRANCH   1  13
TORSDOF 7
