REMARK  9 active torsions:
REMARK  status: ('A' for Active; 'I' for Inactive)
REMARK    1  A    between atoms: N1_1  and  C1_4 
REMARK    2  A    between atoms: C2_9  and  C3_10 
REMARK    3  A    between atoms: C4_17  and  N8_18 
REMARK    4  A    between atoms: N9_20  and  N10_22 
REMARK       I    between atoms: N10_22  and  C5_24 
REMARK    5  A    between atoms: C5_24  and  C6_26 
REMARK    6  A    between atoms: C6_26  and  C7_34 
REMARK    7  A    between atoms: N11_27  and  N12_29 
REMARK    8  A    between atoms: N12_29  and  N13_31 
REMARK    9  A    between atoms: C9_40  and  O3_41 
ROOT
HETATM    1  N8  UNL     1       1.937  -1.553  -1.332  1.00  0.00    -0.269 N 
ATOM      2  H8  UNL     1       2.611  -2.165  -1.792  1.00  0.00     0.190 HD
HETATM    3  N9  UNL     1       0.903  -2.059  -0.854  1.00  0.00    -0.238 N 
ATOM      4  H9  UNL     1       0.789  -3.068  -0.953  1.00  0.00     0.208 HD
ENDROOT
BRANCH   3   5
HETATM    5  N10 UNL     1      -0.112  -1.365  -0.196  1.00  0.00    -0.250 N 
HETATM    6  C5  UNL     1      -1.460  -1.839  -0.263  1.00  0.00     0.290 C 
HETATM    7  O2  UNL     1      -1.593  -2.892  -0.948  1.00  0.00    -0.264 OA
ATOM      8  H10 UNL     1       0.107  -0.520   0.332  1.00  0.00     0.192 HD
BRANCH   6   9
HETATM    9  C6  UNL     1      -2.579  -1.209   0.371  1.00  0.00     0.136 C 
HETATM   10  N11 UNL     1      -2.365  -0.159   1.039  1.00  0.00    -0.281 N 
ATOM     11  H11 UNL     1      -3.269   0.137   1.408  1.00  0.00     0.188 HD
BRANCH  10  12
HETATM   12  N12 UNL     1      -1.500   0.704   1.459  1.00  0.00    -0.249 N 
ATOM     13  H12 UNL     1      -1.129   1.391   0.803  1.00  0.00     0.207 HD
BRANCH  12  14
HETATM   14  N13 UNL     1      -1.048   0.726   2.808  1.00  0.00    -0.331 N 
ATOM     15 2H13 UNL     1      -1.429   0.032   3.451  1.00  0.00     0.178 HD
ATOM     16 1H13 UNL     1      -0.365   1.407   3.140  1.00  0.00     0.178 HD
ENDBRANCH  12  14
ENDBRANCH  10  12
BRANCH   9  17
HETATM   17  C7  UNL     1      -4.005  -1.699   0.308  1.00  0.00     0.082 A 
HETATM   18  C8  UNL     1      -4.974  -0.940   1.002  1.00  0.00     0.120 A 
HETATM   19  N14 UNL     1      -4.789   0.256   1.773  1.00  0.00    -0.092 NA
HETATM   20  S1  UNL     1      -6.409  -1.786   0.699  1.00  0.00     0.003 SA
HETATM   21  N15 UNL     1      -5.820  -3.018  -0.241  1.00  0.00    -0.305 N 
HETATM   22  C9  UNL     1      -4.493  -2.773  -0.324  1.00  0.00     0.161 A 
ATOM     23  H15 UNL     1      -6.341  -3.787  -0.662  1.00  0.00     0.176 HD
BRANCH  22  24
HETATM   24  O3  UNL     1      -3.817  -3.633  -1.030  1.00  0.00    -0.345 OA
ATOM     25  H3  UNL     1      -4.163  -4.395  -1.479  1.00  0.00     0.219 HD
ENDBRANCH  22  24
ENDBRANCH   9  17
ENDBRANCH   6   9
ENDBRANCH   3   5
BRANCH   1  26
HETATM   26  C4  UNL     1       2.220  -0.161  -1.266  1.00  0.00     0.156 A 
HETATM   27  C2  UNL     1       3.405   0.445  -0.913  1.00  0.00     0.158 A 
HETATM   28  N3  UNL     1       3.275   1.780  -0.972  1.00  0.00    -0.169 N 
HETATM   29  O1  UNL     1       3.857   2.934  -0.811  1.00  0.00    -0.146 OA
HETATM   30  C10 UNL     1       1.996   2.018  -1.367  1.00  0.00     0.183 A 
HETATM   31  N2  UNL     1       3.044   3.908  -1.074  1.00  0.00    -0.222 N 
HETATM   32  C1  UNL     1       1.862   3.392  -1.428  1.00  0.00     0.168 A 
ATOM     33  H2  UNL     1       3.268   4.902  -1.020  1.00  0.00     0.198 HD
HETATM   34  N16 UNL     1       1.345   0.845  -1.549  1.00  0.00    -0.320 N 
ATOM     35  H16 UNL     1       0.375   0.734  -1.844  1.00  0.00     0.169 HD
BRANCH  27  36
HETATM   36  C3  UNL     1       4.627  -0.242  -0.529  1.00  0.00     0.165 A 
HETATM   37  N4  UNL     1       5.806   0.299  -0.176  1.00  0.00    -0.268 N 
HETATM   38  N5  UNL     1       6.668  -0.662   0.101  1.00  0.00    -0.007 NA
ATOM     39  H4  UNL     1       6.004   1.298  -0.129  1.00  0.00     0.185 HD
HETATM   40  N6  UNL     1       6.075  -1.830  -0.064  1.00  0.00    -0.007 NA
HETATM   41  N7  UNL     1       4.837  -1.568  -0.446  1.00  0.00    -0.268 N 
ATOM     42  H7  UNL     1       4.134  -2.278  -0.651  1.00  0.00     0.185 HD
ENDBRANCH  27  36
BRANCH  32  43
HETATM   43  N1  UNL     1       0.791   4.037  -1.765  1.00  0.00    -0.381 N 
ATOM     44  H12 UNL     1       0.692   5.051  -1.810  1.00  0.00     0.157 HD
ATOM     45  H11 UNL     1      -0.110   3.643  -2.035  1.00  0.00     0.157 HD
ENDBRANCH  32  43
ENDBRANCH   1  26
TORSDOF 9
