REMARK  12 active torsions:
REMARK  status: ('A' for Active; 'I' for Inactive)
REMARK    1  A    between atoms: C2_2  and  O1_3 
REMARK    2  A    between atoms: C2_2  and  C3_5 
REMARK    3  A    between atoms: C3_5  and  O2_6 
REMARK    4  A    between atoms: C3_5  and  C4_8 
REMARK    5  A    between atoms: N3_13  and  C5_14 
REMARK    6  A    between atoms: C5_14  and  C6_15 
REMARK    7  A    between atoms: C6_15  and  S1_16 
REMARK    8  A    between atoms: S1_16  and  C7_17 
REMARK    9  A    between atoms: C8_20  and  N5_21 
REMARK       I    between atoms: N5_21  and  C9_23 
REMARK   10  A    between atoms: C10_30  and  N9_31 
REMARK   11  A    between atoms: C11_34  and  N10_35 
REMARK   12  A    between atoms: C12_39  and  O3_40 
ROOT
HETATM    1  C7  UNL     1      -2.519   0.104  -1.179  1.00  0.00     0.118 A 
HETATM    2  N4  UNL     1      -2.736  -1.220  -1.283  1.00  0.00    -0.183 N 
ATOM      3  H4  UNL     1      -2.294  -1.759  -2.028  1.00  0.00     0.185 HD
HETATM    4  C8  UNL     1      -3.545  -1.825  -0.391  1.00  0.00     0.687 A 
HETATM    5  N8  UNL     1      -4.125  -1.108   0.589  1.00  0.00    -0.174 N 
ATOM      6  H8  UNL     1      -4.736  -1.574   1.260  1.00  0.00     0.186 HD
HETATM    7  C10 UNL     1      -3.909   0.220   0.696  1.00  0.00     0.146 A 
HETATM    8  C11 UNL     1      -3.088   0.876  -0.197  1.00  0.00     0.134 A 
ENDROOT
BRANCH   1   9
HETATM    9  S1  UNL     1      -1.446   0.889  -2.363  1.00  0.00    -0.107 SA
BRANCH   9  10
HETATM   10  C6  UNL     1       0.241   0.789  -1.680  1.00  0.00     0.104 C 
BRANCH  10  11
HETATM   11  C5  UNL     1       0.714  -0.649  -1.621  1.00  0.00     0.181 C 
BRANCH  11  12
HETATM   12  N3  UNL     1       2.049  -0.647  -1.065  1.00  0.00    -0.217 N 
HETATM   13  N2  UNL     1       2.287  -0.747   0.241  1.00  0.00    -0.225 N 
HETATM   14  N1  UNL     1       3.590  -0.716   0.429  1.00  0.00    -0.270 N 
ATOM     15  H2  UNL     1       1.580  -0.833   0.972  1.00  0.00     0.210 HD
HETATM   16  C4  UNL     1       4.186  -0.596  -0.762  1.00  0.00     0.145 A 
ATOM     17  H1  UNL     1       4.064  -0.774   1.330  1.00  0.00     0.190 HD
HETATM   18  N14 UNL     1       3.206  -0.555  -1.678  1.00  0.00    -0.268 N 
ATOM     19  H14 UNL     1       3.339  -0.467  -2.685  1.00  0.00     0.190 HD
BRANCH  16  20
HETATM   20  C3  UNL     1       5.646  -0.520  -1.061  1.00  0.00     0.216 C 
BRANCH  20  21
HETATM   21  C2  UNL     1       6.393  -0.447   0.242  1.00  0.00     0.150 C 
HETATM   22  C1  UNL     1       6.127   0.839   0.995  1.00  0.00     0.042 C 
BRANCH  21  23
HETATM   23  O1  UNL     1       5.955  -1.543   1.014  1.00  0.00    -0.393 OA
ATOM     24  H1  UNL     1       6.122  -2.350   0.541  1.00  0.00     0.210 HD
ENDBRANCH  21  23
ENDBRANCH  20  21
BRANCH  20  25
HETATM   25  O2  UNL     1       5.945   0.479  -1.955  1.00  0.00    -0.385 OA
ATOM     26  H2  UNL     1       5.473   0.433  -2.778  1.00  0.00     0.210 HD
ENDBRANCH  20  25
ENDBRANCH  16  20
ENDBRANCH  11  12
ENDBRANCH  10  11
ENDBRANCH   9  10
ENDBRANCH   1   9
BRANCH   8  27
HETATM   27  N10 UNL     1      -2.801   2.256  -0.178  1.00  0.00    -0.215 N 
HETATM   28  N11 UNL     1      -3.298   3.125  -1.041  1.00  0.00    -0.011 NA
HETATM   29  N12 UNL     1      -2.852   4.341  -0.775  1.00  0.00    -0.261 N 
HETATM   30  C12 UNL     1      -2.033   4.261   0.302  1.00  0.00     0.197 A 
ATOM     31  H12 UNL     1      -3.084   5.190  -1.290  1.00  0.00     0.186 HD
HETATM   32  C13 UNL     1      -2.009   2.924   0.673  1.00  0.00     0.189 A 
HETATM   33  N13 UNL     1      -1.311   2.287   1.734  1.00  0.00    -0.076 NA
BRANCH  30  34
HETATM   34  O3  UNL     1      -1.332   5.260   0.953  1.00  0.00    -0.343 OA
ATOM     35  H3  UNL     1      -0.758   5.204   1.708  1.00  0.00     0.219 HD
ENDBRANCH  30  34
ENDBRANCH   8  27
BRANCH   4  36
HETATM   36  N5  UNL     1      -3.740  -3.108  -0.513  1.00  0.00    -0.164 N 
HETATM   37  C9  UNL     1      -4.587  -3.775   0.411  1.00  0.00     0.200 C 
HETATM   38  N6  UNL     1      -4.165  -4.096   1.596  1.00  0.00    -0.373 N 
HETATM   39  N7  UNL     1      -5.927  -4.120   0.085  1.00  0.00    -0.063 NA
ATOM     40  H62 UNL     1      -3.204  -3.848   1.830  1.00  0.00     0.158 HD
ATOM     41  H61 UNL     1      -4.773  -4.575   2.260  1.00  0.00     0.158 HD
ATOM     42  H5  UNL     1      -3.288  -3.628  -1.265  1.00  0.00     0.187 HD
ENDBRANCH   4  36
BRANCH   7  43
HETATM   43  N9  UNL     1      -4.466   0.934   1.644  1.00  0.00    -0.383 N 
ATOM     44  H92 UNL     1      -5.073   0.449   2.304  1.00  0.00     0.157 HD
ATOM     45  H91 UNL     1      -4.303   1.938   1.725  1.00  0.00     0.157 HD
ENDBRANCH   7  43
TORSDOF 12
