REMARK  3 active torsions:
REMARK  status: ('A' for Active; 'I' for Inactive)
REMARK    1  A    between atoms: C2_2  and  N1_3 
REMARK    2  A    between atoms: C4_7  and  N3_8 
REMARK       I    between atoms: N3_8  and  C5_10 
REMARK       I    between atoms: C5_10  and  N4_12 
REMARK    3  A    between atoms: C10_17  and  C11_18 
ROOT
HETATM    1  N3  UNL     1      -0.202   0.073  -0.100  1.00  0.00    -0.305 N 
ATOM      2  H3  UNL     1      -0.703  -0.815  -0.139  1.00  0.00     0.171 HD
HETATM    3  C5  UNL     1       1.189   0.026   0.007  1.00  0.00     0.323 C 
HETATM    4  O1  UNL     1       1.836   1.147   0.055  1.00  0.00    -0.247 OA
HETATM    5  N4  UNL     1       1.990  -1.118   0.084  1.00  0.00    -0.325 N 
HETATM    6  C6  UNL     1       1.410  -2.441   0.001  1.00  0.00     0.128 C 
HETATM    7  C7  UNL     1       2.009  -3.184   1.211  1.00  0.00     0.020 C 
HETATM    8  C8  UNL     1       2.488  -2.199   2.273  1.00  0.00     0.004 C 
HETATM    9  C9  UNL     1       3.660  -1.357   1.777  1.00  0.00     0.030 C 
HETATM   10  C10 UNL     1       3.423  -1.121   0.323  1.00  0.00     0.122 C 
ENDROOT
BRANCH   1  11
HETATM   11  C4  UNL     1      -0.959   1.247  -0.158  1.00  0.00     0.082 A 
HETATM   12  C3  UNL     1      -0.623   2.568  -0.158  1.00  0.00     0.139 A 
HETATM   13  N2  UNL     1      -1.728   3.281  -0.115  1.00  0.00    -0.307 N 
HETATM   14  N1  UNL     1      -2.764   2.476  -0.087  1.00  0.00    -0.290 N 
ATOM     15  H2  UNL     1      -1.772   4.300  -0.105  1.00  0.00     0.186 HD
HETATM   16  C17 UNL     1      -2.371   1.182  -0.113  1.00  0.00     0.081 A 
HETATM   17  C18 UNL     1      -3.229   0.040  -0.221  1.00  0.00    -0.049 C 
HETATM   18  C19 UNL     1      -3.649  -0.666   1.042  1.00  0.00     0.036 C 
HETATM   19  C22 UNL     1      -3.173  -0.952  -1.292  1.00  0.00     0.036 C 
HETATM   20  C20 UNL     1      -4.456  -1.840   0.534  1.00  0.00     0.005 C 
HETATM   21  C21 UNL     1      -4.496  -1.748  -0.990  1.00  0.00     0.005 C 
BRANCH  14  22
HETATM   22  C2  UNL     1      -4.126   3.029  -0.074  1.00  0.00     0.145 C 
HETATM   23  C1  UNL     1      -4.641   3.170   1.337  1.00  0.00     0.028 C 
ENDBRANCH  14  22
ENDBRANCH   1  11
BRANCH  10  24
HETATM   24  C11 UNL     1       4.152  -0.029  -0.274  1.00  0.00    -0.035 A 
HETATM   25  C12 UNL     1       4.903   0.844   0.466  1.00  0.00     0.012 A 
HETATM   26  C13 UNL     1       5.627   1.885  -0.110  1.00  0.00     0.043 A 
HETATM   27  C14 UNL     1       5.603   2.068  -1.490  1.00  0.00     0.116 A 
HETATM   28  F1  UNL     1       6.321   3.097  -2.048  1.00  0.00    -0.206 F 
HETATM   29  C15 UNL     1       4.852   1.195  -2.244  1.00  0.00     0.043 A 
HETATM   30  C16 UNL     1       4.144   0.171  -1.647  1.00  0.00     0.012 A 
ENDBRANCH  10  24
TORSDOF 3
