REMARK  4 active torsions:
REMARK  status: ('A' for Active; 'I' for Inactive)
REMARK    1  A    between atoms: C8_8  and  C9_9 
REMARK    2  A    between atoms: C15_17  and  O1_18 
REMARK    3  A    between atoms: O1_18  and  C16_19 
REMARK    4  A    between atoms: C16_19  and  C17_20 
ROOT
HETATM    1  C1  UNL     1       0.151   1.769  -0.399  1.00  0.00     0.046 C 
HETATM    2  C2  UNL     1      -0.795   0.617  -0.153  1.00  0.00    -0.052 C 
HETATM    3  C3  UNL     1      -2.069   0.850   0.159  1.00  0.00    -0.062 C 
HETATM    4  C4  UNL     1      -2.465   2.309   0.244  1.00  0.00     0.035 C 
HETATM    5  C5  UNL     1      -3.781   2.550   0.901  1.00  0.00     0.004 C 
HETATM    6  C6  UNL     1      -4.020   1.429   1.886  1.00  0.00     0.002 C 
HETATM    7  C7  UNL     1      -4.224   0.123   1.152  1.00  0.00     0.019 C 
HETATM    8  C8  UNL     1      -2.982  -0.280   0.380  1.00  0.00     0.036 C 
HETATM    9  C12 UNL     1      -2.275  -1.414   1.088  1.00  0.00     0.205 C 
HETATM   10  F1  UNL     1      -2.718  -2.678   0.690  1.00  0.00    -0.225 F 
HETATM   11  C13 UNL     1      -2.569  -1.388   2.552  1.00  0.00     0.104 C 
HETATM   12  N1  UNL     1      -2.793  -1.390   3.696  1.00  0.00    -0.194 NA
HETATM   13  C14 UNL     1      -0.797  -1.454   0.979  1.00  0.00     0.097 C 
HETATM   14  C15 UNL     1      -0.232  -0.757  -0.243  1.00  0.00     0.154 C 
ENDROOT
BRANCH   8  15
HETATM   15  C9  UNL     1      -3.487  -0.827  -0.952  1.00  0.00    -0.006 C 
HETATM   16  C10 UNL     1      -4.180   0.240  -1.785  1.00  0.00     0.011 C 
HETATM   17  C11 UNL     1      -4.613  -1.861  -0.723  1.00  0.00     0.011 C 
ENDBRANCH   8  15
BRANCH  14  18
HETATM   18  O1  UNL     1       1.161  -0.677   0.001  1.00  0.00    -0.377 OA
BRANCH  18  19
HETATM   19  C16 UNL     1       1.842  -1.276  -1.037  1.00  0.00     0.208 C 
BRANCH  19  20
HETATM   20  C17 UNL     1       3.304  -1.164  -0.731  1.00  0.00    -0.015 A 
HETATM   21  C18 UNL     1       4.070  -2.233  -0.598  1.00  0.00     0.117 A 
HETATM   22  N2  UNL     1       5.447  -2.028  -0.307  1.00  0.00    -0.305 N 
HETATM   23  N3  UNL     1       6.006  -0.756  -0.159  1.00  0.00    -0.268 N 
ATOM     24  H2  UNL     1       6.051  -2.843  -0.202  1.00  0.00     0.186 HD
HETATM   25  C19 UNL     1       7.389  -0.561   0.133  1.00  0.00     0.116 A 
HETATM   26  C23 UNL     1       5.134   0.360  -0.313  1.00  0.00     0.056 A 
HETATM   27  C20 UNL     1       7.884   0.661   0.265  1.00  0.00     0.019 A 
HETATM   28  C21 UNL     1       7.023   1.829   0.115  1.00  0.00     0.004 A 
HETATM   29  C22 UNL     1       5.733   1.683  -0.156  1.00  0.00     0.031 A 
HETATM   30  C24 UNL     1       3.841   0.187  -0.586  1.00  0.00     0.042 A 
ENDBRANCH  19  20
ENDBRANCH  18  19
ENDBRANCH  14  18
TORSDOF 4
