REMARK  2 active torsions:
REMARK  status: ('A' for Active; 'I' for Inactive)
REMARK       I    between atoms: C1_4  and  N2_5 
REMARK       I    between atoms: C1_4  and  N3_11 
REMARK       I    between atoms: N4_14  and  C8_15 
REMARK    1  A    between atoms: C8_15  and  C9_17 
REMARK    2  A    between atoms: C9_17  and  C10_18 
ROOT
HETATM    1  N1  UNL     1       4.703   2.706   0.420  1.00  0.00    -0.235 N 
ATOM      2  H11 UNL     1       4.246   3.288   1.122  1.00  0.00     0.174 HD
ATOM      3  H12 UNL     1       5.496   3.088  -0.095  1.00  0.00     0.174 HD
HETATM    4  C1  UNL     1       4.286   1.485   0.176  1.00  0.00     0.673 C 
HETATM    5  N2  UNL     1       4.920   0.679  -0.797  1.00  0.00    -0.214 N 
HETATM    6  C2  UNL     1       4.562  -0.705  -0.931  1.00  0.00     0.167 C 
HETATM    7  C3  UNL     1       5.856  -1.504  -0.869  1.00  0.00     0.188 C 
HETATM    8  O1  UNL     1       6.786  -1.029  -1.776  1.00  0.00    -0.388 OA
HETATM    9  C4  UNL     1       7.138   0.290  -1.586  1.00  0.00     0.188 C 
HETATM   10  C5  UNL     1       5.929   1.224  -1.666  1.00  0.00     0.167 C 
HETATM   11  N3  UNL     1       3.189   0.957   0.888  1.00  0.00    -0.200 N 
HETATM   12  C6  UNL     1       3.233   0.389   2.209  1.00  0.00     0.163 C 
HETATM   13  C7  UNL     1       1.884   0.803   2.766  1.00  0.00     0.148 C 
HETATM   14  N4  UNL     1       1.026   0.607   1.620  1.00  0.00    -0.334 N 
HETATM   15  C8  UNL     1      -0.347   0.217   1.585  1.00  0.00     0.221 C 
HETATM   16  O2  UNL     1      -0.964  -0.005   2.677  1.00  0.00    -0.273 OA
HETATM   17  C19 UNL     1       1.820   0.880   0.442  1.00  0.00     0.270 C 
ENDROOT
BRANCH  15  18
HETATM   18  C9  UNL     1      -1.075   0.064   0.308  1.00  0.00     0.108 C 
BRANCH  18  19
HETATM   19  C10 UNL     1      -2.507  -0.205   0.546  1.00  0.00     0.000 C 
HETATM   20  C11 UNL     1      -3.259   0.902   1.280  1.00  0.00     0.032 C 
HETATM   21  C12 UNL     1      -4.440   0.217   1.859  1.00  0.00    -0.028 C 
HETATM   22  C13 UNL     1      -5.128  -0.579   1.071  1.00  0.00     0.007 C 
HETATM   23  C14 UNL     1      -4.742  -0.788  -0.348  1.00  0.00     0.143 C 
HETATM   24  C15 UNL     1      -5.590   0.131  -1.241  1.00  0.00     0.045 C 
HETATM   25  N5  UNL     1      -5.157  -2.149  -0.698  1.00  0.00    -0.063 N 
HETATM   26  C18 UNL     1      -3.314  -0.536  -0.665  1.00  0.00     0.048 C 
HETATM   27  C16 UNL     1      -6.553  -0.803  -1.941  1.00  0.00     0.030 C 
HETATM   28  C17 UNL     1      -6.567  -1.969  -0.967  1.00  0.00     0.233 C 
ATOM     29  H52 UNL     1      -4.624  -2.584  -1.451  1.00  0.00     0.278 HD
ATOM     30  H51 UNL     1      -4.936  -2.862  -0.002  1.00  0.00     0.278 HD
ENDBRANCH  18  19
ENDBRANCH  15  18
TORSDOF 2
