REMARK  8 active torsions:
REMARK  status: ('A' for Active; 'I' for Inactive)
REMARK    1  A    between atoms: C1_2  and  C2_4 
REMARK    2  A    between atoms: N2_11  and  C9_12 
REMARK    3  A    between atoms: C9_12  and  O2_13 
REMARK    4  A    between atoms: C9_12  and  C10_15 
REMARK    5  A    between atoms: C13_18  and  N3_19 
REMARK    6  A    between atoms: N3_19  and  C14_21 
REMARK    7  A    between atoms: C17_26  and  N5_27 
REMARK    8  A    between atoms: N5_27  and  C18_29 
ROOT
HETATM    1  C10 UNL     1      -1.802   0.909   0.987  1.00  0.00     0.015 A 
HETATM    2  C11 UNL     1      -0.979   1.333   2.046  1.00  0.00     0.018 A 
HETATM    3  C12 UNL     1       0.369   1.555   1.883  1.00  0.00     0.031 A 
HETATM    4  C13 UNL     1       0.970   1.370   0.667  1.00  0.00     0.049 A 
HETATM    5  C24 UNL     1       0.216   0.962  -0.384  1.00  0.00     0.031 A 
HETATM    6  C25 UNL     1      -1.149   0.743  -0.197  1.00  0.00     0.018 A 
ENDROOT
BRANCH   4   7
HETATM    7  N3  UNL     1       2.343   1.604   0.523  1.00  0.00    -0.192 N 
ATOM      8  H3  UNL     1       2.661   2.573   0.517  1.00  0.00     0.184 HD
BRANCH   7   9
HETATM    9  C14 UNL     1       3.234   0.678   0.397  1.00  0.00     0.684 A 
HETATM   10  N4  UNL     1       2.902  -0.626   0.394  1.00  0.00    -0.202 N 
HETATM   11  C15 UNL     1       3.874  -1.561   0.257  1.00  0.00     0.110 A 
ATOM     12  H4  UNL     1       1.927  -0.909   0.494  1.00  0.00     0.183 HD
HETATM   13  C16 UNL     1       5.196  -1.216   0.121  1.00  0.00     0.066 A 
HETATM   14  C17 UNL     1       5.521   0.122   0.126  1.00  0.00     0.122 A 
HETATM   15  N6  UNL     1       4.532   1.022   0.263  1.00  0.00    -0.176 N 
ATOM     16  H6  UNL     1       4.774   2.013   0.266  1.00  0.00     0.186 HD
BRANCH  14  17
HETATM   17  N5  UNL     1       6.750   0.537   0.001  1.00  0.00    -0.342 N 
ATOM     18  H5  UNL     1       6.945   1.538   0.010  1.00  0.00     0.167 HD
BRANCH  17  19
HETATM   19  C18 UNL     1       7.823  -0.383  -0.147  1.00  0.00     0.033 A 
HETATM   20  C19 UNL     1       8.344  -1.062   0.935  1.00  0.00     0.029 A 
HETATM   21  C20 UNL     1       9.399  -1.958   0.745  1.00  0.00     0.002 A 
HETATM   22  C21 UNL     1       9.944  -2.190  -0.500  1.00  0.00     0.000 A 
HETATM   23  C22 UNL     1       9.413  -1.505  -1.571  1.00  0.00     0.002 A 
HETATM   24  C23 UNL     1       8.360  -0.609  -1.387  1.00  0.00     0.029 A 
ENDBRANCH  17  19
ENDBRANCH  14  17
ENDBRANCH   7   9
ENDBRANCH   4   7
BRANCH   1  25
HETATM   25  C9  UNL     1      -3.201   0.719   1.278  1.00  0.00     0.149 C 
BRANCH  25  26
HETATM   26  N2  UNL     1      -4.260   0.278   0.488  1.00  0.00    -0.343 N 
HETATM   27  C2  UNL     1      -5.632   0.185   1.030  1.00  0.00     0.176 C 
HETATM   28  C3  UNL     1      -6.489  -0.431  -0.013  1.00  0.00     0.041 C 
HETATM   29  C4  UNL     1      -5.539  -1.076  -0.959  1.00  0.00     0.011 C 
HETATM   30  C5  UNL     1      -5.989  -0.963  -2.381  1.00  0.00     0.007 C 
HETATM   31  C8  UNL     1      -4.292  -0.168  -0.870  1.00  0.00     0.091 C 
HETATM   32  C6  UNL     1      -5.731   0.486  -2.682  1.00  0.00     0.002 C 
HETATM   33  C7  UNL     1      -4.559   0.924  -1.871  1.00  0.00     0.026 C 
BRANCH  27  34
HETATM   34  C1  UNL     1      -6.190   1.498   1.393  1.00  0.00     0.254 C 
HETATM   35  N1  UNL     1      -7.510   1.514   1.922  1.00  0.00    -0.060 NA
HETATM   36  O1  UNL     1      -5.606   2.600   1.277  1.00  0.00    -0.275 OA
ENDBRANCH  27  34
ENDBRANCH  25  26
BRANCH  25  37
HETATM   37  O2  UNL     1      -3.573   1.008   2.512  1.00  0.00    -0.346 OA
ATOM     38  H2  UNL     1      -2.851   1.309   3.051  1.00  0.00     0.219 HD
ENDBRANCH  25  37
ENDBRANCH   1  25
TORSDOF 8
