REMARK  4 active torsions:
REMARK  status: ('A' for Active; 'I' for Inactive)
REMARK    1  A    between atoms: C4_6  and  C5_7 
REMARK    2  A    between atoms: C4_6  and  C15_17 
REMARK    3  A    between atoms: C20_26  and  C21_27 
REMARK       I    between atoms: C21_27  and  N3_29 
REMARK    4  A    between atoms: N3_29  and  C22_31 
ROOT
HETATM    1  C1  UNL     1       2.104  -1.759   2.649  1.00  0.00     0.014 C 
HETATM    2  C2  UNL     1       1.641  -1.015   1.817  1.00  0.00    -0.091 C 
HETATM    3  C3  UNL     1       1.058  -0.088   0.812  1.00  0.00     0.180 C 
HETATM    4  N1  UNL     1      -0.332  -0.179   0.761  1.00  0.00    -0.371 N 
ATOM      5  H1  UNL     1      -0.874   0.141   1.564  1.00  0.00     0.157 HD
HETATM    6  C4  UNL     1      -1.011  -0.690  -0.343  1.00  0.00     0.183 C 
HETATM    7  N2  UNL     1      -0.280  -0.788  -1.573  1.00  0.00    -0.324 N 
ATOM      8  H2  UNL     1      -0.725  -1.205  -2.390  1.00  0.00     0.165 HD
HETATM    9  C19 UNL     1       1.036  -0.320  -1.668  1.00  0.00     0.236 C 
HETATM   10  O2  UNL     1       1.489   0.029  -2.805  1.00  0.00    -0.272 OA
HETATM   11  C20 UNL     1       1.841  -0.253  -0.436  1.00  0.00     0.204 C 
ENDROOT
BRANCH  11  12
HETATM   12  C21 UNL     1       2.847   0.841  -0.624  1.00  0.00     0.238 C 
HETATM   13  O3  UNL     1       2.822   1.611  -1.643  1.00  0.00    -0.272 OA
HETATM   14  N3  UNL     1       3.878   1.087   0.306  1.00  0.00    -0.326 N 
ATOM     15  H3  UNL     1       3.630   1.560   1.175  1.00  0.00     0.169 HD
BRANCH  14  16
HETATM   16  C22 UNL     1       5.097   0.760   0.137  1.00  0.00     0.037 A 
HETATM   17  C23 UNL     1       5.454   0.122  -1.029  1.00  0.00     0.046 A 
HETATM   18  C24 UNL     1       6.792  -0.217  -1.176  1.00  0.00     0.090 A 
HETATM   19  N4  UNL     1       7.712   0.057  -0.239  1.00  0.00    -0.375 N 
HETATM   20  C25 UNL     1       7.351   0.674   0.880  1.00  0.00     0.090 A 
ATOM     21  H4  UNL     1       8.686  -0.208  -0.386  1.00  0.00     0.164 HD
HETATM   22  C26 UNL     1       6.042   1.040   1.098  1.00  0.00     0.046 A 
ENDBRANCH  14  16
ENDBRANCH  11  12
BRANCH   6  23
HETATM   23  C5  UNL     1      -2.201   0.196  -0.614  1.00  0.00    -0.002 A 
HETATM   24  C6  UNL     1      -2.399   0.790  -1.842  1.00  0.00     0.013 A 
HETATM   25  C7  UNL     1      -3.482   1.604  -2.110  1.00  0.00     0.013 A 
HETATM   26  C8  UNL     1      -4.420   1.850  -1.130  1.00  0.00    -0.026 A 
HETATM   27  C9  UNL     1      -5.507   2.665  -1.393  1.00  0.00     0.012 A 
HETATM   28  C13 UNL     1      -4.226   1.258   0.099  1.00  0.00    -0.025 A 
HETATM   29  C10 UNL     1      -6.449   2.914  -0.418  1.00  0.00     0.001 A 
HETATM   30  C11 UNL     1      -6.260   2.320   0.822  1.00  0.00     0.001 A 
HETATM   31  C12 UNL     1      -5.175   1.510   1.079  1.00  0.00     0.012 A 
HETATM   32  C14 UNL     1      -3.140   0.442   0.366  1.00  0.00     0.024 A 
ENDBRANCH   6  23
BRANCH   6  33
HETATM   33  C15 UNL     1      -1.590  -2.043  -0.085  1.00  0.00     0.106 A 
HETATM   34  C16 UNL     1      -2.331  -2.826  -0.954  1.00  0.00     0.039 A 
HETATM   35  C17 UNL     1      -2.634  -3.962  -0.274  1.00  0.00     0.027 A 
HETATM   36  C18 UNL     1      -2.080  -3.855   0.982  1.00  0.00     0.142 A 
HETATM   37  O1  UNL     1      -1.474  -2.689   1.028  1.00  0.00    -0.322 OA
ENDBRANCH   6  33
TORSDOF 4
