REMARK  13 active torsions:
REMARK  status: ('A' for Active; 'I' for Inactive)
REMARK    1  A    between atoms: C12_12  and  C13_13 
REMARK    2  A    between atoms: C13_13  and  C14_14 
REMARK    3  A    between atoms: C13_13  and  C30_41 
REMARK    4  A    between atoms: C14_14  and  N1_15 
REMARK    5  A    between atoms: N2_18  and  C17_19 
REMARK    6  A    between atoms: C17_19  and  C18_20 
REMARK    7  A    between atoms: C18_20  and  C19_21 
REMARK    8  A    between atoms: C19_21  and  C20_22 
REMARK    9  A    between atoms: C20_22  and  N3_23 
REMARK       I    between atoms: N3_23  and  C21_25 
REMARK   10  A    between atoms: C21_25  and  C22_27 
REMARK   11  A    between atoms: C23_28  and  O2_29 
REMARK   12  A    between atoms: C26_33  and  O3_34 
REMARK   13  A    between atoms: C27_36  and  O4_37 
ROOT
HETATM    1  N1  UNL     1       1.119  -0.012  -0.624  1.00  0.00     0.092 N 
HETATM    2  C15 UNL     1       1.742   0.929  -1.503  1.00  0.00     0.291 C 
HETATM    3  C16 UNL     1       2.705   0.493  -2.508  1.00  0.00     0.147 C 
HETATM    4  N2  UNL     1       3.430  -0.694  -2.220  1.00  0.00    -0.409 N 
HETATM    5  C28 UNL     1       2.666  -1.721  -1.626  1.00  0.00     0.147 C 
HETATM    6  C29 UNL     1       1.712  -1.322  -0.579  1.00  0.00     0.291 C 
ENDROOT
BRANCH   1   7
HETATM    7  C14 UNL     1      -0.311  -0.087  -0.857  1.00  0.00     0.286 C 
BRANCH   7   8
HETATM    8  C13 UNL     1      -1.038  -0.689   0.303  1.00  0.00     0.126 C 
BRANCH   8   9
HETATM    9  C12 UNL     1      -2.517  -0.847  -0.042  1.00  0.00     0.000 C 
HETATM   10  C11 UNL     1      -3.342  -1.441   1.021  1.00  0.00     0.006 C 
HETATM   11  C10 UNL     1      -4.355  -0.547   1.657  1.00  0.00     0.006 C 
HETATM   12  C9  UNL     1      -4.954   0.478   0.745  1.00  0.00    -0.002 C 
HETATM   13  C7  UNL     1      -6.464   0.591   0.996  1.00  0.00    -0.036 C 
HETATM   14  C32 UNL     1      -4.616   0.349  -0.691  1.00  0.00    -0.009 C 
HETATM   15  C6  UNL     1      -6.940   1.897   0.406  1.00  0.00     0.010 C 
HETATM   16  C8  UNL     1      -6.641   0.651   2.476  1.00  0.00     0.016 C 
HETATM   17  C35 UNL     1      -7.150  -0.585   0.341  1.00  0.00     0.002 C 
HETATM   18  C5  UNL     1      -8.428   2.067   0.583  1.00  0.00     0.002 C 
HETATM   19  C4  UNL     1      -9.164   0.888   0.056  1.00  0.00     0.009 C 
HETATM   20  C2  UNL     1      -8.645  -0.449   0.448  1.00  0.00    -0.043 C 
HETATM   21  C1  UNL     1      -9.175  -0.920   1.803  1.00  0.00     0.015 C 
HETATM   22  C3  UNL     1      -9.222  -1.456  -0.561  1.00  0.00     0.015 C 
HETATM   23  C34 UNL     1      -6.803  -0.645  -1.114  1.00  0.00     0.006 C 
HETATM   24  C33 UNL     1      -5.348  -0.693  -1.434  1.00  0.00     0.005 C 
HETATM   25  C31 UNL     1      -3.111   0.269  -0.810  1.00  0.00     0.010 C 
ENDBRANCH   8   9
BRANCH   8  26
HETATM   26  C30 UNL     1      -0.830   0.159   1.525  1.00  0.00     0.393 C 
HETATM   27  F1  UNL     1      -1.372   1.453   1.383  1.00  0.00    -0.171 F 
HETATM   28  F2  UNL     1       0.527   0.440   1.617  1.00  0.00    -0.171 F 
HETATM   29  F3  UNL     1      -1.130  -0.417   2.718  1.00  0.00    -0.171 F 
ENDBRANCH   8  26
ENDBRANCH   7   8
ENDBRANCH   1   7
BRANCH   4  30
HETATM   30  C17 UNL     1       4.766  -0.511  -1.708  1.00  0.00     0.117 C 
BRANCH  30  31
HETATM   31  C18 UNL     1       4.809   0.083  -0.348  1.00  0.00     0.021 C 
BRANCH  31  32
HETATM   32  C19 UNL     1       6.232   0.223   0.123  1.00  0.00     0.021 C 
BRANCH  32  33
HETATM   33  C20 UNL     1       7.005   1.115  -0.807  1.00  0.00     0.123 C 
BRANCH  33  34
HETATM   34  N3  UNL     1       8.399   1.311  -0.350  1.00  0.00    -0.357 N 
HETATM   35  C21 UNL     1       9.306   0.263  -0.240  1.00  0.00     0.257 C 
HETATM   36  O1  UNL     1       8.848  -0.893  -0.580  1.00  0.00    -0.267 OA
ATOM     37  H3  UNL     1       8.707   2.252  -0.106  1.00  0.00     0.162 HD
BRANCH  35  38
HETATM   38  C22 UNL     1      10.673   0.315   0.203  1.00  0.00     0.101 A 
HETATM   39  C23 UNL     1      11.384  -0.910   0.225  1.00  0.00     0.084 A 
HETATM   40  C24 UNL     1      12.680  -0.946   0.643  1.00  0.00     0.040 A 
HETATM   41  C25 UNL     1      13.363   0.161   1.058  1.00  0.00     0.042 A 
HETATM   42  C26 UNL     1      12.660   1.366   1.035  1.00  0.00     0.100 A 
HETATM   43  C27 UNL     1      11.342   1.437   0.615  1.00  0.00     0.117 A 
BRANCH  39  44
HETATM   44  O2  UNL     1      10.777  -2.087  -0.177  1.00  0.00    -0.360 OA
ATOM     45  H2  UNL     1      11.254  -2.909  -0.162  1.00  0.00     0.217 HD
ENDBRANCH  39  44
BRANCH  42  46
HETATM   46  O3  UNL     1      13.304   2.504   1.442  1.00  0.00    -0.358 OA
ATOM     47  H3  UNL     1      12.825   3.324   1.426  1.00  0.00     0.217 HD
ENDBRANCH  42  46
BRANCH  43  48
HETATM   48  O4  UNL     1      10.679   2.650   0.603  1.00  0.00    -0.357 OA
ATOM     49  H4  UNL     1      11.143   3.428   0.889  1.00  0.00     0.217 HD
ENDBRANCH  43  48
ENDBRANCH  35  38
ENDBRANCH  33  34
ENDBRANCH  32  33
ENDBRANCH  31  32
ENDBRANCH  30  31
ENDBRANCH   4  30
TORSDOF 13
