REMARK  3 active torsions:
REMARK  status: ('A' for Active; 'I' for Inactive)
REMARK    1  A    between atoms: C2_2  and  C3_4 
REMARK    2  A    between atoms: C3_4  and  O2_5 
REMARK    3  A    between atoms: C6_11  and  O5_12 
ROOT
HETATM    1  C3  UNL     1       1.139  -0.364  -0.032  1.00  0.00     0.234 C 
HETATM    2  O3  UNL     1      -0.149  -0.617  -0.486  1.00  0.00    -0.311 OA
HETATM    3  C4  UNL     1      -0.978  -1.207   0.449  1.00  0.00     0.176 C 
HETATM    4  C5  UNL     1      -0.649  -2.594   0.880  1.00  0.00     0.080 C 
HETATM    5  O4  UNL     1      -1.145  -0.281   1.503  1.00  0.00    -0.316 OA
HETATM    6  C6  UNL     1      -2.267   0.249   0.929  1.00  0.00     0.200 C 
HETATM    7  C7  UNL     1      -2.010   1.274  -0.137  1.00  0.00     0.119 C 
HETATM    8  C8  UNL     1      -2.311   0.694  -1.456  1.00  0.00     0.018 C 
HETATM    9  C9  UNL     1      -2.854  -0.719  -1.203  1.00  0.00     0.016 C 
HETATM   10  C10 UNL     1      -2.450  -1.058   0.189  1.00  0.00     0.112 C 
HETATM   11  C11 UNL     1      -0.685   1.895   0.020  1.00  0.00     0.137 C 
HETATM   12  O6  UNL     1      -0.524   2.505   1.091  1.00  0.00    -0.297 OA
HETATM   13  C12 UNL     1       0.436   1.885  -0.900  1.00  0.00     0.093 C 
HETATM   14  C13 UNL     1       1.591   0.974  -0.505  1.00  0.00     0.023 C 
HETATM   15  C14 UNL     1       2.481   0.883  -1.727  1.00  0.00     0.021 C 
HETATM   16  C15 UNL     1       2.439   1.712   0.518  1.00  0.00     0.021 C 
ENDROOT
BRANCH   1  17
HETATM   17  C2  UNL     1       1.995  -1.438  -0.607  1.00  0.00     0.185 C 
HETATM   18  C1  UNL     1       2.866  -2.329   0.233  1.00  0.00     0.097 C 
HETATM   19  O1  UNL     1       2.057  -1.680  -1.813  1.00  0.00    -0.292 OA
ENDBRANCH   1  17
BRANCH   1  20
HETATM   20  O2  UNL     1       1.260  -0.506   1.355  1.00  0.00    -0.359 OA
ATOM     21  H2  UNL     1       0.714   0.179   1.722  1.00  0.00     0.213 HD
ENDBRANCH   1  20
BRANCH   6  22
HETATM   22  O5  UNL     1      -3.284   0.535   1.835  1.00  0.00    -0.267 OA
HETATM   23  S1  UNL     1      -2.835   1.656   3.032  1.00  0.00     0.096 SA
ENDBRANCH   6  22
TORSDOF 3
