REMARK  7 active torsions:
REMARK  status: ('A' for Active; 'I' for Inactive)
REMARK    1  A    between atoms: C2_3  and  O1_4 
REMARK    2  A    between atoms: C3_6  and  O2_7 
REMARK    3  A    between atoms: C6_12  and  C7_13 
REMARK    4  A    between atoms: C7_13  and  O3_14 
REMARK    5  A    between atoms: C7_13  and  O4_16 
REMARK    6  A    between atoms: O4_16  and  C8_17 
REMARK       I    between atoms: C8_17  and  N3_19 
REMARK    7  A    between atoms: C12_23  and  C13_24 
ROOT
HETATM    1  C1  UNL     1       4.261   1.397  -0.248  1.00  0.00     0.158 C 
HETATM    2  N1  UNL     1       3.862   0.403   0.726  1.00  0.00    -0.328 N 
HETATM    3  C2  UNL     1       4.454   0.277   1.927  1.00  0.00     0.178 A 
HETATM    4  C3  UNL     1       3.837  -0.770   2.622  1.00  0.00     0.140 A 
HETATM    5  C4  UNL     1       2.861  -1.264   1.799  1.00  0.00     0.109 A 
HETATM    6  C5  UNL     1       1.940  -2.352   2.052  1.00  0.00     0.104 C 
HETATM    7  N2  UNL     1       1.213  -3.233   2.242  1.00  0.00    -0.191 NA
HETATM    8  C6  UNL     1       2.895  -0.515   0.621  1.00  0.00     0.092 A 
ENDROOT
BRANCH   4   9
HETATM    9  O2  UNL     1       4.150  -1.222   3.894  1.00  0.00    -0.355 OA
ATOM     10  H2  UNL     1       3.731  -1.932   4.366  1.00  0.00     0.218 HD
ENDBRANCH   4   9
BRANCH   8  11
HETATM   11  C7  UNL     1       2.023  -0.697  -0.542  1.00  0.00     0.321 C 
BRANCH  11  12
HETATM   12  O3  UNL     1       1.912  -2.047  -0.854  1.00  0.00    -0.365 OA
ATOM     13  H3  UNL     1       1.347  -2.165  -1.608  1.00  0.00     0.213 HD
ENDBRANCH  11  12
BRANCH  11  14
HETATM   14  O4  UNL     1       0.728  -0.179  -0.361  1.00  0.00    -0.267 OA
BRANCH  14  15
HETATM   15  C8  UNL     1       0.162   0.795  -1.178  1.00  0.00     0.366 C 
HETATM   16  O5  UNL     1       0.896   1.199  -2.117  1.00  0.00    -0.238 OA
HETATM   17  N3  UNL     1      -1.149   1.300  -0.972  1.00  0.00    -0.318 N 
HETATM   18  C9  UNL     1      -1.743   2.315  -1.817  1.00  0.00     0.129 C 
HETATM   19  C12 UNL     1      -2.096   0.940   0.045  1.00  0.00     0.135 C 
HETATM   20  C10 UNL     1      -3.161   2.458  -1.372  1.00  0.00     0.022 C 
HETATM   21  C11 UNL     1      -3.088   2.111   0.099  1.00  0.00     0.033 C 
BRANCH  19  22
HETATM   22  C13 UNL     1      -2.907  -0.267  -0.315  1.00  0.00     0.009 C 
HETATM   23  N4  UNL     1      -4.158  -0.365  -0.543  1.00  0.00    -0.374 N 
HETATM   24  C14 UNL     1      -4.589  -1.665  -0.857  1.00  0.00     0.061 C 
ATOM     25  H4  UNL     1      -4.792   0.433  -0.501  1.00  0.00     0.164 HD
HETATM   26  C15 UNL     1      -3.478  -2.554  -0.354  1.00  0.00     0.050 C 
HETATM   27  C16 UNL     1      -2.291  -1.617  -0.457  1.00  0.00     0.059 C 
ENDBRANCH  19  22
ENDBRANCH  14  15
ENDBRANCH  11  14
ENDBRANCH   8  11
BRANCH   3  28
HETATM   28  O1  UNL     1       5.499   1.005   2.479  1.00  0.00    -0.344 OA
ATOM     29  H1  UNL     1       5.917   0.916   3.327  1.00  0.00     0.219 HD
ENDBRANCH   3  28
TORSDOF 7
