REMARK  5 active torsions:
REMARK  status: ('A' for Active; 'I' for Inactive)
REMARK    1  A    between atoms: C2_2  and  O2_4 
REMARK    2  A    between atoms: O2_4  and  C3_5 
REMARK    3  A    between atoms: C3_5  and  C4_6 
REMARK    4  A    between atoms: C16_19  and  O3_20 
REMARK    5  A    between atoms: O3_20  and  C17_21 
ROOT
HETATM    1  C4  UNL     1      -2.020  -1.127   1.129  1.00  0.00     0.050 C 
HETATM    2  C5  UNL     1      -2.194  -2.441   1.865  1.00  0.00     0.020 C 
HETATM    3  C6  UNL     1      -2.693  -3.370   0.780  1.00  0.00     0.002 C 
HETATM    4  C7  UNL     1      -1.838  -2.981  -0.380  1.00  0.00     0.011 C 
HETATM    5  C8  UNL     1      -1.791  -1.458  -0.311  1.00  0.00    -0.023 C 
HETATM    6  C9  UNL     1      -2.837  -0.952  -1.243  1.00  0.00     0.017 C 
HETATM    7  C10 UNL     1      -0.396  -1.017  -0.653  1.00  0.00     0.007 C 
HETATM    8  C11 UNL     1      -0.236  -0.413  -1.998  1.00  0.00     0.007 C 
HETATM    9  C12 UNL     1       1.165   0.154  -2.096  1.00  0.00     0.012 C 
HETATM   10  C13 UNL     1       1.500   1.139  -1.041  1.00  0.00    -0.015 C 
HETATM   11  C14 UNL     1       0.752   2.438  -1.302  1.00  0.00     0.017 C 
HETATM   12  C15 UNL     1       2.980   1.353  -0.961  1.00  0.00     0.126 C 
HETATM   13 CL1  UNL     1       3.378   3.083  -1.215  1.00  0.00    -0.121 Cl
HETATM   14  C16 UNL     1       3.428   0.931   0.423  1.00  0.00     0.223 C 
HETATM   15  C19 UNL     1       2.307  -0.055   0.806  1.00  0.00     0.276 C 
HETATM   16  F1  UNL     1       2.588  -1.207   0.162  1.00  0.00    -0.203 F 
HETATM   17  F2  UNL     1       2.425  -0.252   2.155  1.00  0.00    -0.203 F 
HETATM   18  C20 UNL     1       1.132   0.697   0.362  1.00  0.00     0.082 C 
HETATM   19  C21 UNL     1      -0.187   0.107   0.340  1.00  0.00     0.072 C 
HETATM   20  C22 UNL     1      -0.764  -0.420   1.566  1.00  0.00     0.143 C 
HETATM   21  O5  UNL     1      -0.428  -0.379   2.737  1.00  0.00    -0.297 OA
ENDROOT
BRANCH   1  22
HETATM   22  C3  UNL     1      -3.245  -0.312   1.391  1.00  0.00     0.196 C 
BRANCH  22  23
HETATM   23  O2  UNL     1      -3.255   0.938   0.786  1.00  0.00    -0.321 OA
BRANCH  23  24
HETATM   24  C2  UNL     1      -4.301   1.795   0.931  1.00  0.00     0.254 C 
HETATM   25  C1  UNL     1      -4.209   3.125   0.232  1.00  0.00     0.126 C 
HETATM   26  O1  UNL     1      -5.318   1.506   1.620  1.00  0.00    -0.266 OA
ENDBRANCH  23  24
ENDBRANCH  22  23
ENDBRANCH   1  22
BRANCH  14  27
HETATM   27  O3  UNL     1       4.658   0.236   0.255  1.00  0.00    -0.309 OA
BRANCH  27  28
HETATM   28  C17 UNL     1       5.819   0.576   0.915  1.00  0.00     0.255 C 
HETATM   29  C18 UNL     1       7.105  -0.150   0.740  1.00  0.00     0.126 C 
HETATM   30  O4  UNL     1       5.783   1.553   1.707  1.00  0.00    -0.266 OA
ENDBRANCH  27  28
ENDBRANCH  14  27
TORSDOF 5
