REMARK  11 active torsions:
REMARK  status: ('A' for Active; 'I' for Inactive)
REMARK    1  A    between atoms: C4_6  and  N3_7 
REMARK    2  A    between atoms: N3_7  and  N4_8 
REMARK       I    between atoms: N3_7  and  C6_16 
REMARK    3  A    between atoms: N4_8  and  O1_9 
REMARK    4  A    between atoms: O1_9  and  C5_10 
REMARK    5  A    between atoms: N6_12  and  O2_14 
REMARK    6  A    between atoms: C6_16  and  O4_18 
REMARK    7  A    between atoms: O4_18  and  C7_19 
REMARK    8  A    between atoms: C7_19  and  C8_20 
REMARK    9  A    between atoms: C9_24  and  N8_25 
REMARK   10  A    between atoms: N8_25  and  O6_26 
REMARK   11  A    between atoms: N8_25  and  O7_28 
ROOT
HETATM    1  N3  UNL     1       1.472   0.593   0.874  1.00  0.00    -0.183 N 
HETATM    2  C6  UNL     1       0.294   0.656   0.089  1.00  0.00     0.383 C 
HETATM    3  O3  UNL     1       0.069  -0.202  -0.786  1.00  0.00    -0.237 OA
ENDROOT
BRANCH   2   4
HETATM    4  O4  UNL     1      -0.660   1.648   0.237  1.00  0.00    -0.296 OA
BRANCH   4   5
HETATM    5  C7  UNL     1      -1.856   1.778  -0.470  1.00  0.00     0.250 C 
BRANCH   5   6
HETATM    6  C8  UNL     1      -2.801   0.669  -0.351  1.00  0.00     0.129 A 
HETATM    7  O5  UNL     1      -2.528  -0.369   0.368  1.00  0.00    -0.236 OA
HETATM    8  N7  UNL     1      -3.324  -1.387   0.514  1.00  0.00    -0.242 N 
HETATM    9  C9  UNL     1      -4.516  -1.437  -0.084  1.00  0.00     0.208 A 
ATOM     10  H7  UNL     1      -3.030  -2.168   1.101  1.00  0.00     0.196 HD
HETATM   11  C10 UNL     1      -4.900  -0.373  -0.876  1.00  0.00     0.243 A 
HETATM   12  O8  UNL     1      -6.010  -0.381  -1.456  1.00  0.00    -0.282 OA
HETATM   13  C11 UNL     1      -4.037   0.679  -1.006  1.00  0.00     0.133 A 
HETATM   14  N9  UNL     1      -4.388   1.798  -1.798  1.00  0.00    -0.095 NA
BRANCH   9  15
HETATM   15  N8  UNL     1      -5.423  -2.518   0.033  1.00  0.00    -0.013 NA
BRANCH  15  16
HETATM   16  O6  UNL     1      -6.134  -2.354   1.167  1.00  0.00    -0.283 OA
ATOM     17  H6  UNL     1      -6.743  -3.079   1.245  1.00  0.00     0.240 HD
ENDBRANCH  15  16
BRANCH  15  18
HETATM   18  O7  UNL     1      -4.835  -3.725  -0.024  1.00  0.00    -0.283 OA
ATOM     19  H7  UNL     1      -5.444  -4.450   0.054  1.00  0.00     0.240 HD
ENDBRANCH  15  18
ENDBRANCH   9  15
ENDBRANCH   5   6
ENDBRANCH   4   5
ENDBRANCH   2   4
BRANCH   1  20
HETATM   20  C4  UNL     1       2.496  -0.370   0.762  1.00  0.00     0.285 C 
HETATM   21  N2  UNL     1       2.092  -1.756   0.782  1.00  0.00    -0.108 NA
HETATM   22  N1  UNL     1       3.159  -2.535   0.462  1.00  0.00    -0.125 NA
HETATM   23  C2  UNL     1       3.804  -2.164  -0.757  1.00  0.00     0.090 C 
HETATM   24  C1  UNL     1       5.314  -2.124  -0.509  1.00  0.00     0.047 C 
HETATM   25  C3  UNL     1       3.462  -2.980  -1.954  1.00  0.00     0.047 C 
HETATM   26  S1  UNL     1       3.268  -0.409  -0.918  1.00  0.00    -0.096 SA
ENDBRANCH   1  20
BRANCH   1  27
HETATM   27  N4  UNL     1       1.652   1.572   1.881  1.00  0.00     0.039 NA
BRANCH  27  28
HETATM   28  O1  UNL     1       0.765   2.579   1.792  1.00  0.00    -0.188 OA
BRANCH  28  29
HETATM   29  C5  UNL     1       1.152   3.872   1.493  1.00  0.00     0.273 C 
HETATM   30  N5  UNL     1       0.398   4.966   2.024  1.00  0.00    -0.053 NA
HETATM   31  N6  UNL     1       2.162   4.139   0.754  1.00  0.00    -0.234 N 
ATOM     32  H6  UNL     1       2.370   5.124   0.589  1.00  0.00     0.197 HD
BRANCH  31  33
HETATM   33  O2  UNL     1       2.985   3.224   0.167  1.00  0.00    -0.287 OA
ATOM     34  H2  UNL     1       3.735   3.422  -0.382  1.00  0.00     0.244 HD
ENDBRANCH  31  33
ENDBRANCH  28  29
ENDBRANCH  27  28
ENDBRANCH   1  27
TORSDOF 11
