REMARK  4 active torsions:
REMARK  status: ('A' for Active; 'I' for Inactive)
REMARK    1  A    between atoms: C2_2  and  C3_3 
REMARK    2  A    between atoms: C16_18  and  O1_19 
REMARK    3  A    between atoms: O1_19  and  C17_20 
REMARK    4  A    between atoms: C17_20  and  C18_21 
ROOT
HETATM    1  C3  UNL     1      -4.275   1.406   0.128  1.00  0.00     0.001 A 
HETATM    2  C4  UNL     1      -3.105   0.676   0.226  1.00  0.00     0.118 A 
HETATM    3  C5  UNL     1      -3.043  -0.672   0.409  1.00  0.00     0.069 A 
HETATM    4  N1  UNL     1      -4.234  -1.314   0.500  1.00  0.00    -0.353 N 
ATOM      5  H1  UNL     1      -4.244  -2.325   0.637  1.00  0.00     0.166 HD
HETATM    6  C6  UNL     1      -5.416  -0.646   0.413  1.00  0.00     0.043 A 
HETATM    7  C7  UNL     1      -6.594  -1.363   0.528  1.00  0.00     0.030 A 
HETATM    8  C8  UNL     1      -7.792  -0.696   0.456  1.00  0.00     0.002 A 
HETATM    9  C9  UNL     1      -7.857   0.659   0.273  1.00  0.00     0.001 A 
HETATM   10  C10 UNL     1      -6.668   1.379   0.157  1.00  0.00     0.014 A 
HETATM   11  C11 UNL     1      -5.463   0.716   0.226  1.00  0.00     0.002 A 
HETATM   12  C12 UNL     1      -1.798  -1.452   0.444  1.00  0.00     0.022 A 
HETATM   13  C13 UNL     1      -1.896  -2.817   0.750  1.00  0.00     0.016 A 
HETATM   14  C14 UNL     1      -0.781  -3.595   0.894  1.00  0.00     0.004 A 
HETATM   15  C15 UNL     1       0.454  -3.018   0.734  1.00  0.00     0.039 A 
HETATM   16  C16 UNL     1       0.582  -1.668   0.429  1.00  0.00     0.097 A 
HETATM   17  C27 UNL     1      -0.560  -0.889   0.283  1.00  0.00     0.090 A 
HETATM   18  N3  UNL     1      -0.355   0.467  -0.113  1.00  0.00    -0.272 N 
HETATM   19  C28 UNL     1       0.875   0.847  -0.770  1.00  0.00     0.170 C 
HETATM   20  S1  UNL     1      -1.618   1.603   0.185  1.00  0.00     0.268 S 
HETATM   21  O2  UNL     1      -1.662   2.691  -0.818  1.00  0.00    -0.200 OA
HETATM   22  O3  UNL     1      -1.404   2.131   1.588  1.00  0.00    -0.200 OA
ENDROOT
BRANCH  16  23
HETATM   23  O1  UNL     1       1.851  -1.147   0.285  1.00  0.00    -0.343 OA
BRANCH  23  24
HETATM   24  C17 UNL     1       2.956  -2.004   0.447  1.00  0.00     0.232 C 
BRANCH  24  25
HETATM   25  C18 UNL     1       4.264  -1.362   0.287  1.00  0.00     0.034 A 
HETATM   26  C19 UNL     1       5.431  -2.128   0.334  1.00  0.00     0.028 A 
HETATM   27  C20 UNL     1       6.648  -1.537   0.189  1.00  0.00     0.016 A 
HETATM   28  C21 UNL     1       6.776  -0.175  -0.008  1.00  0.00    -0.009 A 
HETATM   29  C22 UNL     1       8.000   0.434  -0.156  1.00  0.00     0.013 A 
HETATM   30  C26 UNL     1       5.610   0.560  -0.051  1.00  0.00     0.042 A 
HETATM   31  C23 UNL     1       8.069   1.800  -0.350  1.00  0.00     0.001 A 
HETATM   32  C24 UNL     1       6.929   2.568  -0.399  1.00  0.00     0.002 A 
HETATM   33  C25 UNL     1       5.716   1.935  -0.248  1.00  0.00     0.030 A 
HETATM   34  N2  UNL     1       4.429  -0.049   0.095  1.00  0.00    -0.357 N 
ATOM     35  H2  UNL     1       3.591   0.531   0.057  1.00  0.00     0.166 HD
ENDBRANCH  24  25
ENDBRANCH  23  24
ENDBRANCH  16  23
BRANCH   1  36
HETATM   36  C2  UNL     1      -4.213   2.860  -0.064  1.00  0.00     0.004 C 
HETATM   37  C1  UNL     1      -4.768   3.529  -1.025  1.00  0.00     0.012 C 
ENDBRANCH   1  36
TORSDOF 4
