REMARK  9 active torsions:
REMARK  status: ('A' for Active; 'I' for Inactive)
REMARK    1  A    between atoms: C2_2  and  C4_4 
REMARK    2  A    between atoms: C4_4  and  C5_5 
REMARK    3  A    between atoms: C5_5  and  C6_6 
REMARK       I    between atoms: C6_6  and  N1_8 
REMARK    4  A    between atoms: C9_11  and  C10_12 
REMARK    5  A    between atoms: C10_12  and  N2_13 
REMARK    6  A    between atoms: C13_16  and  N3_17 
REMARK       I    between atoms: N3_17  and  C14_19 
REMARK    7  A    between atoms: C14_19  and  C15_21 
REMARK    8  A    between atoms: C15_21  and  C17_23 
REMARK    9  A    between atoms: C18_24  and  C19_25 
ROOT
HETATM    1  N2  UNL     1       0.445  -0.577  -0.280  1.00  0.00    -0.393 N 
HETATM    2  C11 UNL     1       1.280  -1.746  -0.448  1.00  0.00     0.123 C 
HETATM    3  C12 UNL     1       2.445  -1.601   0.555  1.00  0.00     0.045 C 
HETATM    4  C13 UNL     1       3.098  -0.257   0.396  1.00  0.00     0.087 C 
HETATM    5  C26 UNL     1       2.571   0.467  -0.819  1.00  0.00     0.045 C 
HETATM    6  C27 UNL     1       1.051   0.635  -0.613  1.00  0.00     0.123 C 
ENDROOT
BRANCH   1   7
HETATM    7  C10 UNL     1      -0.646  -0.711   0.543  1.00  0.00     0.062 C 
BRANCH   7   8
HETATM    8  C9  UNL     1      -1.462   0.552   0.782  1.00  0.00     0.027 C 
HETATM    9  C8  UNL     1      -2.593   0.154   1.674  1.00  0.00     0.030 C 
HETATM   10  C7  UNL     1      -3.905   0.857   1.434  1.00  0.00     0.126 C 
HETATM   11  N1  UNL     1      -4.163   0.907   0.044  1.00  0.00    -0.351 N 
HETATM   12  C6  UNL     1      -5.136   0.311  -0.763  1.00  0.00     0.228 C 
HETATM   13  C29 UNL     1      -3.179   1.790  -0.601  1.00  0.00     0.126 C 
HETATM   14  O1  UNL     1      -5.053   0.550  -2.009  1.00  0.00    -0.273 OA
HETATM   15  C28 UNL     1      -1.792   1.198  -0.495  1.00  0.00     0.030 C 
BRANCH  12  16
HETATM   16  C5  UNL     1      -6.264  -0.558  -0.438  1.00  0.00     0.041 C 
HETATM   17  C30 UNL     1      -5.937  -1.735   0.429  1.00  0.00     0.019 C 
HETATM   18  C31 UNL     1      -6.998  -2.746   0.102  1.00  0.00     0.001 C 
HETATM   19  C32 UNL     1      -7.114  -2.646  -1.386  1.00  0.00     0.001 C 
HETATM   20  C33 UNL     1      -6.700  -1.259  -1.711  1.00  0.00     0.019 C 
BRANCH  16  21
HETATM   21  C4  UNL     1      -7.458   0.092   0.164  1.00  0.00     0.023 C 
BRANCH  21  22
HETATM   22  C2  UNL     1      -8.184   1.125  -0.605  1.00  0.00    -0.021 C 
HETATM   23  C1  UNL     1      -9.352   1.548   0.318  1.00  0.00     0.009 C 
HETATM   24  C3  UNL     1      -7.447   2.389  -0.901  1.00  0.00     0.009 C 
ENDBRANCH  21  22
ENDBRANCH  16  21
ENDBRANCH  12  16
ENDBRANCH   7   8
ENDBRANCH   1   7
BRANCH   4  25
HETATM   25  N3  UNL     1       4.501  -0.178   0.571  1.00  0.00    -0.352 N 
HETATM   26  C14 UNL     1       5.501  -1.137   0.300  1.00  0.00     0.248 C 
HETATM   27  O2  UNL     1       5.223  -2.287  -0.199  1.00  0.00    -0.268 OA
ATOM     28  H3  UNL     1       4.841   0.706   0.950  1.00  0.00     0.163 HD
BRANCH  26  29
HETATM   29  C15 UNL     1       6.919  -0.904   0.572  1.00  0.00     0.019 C 
HETATM   30  C16 UNL     1       7.629  -2.025   1.273  1.00  0.00     0.055 C 
BRANCH  29  31
HETATM   31  C17 UNL     1       7.716  -0.046  -0.297  1.00  0.00     0.024 A 
HETATM   32  C18 UNL     1       7.399   0.645  -1.440  1.00  0.00     0.129 A 
HETATM   33  O3  UNL     1       8.445   1.411  -1.781  1.00  0.00    -0.308 OA
HETATM   34  C20 UNL     1       9.402   1.262  -0.949  1.00  0.00     0.087 A 
HETATM   35  C21 UNL     1      10.655   1.891  -0.964  1.00  0.00     0.038 A 
HETATM   36  C25 UNL     1       9.034   0.365   0.016  1.00  0.00     0.011 A 
HETATM   37  C22 UNL     1      11.530   1.585   0.036  1.00  0.00     0.003 A 
HETATM   38  C23 UNL     1      11.203   0.692   1.025  1.00  0.00     0.001 A 
HETATM   39  C24 UNL     1       9.943   0.084   1.005  1.00  0.00     0.015 A 
BRANCH  32  40
HETATM   40  C19 UNL     1       6.187   0.644  -2.260  1.00  0.00     0.411 C 
HETATM   41  F1  UNL     1       5.613   1.932  -2.125  1.00  0.00    -0.207 F 
HETATM   42  F2  UNL     1       6.528   0.613  -3.630  1.00  0.00    -0.207 F 
ENDBRANCH  32  40
ENDBRANCH  29  31
ENDBRANCH  26  29
ENDBRANCH   4  25
TORSDOF 9
