REMARK  12 active torsions:
REMARK  status: ('A' for Active; 'I' for Inactive)
REMARK    1  A    between atoms: C2_2  and  N1_3 
REMARK       I    between atoms: C3_5  and  N2_6 
REMARK       I    between atoms: C3_5  and  N8_31 
REMARK    2  A    between atoms: N2_6  and  C4_8 
REMARK    3  A    between atoms: C4_8  and  C5_9 
REMARK    4  A    between atoms: C5_9  and  C6_10 
REMARK    5  A    between atoms: C6_10  and  N3_11 
REMARK    6  A    between atoms: N3_11  and  C7_13 
REMARK    7  A    between atoms: C8_18  and  C9_19 
REMARK    8  A    between atoms: C9_19  and  C10_20 
REMARK    9  A    between atoms: C15_25  and  C16_26 
REMARK   10  A    between atoms: N8_31  and  S1_33 
REMARK   11  A    between atoms: S1_33  and  C17_36 
REMARK   12  A    between atoms: C22_42  and  O3_43 
ROOT
HETATM    1  C4  UNL     1      -1.502   1.490   1.039  1.00  0.00     0.139 C 
ENDROOT
BRANCH   1   2
HETATM    2  N2  UNL     1      -2.308   1.726  -0.133  1.00  0.00    -0.225 N 
HETATM    3  C3  UNL     1      -3.071   0.644  -0.652  1.00  0.00     0.687 C 
HETATM    4  N1  UNL     1      -3.085   0.405  -1.882  1.00  0.00    -0.205 N 
HETATM    5  N8  UNL     1      -3.802  -0.138   0.275  1.00  0.00    -0.113 N 
ATOM      6  H1  UNL     1      -2.512   1.054  -2.422  1.00  0.00     0.183 HD
ATOM      7  H8  UNL     1      -3.615  -1.137   0.358  1.00  0.00     0.197 HD
ATOM      8  H2  UNL     1      -2.330   2.644  -0.578  1.00  0.00     0.177 HD
BRANCH   4   9
HETATM    9  C2  UNL     1      -3.720  -0.565  -2.680  1.00  0.00     0.074 C 
HETATM   10  C1  UNL     1      -2.834  -1.086  -3.807  1.00  0.00     0.055 C 
ENDBRANCH   4   9
BRANCH   5  11
HETATM   11  S1  UNL     1      -5.009   0.597   1.264  1.00  0.00     0.279 S 
HETATM   12  O1  UNL     1      -4.710   0.364   2.735  1.00  0.00    -0.200 OA
HETATM   13  O2  UNL     1      -4.963   2.091   1.059  1.00  0.00    -0.200 OA
BRANCH  11  14
HETATM   14  C17 UNL     1      -6.556  -0.073   0.837  1.00  0.00     0.114 A 
HETATM   15  C18 UNL     1      -6.706  -1.089  -0.100  1.00  0.00     0.047 A 
HETATM   16  C19 UNL     1      -7.947  -1.603  -0.397  1.00  0.00     0.012 A 
HETATM   17 BR1  UNL     1      -8.106  -2.989  -1.682  1.00  0.00    -0.051 Br
HETATM   18  C20 UNL     1      -9.066  -1.122   0.228  1.00  0.00     0.022 A 
HETATM   19  C21 UNL     1      -8.951  -0.125   1.151  1.00  0.00     0.040 A 
HETATM   20  C22 UNL     1      -7.699   0.387   1.446  1.00  0.00     0.091 A 
BRANCH  20  21
HETATM   21  O3  UNL     1      -7.605   1.386   2.375  1.00  0.00    -0.354 OA
HETATM   22  C23 UNL     1      -8.720   1.931   3.058  1.00  0.00     0.210 C 
ENDBRANCH  20  21
ENDBRANCH  11  14
ENDBRANCH   5  11
ENDBRANCH   1   2
BRANCH   1  23
HETATM   23  C5  UNL     1      -0.366   0.525   0.729  1.00  0.00     0.040 C 
BRANCH  23  24
HETATM   24  C6  UNL     1       0.515   1.093  -0.332  1.00  0.00     0.123 C 
BRANCH  24  25
HETATM   25  N3  UNL     1       1.597   0.218  -0.699  1.00  0.00    -0.374 N 
ATOM     26  H3  UNL     1       1.552  -0.316  -1.567  1.00  0.00     0.161 HD
BRANCH  25  27
HETATM   27  C7  UNL     1       2.620   0.112   0.070  1.00  0.00     0.131 A 
HETATM   28  N4  UNL     1       2.884   0.712   1.236  1.00  0.00    -0.285 N 
HETATM   29  N5  UNL     1       4.039   0.326   1.714  1.00  0.00    -0.302 N 
ATOM     30  H4  UNL     1       2.266   1.383   1.693  1.00  0.00     0.188 HD
HETATM   31  C8  UNL     1       4.617  -0.582   0.849  1.00  0.00     0.043 A 
ATOM     32  H5  UNL     1       4.450   0.647   2.591  1.00  0.00     0.186 HD
HETATM   33  C15 UNL     1       3.732  -0.724  -0.182  1.00  0.00     0.073 A 
BRANCH  31  34
HETATM   34  C9  UNL     1       5.992  -1.120   1.043  1.00  0.00     0.064 C 
BRANCH  34  35
HETATM   35  C10 UNL     1       7.064  -0.198   0.612  1.00  0.00    -0.009 C 
HETATM   36  C11 UNL     1       8.457  -0.796   0.815  1.00  0.00     0.005 C 
HETATM   37  C12 UNL     1       9.313   0.221   0.083  1.00  0.00     0.000 C 
HETATM   38  C13 UNL     1       8.425   0.992  -0.848  1.00  0.00     0.000 C 
HETATM   39  C14 UNL     1       7.117   0.171  -0.826  1.00  0.00     0.005 C 
ENDBRANCH  34  35
ENDBRANCH  31  34
BRANCH  33  40
HETATM   40  C16 UNL     1       3.796  -1.586  -1.335  1.00  0.00     0.126 C 
HETATM   41  N6  UNL     1       2.827  -1.597  -2.190  1.00  0.00    -0.387 N 
ATOM     42  H62 UNL     1       2.068  -0.938  -2.014  1.00  0.00     0.157 HD
ATOM     43  H61 UNL     1       2.872  -2.207  -3.006  1.00  0.00     0.157 HD
HETATM   44  N7  UNL     1       4.841  -2.493  -1.578  1.00  0.00    -0.082 NA
ENDBRANCH  33  40
ENDBRANCH  25  27
ENDBRANCH  24  25
ENDBRANCH  23  24
ENDBRANCH   1  23
TORSDOF 12
