REMARK  3 active torsions:
REMARK  status: ('A' for Active; 'I' for Inactive)
REMARK    1  A    between atoms: C1_2  and  N1_3 
REMARK    2  A    between atoms: N1_3  and  N2_5 
REMARK    3  A    between atoms: C2_7  and  C3_8 
ROOT
HETATM    1  N2  UNL     1       1.494  -1.344   0.395  1.00  0.00    -0.308 N 
ATOM      2  H2  UNL     1       2.028  -2.070   0.873  1.00  0.00     0.186 HD
HETATM    3  C2  UNL     1       0.235  -1.341   0.630  1.00  0.00     0.136 C 
ENDROOT
BRANCH   3   4
HETATM    4  C3  UNL     1      -0.743  -0.431   0.090  1.00  0.00     0.049 A 
HETATM    5  C4  UNL     1      -0.610   0.620  -0.771  1.00  0.00     0.032 A 
HETATM    6  C5  UNL     1      -1.865   1.179  -0.980  1.00  0.00     0.019 A 
HETATM    7  C6  UNL     1      -2.741   0.460  -0.241  1.00  0.00     0.088 A 
HETATM    8  N3  UNL     1      -2.064  -0.503   0.397  1.00  0.00    -0.365 N 
ATOM      9  H3  UNL     1      -2.481  -1.192   1.024  1.00  0.00     0.165 HD
ENDBRANCH   3   4
BRANCH   1  10
HETATM   10  N1  UNL     1       2.223  -0.511  -0.407  1.00  0.00    -0.278 N 
ATOM     11  H1  UNL     1       2.108  -0.602  -1.416  1.00  0.00     0.189 HD
BRANCH  10  12
HETATM   12  C1  UNL     1       3.134   0.477   0.072  1.00  0.00     0.368 C 
HETATM   13  O1  UNL     1       3.276   0.589   1.318  1.00  0.00    -0.282 OA
ENDBRANCH  10  12
ENDBRANCH   1  10
TORSDOF 3
