REMARK  8 active torsions:
REMARK  status: ('A' for Active; 'I' for Inactive)
REMARK    1  A    between atoms: C2_2  and  C3_3 
REMARK    2  A    between atoms: C5_5  and  O1_6 
REMARK    3  A    between atoms: C9_11  and  C10_12 
REMARK    4  A    between atoms: C16_20  and  C18_22 
REMARK    5  A    between atoms: C18_22  and  C19_23 
REMARK    6  A    between atoms: C19_23  and  C20_24 
REMARK    7  A    between atoms: C20_24  and  O2_25 
REMARK    8  A    between atoms: O2_25  and  C21_26 
ROOT
HETATM    1  C3  UNL     1      -3.515   0.361   0.768  1.00  0.00     0.004 C 
HETATM    2  C4  UNL     1      -4.865  -0.075   0.330  1.00  0.00     0.022 C 
HETATM    3  C5  UNL     1      -3.310   1.766   0.242  1.00  0.00     0.130 C 
HETATM    4  C6  UNL     1      -3.786   1.945  -1.167  1.00  0.00     0.033 C 
HETATM    5  C7  UNL     1      -3.194   1.037  -2.182  1.00  0.00     0.004 C 
HETATM    6  C8  UNL     1      -1.887   0.570  -1.724  1.00  0.00     0.016 C 
HETATM    7  C9  UNL     1      -1.835  -0.701  -0.877  1.00  0.00     0.006 C 
HETATM    8  C12 UNL     1      -0.394  -1.146  -0.962  1.00  0.00     0.005 C 
HETATM    9  C13 UNL     1      -0.206  -2.660  -1.044  1.00  0.00     0.007 C 
HETATM   10  C14 UNL     1       1.282  -2.891  -0.883  1.00  0.00     0.021 C 
HETATM   11  C15 UNL     1       2.136  -1.714  -1.344  1.00  0.00     0.090 C 
HETATM   12 CL2  UNL     1       3.775  -2.345  -1.459  1.00  0.00    -0.124 Cl
HETATM   13  C16 UNL     1       1.940  -0.503  -0.519  1.00  0.00    -0.023 C 
HETATM   14  C17 UNL     1       1.848   0.661  -1.523  1.00  0.00     0.017 C 
HETATM   15  C23 UNL     1       0.529  -0.701   0.102  1.00  0.00     0.000 C 
HETATM   16  C24 UNL     1       0.060   0.422   0.923  1.00  0.00     0.006 C 
HETATM   17  C25 UNL     1      -1.281   0.031   1.485  1.00  0.00     0.007 C 
HETATM   18  C26 UNL     1      -2.316  -0.476   0.508  1.00  0.00     0.014 C 
ENDROOT
BRANCH  13  19
HETATM   19  C18 UNL     1       2.909  -0.221   0.541  1.00  0.00     0.013 C 
BRANCH  19  20
HETATM   20  C19 UNL     1       4.330   0.042   0.256  1.00  0.00     0.028 C 
BRANCH  20  21
HETATM   21  C20 UNL     1       4.979   0.329   1.641  1.00  0.00     0.178 C 
BRANCH  21  22
HETATM   22  O2  UNL     1       6.348   0.588   1.535  1.00  0.00    -0.322 OA
BRANCH  22  23
HETATM   23  C21 UNL     1       6.940   1.617   0.852  1.00  0.00     0.254 C 
HETATM   24  C22 UNL     1       8.436   1.777   0.817  1.00  0.00     0.126 C 
HETATM   25  O3  UNL     1       6.249   2.458   0.234  1.00  0.00    -0.266 OA
ENDBRANCH  22  23
ENDBRANCH  21  22
ENDBRANCH  20  21
ENDBRANCH  19  20
ENDBRANCH  13  19
BRANCH   7  26
HETATM   26  C10 UNL     1      -2.569  -1.726  -1.659  1.00  0.00     0.012 C 
HETATM   27  C11 UNL     1      -3.374  -2.674  -1.253  1.00  0.00     0.033 C 
HETATM   28 CL1  UNL     1      -2.274  -1.710  -3.421  1.00  0.00    -0.089 Cl
ENDBRANCH   7  26
BRANCH   1  29
HETATM   29  C2  UNL     1      -3.673   0.338   2.262  1.00  0.00    -0.025 C 
HETATM   30  C1  UNL     1      -4.588   0.957   2.952  1.00  0.00     0.008 C 
ENDBRANCH   1  29
BRANCH   3  31
HETATM   31  O1  UNL     1      -3.945   2.757   0.983  1.00  0.00    -0.394 OA
ATOM     32  H1  UNL     1      -3.816   3.639   0.653  1.00  0.00     0.210 HD
ENDBRANCH   3  31
TORSDOF 8
