REMARK  19 active torsions:
REMARK  status: ('A' for Active; 'I' for Inactive)
REMARK    1  A    between atoms: C2_2  and  C3_3 
REMARK    2  A    between atoms: C3_3  and  C4_4 
REMARK    3  A    between atoms: C4_4  and  C5_5 
REMARK    4  A    between atoms: C5_5  and  C6_6 
REMARK    5  A    between atoms: C7_7  and  C8_8 
REMARK    6  A    between atoms: C8_8  and  C9_9 
REMARK    7  A    between atoms: C10_10  and  C11_11 
REMARK    8  A    between atoms: C11_11  and  C12_12 
REMARK    9  A    between atoms: C13_13  and  C14_14 
REMARK   10  A    between atoms: C14_14  and  C15_15 
REMARK   11  A    between atoms: C16_16  and  C17_17 
REMARK   12  A    between atoms: C17_17  and  C18_18 
REMARK   13  A    between atoms: C19_19  and  C20_20 
REMARK   14  A    between atoms: C20_20  and  C21_21 
REMARK   15  A    between atoms: C22_22  and  C23_23 
REMARK   16  A    between atoms: C23_23  and  C24_24 
REMARK   17  A    between atoms: C24_24  and  C25_25 
REMARK   18  A    between atoms: N1_26  and  C26_28 
REMARK   19  A    between atoms: C26_28  and  C27_29 
ROOT
HETATM    1  C17 UNL     1       1.969   0.462   1.681  1.00  0.00     0.053 C 
ENDROOT
BRANCH   1   2
HETATM    2  C16 UNL     1       1.124  -0.791   1.696  1.00  0.00    -0.027 C 
HETATM    3  C15 UNL     1      -0.158  -0.744   2.028  1.00  0.00    -0.027 C 
BRANCH   3   4
HETATM    4  C14 UNL     1      -0.966  -1.980   2.035  1.00  0.00     0.053 C 
BRANCH   4   5
HETATM    5  C13 UNL     1      -2.083  -1.845   1.080  1.00  0.00    -0.027 C 
HETATM    6  C12 UNL     1      -2.239  -0.755   0.379  1.00  0.00    -0.027 C 
BRANCH   6   7
HETATM    7  C11 UNL     1      -3.351  -0.557  -0.606  1.00  0.00     0.053 C 
BRANCH   7   8
HETATM    8  C10 UNL     1      -4.115   0.603  -0.152  1.00  0.00    -0.027 C 
HETATM    9  C9  UNL     1      -5.368   0.595   0.168  1.00  0.00    -0.027 C 
BRANCH   9  10
HETATM   10  C8  UNL     1      -6.231  -0.616   0.120  1.00  0.00     0.053 C 
BRANCH  10  11
HETATM   11  C7  UNL     1      -6.731  -0.841   1.488  1.00  0.00    -0.027 C 
HETATM   12  C6  UNL     1      -7.982  -0.855   1.801  1.00  0.00    -0.030 C 
BRANCH  12  13
HETATM   13  C5  UNL     1      -9.090  -0.653   0.850  1.00  0.00     0.027 C 
BRANCH  13  14
HETATM   14  C4  UNL     1      -9.920   0.557   1.222  1.00  0.00     0.004 C 
BRANCH  14  15
HETATM   15  C3  UNL     1     -11.073   0.817   0.297  1.00  0.00    -0.000 C 
BRANCH  15  16
HETATM   16  C2  UNL     1     -10.564   1.061  -1.087  1.00  0.00    -0.005 C 
HETATM   17  C1  UNL     1      -9.638   2.254  -1.073  1.00  0.00     0.005 C 
ENDBRANCH  15  16
ENDBRANCH  14  15
ENDBRANCH  13  14
ENDBRANCH  12  13
ENDBRANCH  10  11
ENDBRANCH   9  10
ENDBRANCH   7   8
ENDBRANCH   6   7
ENDBRANCH   4   5
ENDBRANCH   3   4
ENDBRANCH   1   2
BRANCH   1  18
HETATM   18  C18 UNL     1       2.486   0.654   0.328  1.00  0.00    -0.027 C 
HETATM   19  C19 UNL     1       3.748   0.694  -0.003  1.00  0.00    -0.027 C 
BRANCH  19  20
HETATM   20  C20 UNL     1       4.848   0.552   0.947  1.00  0.00     0.053 C 
BRANCH  20  21
HETATM   21  C21 UNL     1       5.738  -0.570   0.767  1.00  0.00    -0.027 C 
HETATM   22  C22 UNL     1       5.761  -1.524  -0.076  1.00  0.00    -0.030 C 
BRANCH  22  23
HETATM   23  C23 UNL     1       4.924  -1.913  -1.210  1.00  0.00     0.032 C 
BRANCH  23  24
HETATM   24  C24 UNL     1       5.787  -1.924  -2.481  1.00  0.00     0.048 C 
BRANCH  24  25
HETATM   25  C25 UNL     1       6.322  -0.548  -2.654  1.00  0.00     0.056 C 
HETATM   26  N1  UNL     1       7.474  -0.254  -2.141  1.00  0.00    -0.398 N 
ATOM     27  H1  UNL     1       7.984  -0.976  -1.632  1.00  0.00     0.158 HD
BRANCH  26  28
HETATM   28  C26 UNL     1       8.055   1.043  -2.263  1.00  0.00     0.157 C 
BRANCH  28  29
HETATM   29  C27 UNL     1       9.241   1.108  -1.384  1.00  0.00    -0.041 A 
HETATM   30  C28 UNL     1       9.146   1.527  -0.086  1.00  0.00     0.009 A 
HETATM   31  C29 UNL     1      10.295   1.573   0.709  1.00  0.00     0.001 A 
HETATM   32  C30 UNL     1      11.513   1.203   0.201  1.00  0.00     0.000 A 
HETATM   33  C31 UNL     1      11.594   0.784  -1.104  1.00  0.00     0.001 A 
HETATM   34  C32 UNL     1      10.463   0.740  -1.883  1.00  0.00     0.009 A 
ENDBRANCH  28  29
ENDBRANCH  26  28
ENDBRANCH  24  25
ENDBRANCH  23  24
ENDBRANCH  22  23
ENDBRANCH  20  21
ENDBRANCH  19  20
ENDBRANCH   1  18
TORSDOF 19
