REMARK  9 active torsions:
REMARK  status: ('A' for Active; 'I' for Inactive)
REMARK    1  A    between atoms: C2_2  and  S1_3 
REMARK    2  A    between atoms: S1_3  and  C3_4 
REMARK    3  A    between atoms: N4_9  and  C4_10 
REMARK    4  A    between atoms: C4_10  and  N5_11 
REMARK    5  A    between atoms: C6_13  and  C7_14 
REMARK    6  A    between atoms: C7_14  and  O1_15 
REMARK    7  A    between atoms: C8_18  and  N6_19 
REMARK    8  A    between atoms: C9_22  and  N8_23 
REMARK       I    between atoms: N8_23  and  C10_24 
REMARK       I    between atoms: C10_24  and  N9_25 
REMARK       I    between atoms: C10_24  and  N10_29 
REMARK    9  A    between atoms: C12_34  and  N11_35 
ROOT
HETATM    1  N6  UNL     1       1.656  -0.537  -0.341  1.00  0.00    -0.242 N 
HETATM    2  N7  UNL     1       1.979   0.549  -0.961  1.00  0.00    -0.267 N 
ATOM      3  H7  UNL     1       1.372   1.020  -1.633  1.00  0.00     0.190 HD
HETATM    4  C9  UNL     1       3.233   1.001  -0.615  1.00  0.00     0.210 A 
HETATM    5  C11 UNL     1       3.687   0.057   0.312  1.00  0.00     0.112 A 
HETATM    6  C12 UNL     1       4.873  -0.072   1.037  1.00  0.00     0.118 A 
HETATM    7  N12 UNL     1       5.009  -1.151   1.888  1.00  0.00    -0.338 N 
ATOM      8  H12 UNL     1       5.864  -1.272   2.431  1.00  0.00     0.168 HD
HETATM    9  C13 UNL     1       4.013  -2.035   1.995  1.00  0.00     0.183 A 
HETATM   10  N13 UNL     1       2.875  -1.916   1.302  1.00  0.00    -0.336 N 
ATOM     11  H13 UNL     1       2.138  -2.613   1.410  1.00  0.00     0.168 HD
HETATM   12  C14 UNL     1       2.698  -0.867   0.454  1.00  0.00     0.144 A 
ENDROOT
BRANCH   1  13
HETATM   13  C8  UNL     1       0.420  -1.318  -0.418  1.00  0.00     0.274 C 
HETATM   14  O2  UNL     1       0.381  -2.232   0.596  1.00  0.00    -0.354 OA
HETATM   15  C6  UNL     1      -0.358  -1.899   1.704  1.00  0.00     0.176 C 
HETATM   16  C5  UNL     1      -1.759  -1.443   1.445  1.00  0.00     0.308 C 
HETATM   17  N5  UNL     1      -1.946  -1.368  -0.011  1.00  0.00     0.114 N 
HETATM   18  C15 UNL     1      -0.820  -0.479  -0.425  1.00  0.00     0.330 C 
BRANCH  15  19
HETATM   19  C7  UNL     1      -0.480  -3.201   2.534  1.00  0.00     0.197 C 
BRANCH  19  20
HETATM   20  O1  UNL     1      -1.229  -2.907   3.646  1.00  0.00    -0.398 OA
ATOM     21  H1  UNL     1      -1.304  -3.706   4.155  1.00  0.00     0.209 HD
ENDBRANCH  19  20
ENDBRANCH  15  19
BRANCH  17  22
HETATM   22  C4  UNL     1      -3.195  -0.611  -0.229  1.00  0.00     0.420 C 
BRANCH  22  23
HETATM   23  N4  UNL     1      -3.547  -0.664  -1.626  1.00  0.00    -0.227 N 
HETATM   24  C3  UNL     1      -4.600   0.012  -2.294  1.00  0.00     0.173 C 
HETATM   25  N1  UNL     1      -4.717  -0.546  -3.482  1.00  0.00    -0.264 N 
HETATM   26  N2  UNL     1      -3.795  -1.549  -3.620  1.00  0.00    -0.007 NA
ATOM     27  H1  UNL     1      -5.394  -0.271  -4.194  1.00  0.00     0.186 HD
HETATM   28  N3  UNL     1      -2.862  -1.439  -2.611  1.00  0.00    -0.003 NA
BRANCH  24  29
HETATM   29  S1  UNL     1      -5.612   1.349  -1.713  1.00  0.00    -0.092 SA
BRANCH  29  30
HETATM   30  C2  UNL     1      -5.886   1.410   0.050  1.00  0.00     0.078 C 
HETATM   31  C1  UNL     1      -6.516   2.786   0.343  1.00  0.00     0.016 C 
ENDBRANCH  29  30
ENDBRANCH  24  29
ENDBRANCH  22  23
ENDBRANCH  17  22
ENDBRANCH   1  13
BRANCH   4  32
HETATM   32  N8  UNL     1       3.787   1.984  -1.057  1.00  0.00    -0.369 NA
HETATM   33  C10 UNL     1       4.400   3.059  -1.535  1.00  0.00     0.556 C 
HETATM   34  N9  UNL     1       4.678   4.139  -0.565  1.00  0.00    -0.021 N 
HETATM   35  N10 UNL     1       5.692   2.866  -2.221  1.00  0.00    -0.021 N 
ATOM     36  H93 UNL     1       3.814   4.414  -0.099  1.00  0.00     0.280 HD
ATOM     37  H92 UNL     1       5.204   3.765   0.225  1.00  0.00     0.280 HD
ATOM     38  H91 UNL     1       5.149   4.966  -0.933  1.00  0.00     0.280 HD
ATOM     39 3H10 UNL     1       6.329   2.364  -1.602  1.00  0.00     0.280 HD
ATOM     40 2H10 UNL     1       5.575   2.185  -2.971  1.00  0.00     0.280 HD
ATOM     41 1H10 UNL     1       6.163   3.693  -2.589  1.00  0.00     0.280 HD
ENDBRANCH   4  32
BRANCH   6  42
HETATM   42  N11 UNL     1       5.817   0.752   0.965  1.00  0.00    -0.385 N 
ATOM     43 2H11 UNL     1       5.717   1.549   0.336  1.00  0.00     0.157 HD
ATOM     44 1H11 UNL     1       6.684   0.658   1.495  1.00  0.00     0.157 HD
ENDBRANCH   6  42
TORSDOF 9
