REMARK  8 active torsions:
REMARK  status: ('A' for Active; 'I' for Inactive)
REMARK    1  A    between atoms: C5_5  and  S1_6 
REMARK    2  A    between atoms: S1_6  and  N1_9 
REMARK    3  A    between atoms: N1_9  and  C6_11 
REMARK    4  A    between atoms: C9_16  and  N3_17 
REMARK    5  A    between atoms: N3_17  and  C10_19 
REMARK    6  A    between atoms: C10_19  and  C12_21 
REMARK    7  A    between atoms: C12_21  and  O3_22 
REMARK    8  A    between atoms: C12_21  and  C13_24 
ROOT
HETATM    1  C6  UNL     1       0.781   1.537   0.210  1.00  0.00     0.131 A 
HETATM    2  C7  UNL     1       0.651   2.890   0.349  1.00  0.00     0.067 A 
HETATM    3  C8  UNL     1      -0.650   3.372   0.546  1.00  0.00     0.110 A 
HETATM    4  N2  UNL     1      -1.683   2.528   0.591  1.00  0.00    -0.202 N 
ATOM      5  H2  UNL     1      -2.617   2.912   0.737  1.00  0.00     0.183 HD
HETATM    6  C9  UNL     1      -1.551   1.171   0.451  1.00  0.00     0.679 A 
HETATM    7  N4  UNL     1      -0.304   0.718   0.263  1.00  0.00    -0.176 N 
ATOM      8  H4  UNL     1      -0.162  -0.286   0.155  1.00  0.00     0.186 HD
ENDROOT
BRANCH   6   9
HETATM    9  N3  UNL     1      -2.613   0.451   0.511  1.00  0.00    -0.219 N 
ATOM     10  H3  UNL     1      -3.521   0.893   0.659  1.00  0.00     0.178 HD
BRANCH   9  11
HETATM   11  C10 UNL     1      -2.523  -0.978   0.370  1.00  0.00     0.128 C 
HETATM   12  C11 UNL     1      -2.262  -1.415  -1.060  1.00  0.00     0.036 C 
BRANCH  11  13
HETATM   13  C12 UNL     1      -3.757  -1.666   0.930  1.00  0.00     0.174 C 
BRANCH  13  14
HETATM   14  O3  UNL     1      -3.815  -1.311   2.289  1.00  0.00    -0.389 OA
ATOM     15  H3  UNL     1      -4.586  -1.741   2.639  1.00  0.00     0.210 HD
ENDBRANCH  13  14
BRANCH  13  16
HETATM   16  C13 UNL     1      -4.990  -1.264   0.232  1.00  0.00    -0.025 A 
HETATM   17  C14 UNL     1      -5.611  -2.148  -0.642  1.00  0.00     0.010 A 
HETATM   18  C15 UNL     1      -6.753  -1.818  -1.309  1.00  0.00     0.004 A 
HETATM   19  C16 UNL     1      -7.338  -0.592  -1.143  1.00  0.00     0.042 A 
HETATM   20  C17 UNL     1      -6.729   0.309  -0.270  1.00  0.00     0.117 A 
HETATM   21  F1  UNL     1      -7.333   1.516  -0.127  1.00  0.00    -0.206 F 
HETATM   22  C18 UNL     1      -5.571  -0.037   0.401  1.00  0.00     0.052 A 
ENDBRANCH  13  16
ENDBRANCH  11  13
ENDBRANCH   9  11
ENDBRANCH   6   9
BRANCH   1  23
HETATM   23  N1  UNL     1       1.925   1.008   0.027  1.00  0.00    -0.265 N 
ATOM     24  H1  UNL     1       1.986  -0.005  -0.073  1.00  0.00     0.180 HD
BRANCH  23  25
HETATM   25  S1  UNL     1       3.355   1.923  -0.057  1.00  0.00     0.264 S 
HETATM   26  O1  UNL     1       3.528   2.656   1.256  1.00  0.00    -0.200 OA
HETATM   27  O2  UNL     1       3.322   2.965  -1.155  1.00  0.00    -0.200 OA
BRANCH  25  28
HETATM   28  C5  UNL     1       4.771   0.895  -0.264  1.00  0.00     0.079 A 
HETATM   29  C4  UNL     1       5.260   0.529  -1.479  1.00  0.00     0.026 A 
HETATM   30  C3  UNL     1       6.381  -0.283  -1.556  1.00  0.00     0.008 A 
HETATM   31  C2  UNL     1       7.042  -0.750  -0.433  1.00  0.00    -0.062 A 
HETATM   32  C1  UNL     1       8.254  -1.629  -0.549  1.00  0.00     0.048 C 
HETATM   33  C20 UNL     1       6.542  -0.375   0.795  1.00  0.00     0.008 A 
HETATM   34  C19 UNL     1       5.427   0.432   0.869  1.00  0.00     0.026 A 
ENDBRANCH  25  28
ENDBRANCH  23  25
ENDBRANCH   1  23
TORSDOF 8
