REMARK  4 active torsions:
REMARK  status: ('A' for Active; 'I' for Inactive)
REMARK    1  A    between atoms: N1_1  and  C1_4 
REMARK    2  A    between atoms: C2_9  and  C3_10 
REMARK    3  A    between atoms: C3_10  and  O1_11 
REMARK    4  A    between atoms: O1_11  and  C4_12 
ROOT
HETATM    1  C1  UNL     1      -3.400   0.473   0.622  1.00  0.00     0.164 A 
HETATM    2  N2  UNL     1      -2.811   1.279  -0.269  1.00  0.00    -0.282 N 
ATOM      3  H2  UNL     1      -3.230   2.187  -0.468  1.00  0.00     0.188 HD
HETATM    4  N3  UNL     1      -1.694   0.931  -0.904  1.00  0.00    -0.301 N 
ATOM      5  H3  UNL     1      -1.284   1.582  -1.573  1.00  0.00     0.186 HD
HETATM    6  C2  UNL     1      -1.090  -0.247  -0.693  1.00  0.00     0.054 A 
HETATM    7  C6  UNL     1      -1.664  -1.107   0.216  1.00  0.00     0.087 A 
HETATM    8  C7  UNL     1      -2.816  -0.750   0.872  1.00  0.00     0.218 A 
HETATM    9  O3  UNL     1      -3.373  -1.514   1.715  1.00  0.00    -0.284 OA
ENDROOT
BRANCH   6  10
HETATM   10  C3  UNL     1       0.184  -0.626  -1.426  1.00  0.00     0.237 C 
BRANCH  10  11
HETATM   11  O1  UNL     1       1.280  -0.382  -0.812  1.00  0.00    -0.315 OA
BRANCH  11  12
HETATM   12  C4  UNL     1       2.386  -0.137  -0.192  1.00  0.00     0.242 A 
HETATM   13  N4  UNL     1       2.854   1.083   0.243  1.00  0.00    -0.272 N 
HETATM   14  C5  UNL     1       4.023   0.945   0.836  1.00  0.00     0.342 A 
ATOM     15  H4  UNL     1       2.364   1.970   0.123  1.00  0.00     0.174 HD
HETATM   16  O2  UNL     1       4.782   1.808   1.369  1.00  0.00    -0.245 OA
HETATM   17  N5  UNL     1       4.342  -0.354   0.802  1.00  0.00    -0.248 N 
HETATM   18  N6  UNL     1       3.384  -1.003   0.198  1.00  0.00    -0.261 N 
ATOM     19  H5  UNL     1       5.192  -0.768   1.184  1.00  0.00     0.192 HD
ATOM     20  H6  UNL     1       3.375  -2.010   0.037  1.00  0.00     0.190 HD
ENDBRANCH  11  12
ENDBRANCH  10  11
ENDBRANCH   6  10
BRANCH   1  21
HETATM   21  N1  UNL     1      -4.468   0.843   1.209  1.00  0.00    -0.381 N 
ATOM     22  H12 UNL     1      -4.900   1.748   1.024  1.00  0.00     0.157 HD
ATOM     23  H11 UNL     1      -4.917   0.229   1.888  1.00  0.00     0.157 HD
ENDBRANCH   1  21
TORSDOF 4
