REMARK  1 active torsions:
REMARK  status: ('A' for Active; 'I' for Inactive)
REMARK    1  A    between atoms: C1_2  and  C2_4 
ROOT
HETATM    1  C2  UNL     1       0.113   0.103   0.175  1.00  0.00     0.107 C 
HETATM    2  C3  UNL     1      -0.781  -1.112   0.019  1.00  0.00     0.102 C 
HETATM    3  S1  UNL     1      -1.942  -0.838   1.430  1.00  0.00    -0.097 SA
HETATM    4  S2  UNL     1      -1.917   1.320   1.220  1.00  0.00    -0.097 SA
HETATM    5  C4  UNL     1      -0.742   1.298  -0.200  1.00  0.00     0.102 C 
ENDROOT
BRANCH   1   6
HETATM    6  C1  UNL     1       1.355   0.019  -0.573  1.00  0.00     0.178 C 
HETATM    7  O1  UNL     1       1.634   0.859  -1.449  1.00  0.00    -0.648 OA
HETATM    8  O2  UNL     1       2.246  -0.998  -0.321  1.00  0.00    -0.648 OA
ENDBRANCH   1   6
TORSDOF 1
