REMARK  3 active torsions:
REMARK  status: ('A' for Active; 'I' for Inactive)
REMARK    1  A    between atoms: N1_1  and  C1_4 
REMARK    2  A    between atoms: C4_9  and  C5_10 
REMARK    3  A    between atoms: C12_20  and  C13_21 
ROOT
HETATM    1  C5  UNL     1      -1.282  -0.386   0.681  1.00  0.00    -0.016 A 
HETATM    2  C6  UNL     1      -1.574   0.882   0.513  1.00  0.00     0.001 A 
HETATM    3  C7  UNL     1      -2.815   1.178  -0.068  1.00  0.00     0.041 A 
HETATM    4  C8  UNL     1      -3.137   2.510  -0.253  1.00  0.00     0.047 A 
HETATM    5  N3  UNL     1      -4.395   2.789  -0.841  1.00  0.00    -0.102 NA
HETATM    6  C9  UNL     1      -2.275   3.514   0.118  1.00  0.00     0.029 A 
HETATM    7  C10 UNL     1      -1.047   3.220   0.693  1.00  0.00     0.032 A 
HETATM    8  C11 UNL     1      -0.721   1.903   0.879  1.00  0.00     0.039 A 
HETATM    9  N4  UNL     1       0.386   1.566   1.401  1.00  0.00    -0.378 N 
ATOM     10  H4  UNL     1       1.003   2.335   1.664  1.00  0.00     0.160 HD
HETATM   11  C12 UNL     1       0.881   0.261   1.668  1.00  0.00     0.143 A 
HETATM   12  C21 UNL     1      -0.017  -0.826   1.275  1.00  0.00     0.073 A 
ENDROOT
BRANCH   1  13
HETATM   13  C4  UNL     1      -2.288  -1.393   0.243  1.00  0.00     0.057 A 
HETATM   14  C3  UNL     1      -3.237  -1.888   1.111  1.00  0.00     0.048 A 
HETATM   15  C2  UNL     1      -4.171  -2.819   0.712  1.00  0.00     0.108 A 
HETATM   16  N2  UNL     1      -4.121  -3.230  -0.567  1.00  0.00    -0.202 N 
HETATM   17  C1  UNL     1      -3.189  -2.746  -1.423  1.00  0.00     0.676 A 
ATOM     18  H2  UNL     1      -4.797  -3.918  -0.899  1.00  0.00     0.183 HD
HETATM   19  N5  UNL     1      -2.286  -1.839  -1.018  1.00  0.00    -0.192 N 
ATOM     20  H5  UNL     1      -1.592  -1.487  -1.678  1.00  0.00     0.184 HD
BRANCH  17  21
HETATM   21  N1  UNL     1      -3.195  -3.175  -2.620  1.00  0.00    -0.234 N 
ATOM     22  H12 UNL     1      -3.881  -3.864  -2.928  1.00  0.00     0.174 HD
ATOM     23  H11 UNL     1      -2.493  -2.811  -3.264  1.00  0.00     0.174 HD
ENDBRANCH  17  21
ENDBRANCH   1  13
BRANCH  11  24
HETATM   24  C13 UNL     1       2.216   0.104   0.976  1.00  0.00     0.077 A 
HETATM   25  C14 UNL     1       2.530   0.493  -0.322  1.00  0.00     0.049 A 
HETATM   26  C15 UNL     1       3.851   0.161  -0.538  1.00  0.00     0.000 A 
HETATM   27  C16 UNL     1       4.735   0.279  -1.590  1.00  0.00     0.014 A 
HETATM   28  C20 UNL     1       4.287  -0.416   0.638  1.00  0.00     0.086 A 
HETATM   29  C17 UNL     1       6.041  -0.162  -1.500  1.00  0.00     0.001 A 
HETATM   30  C18 UNL     1       6.479  -0.741  -0.321  1.00  0.00     0.003 A 
HETATM   31  C19 UNL     1       5.605  -0.856   0.714  1.00  0.00     0.038 A 
HETATM   32  O1  UNL     1       3.284  -0.422   1.490  1.00  0.00    -0.312 OA
ENDBRANCH  11  24
TORSDOF 3
