REMARK  5 active torsions:
REMARK  status: ('A' for Active; 'I' for Inactive)
REMARK    1  A    between atoms: N1_1  and  N2_4 
REMARK    2  A    between atoms: N2_4  and  C1_6 
REMARK    3  A    between atoms: C2_9  and  N4_10 
REMARK    4  A    between atoms: C7_21  and  N7_22 
REMARK    5  A    between atoms: N7_22  and  C8_24 
ROOT
HETATM    1  C1  UNL     1       0.936   1.924  -0.114  1.00  0.00     0.725 A 
HETATM    2  N3  UNL     1      -0.364   1.589  -0.123  1.00  0.00    -0.020 N 
ATOM      3  H3  UNL     1      -1.058   2.320  -0.280  1.00  0.00     0.203 HD
HETATM    4  C2  UNL     1      -0.784   0.328   0.067  1.00  0.00     0.711 A 
HETATM    5  N6  UNL     1       0.166  -0.602   0.269  1.00  0.00    -0.021 N 
ATOM      6  H6  UNL     1      -0.130  -1.567   0.415  1.00  0.00     0.203 HD
HETATM    7  C7  UNL     1       1.478  -0.336   0.290  1.00  0.00     0.707 A 
HETATM    8  N8  UNL     1       1.860   0.940   0.096  1.00  0.00    -0.020 N 
ATOM      9  H8  UNL     1       2.852   1.175   0.106  1.00  0.00     0.203 HD
ENDROOT
BRANCH   4  10
HETATM   10  N4  UNL     1      -2.181  -0.022   0.056  1.00  0.00    -0.182 N 
HETATM   11  C3  UNL     1      -3.217   0.935  -0.154  1.00  0.00     0.172 C 
HETATM   12  C4  UNL     1      -4.457   0.179  -0.611  1.00  0.00     0.253 C 
HETATM   13  N5  UNL     1      -4.877  -0.822   0.320  1.00  0.00    -0.069 N 
HETATM   14  C5  UNL     1      -3.817  -1.418   1.077  1.00  0.00     0.291 C 
ATOM     15  H52 UNL     1      -5.591  -0.447   0.945  1.00  0.00     0.277 HD
ATOM     16  H51 UNL     1      -5.420  -1.542  -0.156  1.00  0.00     0.277 HD
HETATM   17  C6  UNL     1      -2.538  -1.410   0.268  1.00  0.00     0.314 C 
HETATM   18  F1  UNL     1      -2.693  -2.085  -0.931  1.00  0.00    -0.224 F 
ENDBRANCH   4  10
BRANCH   1  19
HETATM   19  N2  UNL     1       1.338   3.137  -0.297  1.00  0.00    -0.138 N 
ATOM     20  H2  UNL     1       0.654   3.877  -0.455  1.00  0.00     0.205 HD
BRANCH  19  21
HETATM   21  N1  UNL     1       2.695   3.446  -0.281  1.00  0.00    -0.331 N 
ATOM     22  H12 UNL     1       3.366   2.694  -0.122  1.00  0.00     0.177 HD
ATOM     23  H11 UNL     1       3.013   4.404  -0.426  1.00  0.00     0.177 HD
ENDBRANCH  19  21
ENDBRANCH   1  19
BRANCH   7  24
HETATM   24  N7  UNL     1       2.375  -1.250   0.488  1.00  0.00    -0.220 N 
ATOM     25  H7  UNL     1       2.059  -2.209   0.632  1.00  0.00     0.178 HD
BRANCH  24  26
HETATM   26  C8  UNL     1       3.779  -0.994   0.516  1.00  0.00     0.099 A 
HETATM   27  C9  UNL     1       4.698  -2.206   0.454  1.00  0.00     0.028 A 
HETATM   28  C10 UNL     1       4.559  -1.286  -0.710  1.00  0.00     0.028 A 
ENDBRANCH  24  26
ENDBRANCH   7  24
TORSDOF 5
