REMARK  5 active torsions:
REMARK  status: ('A' for Active; 'I' for Inactive)
REMARK    1  A    between atoms: N1_1  and  C1_4 
REMARK    2  A    between atoms: N4_13  and  C4_14 
REMARK    3  A    between atoms: C4_14  and  C5_15 
REMARK    4  A    between atoms: C6_16  and  C7_17 
REMARK    5  A    between atoms: C7_17  and  N5_18 
ROOT
HETATM    1  C1  UNL     1       3.089  -0.403  -0.749  1.00  0.00     0.186 A 
HETATM    2  C2  UNL     1       4.231   0.342  -1.062  1.00  0.00     0.294 A 
HETATM    3  O1  UNL     1       4.652   0.411  -2.242  1.00  0.00    -0.264 OA
HETATM    4  N2  UNL     1       4.860   0.977  -0.070  1.00  0.00    -0.271 N 
ATOM      5  H2  UNL     1       5.695   1.526  -0.273  1.00  0.00     0.174 HD
HETATM    6  C3  UNL     1       4.411   0.902   1.182  1.00  0.00     0.342 A 
HETATM    7  O2  UNL     1       4.956   1.475   2.157  1.00  0.00    -0.245 OA
HETATM    8  N3  UNL     1       3.301   0.171   1.448  1.00  0.00    -0.247 N 
ATOM      9  H3  UNL     1       2.965   0.121   2.410  1.00  0.00     0.192 HD
HETATM   10  N4  UNL     1       2.641  -0.476   0.512  1.00  0.00    -0.257 N 
ENDROOT
BRANCH  10  11
HETATM   11  C4  UNL     1       1.471  -1.236   0.846  1.00  0.00     0.245 C 
BRANCH  11  12
HETATM   12  C5  UNL     1       0.244  -0.441   0.773  1.00  0.00    -0.079 C 
HETATM   13  C6  UNL     1      -0.766   0.220   0.735  1.00  0.00    -0.060 C 
BRANCH  13  14
HETATM   14  C7  UNL     1      -2.003   1.034   0.715  1.00  0.00     0.155 C 
BRANCH  14  15
HETATM   15  N5  UNL     1      -3.083   0.258   0.370  1.00  0.00    -0.353 N 
HETATM   16  C8  UNL     1      -3.249  -0.279  -0.890  1.00  0.00     0.139 C 
HETATM   17  C9  UNL     1      -4.697  -0.042  -1.346  1.00  0.00     0.100 C 
HETATM   18  S1  UNL     1      -5.531  -0.321   0.273  1.00  0.00    -0.123 SA
HETATM   19  C10 UNL     1      -4.018  -0.179   1.315  1.00  0.00     0.136 C 
ENDBRANCH  14  15
ENDBRANCH  13  14
ENDBRANCH  11  12
ENDBRANCH  10  11
BRANCH   1  20
HETATM   20  N1  UNL     1       2.451  -1.033  -1.674  1.00  0.00    -0.380 N 
ATOM     21  H12 UNL     1       2.792  -0.977  -2.634  1.00  0.00     0.158 HD
ATOM     22  H11 UNL     1       1.618  -1.576  -1.446  1.00  0.00     0.158 HD
ENDBRANCH   1  20
TORSDOF 5
