REMARK  5 active torsions:
REMARK  status: ('A' for Active; 'I' for Inactive)
REMARK    1  A    between atoms: C2_2  and  O1_3 
REMARK    2  A    between atoms: C2_2  and  N1_5 
REMARK    3  A    between atoms: C4_10  and  N3_11 
REMARK    4  A    between atoms: C5_16  and  N5_17 
REMARK    5  A    between atoms: N5_17  and  N7_20 
ROOT
HETATM    1  N5  UNL     1      -3.073   0.144   0.131  1.00  0.00    -0.006 N 
HETATM    2  C6  UNL     1      -4.137  -0.463  -0.537  1.00  0.00     0.221 C 
HETATM    3  N6  UNL     1      -5.039  -0.956  -1.101  1.00  0.00    -0.169 NA
ENDROOT
BRANCH   1   4
HETATM    4  C5  UNL     1      -1.790  -0.466   0.139  1.00  0.00     0.731 C 
HETATM    5  N4  UNL     1      -1.670  -1.640  -0.523  1.00  0.00    -0.020 N 
HETATM    6  C4  UNL     1      -0.569  -2.367  -0.814  1.00  0.00     0.692 C 
ATOM      7  H4  UNL     1      -2.548  -2.039  -0.854  1.00  0.00     0.203 HD
HETATM    8  N2  UNL     1       0.689  -2.056  -0.468  1.00  0.00    -0.171 N 
HETATM    9  C3  UNL     1       1.210  -0.935   0.137  1.00  0.00     0.188 C 
ATOM     10  H2  UNL     1       1.378  -2.774  -0.692  1.00  0.00     0.186 HD
HETATM   11  N1  UNL     1       2.398  -0.657  -0.086  1.00  0.00    -0.345 N 
HETATM   12  C8  UNL     1       0.499  -0.107   0.977  1.00  0.00     0.304 C 
ATOM     13  H1  UNL     1       2.828  -1.337  -0.713  1.00  0.00     0.163 HD
HETATM   14  N9  UNL     1      -0.826   0.192   0.808  1.00  0.00    -0.150 N 
HETATM   15  O2  UNL     1       1.078   0.407   1.953  1.00  0.00    -0.263 OA
ATOM     16  H9  UNL     1      -1.132   1.052   1.263  1.00  0.00     0.188 HD
BRANCH   6  17
HETATM   17  N3  UNL     1      -0.754  -3.465  -1.489  1.00  0.00    -0.234 N 
ATOM     18  H32 UNL     1       0.077  -4.014  -1.709  1.00  0.00     0.174 HD
ATOM     19  H31 UNL     1      -1.711  -3.702  -1.752  1.00  0.00     0.174 HD
ENDBRANCH   6  17
BRANCH  11  20
HETATM   20  C2  UNL     1       3.306   0.334   0.289  1.00  0.00     0.215 C 
HETATM   21  C1  UNL     1       2.945   1.737  -0.115  1.00  0.00     0.063 C 
BRANCH  20  22
HETATM   22  O1  UNL     1       4.615   0.100  -0.177  1.00  0.00    -0.377 OA
ATOM     23  H1  UNL     1       4.843  -0.786   0.078  1.00  0.00     0.212 HD
ENDBRANCH  20  22
ENDBRANCH  11  20
ENDBRANCH   1   4
BRANCH   1  24
HETATM   24  N7  UNL     1      -3.281   1.358   0.791  1.00  0.00    -0.206 N 
HETATM   25  C7  UNL     1      -3.685   2.523   0.153  1.00  0.00     0.199 C 
HETATM   26  N8  UNL     1      -4.021   3.476  -0.374  1.00  0.00    -0.170 NA
ATOM     27  H7  UNL     1      -3.127   1.390   1.799  1.00  0.00     0.201 HD
ENDBRANCH   1  24
TORSDOF 5
