REMARK  9 active torsions:
REMARK  status: ('A' for Active; 'I' for Inactive)
REMARK    1  A    between atoms: C2_2  and  N1_3 
REMARK    2  A    between atoms: C4_8  and  O1_9 
REMARK    3  A    between atoms: C5_11  and  O2_12 
REMARK    4  A    between atoms: C6_14  and  C7_15 
REMARK       I    between atoms: C7_15  and  N3_17 
REMARK    5  A    between atoms: N3_17  and  N4_19 
REMARK    6  A    between atoms: C8_22  and  O4_23 
REMARK    7  A    between atoms: O4_23  and  N5_24 
REMARK    8  A    between atoms: N5_24  and  C9_25 
REMARK    9  A    between atoms: C9_25  and  C11_28 
ROOT
HETATM    1  C9  UNL     1       2.946   0.275   1.811  1.00  0.00     0.283 C 
HETATM    2  C10 UNL     1       3.775   1.356   2.338  1.00  0.00     0.141 C 
HETATM    3  N6  UNL     1       4.434   2.215   2.741  1.00  0.00    -0.188 NA
ENDROOT
BRANCH   1   4
HETATM    4  N5  UNL     1       1.772   0.393   1.664  1.00  0.00    -0.259 NA
BRANCH   4   5
HETATM    5  O4  UNL     1       0.538   0.535   1.516  1.00  0.00    -0.166 OA
BRANCH   5   6
HETATM    6  C8  UNL     1      -0.361   0.523   0.447  1.00  0.00     0.144 C 
HETATM    7  C6  UNL     1      -0.595   1.587  -0.281  1.00  0.00     0.080 C 
HETATM    8  C5  UNL     1      -1.582   1.274  -1.332  1.00  0.00     0.225 C 
HETATM    9  C4  UNL     1      -1.583  -0.238  -1.409  1.00  0.00     0.294 C 
HETATM   10  N2  UNL     1      -0.496  -0.752  -2.221  1.00  0.00    -0.011 N 
HETATM   11  C12 UNL     1      -1.172  -0.610  -0.035  1.00  0.00     0.351 C 
HETATM   12  C3  UNL     1      -0.084  -1.987  -1.583  1.00  0.00     0.507 C 
ATOM     13  H22 UNL     1       0.265  -0.086  -2.355  1.00  0.00     0.283 HD
ATOM     14  H21 UNL     1      -0.737  -0.860  -3.206  1.00  0.00     0.283 HD
HETATM   15  N1  UNL     1      -0.400  -1.828  -0.164  1.00  0.00     0.129 N 
BRANCH   7  16
HETATM   16  C7  UNL     1       0.028   2.928  -0.105  1.00  0.00     0.271 C 
HETATM   17  O3  UNL     1       0.867   3.097   0.815  1.00  0.00    -0.266 OA
HETATM   18  N3  UNL     1      -0.290   4.001  -0.924  1.00  0.00    -0.273 N 
ATOM     19  H3  UNL     1      -0.972   3.880  -1.673  1.00  0.00     0.189 HD
BRANCH  18  20
HETATM   20  N4  UNL     1       0.314   5.244  -0.733  1.00  0.00    -0.342 N 
ATOM     21  H42 UNL     1       0.994   5.348   0.020  1.00  0.00     0.176 HD
ATOM     22  H41 UNL     1       0.080   6.033  -1.335  1.00  0.00     0.176 HD
ENDBRANCH  18  20
ENDBRANCH   7  16
BRANCH   8  23
HETATM   23  O2  UNL     1      -1.195   1.737  -2.593  1.00  0.00    -0.386 OA
ATOM     24  H2  UNL     1      -1.194   2.686  -2.545  1.00  0.00     0.210 HD
ENDBRANCH   8  23
BRANCH   9  25
HETATM   25  O1  UNL     1      -2.804  -0.758  -1.749  1.00  0.00    -0.361 OA
ATOM     26  H1  UNL     1      -3.516  -0.421  -1.217  1.00  0.00     0.212 HD
ENDBRANCH   9  25
BRANCH  15  27
HETATM   27  C2  UNL     1      -1.208  -2.935   0.284  1.00  0.00     0.271 C 
HETATM   28  C1  UNL     1      -1.539  -2.888   1.747  1.00  0.00     0.037 C 
ENDBRANCH  15  27
ENDBRANCH   5   6
ENDBRANCH   4   5
ENDBRANCH   1   4
BRANCH   1  29
HETATM   29  C11 UNL     1       3.685  -0.956   1.495  1.00  0.00     0.309 C 
HETATM   30  N7  UNL     1       3.061  -2.115   0.982  1.00  0.00    -0.054 NA
HETATM   31  O5  UNL     1       4.939  -1.046   1.668  1.00  0.00    -0.267 OA
ENDBRANCH   1  29
TORSDOF 9
