REMARK  8 active torsions:
REMARK  status: ('A' for Active; 'I' for Inactive)
REMARK    1  A    between atoms: C2_2  and  N1_3 
REMARK    2  A    between atoms: C3_10  and  O1_11 
REMARK    3  A    between atoms: O1_11  and  N3_12 
REMARK    4  A    between atoms: N3_12  and  N4_13 
REMARK    5  A    between atoms: N4_13  and  N5_15 
REMARK    6  A    between atoms: C5_20  and  N7_21 
REMARK    7  A    between atoms: C9_33  and  N11_34 
REMARK    8  A    between atoms: C10_38  and  O3_39 
ROOT
HETATM    1  N5  UNL     1       0.452   1.386   0.985  1.00  0.00    -0.260 N 
ATOM      2  H5  UNL     1       0.211   2.363   0.815  1.00  0.00     0.191 HD
HETATM    3  C4  UNL     1       1.521   0.934   0.427  1.00  0.00     0.130 C 
HETATM    4  N6  UNL     1       2.380   1.695  -0.401  1.00  0.00    -0.333 N 
ATOM      5  H6  UNL     1       2.109   2.651  -0.631  1.00  0.00     0.164 HD
HETATM    6  C5  UNL     1       3.632   1.182  -0.941  1.00  0.00     0.393 C 
HETATM    7  N8  UNL     1       4.034  -0.034  -0.252  1.00  0.00    -0.295 N 
HETATM    8  C6  UNL     1       5.048  -0.963  -0.583  1.00  0.00     0.196 C 
HETATM    9  N9  UNL     1       6.038  -0.879  -1.617  1.00  0.00    -0.063 NA
HETATM   10  N10 UNL     1       4.983  -1.977   0.208  1.00  0.00    -0.299 N 
ATOM     11  H10 UNL     1       5.610  -2.781   0.168  1.00  0.00     0.171 HD
HETATM   12  C7  UNL     1       3.923  -1.829   1.144  1.00  0.00     0.249 C 
HETATM   13  O2  UNL     1       3.493  -2.666   1.984  1.00  0.00    -0.271 OA
HETATM   14  C8  UNL     1       3.388  -0.481   0.965  1.00  0.00     0.221 C 
HETATM   15  C9  UNL     1       1.884  -0.484   0.665  1.00  0.00     0.283 C 
ENDROOT
BRANCH   1  16
HETATM   16  N4  UNL     1      -0.389   0.660   1.789  1.00  0.00    -0.147 N 
ATOM     17  H4  UNL     1      -0.012   0.416   2.705  1.00  0.00     0.226 HD
BRANCH  16  18
HETATM   18  N3  UNL     1      -1.444   0.291   1.584  1.00  0.00    -0.169 NA
BRANCH  18  19
HETATM   19  O1  UNL     1      -2.597  -0.114   1.363  1.00  0.00    -0.152 OA
BRANCH  19  20
HETATM   20  C3  UNL     1      -3.491   0.361   0.374  1.00  0.00     0.403 C 
HETATM   21  N2  UNL     1      -4.805   0.659   0.911  1.00  0.00    -0.006 N 
HETATM   22  C2  UNL     1      -5.382   0.092  -0.269  1.00  0.00     0.313 C 
ATOM     23  H22 UNL     1      -5.044   1.608   1.200  1.00  0.00     0.283 HD
ATOM     24  H21 UNL     1      -5.076   0.321   1.834  1.00  0.00     0.283 HD
HETATM   25  C1  UNL     1      -5.563   1.121  -1.355  1.00  0.00     0.082 C 
HETATM   26  C10 UNL     1      -4.124  -0.729  -0.458  1.00  0.00     0.242 C 
BRANCH  22  27
HETATM   27  N1  UNL     1      -6.570  -0.699   0.013  1.00  0.00    -0.042 N 
ATOM     28  H13 UNL     1      -7.360  -0.090   0.228  1.00  0.00     0.277 HD
ATOM     29  H12 UNL     1      -6.915  -1.139  -0.840  1.00  0.00     0.277 HD
ATOM     30  H11 UNL     1      -6.447  -1.395   0.748  1.00  0.00     0.277 HD
ENDBRANCH  22  27
BRANCH  26  31
HETATM   31  O3  UNL     1      -4.128  -1.958   0.169  1.00  0.00    -0.387 OA
ATOM     32  H3  UNL     1      -3.339  -2.473   0.050  1.00  0.00     0.210 HD
ENDBRANCH  26  31
ENDBRANCH  19  20
ENDBRANCH  18  19
ENDBRANCH  16  18
ENDBRANCH   1  16
BRANCH  15  33
HETATM   33  N11 UNL     1       1.626  -1.284  -0.525  1.00  0.00    -0.066 N 
ATOM     34 3H11 UNL     1       0.662  -1.188  -0.845  1.00  0.00     0.275 HD
ATOM     35 2H11 UNL     1       2.097  -0.905  -1.346  1.00  0.00     0.275 HD
ATOM     36 1H11 UNL     1       1.876  -2.259  -0.361  1.00  0.00     0.275 HD
ENDBRANCH  15  33
BRANCH   6  37
HETATM   37  N7  UNL     1       4.638   2.197  -0.684  1.00  0.00    -0.040 N 
ATOM     38  H73 UNL     1       4.387   3.116  -1.049  1.00  0.00     0.279 HD
ATOM     39  H72 UNL     1       4.701   2.464   0.299  1.00  0.00     0.279 HD
ATOM     40  H71 UNL     1       5.515   1.838  -1.062  1.00  0.00     0.279 HD
ENDBRANCH   6  37
TORSDOF 8
