REMARK  9 active torsions:
REMARK  status: ('A' for Active; 'I' for Inactive)
REMARK    1  A    between atoms: C2_2  and  C4_4 
REMARK    2  A    between atoms: C4_4  and  N1_5 
REMARK    3  A    between atoms: C4_4  and  C21_30 
REMARK       I    between atoms: N1_5  and  C5_7 
REMARK    4  A    between atoms: C5_7  and  C6_9 
REMARK    5  A    between atoms: C6_9  and  N2_11 
REMARK    6  A    between atoms: C6_9  and  C15_24 
REMARK       I    between atoms: N2_11  and  C8_13 
REMARK    7  A    between atoms: C8_13  and  C9_15 
REMARK    8  A    between atoms: C21_30  and  O3_31 
REMARK    9  A    between atoms: C21_30  and  N4_33 
ROOT
HETATM    1  C6  UNL     1      -2.038   1.076   0.852  1.00  0.00     0.114 C 
HETATM    2  C7  UNL     1      -1.940   0.821   2.355  1.00  0.00     0.049 C 
ENDROOT
BRANCH   1   3
HETATM    3  C5  UNL     1      -0.787   0.811   0.172  1.00  0.00     0.250 C 
HETATM    4  N1  UNL     1       0.517   1.121   0.618  1.00  0.00    -0.324 N 
ATOM      5  H1  UNL     1       0.642   1.590   1.515  1.00  0.00     0.169 HD
HETATM    6  O1  UNL     1      -0.840   0.218  -0.973  1.00  0.00    -0.270 OA
BRANCH   4   7
HETATM    7  C4  UNL     1       1.716   0.774  -0.202  1.00  0.00     0.066 C 
BRANCH   7   8
HETATM    8  C2  UNL     1       2.605   1.899  -0.463  1.00  0.00     0.032 C 
HETATM    9  C1  UNL     1       1.715   2.993  -1.136  1.00  0.00     0.016 C 
HETATM   10  C3  UNL     1       3.538   1.526  -1.629  1.00  0.00     0.016 C 
ENDBRANCH   7   8
BRANCH   7  11
HETATM   11  C21 UNL     1       2.191  -0.521   0.253  1.00  0.00     0.162 C 
BRANCH  11  12
HETATM   12  O3  UNL     1       1.164  -1.373   0.314  1.00  0.00    -0.345 OA
ATOM     13  H3  UNL     1       1.475  -2.220   0.612  1.00  0.00     0.219 HD
ENDBRANCH  11  12
BRANCH  11  14
HETATM   14  N4  UNL     1       3.372  -1.116   0.638  1.00  0.00    -0.352 N 
HETATM   15  C22 UNL     1       4.686  -0.592   0.857  1.00  0.00     0.082 C 
HETATM   16  C23 UNL     1       5.223  -0.981   2.238  1.00  0.00     0.032 C 
HETATM   17  C24 UNL     1       5.629  -1.259  -0.129  1.00  0.00     0.025 C 
HETATM   18  C25 UNL     1       5.687  -2.732   0.058  1.00  0.00     0.004 C 
HETATM   19  C26 UNL     1       4.563  -3.302   0.855  1.00  0.00     0.025 C 
HETATM   20  C27 UNL     1       3.287  -2.588   0.844  1.00  0.00     0.082 C 
HETATM   21  C28 UNL     1       2.450  -2.947   2.028  1.00  0.00     0.032 C 
ENDBRANCH  11  14
ENDBRANCH   7  11
ENDBRANCH   4   7
ENDBRANCH   1   3
BRANCH   1  22
HETATM   22  N2  UNL     1      -3.090   0.253   0.237  1.00  0.00    -0.341 N 
HETATM   23  C8  UNL     1      -3.098  -1.152   0.232  1.00  0.00     0.249 C 
HETATM   24  O2  UNL     1      -2.161  -1.808   0.780  1.00  0.00    -0.271 OA
ATOM     25  H2  UNL     1      -3.866   0.735  -0.217  1.00  0.00     0.163 HD
BRANCH  23  26
HETATM   26  C9  UNL     1      -4.228  -1.861  -0.422  1.00  0.00     0.281 C 
HETATM   27  N3  UNL     1      -4.180  -3.296  -0.158  1.00  0.00    -0.058 N 
HETATM   28  C10 UNL     1      -4.419  -3.995  -1.379  1.00  0.00     0.187 C 
ATOM     29  H32 UNL     1      -3.309  -3.581   0.291  1.00  0.00     0.278 HD
ATOM     30  H31 UNL     1      -4.820  -3.578   0.584  1.00  0.00     0.278 HD
HETATM   31  C11 UNL     1      -3.101  -4.017  -2.126  1.00  0.00     0.033 C 
HETATM   32  C14 UNL     1      -5.171  -2.947  -2.221  1.00  0.00     0.040 C 
HETATM   33  C12 UNL     1      -2.887  -2.526  -2.354  1.00  0.00     0.009 C 
HETATM   34  C13 UNL     1      -4.137  -1.831  -1.934  1.00  0.00     0.028 C 
ENDBRANCH  23  26
ENDBRANCH   1  22
BRANCH   1  35
HETATM   35  C15 UNL     1      -2.507   2.498   0.725  1.00  0.00     0.023 C 
HETATM   36  C16 UNL     1      -1.554   3.467   1.333  1.00  0.00     0.007 C 
HETATM   37  C17 UNL     1      -2.090   4.894   1.278  1.00  0.00     0.000 C 
HETATM   38  C18 UNL     1      -2.577   5.247  -0.096  1.00  0.00     0.000 C 
HETATM   39  C19 UNL     1      -3.489   4.189  -0.689  1.00  0.00     0.000 C 
HETATM   40  C20 UNL     1      -2.642   2.920  -0.749  1.00  0.00     0.007 C 
ENDBRANCH   1  35
TORSDOF 9
