REMARK  4 active torsions:
REMARK  status: ('A' for Active; 'I' for Inactive)
REMARK    1  A    between atoms: C2_2  and  C3_3 
REMARK    2  A    between atoms: C3_3  and  C4_4 
REMARK    3  A    between atoms: C4_4  and  C5_5 
REMARK    4  A    between atoms: C5_5  and  C8_8 
ROOT
HETATM    1  C8  UNL     1       0.853  -0.228   0.099  1.00  0.00     0.002 C 
HETATM    2  C9  UNL     1       0.934   0.399  -1.255  1.00  0.00     0.006 C 
HETATM    3  C10 UNL     1      -0.414   0.077  -1.957  1.00  0.00     0.008 C 
HETATM    4  C11 UNL     1      -1.304  -0.052  -0.742  1.00  0.00     0.028 C 
HETATM    5  C12 UNL     1      -2.669  -0.504  -1.013  1.00  0.00     0.234 C 
HETATM    6  C13 UNL     1      -3.292  -0.983   0.301  1.00  0.00     0.053 C 
HETATM    7  C14 UNL     1      -2.510  -0.503   1.461  1.00  0.00     0.010 C 
HETATM    8  C15 UNL     1      -1.085  -1.008   1.469  1.00  0.00     0.010 C 
HETATM    9  C16 UNL     1      -0.438  -0.972   0.093  1.00  0.00    -0.034 C 
HETATM   10  C17 UNL     1      -0.451  -2.298  -0.576  1.00  0.00     0.016 C 
HETATM   11  C18 UNL     1      -4.515  -0.255  -0.101  1.00  0.00     0.229 C 
HETATM   12  C19 UNL     1      -5.061   0.820   0.736  1.00  0.00     0.038 C 
HETATM   13  C20 UNL     1      -5.021   2.020  -0.192  1.00  0.00     0.032 C 
HETATM   14  C21 UNL     1      -3.660   1.765  -0.864  1.00  0.00     0.273 C 
HETATM   15  N1  UNL     1      -3.738   0.398  -1.128  1.00  0.00     0.099 N 
ENDROOT
BRANCH   1  16
HETATM   16  C5  UNL     1       2.045  -0.867   0.610  1.00  0.00    -0.043 C 
HETATM   17  C6  UNL     1       1.904  -1.546   1.966  1.00  0.00     0.015 C 
HETATM   18  C7  UNL     1       2.584  -1.992  -0.298  1.00  0.00     0.015 C 
BRANCH  16  19
HETATM   19  C4  UNL     1       3.213   0.039   0.802  1.00  0.00     0.009 C 
BRANCH  19  20
HETATM   20  C3  UNL     1       3.693   0.885  -0.301  1.00  0.00     0.000 C 
BRANCH  20  21
HETATM   21  C2  UNL     1       4.952   1.601   0.293  1.00  0.00    -0.005 C 
HETATM   22  C1  UNL     1       5.519   2.492  -0.761  1.00  0.00     0.005 C 
ENDBRANCH  20  21
ENDBRANCH  19  20
ENDBRANCH  16  19
ENDBRANCH   1  16
TORSDOF 4
