REMARK  5 active torsions:
REMARK  status: ('A' for Active; 'I' for Inactive)
REMARK    1  A    between atoms: C2_2  and  C3_3 
REMARK    2  A    between atoms: C2_2  and  C5_7 
REMARK    3  A    between atoms: C3_3  and  C4_4 
REMARK    4  A    between atoms: C4_4  and  O1_5 
REMARK    5  A    between atoms: C15_17  and  C16_18 
ROOT
HETATM    1  C5  UNL     1       1.698   0.531  -0.587  1.00  0.00    -0.005 C 
HETATM    2  C6  UNL     1       1.313  -0.671  -1.379  1.00  0.00     0.015 C 
HETATM    3  C7  UNL     1      -0.035  -0.651  -0.630  1.00  0.00    -0.035 C 
HETATM    4  C8  UNL     1      -0.455  -2.007  -0.351  1.00  0.00     0.019 C 
HETATM    5  C9  UNL     1      -1.544  -2.346   0.558  1.00  0.00    -0.043 C 
HETATM    6  C10 UNL     1      -1.463  -3.852   0.884  1.00  0.00     0.015 C 
HETATM    7  C11 UNL     1      -1.798  -1.532   1.758  1.00  0.00     0.014 C 
HETATM    8  C12 UNL     1      -2.915  -0.860   1.055  1.00  0.00    -0.012 C 
HETATM    9  C13 UNL     1      -2.935  -1.989   0.086  1.00  0.00     0.014 C 
HETATM   10  C14 UNL     1      -2.740   0.492   0.562  1.00  0.00     0.014 C 
HETATM   11  C15 UNL     1      -1.566   1.009  -0.102  1.00  0.00    -0.036 C 
HETATM   12  C19 UNL     1      -0.336   1.254   0.743  1.00  0.00     0.015 C 
HETATM   13  C20 UNL     1       0.665   0.164   0.417  1.00  0.00    -0.001 C 
HETATM   14  C21 UNL     1      -1.006   0.272  -1.265  1.00  0.00     0.020 C 
ENDROOT
BRANCH   1  15
HETATM   15  C2  UNL     1       3.126   0.657  -0.183  1.00  0.00    -0.012 C 
HETATM   16  C1  UNL     1       3.960   0.692  -1.427  1.00  0.00     0.010 C 
BRANCH  15  17
HETATM   17  C3  UNL     1       3.622  -0.329   0.808  1.00  0.00     0.030 C 
BRANCH  17  18
HETATM   18  C4  UNL     1       5.037   0.030   1.205  1.00  0.00     0.164 C 
BRANCH  18  19
HETATM   19  O1  UNL     1       5.939   0.034   0.165  1.00  0.00    -0.401 OA
ATOM     20  H1  UNL     1       6.828   0.259   0.414  1.00  0.00     0.209 HD
ENDBRANCH  18  19
ENDBRANCH  17  18
ENDBRANCH  15  17
ENDBRANCH   1  15
BRANCH  11  21
HETATM   21  C16 UNL     1      -1.959   2.400  -0.652  1.00  0.00    -0.014 C 
HETATM   22  C17 UNL     1      -2.379   3.314   0.463  1.00  0.00     0.010 C 
HETATM   23  C18 UNL     1      -3.023   2.287  -1.688  1.00  0.00     0.010 C 
ENDBRANCH  11  21
TORSDOF 5
