REMARK  3 active torsions:
REMARK  status: ('A' for Active; 'I' for Inactive)
REMARK    1  A    between atoms: N1_1  and  N2_4 
REMARK    2  A    between atoms: C12_17  and  C13_18 
REMARK    3  A    between atoms: C13_18  and  C14_19 
ROOT
HETATM    1  N2  UNL     1      -0.413  -1.745   0.165  1.00  0.00    -0.306 N 
ATOM      2  H2  UNL     1       0.576  -1.497   0.192  1.00  0.00     0.186 HD
HETATM    3  C1  UNL     1      -1.158  -0.764  -0.030  1.00  0.00     0.071 A 
HETATM    4  C2  UNL     1      -2.627  -0.733  -0.121  1.00  0.00     0.004 A 
HETATM    5  C3  UNL     1      -3.590  -1.730   0.002  1.00  0.00     0.014 A 
HETATM    6  C4  UNL     1      -4.925  -1.410  -0.124  1.00  0.00     0.001 A 
HETATM    7  C5  UNL     1      -5.318  -0.130  -0.364  1.00  0.00     0.001 A 
HETATM    8  C6  UNL     1      -4.385   0.870  -0.486  1.00  0.00     0.013 A 
HETATM    9  C7  UNL     1      -3.030   0.555  -0.359  1.00  0.00    -0.012 A 
HETATM   10  C8  UNL     1      -1.864   1.424  -0.430  1.00  0.00    -0.011 A 
HETATM   11  C9  UNL     1      -1.758   2.779  -0.644  1.00  0.00     0.013 A 
HETATM   12  C10 UNL     1      -0.532   3.381  -0.660  1.00  0.00     0.002 A 
HETATM   13  C11 UNL     1       0.586   2.633  -0.461  1.00  0.00     0.021 A 
HETATM   14  C12 UNL     1       0.512   1.199  -0.233  1.00  0.00     0.024 A 
HETATM   15  C18 UNL     1      -0.721   0.637  -0.229  1.00  0.00     0.022 A 
ENDROOT
BRANCH  14  16
HETATM   16  C13 UNL     1       1.757   0.597   0.021  1.00  0.00    -0.093 C 
BRANCH  16  17
HETATM   17  C14 UNL     1       2.870   0.071   0.234  1.00  0.00     0.146 A 
HETATM   18  C15 UNL     1       3.023  -0.879   1.384  1.00  0.00     0.271 A 
HETATM   19  O1  UNL     1       2.060  -1.286   2.084  1.00  0.00    -0.266 OA
HETATM   20  N3  UNL     1       4.327  -1.341   1.708  1.00  0.00    -0.299 N 
HETATM   21  C16 UNL     1       5.445  -0.934   0.985  1.00  0.00     0.181 A 
ATOM     22  H3  UNL     1       4.447  -1.986   2.489  1.00  0.00     0.171 HD
HETATM   23  S1  UNL     1       6.914  -1.513   1.465  1.00  0.00    -0.040 SA
HETATM   24  N4  UNL     1       5.366  -0.038  -0.114  1.00  0.00    -0.299 N 
HETATM   25  C17 UNL     1       4.116   0.469  -0.502  1.00  0.00     0.271 A 
ATOM     26  H4  UNL     1       6.210   0.235  -0.617  1.00  0.00     0.171 HD
HETATM   27  O2  UNL     1       4.060   1.265  -1.470  1.00  0.00    -0.266 OA
ENDBRANCH  16  17
ENDBRANCH  14  16
BRANCH   1  28
HETATM   28  N1  UNL     1      -0.632  -3.064   0.348  1.00  0.00    -0.345 N 
ATOM     29  H12 UNL     1      -1.626  -3.290   0.317  1.00  0.00     0.176 HD
ATOM     30  H11 UNL     1      -0.023  -3.866   0.507  1.00  0.00     0.176 HD
ENDBRANCH   1  28
TORSDOF 3
