REMARK  2 active torsions:
REMARK  status: ('A' for Active; 'I' for Inactive)
REMARK    1  A    between atoms: C4_4  and  N1_5 
REMARK    2  A    between atoms: N1_5  and  C5_7 
ROOT
HETATM    1  C1  UNL     1      -0.076  -2.357  -3.021  1.00  0.00     0.018 C 
HETATM    2  C2  UNL     1       0.577  -1.654  -2.298  1.00  0.00    -0.070 C 
HETATM    3  C3  UNL     1       1.370  -0.827  -1.437  1.00  0.00     0.112 A 
HETATM    4  C4  UNL     1       0.783   0.004  -0.515  1.00  0.00     0.070 A 
HETATM    5  C11 UNL     1       1.602   0.774   0.283  1.00  0.00     0.019 A 
HETATM    6  C12 UNL     1       1.042   1.629   1.230  1.00  0.00     0.016 A 
HETATM    7  C13 UNL     1       1.855   2.399   2.028  1.00  0.00     0.001 A 
HETATM    8  C14 UNL     1       3.222   2.314   1.880  1.00  0.00     0.002 A 
HETATM    9  C15 UNL     1       3.787   1.464   0.938  1.00  0.00     0.031 A 
HETATM   10  C16 UNL     1       2.978   0.689   0.134  1.00  0.00     0.049 A 
HETATM   11  N7  UNL     1       3.556  -0.121  -0.765  1.00  0.00    -0.317 N 
HETATM   12  C17 UNL     1       5.019  -0.178  -0.888  1.00  0.00     0.159 C 
HETATM   13  C18 UNL     1       2.744  -0.868  -1.539  1.00  0.00     0.268 A 
HETATM   14  O1  UNL     1       3.314  -1.632  -2.388  1.00  0.00    -0.266 OA
ENDROOT
BRANCH   4  15
HETATM   15  N1  UNL     1      -0.638   0.085  -0.368  1.00  0.00    -0.339 N 
ATOM     16  H1  UNL     1      -1.152   0.848  -0.807  1.00  0.00     0.167 HD
BRANCH  15  17
HETATM   17  C5  UNL     1      -1.273  -0.809   0.322  1.00  0.00     0.124 A 
HETATM   18  N2  UNL     1      -0.611  -1.823   0.908  1.00  0.00    -0.338 N 
HETATM   19  C6  UNL     1      -1.342  -2.710   1.606  1.00  0.00     0.183 A 
ATOM     20  H2  UNL     1       0.402  -1.915   0.826  1.00  0.00     0.168 HD
HETATM   21  N3  UNL     1      -2.685  -2.614   1.732  1.00  0.00    -0.337 N 
HETATM   22  C7  UNL     1      -3.367  -1.608   1.155  1.00  0.00     0.138 A 
ATOM     23  H3  UNL     1      -3.189  -3.316   2.274  1.00  0.00     0.168 HD
HETATM   24  N4  UNL     1      -4.659  -1.241   1.091  1.00  0.00    -0.283 N 
HETATM   25  C10 UNL     1      -2.648  -0.672   0.425  1.00  0.00     0.098 A 
HETATM   26  N5  UNL     1      -4.747  -0.147   0.370  1.00  0.00    -0.283 N 
ATOM     27  H4  UNL     1      -5.440  -1.730   1.529  1.00  0.00     0.188 HD
HETATM   28  C8  UNL     1      -3.544   0.252  -0.068  1.00  0.00     0.133 A 
ATOM     29  H5  UNL     1      -5.621   0.339   0.168  1.00  0.00     0.188 HD
HETATM   30  N6  UNL     1      -3.213   1.261  -0.791  1.00  0.00    -0.379 N 
HETATM   31  C9  UNL     1      -4.122   2.230  -1.313  1.00  0.00     0.147 C 
ATOM     32  H6  UNL     1      -2.224   1.379  -1.009  1.00  0.00     0.160 HD
ENDBRANCH  15  17
ENDBRANCH   4  15
TORSDOF 2
