REMARK  12 active torsions:
REMARK  status: ('A' for Active; 'I' for Inactive)
REMARK    1  A    between atoms: C2_3  and  O1_4 
REMARK    2  A    between atoms: C5_8  and  O2_9 
REMARK    3  A    between atoms: N3_16  and  C8_18 
REMARK    4  A    between atoms: C8_18  and  C9_19 
REMARK    5  A    between atoms: C9_19  and  C10_20 
REMARK    6  A    between atoms: C10_20  and  C11_21 
REMARK    7  A    between atoms: C11_21  and  C12_22 
REMARK    8  A    between atoms: C12_22  and  C13_23 
REMARK    9  A    between atoms: C13_23  and  C14_24 
REMARK   10  A    between atoms: C14_24  and  O3_25 
REMARK   11  A    between atoms: C14_24  and  N4_27 
REMARK   12  A    between atoms: N4_27  and  O4_29 
ROOT
HETATM    1  C1  UNL     1      -7.883  -1.443  -0.044  1.00  0.00     0.160 C 
HETATM    2  N1  UNL     1      -6.561  -0.876  -0.217  1.00  0.00    -0.311 N 
HETATM    3  C2  UNL     1      -6.335   0.442  -0.242  1.00  0.00     0.152 A 
HETATM    4  C3  UNL     1      -4.938   0.598  -0.426  1.00  0.00     0.029 A 
HETATM    5  C4  UNL     1      -4.373  -0.645  -0.504  1.00  0.00     0.095 A 
HETATM    6  C5  UNL     1      -5.410  -1.552  -0.370  1.00  0.00     0.172 A 
HETATM    7  N2  UNL     1      -2.974  -0.744  -0.688  1.00  0.00    -0.346 N 
ATOM      8  H2  UNL     1      -2.536  -1.663  -0.748  1.00  0.00     0.167 HD
HETATM    9  C6  UNL     1      -2.161   0.442  -0.792  1.00  0.00     0.090 A 
HETATM   10  S1  UNL     1      -0.471   0.392  -1.014  1.00  0.00    -0.036 SA
HETATM   11  C7  UNL     1       0.239   1.946  -1.103  1.00  0.00     0.149 A 
HETATM   12  N3  UNL     1       1.496   2.139  -1.268  1.00  0.00    -0.370 N 
ATOM     13  H3  UNL     1       1.887   3.080  -1.317  1.00  0.00     0.161 HD
HETATM   14  N5  UNL     1      -0.659   2.936  -0.981  1.00  0.00    -0.303 N 
ATOM     15  H5  UNL     1      -0.286   3.884  -1.027  1.00  0.00     0.171 HD
HETATM   16  C15 UNL     1      -1.960   2.838  -0.810  1.00  0.00     0.256 A 
HETATM   17  O5  UNL     1      -2.612   3.946  -0.721  1.00  0.00    -0.267 OA
HETATM   18  C16 UNL     1      -2.727   1.679  -0.713  1.00  0.00     0.048 A 
HETATM   19  C17 UNL     1      -4.182   1.850  -0.521  1.00  0.00     0.092 A 
ENDROOT
BRANCH  12  20
HETATM   20  C8  UNL     1       2.342   0.959  -1.383  1.00  0.00     0.121 C 
BRANCH  20  21
HETATM   21  C9  UNL     1       2.672   0.511   0.052  1.00  0.00     0.020 C 
BRANCH  21  22
HETATM   22  C10 UNL     1       3.548  -0.711  -0.114  1.00  0.00     0.002 C 
BRANCH  22  23
HETATM   23  C11 UNL     1       3.930  -1.252   1.217  1.00  0.00     0.000 C 
BRANCH  23  24
HETATM   24  C12 UNL     1       4.690  -0.247   2.012  1.00  0.00     0.008 C 
BRANCH  24  25
HETATM   25  C13 UNL     1       5.976   0.210   1.387  1.00  0.00     0.086 C 
BRANCH  25  26
HETATM   26  C14 UNL     1       6.953  -0.859   1.162  1.00  0.00     0.135 C 
BRANCH  26  27
HETATM   27  O3  UNL     1       7.294  -1.647   2.285  1.00  0.00    -0.348 OA
ATOM     28  H3  UNL     1       7.927  -2.340   2.139  1.00  0.00     0.219 HD
ENDBRANCH  26  27
BRANCH  26  29
HETATM   29  N4  UNL     1       7.508  -1.119   0.033  1.00  0.00    -0.251 N 
ATOM     30  H4  UNL     1       8.176  -1.888  -0.015  1.00  0.00     0.196 HD
BRANCH  29  31
HETATM   31  O4  UNL     1       7.246  -0.419  -1.095  1.00  0.00    -0.288 OA
ATOM     32  H4  UNL     1       7.656  -0.611  -1.930  1.00  0.00     0.244 HD
ENDBRANCH  29  31
ENDBRANCH  26  29
ENDBRANCH  25  26
ENDBRANCH  24  25
ENDBRANCH  23  24
ENDBRANCH  22  23
ENDBRANCH  21  22
ENDBRANCH  20  21
ENDBRANCH  12  20
BRANCH   6  33
HETATM   33  O2  UNL     1      -5.259  -2.929  -0.395  1.00  0.00    -0.344 OA
ATOM     34  H2  UNL     1      -4.445  -3.407  -0.503  1.00  0.00     0.219 HD
ENDBRANCH   6  33
BRANCH   3  35
HETATM   35  O1  UNL     1      -7.264   1.469  -0.116  1.00  0.00    -0.345 OA
ATOM     36  H1  UNL     1      -7.103   2.405  -0.134  1.00  0.00     0.219 HD
ENDBRANCH   3  35
TORSDOF 12
