REMARK  11 active torsions:
REMARK  status: ('A' for Active; 'I' for Inactive)
REMARK    1  A    between atoms: N1_2  and  C2_5 
REMARK    2  A    between atoms: C2_5  and  C3_6 
REMARK    3  A    between atoms: C3_6  and  N2_7 
REMARK    4  A    between atoms: N2_7  and  C4_9 
REMARK    5  A    between atoms: C7_12  and  O1_13 
REMARK    6  A    between atoms: C8_15  and  N3_16 
REMARK       I    between atoms: N3_16  and  C9_17 
REMARK    7  A    between atoms: C9_17  and  C10_19 
REMARK    8  A    between atoms: C10_19  and  C11_20 
REMARK    9  A    between atoms: C12_21  and  O3_22 
REMARK   10  A    between atoms: C15_27  and  O5_28 
REMARK   11  A    between atoms: C16_30  and  O6_31 
ROOT
HETATM    1  C4  UNL     1      -2.445  -0.801  -0.609  1.00  0.00     0.046 C 
HETATM    2  C5  UNL     1      -1.597  -0.198  -1.509  1.00  0.00     0.002 C 
HETATM    3  C6  UNL     1      -2.230   0.392  -2.694  1.00  0.00     0.054 C 
HETATM    4  C7  UNL     1      -0.187  -0.060  -1.377  1.00  0.00     0.117 C 
HETATM    5  C8  UNL     1       0.643  -0.725  -0.466  1.00  0.00     0.181 C 
HETATM    6  C16 UNL     1       0.328  -2.028   0.013  1.00  0.00     0.161 C 
HETATM    7  C17 UNL     1      -0.914  -2.559   0.300  1.00  0.00     0.216 C 
HETATM    8  O7  UNL     1      -0.963  -3.745   0.688  1.00  0.00    -0.285 OA
HETATM    9  C18 UNL     1      -2.148  -1.897   0.197  1.00  0.00     0.018 C 
HETATM   10  C19 UNL     1      -3.252  -2.353   1.026  1.00  0.00     0.055 C 
ENDROOT
BRANCH   5  11
HETATM   11  N3  UNL     1       1.818  -0.213  -0.013  1.00  0.00    -0.364 NA
HETATM   12  C9  UNL     1       2.983   0.295   0.436  1.00  0.00     0.296 C 
HETATM   13  O2  UNL     1       3.118   1.390   1.114  1.00  0.00    -0.257 OA
BRANCH  12  14
HETATM   14  C10 UNL     1       4.319  -0.377   0.213  1.00  0.00     0.165 C 
BRANCH  14  15
HETATM   15  C11 UNL     1       5.390   0.431   0.846  1.00  0.00     0.045 A 
HETATM   16  C12 UNL     1       5.928   1.599   0.392  1.00  0.00     0.193 A 
HETATM   17  O4  UNL     1       6.859   2.000   1.256  1.00  0.00    -0.290 OA
HETATM   18  C13 UNL     1       6.948   1.133   2.264  1.00  0.00     0.086 A 
HETATM   19  C14 UNL     1       7.886   1.255   3.432  1.00  0.00     0.079 C 
HETATM   20  C15 UNL     1       6.052   0.126   2.057  1.00  0.00     0.106 A 
BRANCH  16  21
HETATM   21  O3  UNL     1       5.635   2.320  -0.717  1.00  0.00    -0.340 OA
ATOM     22  H3  UNL     1       6.010   3.134  -1.033  1.00  0.00     0.220 HD
ENDBRANCH  16  21
BRANCH  20  23
HETATM   23  O5  UNL     1       5.783  -0.994   2.807  1.00  0.00    -0.357 OA
ATOM     24  H5  UNL     1       6.228  -1.199   3.621  1.00  0.00     0.217 HD
ENDBRANCH  20  23
ENDBRANCH  14  15
ENDBRANCH  12  14
ENDBRANCH   5  11
BRANCH   4  25
HETATM   25  O1  UNL     1       0.415   0.771  -2.183  1.00  0.00    -0.357 OA
ATOM     26  H1  UNL     1       1.356   0.863  -2.095  1.00  0.00     0.218 HD
ENDBRANCH   4  25
BRANCH   6  27
HETATM   27  O6  UNL     1       1.472  -2.809   0.190  1.00  0.00    -0.354 OA
ATOM     28  H6  UNL     1       1.262  -3.679   0.510  1.00  0.00     0.218 HD
ENDBRANCH   6  27
BRANCH   1  29
HETATM   29  N2  UNL     1      -3.742  -0.227  -0.451  1.00  0.00    -0.387 N 
ATOM     30  H2  UNL     1      -3.831   0.509   0.249  1.00  0.00     0.159 HD
BRANCH  29  31
HETATM   31  C3  UNL     1      -4.924  -0.571  -1.165  1.00  0.00     0.147 C 
BRANCH  31  32
HETATM   32  C2  UNL     1      -6.046   0.296  -0.602  1.00  0.00     0.251 C 
BRANCH  32  33
HETATM   33  N1  UNL     1      -5.738   1.703  -0.791  1.00  0.00    -0.077 N 
HETATM   34  C1  UNL     1      -6.790   2.521  -0.189  1.00  0.00     0.267 C 
ATOM     35  H12 UNL     1      -5.585   1.935  -1.772  1.00  0.00     0.276 HD
ATOM     36  H11 UNL     1      -4.813   1.945  -0.437  1.00  0.00     0.276 HD
ENDBRANCH  32  33
ENDBRANCH  31  32
ENDBRANCH  29  31
ENDBRANCH   1  29
TORSDOF 11
