REMARK  11 active torsions:
REMARK  status: ('A' for Active; 'I' for Inactive)
REMARK    1  A    between atoms: S1_2  and  C2_3 
REMARK    2  A    between atoms: C2_3  and  C3_4 
REMARK    3  A    between atoms: N1_6  and  O1_7 
REMARK    4  A    between atoms: C6_10  and  N2_11 
REMARK    5  A    between atoms: N2_11  and  C7_13 
REMARK    6  A    between atoms: C7_13  and  C8_14 
REMARK    7  A    between atoms: C8_14  and  N3_15 
REMARK    8  A    between atoms: N3_15  and  C9_17 
REMARK    9  A    between atoms: C9_17  and  C10_18 
REMARK   10  A    between atoms: C10_18  and  O2_19 
REMARK   11  A    between atoms: C15_31  and  O4_32 
ROOT
HETATM    1  C3  UNL     1      -3.064   1.289  -0.181  1.00  0.00    -0.015 A 
HETATM    2  C4  UNL     1      -2.327   2.260  -0.847  1.00  0.00     0.132 A 
HETATM    3  N1  UNL     1      -1.085   1.769  -1.076  1.00  0.00    -0.232 N 
HETATM    4  C5  UNL     1      -1.018   0.516  -0.571  1.00  0.00     0.104 A 
HETATM    5  C6  UNL     1      -0.010  -0.463  -0.529  1.00  0.00     0.087 A 
HETATM    6  C11 UNL     1      -0.253  -1.675   0.043  1.00  0.00     0.082 A 
HETATM    7  N4  UNL     1       0.743  -2.591   0.028  1.00  0.00    -0.330 N 
ATOM      8  H4  UNL     1       1.647  -2.364  -0.387  1.00  0.00     0.168 HD
HETATM    9  C12 UNL     1       0.529  -3.790   0.561  1.00  0.00     0.179 A 
HETATM   10  S2  UNL     1       1.693  -4.914   0.565  1.00  0.00    -0.040 SA
HETATM   11  N5  UNL     1      -0.652  -4.098   1.106  1.00  0.00    -0.299 N 
ATOM     12  H5  UNL     1      -0.788  -5.025   1.508  1.00  0.00     0.171 HD
HETATM   13  C13 UNL     1      -1.679  -3.202   1.137  1.00  0.00     0.263 A 
HETATM   14  O3  UNL     1      -2.773  -3.505   1.647  1.00  0.00    -0.267 OA
HETATM   15  C14 UNL     1      -1.485  -1.966   0.597  1.00  0.00     0.095 A 
HETATM   16  C15 UNL     1      -2.508  -1.043   0.587  1.00  0.00     0.097 A 
HETATM   17  C16 UNL     1      -2.223   0.195  -0.015  1.00  0.00     0.038 A 
ENDROOT
BRANCH   5  18
HETATM   18  N2  UNL     1       1.221  -0.025  -1.091  1.00  0.00    -0.381 N 
ATOM     19  H2  UNL     1       1.431  -0.272  -2.058  1.00  0.00     0.160 HD
BRANCH  18  20
HETATM   20  C7  UNL     1       2.179   0.749  -0.356  1.00  0.00     0.164 C 
BRANCH  20  21
HETATM   21  C8  UNL     1       3.138   0.088   0.534  1.00  0.00     0.079 C 
BRANCH  21  22
HETATM   22  N3  UNL     1       4.071  -0.805  -0.024  1.00  0.00    -0.379 N 
ATOM     23  H3  UNL     1       4.009  -1.801   0.185  1.00  0.00     0.164 HD
BRANCH  22  24
HETATM   24  C9  UNL     1       5.089  -0.328  -0.869  1.00  0.00     0.086 C 
BRANCH  24  25
HETATM   25  C10 UNL     1       6.165   0.505  -0.266  1.00  0.00     0.208 C 
BRANCH  25  26
HETATM   26  O2  UNL     1       5.732   1.670   0.330  1.00  0.00    -0.396 OA
ATOM     27  H2  UNL     1       6.419   2.202   0.715  1.00  0.00     0.209 HD
ENDBRANCH  25  26
ENDBRANCH  24  25
ENDBRANCH  22  24
ENDBRANCH  21  22
ENDBRANCH  20  21
ENDBRANCH  18  20
ENDBRANCH   5  18
BRANCH   3  28
HETATM   28  O1  UNL     1      -0.060   2.397  -1.723  1.00  0.00    -0.283 OA
ATOM     29  H1  UNL     1       0.811   2.053  -1.884  1.00  0.00     0.245 HD
ENDBRANCH   3  28
BRANCH   1  30
HETATM   30  C2  UNL     1      -4.476   1.400   0.259  1.00  0.00     0.114 C 
BRANCH  30  31
HETATM   31  S1  UNL     1      -5.180   3.009  -0.164  1.00  0.00    -0.169 SA
HETATM   32  C1  UNL     1      -6.898   3.041   0.410  1.00  0.00     0.090 C 
ENDBRANCH  30  31
ENDBRANCH   1  30
BRANCH  16  33
HETATM   33  O4  UNL     1      -3.735  -1.226   1.098  1.00  0.00    -0.359 OA
ATOM     34  H4  UNL     1      -4.440  -0.590   1.091  1.00  0.00     0.217 HD
ENDBRANCH  16  33
TORSDOF 11
