REMARK  8 active torsions:
REMARK  status: ('A' for Active; 'I' for Inactive)
REMARK    1  A    between atoms: O1_2  and  C2_3 
REMARK    2  A    between atoms: C5_6  and  C6_7 
REMARK    3  A    between atoms: C6_7  and  N2_11 
REMARK    4  A    between atoms: N2_11  and  C7_13 
REMARK    5  A    between atoms: C7_13  and  N3_14 
REMARK    6  A    between atoms: C7_13  and  C12_21 
REMARK       I    between atoms: N3_14  and  C8_16 
REMARK    7  A    between atoms: C8_16  and  C9_18 
REMARK    8  A    between atoms: C14_26  and  N4_27 
ROOT
HETATM    1  C6  UNL     1      -0.179  -1.649   0.902  1.00  0.00     0.106 C 
HETATM    2  N1  UNL     1       0.447  -1.803   2.009  1.00  0.00    -0.385 N 
ATOM      3  H11 UNL     1       1.304  -2.347   2.108  1.00  0.00     0.157 HD
ATOM      4  H12 UNL     1       0.083  -1.363   2.854  1.00  0.00     0.157 HD
ENDROOT
BRANCH   1   5
HETATM    5  C5  UNL     1      -1.417  -0.863   0.759  1.00  0.00     0.010 A 
HETATM    6  C4  UNL     1      -1.997  -0.221   1.834  1.00  0.00     0.018 A 
HETATM    7  C3  UNL     1      -3.171   0.518   1.673  1.00  0.00     0.040 A 
HETATM    8  C2  UNL     1      -3.796   0.641   0.452  1.00  0.00     0.101 A 
HETATM    9  C14 UNL     1      -3.208  -0.006  -0.622  1.00  0.00     0.137 A 
HETATM   10  C13 UNL     1      -2.043  -0.740  -0.464  1.00  0.00     0.054 A 
BRANCH   8  11
HETATM   11  O1  UNL     1      -4.963   1.379   0.303  1.00  0.00    -0.353 OA
HETATM   12  C1  UNL     1      -5.507   2.013   1.446  1.00  0.00     0.210 C 
ENDBRANCH   8  11
BRANCH   9  13
HETATM   13  N4  UNL     1      -3.853   0.123  -1.877  1.00  0.00    -0.113 N 
HETATM   14  O3  UNL     1      -5.085   0.237  -1.923  1.00  0.00    -0.532 OA
HETATM   15  O4  UNL     1      -3.093   0.117  -3.010  1.00  0.00    -0.532 OA
ENDBRANCH   9  13
ENDBRANCH   1   5
BRANCH   1  16
HETATM   16  N2  UNL     1       0.331  -2.266  -0.283  1.00  0.00    -0.351 N 
ATOM     17  H2  UNL     1      -0.261  -2.848  -0.875  1.00  0.00     0.163 HD
BRANCH  16  18
HETATM   18  C7  UNL     1       1.721  -2.031  -0.609  1.00  0.00     0.240 C 
BRANCH  18  19
HETATM   19  N3  UNL     1       1.955  -0.615  -0.704  1.00  0.00    -0.336 N 
HETATM   20  C8  UNL     1       2.936   0.039   0.089  1.00  0.00     0.222 C 
HETATM   21  O2  UNL     1       3.611  -0.647   0.891  1.00  0.00    -0.273 OA
ATOM     22  H3  UNL     1       1.401  -0.064  -1.360  1.00  0.00     0.164 HD
BRANCH  20  23
HETATM   23  C9  UNL     1       3.184   1.491  -0.001  1.00  0.00     0.070 C 
HETATM   24  C10 UNL     1       4.286   1.854   0.963  1.00  0.00     0.019 C 
HETATM   25  C11 UNL     1       3.712   1.790  -1.408  1.00  0.00     0.019 C 
ENDBRANCH  20  23
ENDBRANCH  18  19
BRANCH  18  26
HETATM   26  C12 UNL     1       2.067  -2.764  -1.902  1.00  0.00     0.226 C 
HETATM   27 CL1  UNL     1       1.770  -4.493  -1.612  1.00  0.00    -0.080 Cl
HETATM   28 CL2  UNL     1       3.759  -2.538  -2.320  1.00  0.00    -0.080 Cl
HETATM   29 CL3  UNL     1       0.974  -2.243  -3.210  1.00  0.00    -0.080 Cl
ENDBRANCH  18  26
ENDBRANCH  16  18
ENDBRANCH   1  16
TORSDOF 8
