REMARK  9 active torsions:
REMARK  status: ('A' for Active; 'I' for Inactive)
REMARK       I    between atoms: N1_2  and  C2_4 
REMARK    1  A    between atoms: C2_4  and  C3_6 
REMARK    2  A    between atoms: C3_6  and  N2_7 
REMARK    3  A    between atoms: N2_7  and  C4_9 
REMARK    4  A    between atoms: C4_9  and  N3_10 
REMARK    5  A    between atoms: C4_9  and  C14_28 
REMARK    6  A    between atoms: N3_10  and  N4_11 
REMARK       I    between atoms: N4_11  and  C5_13 
REMARK    7  A    between atoms: C5_13  and  C6_15 
REMARK    8  A    between atoms: C9_18  and  N5_19 
REMARK    9  A    between atoms: C17_31  and  C18_32 
ROOT
HETATM    1  C4  UNL     1      -2.008  -0.034   0.218  1.00  0.00     0.210 C 
ENDROOT
BRANCH   1   2
HETATM    2  N2  UNL     1      -2.893  -1.085   0.735  1.00  0.00    -0.354 N 
ATOM      3  H2  UNL     1      -3.690  -1.405   0.185  1.00  0.00     0.162 HD
BRANCH   2   4
HETATM    4  C3  UNL     1      -2.623  -1.657   2.025  1.00  0.00     0.225 C 
BRANCH   4   5
HETATM    5  C2  UNL     1      -3.298  -2.960   2.237  1.00  0.00     0.234 C 
HETATM    6  N1  UNL     1      -4.067  -3.592   1.243  1.00  0.00    -0.364 N 
HETATM    7  C1  UNL     1      -4.703  -4.885   1.484  1.00  0.00     0.149 C 
ATOM      8  H1  UNL     1      -4.183  -3.139   0.337  1.00  0.00     0.161 HD
HETATM    9  O1  UNL     1      -3.169  -3.528   3.349  1.00  0.00    -0.272 OA
ENDBRANCH   4   5
ENDBRANCH   2   4
ENDBRANCH   1   2
BRANCH   1  10
HETATM   10  N3  UNL     1      -0.841  -0.362   0.155  1.00  0.00    -0.304 NA
BRANCH  10  11
HETATM   11  N4  UNL     1       0.425  -0.330  -0.050  1.00  0.00    -0.197 N 
HETATM   12  C5  UNL     1       1.132  -0.710  -1.265  1.00  0.00     0.280 C 
HETATM   13  O2  UNL     1       0.596  -1.112  -2.291  1.00  0.00    -0.265 OA
ATOM     14  H4  UNL     1       1.001  -0.002   0.725  1.00  0.00     0.205 HD
BRANCH  12  15
HETATM   15  C6  UNL     1       2.581  -0.556  -1.117  1.00  0.00     0.034 A 
HETATM   16  C7  UNL     1       3.131   0.676  -1.285  1.00  0.00     0.019 A 
HETATM   17  C8  UNL     1       4.479   0.825  -1.002  1.00  0.00     0.032 A 
HETATM   18  C9  UNL     1       5.222  -0.266  -0.562  1.00  0.00     0.057 A 
HETATM   19  C12 UNL     1       4.674  -1.512  -0.398  1.00  0.00     0.032 A 
HETATM   20  C13 UNL     1       3.329  -1.631  -0.687  1.00  0.00     0.019 A 
BRANCH  18  21
HETATM   21  N5  UNL     1       6.570  -0.032  -0.187  1.00  0.00    -0.251 N 
HETATM   22  C10 UNL     1       7.127  -0.670   0.884  1.00  0.00     0.208 A 
HETATM   23  N6  UNL     1       8.368  -0.180   0.984  1.00  0.00    -0.346 N 
HETATM   24  C11 UNL     1       8.569   0.731   0.001  1.00  0.00     0.199 A 
ATOM     25  H6  UNL     1       9.054  -0.450   1.689  1.00  0.00     0.167 HD
HETATM   26  N7  UNL     1       7.445   0.802  -0.707  1.00  0.00    -0.288 N 
ATOM     27  H7  UNL     1       7.288   1.402  -1.517  1.00  0.00     0.188 HD
ENDBRANCH  18  21
ENDBRANCH  12  15
ENDBRANCH  10  11
ENDBRANCH   1  10
BRANCH   1  28
HETATM   28  C14 UNL     1      -2.538   1.254  -0.202  1.00  0.00     0.024 A 
HETATM   29  C15 UNL     1      -2.216   1.808  -1.439  1.00  0.00     0.017 A 
HETATM   30  C16 UNL     1      -2.650   3.029  -1.865  1.00  0.00     0.017 A 
HETATM   31  C17 UNL     1      -3.456   3.761  -1.029  1.00  0.00     0.048 A 
HETATM   32  C19 UNL     1      -3.802   3.252   0.206  1.00  0.00     0.017 A 
HETATM   33  C20 UNL     1      -3.343   2.009   0.611  1.00  0.00     0.017 A 
BRANCH  31  34
HETATM   34  C18 UNL     1      -3.941   5.096  -1.465  1.00  0.00     0.417 C 
HETATM   35  F1  UNL     1      -3.541   5.363  -2.745  1.00  0.00    -0.166 F 
HETATM   36  F2  UNL     1      -3.413   6.087  -0.654  1.00  0.00    -0.166 F 
HETATM   37  F3  UNL     1      -5.335   5.077  -1.428  1.00  0.00    -0.166 F 
ENDBRANCH  31  34
ENDBRANCH   1  28
TORSDOF 9
