REMARK  4 active torsions:
REMARK  status: ('A' for Active; 'I' for Inactive)
REMARK    1  A    between atoms: N2_4  and  N3_6 
REMARK    2  A    between atoms: N3_6  and  C1_8 
REMARK    3  A    between atoms: C1_8  and  C2_9 
REMARK       I    between atoms: C2_9  and  N4_11 
REMARK       I    between atoms: N4_11  and  C3_13 
REMARK       I    between atoms: C3_13  and  N5_14 
REMARK       I    between atoms: C3_13  and  N6_17 
REMARK    4  A    between atoms: N6_17  and  C4_18 
ROOT
HETATM    1  C2  UNL     1       0.608  -0.266   0.275  1.00  0.00     0.244 C 
HETATM    2  O1  UNL     1       0.795   0.935   0.156  1.00  0.00    -0.271 OA
HETATM    3  N4  UNL     1      -0.529  -0.988  -0.080  1.00  0.00    -0.286 N 
ATOM      4  H4  UNL     1      -0.449  -1.987   0.108  1.00  0.00     0.172 HD
HETATM    5  C3  UNL     1      -1.755  -0.627  -0.640  1.00  0.00     0.258 C 
HETATM    6  N5  UNL     1      -2.556  -1.728  -0.845  1.00  0.00    -0.359 N 
ATOM      7  H51 UNL     1      -3.452  -1.464  -1.254  1.00  0.00     0.160 HD
ATOM      8  H52 UNL     1      -2.151  -2.620  -0.562  1.00  0.00     0.160 HD
HETATM    9  N6  UNL     1      -2.289   0.549  -1.013  1.00  0.00    -0.344 NA
ENDROOT
BRANCH   1  10
HETATM   10  C1  UNL     1       1.760  -1.054   0.879  1.00  0.00     0.243 C 
BRANCH  10  11
HETATM   11  N3  UNL     1       2.886  -0.224   1.180  1.00  0.00    -0.314 N 
ATOM     12  H3  UNL     1       3.777  -0.389   0.712  1.00  0.00     0.182 HD
BRANCH  11  13
HETATM   13  N2  UNL     1       2.771   0.805   2.106  1.00  0.00    -0.253 N 
HETATM   14  N1  UNL     1       3.032   0.657   3.331  1.00  0.00    -0.331 N 
ATOM     15  H12 UNL     1       3.340  -0.265   3.639  1.00  0.00     0.178 HD
ATOM     16  H11 UNL     1       2.948   1.413   4.011  1.00  0.00     0.178 HD
ATOM     17  H2  UNL     1       2.462   1.721   1.781  1.00  0.00     0.207 HD
ENDBRANCH  11  13
ENDBRANCH  10  11
ENDBRANCH   1  10
BRANCH   9  18
HETATM   18  C4  UNL     1      -2.826   1.732  -1.388  1.00  0.00     0.445 C 
HETATM   19  O2  UNL     1      -2.448   2.923  -1.340  1.00  0.00    -0.268 OA
ENDBRANCH   9  18
TORSDOF 4
