REMARK  12 active torsions:
REMARK  status: ('A' for Active; 'I' for Inactive)
REMARK    1  A    between atoms: O1_2  and  C2_3 
REMARK    2  A    between atoms: C3_5  and  O3_6 
REMARK    3  A    between atoms: O3_6  and  N1_7 
REMARK    4  A    between atoms: C4_10  and  N2_11 
REMARK    5  A    between atoms: N2_11  and  C5_13 
REMARK    6  A    between atoms: C6_14  and  N3_15 
REMARK    7  A    between atoms: N3_15  and  C7_17 
REMARK    8  A    between atoms: C7_17  and  O4_19 
REMARK    9  A    between atoms: C9_21  and  O5_22 
REMARK   10  A    between atoms: C14_30  and  N4_31 
REMARK   11  A    between atoms: C15_35  and  O6_36 
REMARK   12  A    between atoms: C16_38  and  O7_39 
ROOT
HETATM    1  C5  UNL     1      -0.503  -0.613  -0.541  1.00  0.00     0.135 C 
HETATM    2  C6  UNL     1      -1.607  -1.324   0.183  1.00  0.00     0.134 C 
HETATM    3  C9  UNL     1      -2.655  -0.196   0.430  1.00  0.00     0.173 C 
HETATM    4  C10 UNL     1      -2.421   0.846  -0.601  1.00  0.00     0.114 C 
HETATM    5  S1  UNL     1      -2.018   2.468   0.116  1.00  0.00    -0.143 SA
HETATM    6  C11 UNL     1      -3.520   3.406   0.476  1.00  0.00     0.076 C 
HETATM    7  C12 UNL     1      -4.275   3.604  -0.833  1.00  0.00     0.020 C 
HETATM    8  C13 UNL     1      -4.987   2.314  -1.141  1.00  0.00     0.076 C 
HETATM    9  S2  UNL     1      -3.868   1.014  -1.701  1.00  0.00    -0.143 SA
HETATM   10  C14 UNL     1      -1.298   0.313  -1.427  1.00  0.00     0.239 C 
ENDROOT
BRANCH   1  11
HETATM   11  N2  UNL     1       0.569  -0.088   0.159  1.00  0.00    -0.402 N 
ATOM     12  H2  UNL     1       0.455   0.824   0.601  1.00  0.00     0.154 HD
BRANCH  11  13
HETATM   13  C4  UNL     1       1.819  -0.749   0.296  1.00  0.00     0.166 C 
HETATM   14  C3  UNL     1       2.576  -0.680  -1.004  1.00  0.00     0.315 C 
HETATM   15  O2  UNL     1       3.943  -0.414  -0.811  1.00  0.00    -0.324 OA
HETATM   16  C2  UNL     1       3.992   0.722  -0.040  1.00  0.00     0.293 C 
HETATM   17  C16 UNL     1       3.903   0.196   1.403  1.00  0.00     0.204 C 
HETATM   18  C15 UNL     1       2.562  -0.420   1.534  1.00  0.00     0.178 C 
BRANCH  14  19
HETATM   19  O3  UNL     1       2.500  -1.800  -1.800  1.00  0.00    -0.252 OA
BRANCH  19  20
HETATM   20  N1  UNL     1       2.249  -1.477  -3.088  1.00  0.00    -0.308 N 
ATOM     21  H12 UNL     1       2.133  -0.517  -3.414  1.00  0.00     0.184 HD
ATOM     22  H11 UNL     1       2.193  -2.307  -3.678  1.00  0.00     0.184 HD
ENDBRANCH  19  20
ENDBRANCH  14  19
BRANCH  16  23
HETATM   23  O1  UNL     1       5.066   1.546  -0.209  1.00  0.00    -0.363 OA
HETATM   24  C1  UNL     1       4.706   2.869  -0.455  1.00  0.00     0.204 C 
ENDBRANCH  16  23
BRANCH  17  25
HETATM   25  O7  UNL     1       4.141   1.235   2.299  1.00  0.00    -0.388 OA
ATOM     26  H7  UNL     1       4.086   0.910   3.190  1.00  0.00     0.210 HD
ENDBRANCH  17  25
BRANCH  18  27
HETATM   27  O6  UNL     1       2.704  -1.525   2.410  1.00  0.00    -0.391 OA
ATOM     28  H6  UNL     1       3.181  -1.314   3.204  1.00  0.00     0.210 HD
ENDBRANCH  18  27
ENDBRANCH  11  13
ENDBRANCH   1  11
BRANCH   2  29
HETATM   29  N3  UNL     1      -1.476  -1.994   1.363  1.00  0.00    -0.388 N 
ATOM     30  H3  UNL     1      -1.941  -1.568   2.165  1.00  0.00     0.156 HD
BRANCH  29  31
HETATM   31  C7  UNL     1      -0.800  -3.171   1.623  1.00  0.00     0.209 C 
HETATM   32  C8  UNL     1      -1.317  -4.402   0.904  1.00  0.00     0.062 C 
BRANCH  31  33
HETATM   33  O4  UNL     1      -1.059  -3.485   3.006  1.00  0.00    -0.378 OA
ATOM     34  H4  UNL     1      -0.594  -4.294   3.185  1.00  0.00     0.212 HD
ENDBRANCH  31  33
ENDBRANCH  29  31
ENDBRANCH   2  29
BRANCH  10  35
HETATM   35  N4  UNL     1      -0.544   1.309  -2.094  1.00  0.00    -0.071 N 
ATOM     36  H43 UNL     1      -0.003   1.849  -1.419  1.00  0.00     0.274 HD
ATOM     37  H42 UNL     1       0.212   0.878  -2.627  1.00  0.00     0.274 HD
ATOM     38  H41 UNL     1      -1.082   1.935  -2.693  1.00  0.00     0.274 HD
ENDBRANCH  10  35
BRANCH   3  39
HETATM   39  O5  UNL     1      -3.939  -0.698   0.321  1.00  0.00    -0.391 OA
ATOM     40  H5  UNL     1      -4.577  -0.011   0.471  1.00  0.00     0.210 HD
ENDBRANCH   3  39
TORSDOF 12
