REMARK  6 active torsions:
REMARK  status: ('A' for Active; 'I' for Inactive)
REMARK    1  A    between atoms: N1_3  and  N2_5 
REMARK       I    between atoms: N2_5  and  C3_7 
REMARK    2  A    between atoms: C3_7  and  C4_9 
REMARK    3  A    between atoms: C5_10  and  C6_11 
REMARK    4  A    between atoms: C8_15  and  O4_16 
REMARK    5  A    between atoms: C9_18  and  O5_19 
REMARK       I    between atoms: N3_22  and  C11_23 
REMARK    6  A    between atoms: C11_23  and  C12_25 
ROOT
HETATM    1  C4  UNL     1       0.711  -0.315  -0.456  1.00  0.00     0.121 C 
HETATM    2  C5  UNL     1      -0.316  -1.317  -0.965  1.00  0.00     0.127 C 
HETATM    3  C7  UNL     1      -1.629  -0.915  -0.339  1.00  0.00     0.134 C 
HETATM    4  C8  UNL     1      -1.642  -1.433   1.070  1.00  0.00     0.172 C 
HETATM    5  C9  UNL     1      -0.476  -0.649   1.691  1.00  0.00     0.172 C 
HETATM    6  C10 UNL     1      -0.089   0.373   0.635  1.00  0.00     0.133 C 
HETATM    7  N3  UNL     1      -1.366   0.508  -0.067  1.00  0.00    -0.336 N 
HETATM    8  C11 UNL     1      -2.120   1.630  -0.391  1.00  0.00     0.220 C 
HETATM    9  O6  UNL     1      -1.719   2.770  -0.067  1.00  0.00    -0.273 OA
ENDROOT
BRANCH   1  10
HETATM   10  C3  UNL     1       1.929  -0.947   0.030  1.00  0.00     0.243 C 
HETATM   11  N2  UNL     1       2.987  -0.162   0.538  1.00  0.00    -0.270 N 
ATOM     12  H2  UNL     1       2.897   0.854   0.565  1.00  0.00     0.190 HD
HETATM   13  O1  UNL     1       2.032  -2.207  -0.008  1.00  0.00    -0.271 OA
BRANCH  11  14
HETATM   14  N1  UNL     1       4.145  -0.763   1.000  1.00  0.00    -0.314 N 
HETATM   15  C2  UNL     1       5.284  -0.167   1.073  1.00  0.00     0.076 C 
HETATM   16  C1  UNL     1       5.498   1.235   0.674  1.00  0.00     0.056 C 
ATOM     17  H1  UNL     1       4.093  -1.736   1.301  1.00  0.00     0.185 HD
ENDBRANCH  11  14
ENDBRANCH   1  10
BRANCH   2  18
HETATM   18  C6  UNL     1      -0.345  -1.354  -2.424  1.00  0.00     0.180 C 
HETATM   19  O2  UNL     1       0.419  -0.616  -3.097  1.00  0.00    -0.648 OA
HETATM   20  O3  UNL     1      -1.199  -2.188  -3.092  1.00  0.00    -0.648 OA
ENDBRANCH   2  18
BRANCH   5  21
HETATM   21  O5  UNL     1      -0.878  -0.006   2.863  1.00  0.00    -0.391 OA
ATOM     22  H5  UNL     1      -0.157   0.479   3.247  1.00  0.00     0.210 HD
ENDBRANCH   5  21
BRANCH   4  23
HETATM   23  O4  UNL     1      -1.432  -2.793   1.158  1.00  0.00    -0.391 OA
ATOM     24  H4  UNL     1      -1.440  -3.121   2.050  1.00  0.00     0.210 HD
ENDBRANCH   4  23
BRANCH   8  25
HETATM   25  C12 UNL     1      -3.397   1.479  -1.118  1.00  0.00     0.098 C 
HETATM   26  C13 UNL     1      -4.001   2.838  -1.337  1.00  0.00     0.014 C 
ENDBRANCH   8  25
TORSDOF 6
