REMARK  4 active torsions:
REMARK  status: ('A' for Active; 'I' for Inactive)
REMARK    1  A    between atoms: C2_2  and  C3_3 
REMARK    2  A    between atoms: C4_5  and  N1_6 
REMARK       I    between atoms: N1_6  and  C5_8 
REMARK    3  A    between atoms: C5_8  and  C6_10 
REMARK    4  A    between atoms: C6_10  and  C7_11 
ROOT
HETATM    1  N1  UNL     1      -0.052   0.946  -1.512  1.00  0.00    -0.307 N 
ATOM      2  H1  UNL     1      -0.056   1.475  -2.384  1.00  0.00     0.171 HD
HETATM    3  C5  UNL     1       1.175   0.609  -0.931  1.00  0.00     0.229 C 
HETATM    4  O1  UNL     1       1.491   1.025   0.209  1.00  0.00    -0.273 OA
ENDROOT
BRANCH   1   5
HETATM    5  C4  UNL     1      -1.202   0.603  -0.971  1.00  0.00     0.151 A 
HETATM    6  S1  UNL     1      -2.782   0.917  -1.522  1.00  0.00    -0.057 SA
HETATM    7  C3  UNL     1      -3.645   0.150  -0.277  1.00  0.00     0.008 A 
HETATM    8  C11 UNL     1      -2.645  -0.324   0.525  1.00  0.00     0.020 A 
HETATM    9  N3  UNL     1      -1.404  -0.083   0.154  1.00  0.00    -0.339 N 
HETATM   10  C12 UNL     1      -2.948  -1.103   1.803  1.00  0.00     0.069 C 
ATOM     11  H3  UNL     1      -0.618  -0.413   0.713  1.00  0.00     0.168 HD
BRANCH   7  12
HETATM   12  C2  UNL     1      -5.129   0.042  -0.131  1.00  0.00     0.043 C 
HETATM   13  C1  UNL     1      -5.658   0.996   0.920  1.00  0.00     0.010 C 
ENDBRANCH   7  12
ENDBRANCH   1   5
BRANCH   3  14
HETATM   14  C6  UNL     1       2.120  -0.252  -1.670  1.00  0.00     0.162 C 
BRANCH  14  15
HETATM   15  C7  UNL     1       3.356  -0.492  -0.882  1.00  0.00     0.043 A 
HETATM   16  C8  UNL     1       4.522   0.246  -0.868  1.00  0.00     0.061 A 
HETATM   17  C9  UNL     1       5.408  -0.355   0.019  1.00  0.00     0.074 A 
HETATM   18  C10 UNL     1       6.799   0.117   0.343  1.00  0.00     0.079 C 
HETATM   19  O2  UNL     1       4.770  -1.396   0.492  1.00  0.00    -0.243 OA
HETATM   20  N2  UNL     1       3.577  -1.495  -0.017  1.00  0.00    -0.265 N 
ATOM     21  H2  UNL     1       2.906  -2.229   0.209  1.00  0.00     0.194 HD
ENDBRANCH  14  15
ENDBRANCH   3  14
TORSDOF 4
