REMARK  6 active torsions:
REMARK  status: ('A' for Active; 'I' for Inactive)
REMARK    1  A    between atoms: C2_4  and  O1_5 
REMARK    2  A    between atoms: C2_4  and  C8_14 
REMARK    3  A    between atoms: O1_5  and  C3_6 
REMARK    4  A    between atoms: C3_6  and  C4_7 
REMARK       I    between atoms: C4_7  and  N2_9 
REMARK    5  A    between atoms: N2_9  and  C5_11 
REMARK    6  A    between atoms: C13_19  and  C14_20 
ROOT
HETATM    1  C8  UNL     1      -1.167   0.874  -0.755  1.00  0.00     0.205 C 
HETATM    2  C9  UNL     1      -1.260   0.051   0.510  1.00  0.00     0.051 C 
HETATM    3  C10 UNL     1      -2.566  -0.734   0.436  1.00  0.00    -0.027 C 
HETATM    4  C11 UNL     1      -2.710  -1.415   1.793  1.00  0.00     0.016 C 
HETATM    5  C12 UNL     1      -2.353  -1.835  -0.587  1.00  0.00     0.016 C 
HETATM    6  C13 UNL     1      -3.734   0.118   0.074  1.00  0.00     0.137 C 
HETATM    7  C16 UNL     1      -3.400   1.519  -0.266  1.00  0.00     0.124 C 
HETATM    8  N3  UNL     1      -4.359   2.383  -0.267  1.00  0.00    -0.383 N 
ATOM      9  H31 UNL     1      -4.129   3.349  -0.501  1.00  0.00     0.158 HD
ATOM     10  H32 UNL     1      -5.305   2.079  -0.036  1.00  0.00     0.158 HD
HETATM   11  O4  UNL     1      -2.095   1.938  -0.584  1.00  0.00    -0.325 OA
ENDROOT
BRANCH   1  12
HETATM   12  C2  UNL     1       0.195   1.339  -0.990  1.00  0.00     0.144 C 
HETATM   13  N1  UNL     1       0.805   0.988  -2.071  1.00  0.00    -0.377 N 
HETATM   14  C1  UNL     1       0.186   0.149  -3.057  1.00  0.00     0.148 C 
ATOM     15  H1  UNL     1       1.757   1.317  -2.230  1.00  0.00     0.160 HD
BRANCH  12  16
HETATM   16  O1  UNL     1       0.909   2.154  -0.119  1.00  0.00    -0.328 OA
BRANCH  16  17
HETATM   17  C3  UNL     1       2.296   2.236  -0.199  1.00  0.00     0.279 C 
BRANCH  17  18
HETATM   18  C4  UNL     1       2.995   0.960   0.006  1.00  0.00     0.242 C 
HETATM   19  O2  UNL     1       2.375  -0.132   0.242  1.00  0.00    -0.271 OA
HETATM   20  N2  UNL     1       4.411   0.872  -0.048  1.00  0.00    -0.355 N 
ATOM     21  H2  UNL     1       4.946   1.720  -0.233  1.00  0.00     0.162 HD
BRANCH  20  22
HETATM   22  C5  UNL     1       5.129  -0.371   0.149  1.00  0.00     0.076 C 
HETATM   23  C6  UNL     1       6.069  -0.321   1.308  1.00  0.00     0.032 C 
HETATM   24  C7  UNL     1       5.913  -0.763  -1.089  1.00  0.00     0.032 C 
ENDBRANCH  20  22
ENDBRANCH  17  18
ENDBRANCH  16  17
ENDBRANCH  12  16
ENDBRANCH   1  12
BRANCH   6  25
HETATM   25  C14 UNL     1      -4.866   0.037   1.040  1.00  0.00     0.135 C 
HETATM   26  C15 UNL     1      -5.603  -1.221   1.324  1.00  0.00     0.091 C 
HETATM   27  O3  UNL     1      -5.208   1.044   1.627  1.00  0.00    -0.297 OA
ENDBRANCH   6  25
TORSDOF 6
