REMARK  0 active torsions:
REMARK  status: ('A' for Active; 'I' for Inactive)
ROOT
HETATM    1  C1  UNL     1      -0.439   2.079  -0.096  1.00  0.00     0.041 C 
HETATM    2  C2  UNL     1       0.286   0.811   0.282  1.00  0.00     0.136 C 
HETATM    3  O1  UNL     1       1.128   0.472  -0.781  1.00  0.00    -0.368 OA
HETATM    4  C3  UNL     1       1.265  -0.929  -0.638  1.00  0.00     0.195 C 
HETATM    5  S1  UNL     1       1.965  -1.228   0.983  1.00  0.00    -0.063 SA
HETATM    6  C4  UNL     1      -0.230  -1.283  -0.634  1.00  0.00     0.065 C 
HETATM    7  C5  UNL     1      -0.653  -0.342   0.486  1.00  0.00     0.124 C 
HETATM    8  C6  UNL     1      -2.048   0.016   0.422  1.00  0.00     0.066 C 
HETATM    9  N1  UNL     1      -3.169   0.301   0.384  1.00  0.00    -0.197 NA
ENDROOT
TORSDOF 0
