REMARK  1 active torsions:
REMARK  status: ('A' for Active; 'I' for Inactive)
REMARK    1  A    between atoms: C5_7  and  N1_8 
ROOT
HETATM    1  C1  UNL     1      -0.325  -1.776   0.222  1.00  0.00     0.013 C 
HETATM    2  C2  UNL     1       0.005  -0.339  -0.144  1.00  0.00     0.023 C 
HETATM    3  C3  UNL     1       1.218   0.049   0.677  1.00  0.00     0.018 C 
HETATM    4  C4  UNL     1       2.034   1.139  -0.030  1.00  0.00     0.086 C 
HETATM    5  S1  UNL     1       1.200   2.701   0.460  1.00  0.00    -0.096 SA
HETATM    6  S2  UNL     1      -0.763   2.041   1.037  1.00  0.00    -0.064 SA
HETATM    7  C5  UNL     1      -1.135   0.589  -0.023  1.00  0.00     0.259 C 
ENDROOT
BRANCH   7   8
HETATM    8  N1  UNL     1      -2.346   0.038   0.481  1.00  0.00    -0.065 N 
ATOM      9  H13 UNL     1      -2.617  -0.769  -0.081  1.00  0.00     0.275 HD
ATOM     10  H12 UNL     1      -2.172  -0.412   1.380  1.00  0.00     0.275 HD
ATOM     11  H11 UNL     1      -3.134   0.680   0.565  1.00  0.00     0.275 HD
ENDBRANCH   7   8
TORSDOF 1
