REMARK  0 active torsions:
REMARK  status: ('A' for Active; 'I' for Inactive)
ROOT
HETATM    1  S1  UNL     1       2.617   0.314  -0.801  1.00  0.00    -0.081 SA
HETATM    2  C1  UNL     1       0.839  -0.092  -1.006  1.00  0.00     0.121 C 
HETATM    3  C2  UNL     1       0.494  -1.024   0.131  1.00  0.00     0.037 C 
HETATM    4  C3  UNL     1      -1.011  -1.176   0.258  1.00  0.00     0.076 C 
HETATM    5  S2  UNL     1      -1.537   0.226   1.318  1.00  0.00    -0.159 SA
HETATM    6  C4  UNL     1      -1.135   1.719   0.372  1.00  0.00     0.148 C 
HETATM    7  S3  UNL     1      -0.088   1.417  -1.027  1.00  0.00    -0.143 SA
ENDROOT
TORSDOF 0
