REMARK  0 active torsions:
REMARK  status: ('A' for Active; 'I' for Inactive)
ROOT
HETATM    1  N1  UNL     1      -3.180   1.322   0.404  1.00  0.00    -0.384 N 
ATOM      2  H11 UNL     1      -3.240   2.305   0.671  1.00  0.00     0.157 HD
ATOM      3  H12 UNL     1      -4.007   0.736   0.517  1.00  0.00     0.157 HD
HETATM    4  C1  UNL     1      -2.057   0.930  -0.048  1.00  0.00     0.111 C 
HETATM    5  C2  UNL     1      -1.968  -0.516  -0.441  1.00  0.00     0.083 C 
HETATM    6  C3  UNL     1      -1.204  -1.403   0.484  1.00  0.00     0.008 C 
HETATM    7  C4  UNL     1      -0.177  -2.298  -0.121  1.00  0.00     0.000 C 
HETATM    8  C5  UNL     1       1.289  -1.827  -0.013  1.00  0.00     0.000 C 
HETATM    9  C6  UNL     1       1.207  -0.392  -0.123  1.00  0.00     0.000 C 
HETATM   10  C7  UNL     1       2.289   0.589  -0.181  1.00  0.00     0.002 C 
HETATM   11  C8  UNL     1       1.499   1.911  -0.337  1.00  0.00     0.027 C 
HETATM   12  C9  UNL     1       0.223   2.003   0.423  1.00  0.00     0.177 C 
HETATM   13  O1  UNL     1      -0.962   1.706  -0.197  1.00  0.00    -0.340 OA
ENDROOT
TORSDOF 0
