REMARK  1 active torsions:
REMARK  status: ('A' for Active; 'I' for Inactive)
REMARK    1  A    between atoms: N1_4  and  N2_6 
ROOT
HETATM    1  N2  UNL     1       1.329  -0.792   0.126  1.00  0.00    -0.287 N 
ATOM      2  H2  UNL     1       1.504  -1.759  -0.148  1.00  0.00     0.188 HD
HETATM    3  C2  UNL     1       0.169  -0.328  -0.078  1.00  0.00     0.091 C 
HETATM    4  C3  UNL     1      -0.977  -1.050  -0.681  1.00  0.00     0.079 C 
HETATM    5  C4  UNL     1      -2.150  -0.361  -0.029  1.00  0.00     0.027 C 
HETATM    6  C5  UNL     1      -1.700   1.098  -0.193  1.00  0.00     0.121 C 
HETATM    7  N3  UNL     1      -0.308   0.978   0.218  1.00  0.00    -0.379 N 
ATOM      8  H3  UNL     1       0.242   1.719   0.653  1.00  0.00     0.160 HD
ENDROOT
BRANCH   1   9
HETATM    9  N1  UNL     1       2.370  -0.094   0.688  1.00  0.00    -0.279 N 
HETATM   10  C1  UNL     1       3.535  -0.094   0.152  1.00  0.00     0.189 C 
HETATM   11 CL1  UNL     1       4.880   0.785   0.845  1.00  0.00    -0.050 Cl
HETATM   12 CL2  UNL     1       3.791  -1.000  -1.317  1.00  0.00    -0.050 Cl
ATOM     13  H1  UNL     1       2.214   0.434   1.547  1.00  0.00     0.189 HD
ENDBRANCH   1   9
TORSDOF 1
