REMARK  1 active torsions:
REMARK  status: ('A' for Active; 'I' for Inactive)
REMARK    1  A    between atoms: N1_2  and  C1_4 
ROOT
HETATM    1  C1  UNL     1      -0.659  -0.201  -0.290  1.00  0.00     0.241 A 
HETATM    2  N2  UNL     1       0.338  -1.110  -0.191  1.00  0.00    -0.308 N 
ATOM      3  H2  UNL     1       0.236  -2.124  -0.223  1.00  0.00     0.170 HD
HETATM    4  C2  UNL     1       1.495  -0.426  -0.041  1.00  0.00     0.152 A 
HETATM    5 CL2  UNL     1       3.085  -1.138   0.133  1.00  0.00    -0.060 Cl
HETATM    6  C3  UNL     1       1.153   0.911  -0.054  1.00  0.00     0.187 A 
HETATM    7 CL3  UNL     1       2.342   2.189   0.113  1.00  0.00    -0.053 Cl
HETATM    8  O1  UNL     1      -0.149   1.006  -0.205  1.00  0.00    -0.263 OA
ENDROOT
BRANCH   1   9
HETATM    9  N1  UNL     1      -2.034  -0.499  -0.459  1.00  0.00    -0.263 N 
HETATM   10 CL1  UNL     1      -3.211   0.760  -0.572  1.00  0.00     0.014 Cl
ATOM     11  H1  UNL     1      -2.333  -1.472  -0.515  1.00  0.00     0.184 HD
ENDBRANCH   1   9
TORSDOF 1
