REMARK  1 active torsions:
REMARK  status: ('A' for Active; 'I' for Inactive)
REMARK    1  A    between atoms: N1_2  and  C2_4 
ROOT
HETATM    1  C2  UNL     1       0.587   0.172  -0.218  1.00  0.00     0.097 A 
HETATM    2  C3  UNL     1       1.525  -0.804  -0.139  1.00  0.00     0.138 A 
HETATM    3 CL1  UNL     1       1.245  -2.539  -0.525  1.00  0.00    -0.061 Cl
HETATM    4  N2  UNL     1       2.744  -0.445   0.256  1.00  0.00    -0.314 N 
ATOM      5  H2  UNL     1       3.562  -1.043   0.371  1.00  0.00     0.175 HD
HETATM    6  S1  UNL     1       2.639   1.205   0.523  1.00  0.00     0.001 SA
HETATM    7  C4  UNL     1       1.001   1.433   0.120  1.00  0.00     0.120 A 
HETATM    8 CL2  UNL     1       0.035   2.923   0.124  1.00  0.00    -0.072 Cl
ENDROOT
BRANCH   1   9
HETATM    9  N1  UNL     1      -0.788  -0.083  -0.637  1.00  0.00    -0.390 N 
HETATM   10  C1  UNL     1      -1.799  -0.423   0.339  1.00  0.00     0.146 C 
ATOM     11  H1  UNL     1      -1.037  -0.021  -1.624  1.00  0.00     0.159 HD
ENDBRANCH   1   9
TORSDOF 1
