REMARK  5 active torsions:
REMARK  status: ('A' for Active; 'I' for Inactive)
REMARK    1  A    between atoms: C4_5  and  C5_6 
REMARK    2  A    between atoms: N2_9  and  C8_10 
REMARK    3  A    between atoms: N5_24  and  C16_25 
REMARK    4  A    between atoms: C16_25  and  C17_26 
REMARK    5  A    between atoms: C17_26  and  N6_27 
ROOT
HETATM    1  N1  UNL     1       1.068  -3.653  -5.652  1.00  0.00    -0.191 NA
HETATM    2  C1  UNL     1       0.992  -2.935  -4.736  1.00  0.00     0.101 C 
HETATM    3  C2  UNL     1       0.894  -2.038  -3.619  1.00  0.00     0.062 A 
HETATM    4  C3  UNL     1      -0.176  -1.788  -2.788  1.00  0.00     0.049 A 
HETATM    5  C4  UNL     1       0.168  -0.834  -1.823  1.00  0.00     0.019 A 
HETATM    6  N5  UNL     1       1.457  -0.517  -2.090  1.00  0.00    -0.356 N 
HETATM    7  C23 UNL     1       1.902  -1.220  -3.148  1.00  0.00     0.113 A 
ENDROOT
BRANCH   5   8
HETATM    8  C5  UNL     1      -0.707  -0.290  -0.752  1.00  0.00     0.073 C 
HETATM    9  C6  UNL     1      -1.740   0.619  -1.387  1.00  0.00     0.033 C 
HETATM   10  C7  UNL     1      -3.147   0.146  -1.105  1.00  0.00     0.125 C 
HETATM   11  N2  UNL     1      -3.320  -0.083   0.316  1.00  0.00    -0.363 N 
HETATM   12  C14 UNL     1      -2.410  -1.016   0.941  1.00  0.00     0.162 C 
HETATM   13  C15 UNL     1      -1.335  -1.439  -0.029  1.00  0.00     0.198 C 
HETATM   14  F1  UNL     1      -0.373  -2.121   0.678  1.00  0.00    -0.247 F 
BRANCH  11  15
HETATM   15  C8  UNL     1      -4.334   0.585   1.002  1.00  0.00     0.123 A 
HETATM   16  N3  UNL     1      -4.089   1.445   2.007  1.00  0.00    -0.338 N 
HETATM   17  C9  UNL     1      -5.182   2.010   2.564  1.00  0.00     0.182 A 
ATOM     18  H3  UNL     1      -3.143   1.656   2.326  1.00  0.00     0.168 HD
HETATM   19  N4  UNL     1      -6.442   1.776   2.192  1.00  0.00    -0.351 N 
HETATM   20  C10 UNL     1      -6.728   0.906   1.173  1.00  0.00     0.054 A 
ATOM     21  H4  UNL     1      -7.204   2.252   2.674  1.00  0.00     0.166 HD
HETATM   22  C11 UNL     1      -7.950   0.570   0.690  1.00  0.00     0.038 A 
HETATM   23  C13 UNL     1      -5.647   0.318   0.589  1.00  0.00     0.075 A 
HETATM   24  C12 UNL     1      -7.989  -0.326  -0.337  1.00  0.00     0.053 A 
HETATM   25  S1  UNL     1      -6.340  -0.678  -0.606  1.00  0.00    -0.096 SA
ENDBRANCH  11  15
ENDBRANCH   5   8
BRANCH   6  26
HETATM   26  C16 UNL     1       2.256   0.451  -1.345  1.00  0.00     0.158 C 
BRANCH  26  27
HETATM   27  C17 UNL     1       2.957  -0.286  -0.230  1.00  0.00     0.292 C 
BRANCH  27  28
HETATM   28  N6  UNL     1       3.787   0.549   0.598  1.00  0.00     0.090 N 
HETATM   29  C18 UNL     1       4.919   0.996  -0.134  1.00  0.00     0.272 C 
HETATM   30  C19 UNL     1       5.938   1.754   0.687  1.00  0.00     0.030 C 
HETATM   31  C20 UNL     1       6.341   0.878   1.850  1.00  0.00     0.003 C 
HETATM   32  C21 UNL     1       5.061   0.639   2.662  1.00  0.00     0.030 C 
HETATM   33  C22 UNL     1       4.173  -0.220   1.763  1.00  0.00     0.272 C 
ENDBRANCH  27  28
ENDBRANCH  26  27
ENDBRANCH   6  26
TORSDOF 5
