REMARK  5 active torsions:
REMARK  status: ('A' for Active; 'I' for Inactive)
REMARK    1  A    between atoms: C2_4  and  N2_5 
REMARK    2  A    between atoms: C2_4  and  C11_20 
REMARK    3  A    between atoms: N2_5  and  C3_7 
REMARK    4  A    between atoms: N3_11  and  C7_12 
REMARK    5  A    between atoms: C7_12  and  C8_13 
ROOT
HETATM    1  C3  UNL     1       1.207  -0.265  -0.545  1.00  0.00     0.085 C 
HETATM    2  C4  UNL     1       0.629  -1.114   0.539  1.00  0.00     0.030 C 
HETATM    3  C5  UNL     1      -0.595  -1.854  -0.008  1.00  0.00     0.046 C 
HETATM    4  C6  UNL     1      -1.815  -1.152   0.538  1.00  0.00     0.058 C 
HETATM    5  N3  UNL     1      -2.021   0.171   0.131  1.00  0.00    -0.387 N 
HETATM    6  C9  UNL     1      -0.916   1.012  -0.132  1.00  0.00     0.124 C 
HETATM    7  C10 UNL     1       0.034   0.508  -1.171  1.00  0.00     0.045 C 
ENDROOT
BRANCH   1   8
HETATM    8  N2  UNL     1       2.247   0.621  -0.182  1.00  0.00    -0.368 N 
ATOM      9  H2  UNL     1       2.049   1.618  -0.266  1.00  0.00     0.161 HD
BRANCH   8  10
HETATM   10  C2  UNL     1       3.533   0.267   0.286  1.00  0.00     0.163 C 
HETATM   11  N1  UNL     1       4.185   1.116   1.059  1.00  0.00    -0.377 N 
HETATM   12  C1  UNL     1       3.612   2.371   1.421  1.00  0.00     0.148 C 
ATOM     13  H1  UNL     1       5.113   0.870   1.403  1.00  0.00     0.160 HD
BRANCH  10  14
HETATM   14  C11 UNL     1       4.251  -0.957  -0.020  1.00  0.00     0.298 C 
HETATM   15  N6  UNL     1       3.748  -1.994  -0.817  1.00  0.00    -0.054 NA
HETATM   16  O1  UNL     1       5.413  -1.116   0.458  1.00  0.00    -0.268 OA
ENDBRANCH  10  14
ENDBRANCH   8  10
ENDBRANCH   1   8
BRANCH   5  17
HETATM   17  C7  UNL     1      -3.250   0.543  -0.460  1.00  0.00     0.194 C 
BRANCH  17  18
HETATM   18  C8  UNL     1      -4.356   0.519   0.493  1.00  0.00     0.104 C 
HETATM   19  N4  UNL     1      -4.887   1.680   0.812  1.00  0.00    -0.390 N 
ATOM     20  H42 UNL     1      -4.484   2.500   0.358  1.00  0.00     0.157 HD
ATOM     21  H41 UNL     1      -5.660   1.663   1.478  1.00  0.00     0.157 HD
HETATM   22  N5  UNL     1      -4.911  -0.609   1.118  1.00  0.00    -0.086 NA
ENDBRANCH  17  18
ENDBRANCH   5  17
TORSDOF 5
