REMARK  5 active torsions:
REMARK  status: ('A' for Active; 'I' for Inactive)
REMARK    1  A    between atoms: C1_2  and  N1_3 
REMARK    2  A    between atoms: N1_3  and  C2_4 
REMARK    3  A    between atoms: C2_4  and  C3_5 
REMARK    4  A    between atoms: C3_5  and  N2_6 
REMARK       I    between atoms: N2_6  and  C4_8 
REMARK       I    between atoms: C4_8  and  N3_10 
REMARK    5  A    between atoms: N3_10  and  C5_12 
ROOT
HETATM    1  N2  UNL     1       2.324  -0.003   0.385  1.00  0.00    -0.341 N 
ATOM      2  H2  UNL     1       2.461  -0.726   1.091  1.00  0.00     0.164 HD
HETATM    3  C4  UNL     1       1.011   0.548   0.154  1.00  0.00     0.317 C 
HETATM    4  O2  UNL     1       0.895   1.480  -0.658  1.00  0.00    -0.247 OA
HETATM    5  N3  UNL     1      -0.074   0.026   0.837  1.00  0.00    -0.329 N 
ATOM      6  H3  UNL     1       0.066  -0.778   1.449  1.00  0.00     0.165 HD
ENDROOT
BRANCH   1   7
HETATM    7  C3  UNL     1       3.439   0.476  -0.390  1.00  0.00     0.157 C 
BRANCH   7   8
HETATM    8  C2  UNL     1       4.725  -0.177   0.141  1.00  0.00     0.240 C 
BRANCH   8   9
HETATM    9  N1  UNL     1       5.785   0.172  -0.611  1.00  0.00    -0.421 NA
BRANCH   9  10
HETATM   10  C1  UNL     1       6.864   0.527  -1.375  1.00  0.00     0.435 C 
HETATM   11  O1  UNL     1       7.098   0.202  -2.588  1.00  0.00    -0.269 OA
ENDBRANCH   9  10
ENDBRANCH   8   9
ENDBRANCH   7   8
ENDBRANCH   1   7
BRANCH   5  12
HETATM   12  C5  UNL     1      -1.405   0.589   0.708  1.00  0.00     0.153 C 
HETATM   13  C6  UNL     1      -2.447  -0.013   1.396  1.00  0.00    -0.158 C 
HETATM   14  C7  UNL     1      -3.539  -0.689   2.001  1.00  0.00     0.082 C 
HETATM   15  C8  UNL     1      -4.579  -0.942   0.858  1.00  0.00     0.011 C 
HETATM   16  C9  UNL     1      -4.276  -0.084  -0.377  1.00  0.00     0.001 C 
HETATM   17  C10 UNL     1      -3.033  -0.260  -1.081  1.00  0.00     0.003 C 
HETATM   18  C11 UNL     1      -1.786   0.541  -0.829  1.00  0.00     0.037 C 
ENDBRANCH   5  12
TORSDOF 5
