REMARK  7 active torsions:
REMARK  status: ('A' for Active; 'I' for Inactive)
REMARK    1  A    between atoms: C4_5  and  N2_6 
REMARK    2  A    between atoms: C5_10  and  C6_11 
REMARK    3  A    between atoms: N3_12  and  N4_14 
REMARK       I    between atoms: N4_14  and  C7_16 
REMARK    4  A    between atoms: C7_16  and  C8_18 
REMARK    5  A    between atoms: C8_18  and  C18_30 
REMARK    6  A    between atoms: C9_19  and  C10_20 
REMARK    7  A    between atoms: C14_24  and  O5_25 
ROOT
HETATM    1  C1  UNL     1       5.035   0.391  -3.551  1.00  0.00     0.229 C 
HETATM    2  N1  UNL     1       5.435   0.380  -2.466  1.00  0.00    -0.426 NA
HETATM    3  C2  UNL     1       5.939   0.374  -1.164  1.00  0.00     0.144 A 
HETATM    4  C3  UNL     1       7.199   0.754  -0.761  1.00  0.00     0.110 A 
HETATM    5  C4  UNL     1       7.285   0.593   0.618  1.00  0.00     0.218 A 
HETATM    6  O3  UNL     1       6.120   0.136   1.000  1.00  0.00    -0.284 OA
HETATM    7  C5  UNL     1       5.291  -0.012  -0.002  1.00  0.00     0.135 A 
ENDROOT
BRANCH   7   8
HETATM    8  C6  UNL     1       3.918  -0.494   0.047  1.00  0.00     0.148 C 
HETATM    9  N3  UNL     1       3.393  -0.832   1.168  1.00  0.00    -0.306 N 
ATOM     10  H3  UNL     1       3.939  -0.763   2.027  1.00  0.00     0.186 HD
BRANCH   9  11
HETATM   11  N4  UNL     1       2.038  -1.308   1.217  1.00  0.00    -0.266 N 
HETATM   12  C7  UNL     1       1.011  -0.508   0.723  1.00  0.00     0.276 C 
HETATM   13  O4  UNL     1       1.395   0.630   0.249  1.00  0.00    -0.266 OA
ATOM     14  H4  UNL     1       1.830  -2.226   1.611  1.00  0.00     0.190 HD
BRANCH  12  15
HETATM   15  C8  UNL     1      -0.426  -0.765   0.663  1.00  0.00     0.110 C 
HETATM   16  C9  UNL     1      -1.178   0.171   0.137  1.00  0.00     0.035 C 
BRANCH  16  17
HETATM   17  C10 UNL     1      -2.580   0.272  -0.093  1.00  0.00    -0.034 A 
HETATM   18  C11 UNL     1      -3.250  -0.609  -0.910  1.00  0.00     0.021 A 
HETATM   19  C12 UNL     1      -4.623  -0.504  -1.116  1.00  0.00    -0.028 A 
HETATM   20  C13 UNL     1      -5.289  -1.487  -2.009  1.00  0.00     0.051 C 
HETATM   21  C14 UNL     1      -5.368   0.481  -0.516  1.00  0.00     0.077 A 
HETATM   22  C15 UNL     1      -4.723   1.377   0.307  1.00  0.00    -0.028 A 
HETATM   23  C16 UNL     1      -5.464   2.488   1.005  1.00  0.00     0.051 C 
HETATM   24  C17 UNL     1      -3.368   1.270   0.507  1.00  0.00     0.021 A 
BRANCH  21  25
HETATM   25  O5  UNL     1      -6.726   0.585  -0.719  1.00  0.00    -0.360 OA
ATOM     26  H5  UNL     1      -7.241   1.267  -0.304  1.00  0.00     0.217 HD
ENDBRANCH  21  25
ENDBRANCH  16  17
BRANCH  15  27
HETATM   27  C18 UNL     1      -0.979  -1.949   1.238  1.00  0.00     0.215 C 
HETATM   28  O6  UNL     1      -2.239  -2.127   1.290  1.00  0.00    -0.644 OA
HETATM   29  O7  UNL     1      -0.204  -2.960   1.764  1.00  0.00    -0.644 OA
ENDBRANCH  15  27
ENDBRANCH  12  15
ENDBRANCH   9  11
ENDBRANCH   7   8
BRANCH   5  30
HETATM   30  N2  UNL     1       8.432   0.878   1.424  1.00  0.00    -0.090 N 
HETATM   31  O1  UNL     1       9.468   1.305   0.931  1.00  0.00    -0.530 OA
HETATM   32  O2  UNL     1       8.362   0.667   2.775  1.00  0.00    -0.530 OA
ENDBRANCH   5  30
TORSDOF 7
