REMARK  12 active torsions:
REMARK  status: ('A' for Active; 'I' for Inactive)
REMARK    1  A    between atoms: C2_2  and  C3_3 
REMARK    2  A    between atoms: C3_3  and  C4_4 
REMARK    3  A    between atoms: C4_4  and  O1_5 
REMARK    4  A    between atoms: O1_5  and  C5_6 
REMARK    5  A    between atoms: C5_6  and  C6_8 
REMARK    6  A    between atoms: C6_8  and  C7_9 
REMARK    7  A    between atoms: C7_9  and  S1_10 
REMARK    8  A    between atoms: S1_10  and  C8_11 
REMARK    9  A    between atoms: C8_11  and  N1_13 
REMARK   10  A    between atoms: C13_18  and  C14_19 
REMARK   11  A    between atoms: C14_19  and  O3_20 
REMARK   12  A    between atoms: N2_22  and  O4_23 
ROOT
HETATM    1  C6  UNL     1       0.890   0.177  -1.602  1.00  0.00     0.052 C 
HETATM    2  C11 UNL     1      -0.210  -0.220  -0.986  1.00  0.00    -0.037 C 
HETATM    3  C12 UNL     1      -0.849  -1.495  -1.255  1.00  0.00     0.037 C 
HETATM    4  C13 UNL     1      -1.551  -2.166  -0.335  1.00  0.00     0.059 C 
HETATM    5  N2  UNL     1      -1.682  -1.493   0.920  1.00  0.00    -0.253 N 
HETATM    6  C15 UNL     1      -1.813  -0.053   0.954  1.00  0.00     0.056 C 
HETATM    7  C16 UNL     1      -1.750   0.409   2.391  1.00  0.00     0.041 C 
HETATM    8  C17 UNL     1      -3.183   0.367   0.433  1.00  0.00     0.041 C 
HETATM    9  C18 UNL     1      -0.787   0.632   0.077  1.00  0.00     0.072 C 
ENDROOT
BRANCH   1  10
HETATM   10  C5  UNL     1       1.483   1.503  -1.293  1.00  0.00     0.294 C 
HETATM   11  O2  UNL     1       2.554   1.784  -1.934  1.00  0.00    -0.259 OA
BRANCH  10  12
HETATM   12  O1  UNL     1       1.036   2.430  -0.436  1.00  0.00    -0.317 OA
BRANCH  12  13
HETATM   13  C4  UNL     1       1.620   3.678  -0.165  1.00  0.00     0.179 C 
BRANCH  13  14
HETATM   14  C3  UNL     1       0.860   4.468   0.849  1.00  0.00     0.026 C 
BRANCH  14  15
HETATM   15  C2  UNL     1      -0.557   4.762   0.412  1.00  0.00    -0.002 C 
HETATM   16  C1  UNL     1      -0.532   5.550  -0.865  1.00  0.00     0.005 C 
ENDBRANCH  14  15
ENDBRANCH  13  14
ENDBRANCH  12  13
ENDBRANCH  10  12
ENDBRANCH   1  10
BRANCH   1  17
HETATM   17  C7  UNL     1       1.730  -0.588  -2.546  1.00  0.00     0.070 C 
BRANCH  17  18
HETATM   18  S1  UNL     1       1.459  -2.249  -2.904  1.00  0.00    -0.071 SA
BRANCH  18  19
HETATM   19  C8  UNL     1       1.790  -3.509  -1.748  1.00  0.00     0.140 C 
HETATM   20  S2  UNL     1       1.301  -5.051  -2.243  1.00  0.00    -0.052 SA
BRANCH  19  21
HETATM   21  N1  UNL     1       2.390  -3.453  -0.487  1.00  0.00    -0.375 N 
HETATM   22  C9  UNL     1       2.883  -2.251   0.117  1.00  0.00     0.150 C 
HETATM   23  C10 UNL     1       2.538  -4.670   0.287  1.00  0.00     0.150 C 
ENDBRANCH  19  21
ENDBRANCH  18  19
ENDBRANCH  17  18
ENDBRANCH   1  17
BRANCH   4  24
HETATM   24  C14 UNL     1      -2.202  -3.453  -0.566  1.00  0.00     0.223 C 
BRANCH  24  25
HETATM   25  O3  UNL     1      -1.661  -4.396   0.326  1.00  0.00    -0.395 OA
ATOM     26  H3  UNL     1      -2.084  -5.233   0.176  1.00  0.00     0.209 HD
ENDBRANCH  24  25
ENDBRANCH   4  24
BRANCH   5  27
HETATM   27  O4  UNL     1      -1.695  -2.182   2.066  1.00  0.00    -0.287 OA
ATOM     28  H4  UNL     1      -1.782  -1.735   2.900  1.00  0.00     0.244 HD
ENDBRANCH   5  27
TORSDOF 12
