REMARK  9 active torsions:
REMARK  status: ('A' for Active; 'I' for Inactive)
REMARK    1  A    between atoms: C3_5  and  C4_6 
REMARK    2  A    between atoms: C4_6  and  C5_7 
REMARK    3  A    between atoms: C7_9  and  C8_10 
REMARK    4  A    between atoms: C11_14  and  C12_15 
REMARK    5  A    between atoms: C12_15  and  O2_16 
REMARK    6  A    between atoms: O2_16  and  C13_17 
REMARK    7  A    between atoms: C16_21  and  O4_22 
REMARK    8  A    between atoms: C17_24  and  O5_25 
REMARK    9  A    between atoms: C18_27  and  O6_28 
ROOT
HETATM    1  C5  UNL     1      -2.196   0.216  -1.497  1.00  0.00    -0.016 A 
HETATM    2  C6  UNL     1      -2.845   1.424  -1.738  1.00  0.00     0.043 A 
HETATM    3  C7  UNL     1      -1.953   2.419  -1.411  1.00  0.00     0.057 A 
HETATM    4  O1  UNL     1      -0.847   1.866  -1.003  1.00  0.00    -0.316 OA
HETATM    5  C11 UNL     1      -0.944   0.535  -1.036  1.00  0.00     0.083 A 
ENDROOT
BRANCH   5   6
HETATM    6  C12 UNL     1       0.154  -0.395  -0.629  1.00  0.00     0.236 C 
BRANCH   6   7
HETATM    7  O2  UNL     1       1.284   0.354  -0.233  1.00  0.00    -0.352 OA
BRANCH   7   8
HETATM    8  C13 UNL     1       2.297  -0.499   0.143  1.00  0.00     0.291 C 
HETATM    9  O3  UNL     1       3.393  -0.380  -0.709  1.00  0.00    -0.351 OA
HETATM   10  C14 UNL     1       4.453  -1.128  -0.197  1.00  0.00     0.152 C 
HETATM   11  C15 UNL     1       5.565  -1.255  -1.237  1.00  0.00     0.042 C 
HETATM   12  C16 UNL     1       5.031  -0.442   0.996  1.00  0.00     0.178 C 
HETATM   13  C17 UNL     1       4.003   0.544   1.548  1.00  0.00     0.183 C 
HETATM   14  C18 UNL     1       2.672  -0.202   1.579  1.00  0.00     0.204 C 
BRANCH  12  15
HETATM   15  O4  UNL     1       6.175   0.294   0.685  1.00  0.00    -0.390 OA
ATOM     16  H4  UNL     1       6.543   0.731   1.444  1.00  0.00     0.210 HD
ENDBRANCH  12  15
BRANCH  13  17
HETATM   17  O5  UNL     1       4.385   0.895   2.836  1.00  0.00    -0.390 OA
ATOM     18  H5  UNL     1       3.746   1.508   3.179  1.00  0.00     0.210 HD
ENDBRANCH  13  17
BRANCH  14  19
HETATM   19  O6  UNL     1       2.825  -1.434   2.225  1.00  0.00    -0.388 OA
ATOM     20  H6  UNL     1       3.060  -1.248   3.126  1.00  0.00     0.210 HD
ENDBRANCH  14  19
ENDBRANCH   7   8
ENDBRANCH   6   7
ENDBRANCH   5   6
BRANCH   1  21
HETATM   21  C4  UNL     1      -2.793  -1.107  -1.713  1.00  0.00     0.125 C 
BRANCH  21  22
HETATM   22  C3  UNL     1      -3.244  -1.710  -0.433  1.00  0.00     0.128 A 
HETATM   23  N1  UNL     1      -2.607  -2.602   0.345  1.00  0.00    -0.342 N 
HETATM   24  C2  UNL     1      -3.346  -2.904   1.424  1.00  0.00     0.036 A 
ATOM     25  H1  UNL     1      -1.688  -2.996   0.143  1.00  0.00     0.167 HD
HETATM   26  C1  UNL     1      -3.048  -3.828   2.540  1.00  0.00     0.071 C 
HETATM   27  C19 UNL     1      -4.494  -2.154   1.295  1.00  0.00     0.073 A 
HETATM   28  O7  UNL     1      -4.397  -1.467   0.193  1.00  0.00    -0.300 OA
HETATM   29  C20 UNL     1      -5.653  -2.138   2.261  1.00  0.00     0.079 C 
ENDBRANCH  21  22
ENDBRANCH   1  21
BRANCH   3  30
HETATM   30  C8  UNL     1      -2.270   3.874  -1.531  1.00  0.00     0.035 C 
HETATM   31  C9  UNL     1      -1.322   4.514  -2.525  1.00  0.00     0.016 C 
HETATM   32  C10 UNL     1      -2.135   4.467  -0.149  1.00  0.00     0.016 C 
ENDBRANCH   3  30
TORSDOF 9
