REMARK  11 active torsions:
REMARK  status: ('A' for Active; 'I' for Inactive)
REMARK    1  A    between atoms: O1_2  and  C2_3 
REMARK    2  A    between atoms: C2_3  and  C3_5 
REMARK    3  A    between atoms: C3_5  and  N1_6 
REMARK    4  A    between atoms: C3_5  and  C19_29 
REMARK       I    between atoms: N1_6  and  C4_8 
REMARK    5  A    between atoms: C4_8  and  C5_10 
REMARK    6  A    between atoms: C5_10  and  C6_11 
REMARK    7  A    between atoms: C5_10  and  N3_24 
REMARK    8  A    between atoms: C6_11  and  N2_12 
REMARK    9  A    between atoms: N2_12  and  C7_14 
REMARK   10  A    between atoms: C7_14  and  C10_17 
REMARK   11  A    between atoms: C10_17  and  C11_18 
REMARK       I    between atoms: N3_24  and  C17_26 
ROOT
HETATM    1  C5  UNL     1      -1.508  -1.440  -1.223  1.00  0.00     0.194 C 
ENDROOT
BRANCH   1   2
HETATM    2  C4  UNL     1      -2.774  -0.741  -1.077  1.00  0.00     0.242 C 
HETATM    3  N1  UNL     1      -2.987   0.552  -0.572  1.00  0.00    -0.345 N 
ATOM      4  H1  UNL     1      -2.172   1.079  -0.259  1.00  0.00     0.163 HD
HETATM    5  O3  UNL     1      -3.820  -1.394  -1.458  1.00  0.00    -0.271 OA
BRANCH   3   6
HETATM    6  C3  UNL     1      -4.273   1.184  -0.466  1.00  0.00     0.187 C 
BRANCH   6   7
HETATM    7  C2  UNL     1      -4.210   2.618  -0.809  1.00  0.00     0.281 C 
HETATM    8  O2  UNL     1      -3.081   3.085  -1.162  1.00  0.00    -0.263 OA
BRANCH   7   9
HETATM    9  O1  UNL     1      -5.282   3.481  -0.774  1.00  0.00    -0.325 OA
HETATM   10  C1  UNL     1      -5.072   4.841  -1.127  1.00  0.00     0.213 C 
ENDBRANCH   7   9
ENDBRANCH   6   7
BRANCH   6  11
HETATM   11  C19 UNL     1      -4.777   1.151   0.984  1.00  0.00     0.010 C 
HETATM   12  C20 UNL     1      -4.900  -0.256   1.483  1.00  0.00     0.012 C 
HETATM   13  C21 UNL     1      -3.897   1.951   1.901  1.00  0.00     0.012 C 
ENDBRANCH   6  11
ENDBRANCH   3   6
ENDBRANCH   1   2
BRANCH   1  14
HETATM   14  C6  UNL     1      -0.425  -1.002  -0.234  1.00  0.00     0.149 C 
BRANCH  14  15
HETATM   15  N2  UNL     1       0.762  -1.748  -0.425  1.00  0.00    -0.411 N 
ATOM     16  H2  UNL     1       0.810  -2.506  -1.106  1.00  0.00     0.154 HD
BRANCH  15  17
HETATM   17  C7  UNL     1       1.903  -1.389   0.386  1.00  0.00     0.018 C 
HETATM   18  C8  UNL     1       1.694  -1.506   1.853  1.00  0.00     0.037 C 
HETATM   19  C9  UNL     1       2.921  -2.514   0.045  1.00  0.00     0.037 C 
BRANCH  17  20
HETATM   20  C10 UNL     1       2.469  -0.116  -0.109  1.00  0.00     0.034 C 
BRANCH  20  21
HETATM   21  C11 UNL     1       3.638   0.473   0.572  1.00  0.00    -0.012 C 
HETATM   22  C12 UNL     1       4.903  -0.300   0.631  1.00  0.00     0.005 C 
HETATM   23  C13 UNL     1       6.130   0.610   0.605  1.00  0.00     0.000 C 
HETATM   24  C14 UNL     1       5.860   1.899   1.351  1.00  0.00     0.000 C 
HETATM   25  C15 UNL     1       4.773   2.692   0.659  1.00  0.00     0.000 C 
HETATM   26  C16 UNL     1       3.975   1.768  -0.196  1.00  0.00     0.005 C 
ENDBRANCH  20  21
ENDBRANCH  17  20
ENDBRANCH  15  17
ENDBRANCH  14  15
ENDBRANCH   1  14
BRANCH   1  27
HETATM   27  N3  UNL     1      -1.640  -2.873  -1.204  1.00  0.00    -0.347 N 
HETATM   28  C17 UNL     1      -1.317  -3.736  -2.270  1.00  0.00     0.214 C 
HETATM   29  C18 UNL     1      -1.492  -5.208  -2.126  1.00  0.00     0.117 C 
HETATM   30  O4  UNL     1      -0.866  -3.308  -3.386  1.00  0.00    -0.274 OA
ATOM     31  H3  UNL     1      -1.997  -3.299  -0.349  1.00  0.00     0.163 HD
ENDBRANCH   1  27
TORSDOF 11
