REMARK  12 active torsions:
REMARK  status: ('A' for Active; 'I' for Inactive)
REMARK    1  A    between atoms: C2_2  and  C3_3 
REMARK    2  A    between atoms: C3_3  and  C4_4 
REMARK    3  A    between atoms: C4_4  and  C5_5 
REMARK    4  A    between atoms: C5_5  and  C6_6 
REMARK    5  A    between atoms: C6_6  and  N1_7 
REMARK    6  A    between atoms: N1_7  and  C7_9 
REMARK    7  A    between atoms: C7_9  and  N2_11 
REMARK    8  A    between atoms: N2_11  and  O1_13 
REMARK    9  A    between atoms: O1_13  and  C8_14 
REMARK   10  A    between atoms: C8_14  and  C9_15 
REMARK   11  A    between atoms: C9_15  and  O2_16 
REMARK   12  A    between atoms: C9_15  and  C10_18 
ROOT
HETATM    1  C9  UNL     1      -0.559   1.329   0.447  1.00  0.00     0.164 C 
ENDROOT
BRANCH   1   2
HETATM    2  C8  UNL     1       0.508   0.258   0.073  1.00  0.00     0.234 C 
BRANCH   2   3
HETATM    3  O1  UNL     1      -0.055  -0.819  -0.459  1.00  0.00    -0.276 OA
BRANCH   3   4
HETATM    4  N2  UNL     1       0.541  -1.887  -0.871  1.00  0.00    -0.241 N 
ATOM      5  H2  UNL     1      -0.114  -2.582  -1.230  1.00  0.00     0.197 HD
BRANCH   4   6
HETATM    6  C7  UNL     1       1.870  -2.322  -0.944  1.00  0.00     0.191 C 
HETATM    7  S1  UNL     1       2.116  -3.856  -1.590  1.00  0.00    -0.039 SA
BRANCH   6   8
HETATM    8  N1  UNL     1       2.997  -1.610  -0.537  1.00  0.00    -0.366 N 
ATOM      9  H1  UNL     1       2.902  -0.675  -0.142  1.00  0.00     0.161 HD
BRANCH   8  10
HETATM   10  C6  UNL     1       4.329  -2.226  -0.685  1.00  0.00     0.122 C 
BRANCH  10  11
HETATM   11  C5  UNL     1       5.410  -1.240  -0.228  1.00  0.00     0.020 C 
BRANCH  11  12
HETATM   12  C4  UNL     1       5.383  -0.035  -1.067  1.00  0.00     0.002 C 
BRANCH  12  13
HETATM   13  C3  UNL     1       6.334   1.052  -0.842  1.00  0.00    -0.000 C 
BRANCH  13  14
HETATM   14  C2  UNL     1       6.374   1.760   0.449  1.00  0.00    -0.005 C 
HETATM   15  C1  UNL     1       6.708   0.936   1.659  1.00  0.00     0.005 C 
ENDBRANCH  13  14
ENDBRANCH  12  13
ENDBRANCH  11  12
ENDBRANCH  10  11
ENDBRANCH   8  10
ENDBRANCH   6   8
ENDBRANCH   4   6
ENDBRANCH   3   4
ENDBRANCH   2   3
ENDBRANCH   1   2
BRANCH   1  16
HETATM   16  O2  UNL     1       0.199   2.378   0.984  1.00  0.00    -0.392 OA
ATOM     17  H2  UNL     1      -0.452   3.031   1.212  1.00  0.00     0.210 HD
ENDBRANCH   1  16
BRANCH   1  18
HETATM   18  C10 UNL     1      -1.365   0.752   1.561  1.00  0.00     0.113 A 
HETATM   19  C11 UNL     1      -2.804   0.919   1.649  1.00  0.00     0.086 A 
HETATM   20  C12 UNL     1      -3.684   1.495   0.598  1.00  0.00     0.027 C 
HETATM   21  N4  UNL     1      -2.251  -0.398   1.150  1.00  0.00    -0.258 NA
HETATM   22  C13 UNL     1      -4.491   0.490  -0.139  1.00  0.00     0.002 C 
HETATM   23  C14 UNL     1      -5.944   0.840  -0.320  1.00  0.00    -0.014 C 
HETATM   24  C18 UNL     1      -4.645  -0.798   0.688  1.00  0.00     0.051 C 
HETATM   25  C15 UNL     1      -6.076   1.719  -1.541  1.00  0.00     0.010 C 
HETATM   26  C16 UNL     1      -6.557  -0.520  -0.641  1.00  0.00     0.005 C 
HETATM   27  C17 UNL     1      -5.571  -1.571  -0.169  1.00  0.00     0.012 C 
HETATM   28  C19 UNL     1      -3.273  -1.329   0.822  1.00  0.00     0.057 C 
HETATM   29  N3  UNL     1      -2.941  -2.550   0.665  1.00  0.00    -0.393 N 
ATOM     30  H32 UNL     1      -3.675  -3.218   0.430  1.00  0.00     0.157 HD
ATOM     31  H31 UNL     1      -1.994  -2.917   0.758  1.00  0.00     0.157 HD
ENDBRANCH   1  18
TORSDOF 12
