REMARK  15 active torsions:
REMARK  status: ('A' for Active; 'I' for Inactive)
REMARK    1  A    between atoms: O1_2  and  C2_3 
REMARK    2  A    between atoms: C2_3  and  C3_5 
REMARK    3  A    between atoms: C3_5  and  C4_6 
REMARK    4  A    between atoms: C4_6  and  C5_7 
REMARK    5  A    between atoms: C5_7  and  C6_8 
REMARK    6  A    between atoms: C6_8  and  C7_9 
REMARK    7  A    between atoms: C7_9  and  C8_10 
REMARK    8  A    between atoms: C9_11  and  C10_12 
REMARK    9  A    between atoms: C10_12  and  C11_13 
REMARK   10  A    between atoms: C11_13  and  C12_14 
REMARK   11  A    between atoms: C12_14  and  C13_15 
REMARK       I    between atoms: C13_15  and  N1_17 
REMARK   12  A    between atoms: N1_17  and  N2_19 
REMARK   13  A    between atoms: N2_19  and  C14_21 
REMARK   14  A    between atoms: C14_21  and  N3_23 
REMARK   15  A    between atoms: N3_23  and  C15_25 
ROOT
HETATM    1  C13 UNL     1      -1.019   1.443   0.674  1.00  0.00     0.236 C 
HETATM    2  O3  UNL     1      -0.607   0.970   1.743  1.00  0.00    -0.272 OA
HETATM    3  N1  UNL     1      -2.447   1.553   0.463  1.00  0.00    -0.268 N 
ATOM      4  H1  UNL     1      -2.830   1.949  -0.395  1.00  0.00     0.190 HD
ENDROOT
BRANCH   1   5
HETATM    5  C12 UNL     1      -0.153   1.909  -0.429  1.00  0.00     0.105 C 
BRANCH   5   6
HETATM    6  C11 UNL     1       1.259   1.519  -0.405  1.00  0.00     0.013 C 
BRANCH   6   7
HETATM    7  C10 UNL     1       1.651   0.107  -0.614  1.00  0.00     0.028 C 
BRANCH   7   8
HETATM    8  C9  UNL     1       1.187  -0.934   0.243  1.00  0.00    -0.019 C 
HETATM    9  C8  UNL     1       1.914  -1.718   1.000  1.00  0.00     0.046 C 
BRANCH   9  10
HETATM   10  C7  UNL     1       3.356  -1.650   1.089  1.00  0.00    -0.156 C 
BRANCH  10  11
HETATM   11  C6  UNL     1       4.556  -1.594   1.164  1.00  0.00     0.085 C 
BRANCH  11  12
HETATM   12  C5  UNL     1       5.516  -0.624   0.444  1.00  0.00     0.012 C 
BRANCH  12  13
HETATM   13  C4  UNL     1       6.439  -1.440  -0.399  1.00  0.00     0.011 C 
BRANCH  13  14
HETATM   14  C3  UNL     1       7.463  -0.649  -1.143  1.00  0.00     0.111 C 
BRANCH  14  15
HETATM   15  C2  UNL     1       8.412   0.135  -0.358  1.00  0.00     0.258 C 
HETATM   16  O2  UNL     1       8.188   0.753   0.698  1.00  0.00    -0.265 OA
BRANCH  15  17
HETATM   17  O1  UNL     1       9.783   0.242  -0.785  1.00  0.00    -0.326 OA
HETATM   18  C1  UNL     1      10.701   0.992  -0.032  1.00  0.00     0.213 C 
ENDBRANCH  15  17
ENDBRANCH  14  15
ENDBRANCH  13  14
ENDBRANCH  12  13
ENDBRANCH  11  12
ENDBRANCH  10  11
ENDBRANCH   9  10
ENDBRANCH   7   8
ENDBRANCH   6   7
ENDBRANCH   5   6
ENDBRANCH   1   5
BRANCH   3  19
HETATM   19  N2  UNL     1      -3.268   1.096   1.479  1.00  0.00    -0.274 N 
ATOM     20  H2  UNL     1      -2.916   1.071   2.436  1.00  0.00     0.189 HD
BRANCH  19  21
HETATM   21  C14 UNL     1      -4.591   0.662   1.209  1.00  0.00     0.188 C 
HETATM   22  S1  UNL     1      -5.519   0.105   2.411  1.00  0.00    -0.040 SA
BRANCH  21  23
HETATM   23  N3  UNL     1      -5.043   0.719  -0.138  1.00  0.00    -0.338 N 
ATOM     24  H3  UNL     1      -4.405   1.052  -0.861  1.00  0.00     0.164 HD
BRANCH  23  25
HETATM   25  C15 UNL     1      -6.360   0.325  -0.507  1.00  0.00     0.286 C 
HETATM   26  C16 UNL     1      -7.445   1.240   0.020  1.00  0.00     0.054 C 
HETATM   27  C17 UNL     1      -8.739   0.816  -0.690  1.00  0.00     0.005 C 
HETATM   28  C18 UNL     1      -8.984  -0.608  -0.205  1.00  0.00     0.028 C 
HETATM   29  C19 UNL     1      -7.875  -1.524  -0.591  1.00  0.00     0.235 C 
HETATM   30  N4  UNL     1      -6.586  -1.053  -0.102  1.00  0.00    -0.054 N 
ATOM     31  H42 UNL     1      -5.823  -1.664  -0.394  1.00  0.00     0.279 HD
ATOM     32  H41 UNL     1      -6.497  -1.171   0.907  1.00  0.00     0.279 HD
ENDBRANCH  23  25
ENDBRANCH  21  23
ENDBRANCH  19  21
ENDBRANCH   3  19
TORSDOF 15
