REMARK  11 active torsions:
REMARK  status: ('A' for Active; 'I' for Inactive)
REMARK    1  A    between atoms: C2_2  and  N1_3 
REMARK    2  A    between atoms: C2_2  and  O3_20 
REMARK    3  A    between atoms: C2_2  and  C14_24 
REMARK    4  A    between atoms: C3_5  and  O1_6 
REMARK    5  A    between atoms: C3_5  and  C4_8 
REMARK    6  A    between atoms: C6_13  and  C7_14 
REMARK    7  A    between atoms: O3_20  and  C13_21 
REMARK    8  A    between atoms: C15_29  and  C16_30 
REMARK    9  A    between atoms: C16_30  and  O4_31 
REMARK   10  A    between atoms: O4_31  and  C17_32 
REMARK   11  A    between atoms: C20_35  and  C21_36 
ROOT
HETATM    1  C1  UNL     1      -1.959   0.745   2.099  1.00  0.00     0.081 C 
HETATM    2  C2  UNL     1      -2.553  -0.350   1.307  1.00  0.00     0.205 C 
ENDROOT
BRANCH   2   3
HETATM    3  N1  UNL     1      -3.700   0.067   0.548  1.00  0.00    -0.331 N 
HETATM    4  C3  UNL     1      -3.945   1.027  -0.321  1.00  0.00     0.168 C 
ATOM      5  H1  UNL     1      -4.517  -0.518   0.723  1.00  0.00     0.165 HD
BRANCH   4   6
HETATM    6  O1  UNL     1      -2.722   1.815  -0.450  1.00  0.00    -0.344 OA
ATOM      7  H1  UNL     1      -2.899   2.507  -1.076  1.00  0.00     0.219 HD
ENDBRANCH   4   6
BRANCH   4   8
HETATM    8  C4  UNL     1      -4.863   1.652  -1.197  1.00  0.00     0.118 A 
HETATM    9  N2  UNL     1      -4.603   2.689  -2.084  1.00  0.00    -0.257 N 
HETATM   10  O2  UNL     1      -5.685   2.970  -2.696  1.00  0.00    -0.249 OA
ATOM     11  H2  UNL     1      -3.702   3.146  -2.222  1.00  0.00     0.195 HD
HETATM   12  C5  UNL     1      -6.679   2.252  -2.344  1.00  0.00     0.182 A 
HETATM   13  C6  UNL     1      -6.205   1.384  -1.376  1.00  0.00     0.031 A 
BRANCH  13  14
HETATM   14  C7  UNL     1      -7.037   0.392  -0.679  1.00  0.00    -0.022 A 
HETATM   15  C8  UNL     1      -7.575  -0.646  -1.437  1.00  0.00     0.012 A 
HETATM   16  C9  UNL     1      -8.373  -1.525  -0.760  1.00  0.00     0.001 A 
HETATM   17  C10 UNL     1      -8.650  -1.421   0.593  1.00  0.00     0.000 A 
HETATM   18  C11 UNL     1      -8.089  -0.367   1.286  1.00  0.00     0.001 A 
HETATM   19  C12 UNL     1      -7.279   0.540   0.626  1.00  0.00     0.012 A 
ENDBRANCH  13  14
ENDBRANCH   4   8
ENDBRANCH   2   3
BRANCH   2  20
HETATM   20  O3  UNL     1      -2.955  -1.341   2.233  1.00  0.00    -0.293 OA
BRANCH  20  21
HETATM   21  C13 UNL     1      -2.000  -2.000   2.892  1.00  0.00     0.502 C 
HETATM   22  F1  UNL     1      -2.103  -1.782   4.259  1.00  0.00    -0.184 F 
HETATM   23  F2  UNL     1      -2.103  -3.399   2.722  1.00  0.00    -0.184 F 
ENDBRANCH  20  21
ENDBRANCH   2  20
BRANCH   2  24
HETATM   24  C14 UNL     1      -1.576  -0.995   0.345  1.00  0.00     0.196 A 
HETATM   25  N3  UNL     1      -1.814  -1.725  -0.738  1.00  0.00    -0.277 N 
HETATM   26  N4  UNL     1      -0.630  -2.094  -1.271  1.00  0.00    -0.280 N 
ATOM     27  H3  UNL     1      -2.735  -1.966  -1.105  1.00  0.00     0.189 HD
HETATM   28  C15 UNL     1       0.299  -1.584  -0.512  1.00  0.00     0.164 A 
ATOM     29  H4  UNL     1      -0.489  -2.662  -2.106  1.00  0.00     0.189 HD
HETATM   30  O5  UNL     1      -0.287  -0.903   0.490  1.00  0.00    -0.275 OA
BRANCH  28  31
HETATM   31  C16 UNL     1       1.813  -1.623  -0.550  1.00  0.00     0.261 C 
BRANCH  31  32
HETATM   32  O4  UNL     1       2.255  -0.257  -0.549  1.00  0.00    -0.343 OA
BRANCH  32  33
HETATM   33  C17 UNL     1       3.631   0.018  -0.477  1.00  0.00     0.069 A 
HETATM   34  C18 UNL     1       4.149   1.273  -0.494  1.00  0.00     0.037 A 
HETATM   35  C19 UNL     1       5.533   1.470  -0.417  1.00  0.00     0.015 A 
HETATM   36  C20 UNL     1       6.402   0.430  -0.316  1.00  0.00    -0.026 A 
HETATM   37  C27 UNL     1       5.883  -0.850  -0.295  1.00  0.00     0.015 A 
HETATM   38  C28 UNL     1       4.517  -1.069  -0.377  1.00  0.00     0.037 A 
BRANCH  36  39
HETATM   39  C21 UNL     1       7.862   0.640  -0.260  1.00  0.00    -0.026 A 
HETATM   40  C22 UNL     1       8.479   1.652  -0.937  1.00  0.00     0.012 A 
HETATM   41  C23 UNL     1       9.817   1.885  -0.831  1.00  0.00     0.001 A 
HETATM   42  C24 UNL     1      10.541   1.052  -0.010  1.00  0.00     0.000 A 
HETATM   43  C25 UNL     1       9.935   0.034   0.668  1.00  0.00     0.001 A 
HETATM   44  C26 UNL     1       8.605  -0.177   0.552  1.00  0.00     0.012 A 
ENDBRANCH  36  39
ENDBRANCH  32  33
ENDBRANCH  31  32
ENDBRANCH  28  31
ENDBRANCH   2  24
TORSDOF 11
