REMARK  8 active torsions:
REMARK  status: ('A' for Active; 'I' for Inactive)
REMARK    1  A    between atoms: C3_3  and  N1_4 
REMARK    2  A    between atoms: N1_4  and  C4_6 
REMARK    3  A    between atoms: N3_12  and  C8_13 
REMARK    4  A    between atoms: C8_13  and  C9_14 
REMARK    5  A    between atoms: C9_14  and  C10_15 
REMARK    6  A    between atoms: C10_15  and  C11_16 
REMARK    7  A    between atoms: C11_16  and  C12_17 
REMARK    8  A    between atoms: C15_24  and  N6_25 
ROOT
HETATM    1  C1  UNL     1       7.674  -0.479   0.369  1.00  0.00     0.014 C 
HETATM    2  C2  UNL     1       6.642  -0.355  -0.250  1.00  0.00    -0.098 C 
HETATM    3  C3  UNL     1       5.390  -0.227  -0.993  1.00  0.00     0.215 C 
ENDROOT
BRANCH   3   4
HETATM    4  N1  UNL     1       4.290   0.073  -0.136  1.00  0.00    -0.363 N 
ATOM      5  H1  UNL     1       4.468   0.268   0.849  1.00  0.00     0.162 HD
BRANCH   4   6
HETATM    6  C4  UNL     1       3.081   0.104  -0.570  1.00  0.00     0.146 A 
HETATM    7  N2  UNL     1       2.854  -0.157  -1.870  1.00  0.00    -0.348 N 
HETATM    8  C5  UNL     1       1.577  -0.115  -2.285  1.00  0.00     0.114 A 
ATOM      9  H2  UNL     1       3.616  -0.377  -2.511  1.00  0.00     0.167 HD
HETATM   10  C6  UNL     1       0.514   0.176  -1.452  1.00  0.00     0.025 A 
HETATM   11  C7  UNL     1      -0.870   0.200  -2.003  1.00  0.00     0.070 C 
HETATM   12  N3  UNL     1       0.741   0.437  -0.150  1.00  0.00    -0.333 N 
HETATM   13  C15 UNL     1       2.021   0.402   0.293  1.00  0.00     0.146 A 
BRANCH  12  14
HETATM   14  C8  UNL     1      -0.312   0.745   0.772  1.00  0.00     0.131 C 
BRANCH  14  15
HETATM   15  C9  UNL     1      -0.878  -0.472   1.460  1.00  0.00     0.021 C 
BRANCH  15  16
HETATM   16  C10 UNL     1      -1.959  -0.155   2.416  1.00  0.00     0.008 C 
BRANCH  16  17
HETATM   17  C11 UNL     1      -3.173   0.515   1.900  1.00  0.00     0.058 C 
BRANCH  17  18
HETATM   18  C12 UNL     1      -3.908  -0.255   0.873  1.00  0.00     0.025 A 
HETATM   19  C13 UNL     1      -5.072   0.225   0.260  1.00  0.00     0.113 A 
HETATM   20  N4  UNL     1      -5.498  -0.701  -0.616  1.00  0.00    -0.360 N 
HETATM   21  C14 UNL     1      -4.652  -1.747  -0.583  1.00  0.00     0.180 A 
ATOM     22  H4  UNL     1      -6.325  -0.624  -1.208  1.00  0.00     0.166 HD
HETATM   23  N5  UNL     1      -3.706  -1.445   0.324  1.00  0.00    -0.355 N 
ATOM     24  H5  UNL     1      -2.926  -2.058   0.561  1.00  0.00     0.166 HD
ENDBRANCH  17  18
ENDBRANCH  16  17
ENDBRANCH  15  16
ENDBRANCH  14  15
ENDBRANCH  12  14
BRANCH  13  25
HETATM   25  N6  UNL     1       2.365   0.631   1.512  1.00  0.00    -0.382 N 
ATOM     26  H62 UNL     1       3.329   0.605   1.845  1.00  0.00     0.157 HD
ATOM     27  H61 UNL     1       1.592   0.848   2.141  1.00  0.00     0.157 HD
ENDBRANCH  13  25
ENDBRANCH   4   6
ENDBRANCH   3   4
TORSDOF 8
