REMARK  11 active torsions:
REMARK  status: ('A' for Active; 'I' for Inactive)
REMARK    1  A    between atoms: N1_2  and  S1_4 
REMARK    2  A    between atoms: S1_4  and  N2_7 
REMARK    3  A    between atoms: N3_10  and  C4_11 
REMARK    4  A    between atoms: C4_11  and  O3_12 
REMARK    5  A    between atoms: C4_11  and  C5_14 
REMARK    6  A    between atoms: C5_14  and  C12_28 
REMARK       I    between atoms: N4_15  and  C6_17 
REMARK    7  A    between atoms: C6_17  and  C7_19 
REMARK    8  A    between atoms: C7_19  and  N5_20 
REMARK    9  A    between atoms: C7_19  and  C8_24 
REMARK   10  A    between atoms: C8_24  and  C9_25 
REMARK   11  A    between atoms: C18_35  and  O5_36 
ROOT
HETATM    1  C4  UNL     1      -0.197  -2.600   0.806  1.00  0.00     0.162 C 
ENDROOT
BRANCH   1   2
HETATM    2  N3  UNL     1      -1.377  -2.062   0.318  1.00  0.00    -0.351 N 
HETATM    3  C3  UNL     1      -1.496  -0.883  -0.443  1.00  0.00     0.112 C 
HETATM    4  C2  UNL     1      -2.184   0.251   0.329  1.00  0.00     0.135 C 
HETATM    5  C19 UNL     1      -2.454  -0.984  -1.626  1.00  0.00     0.019 C 
HETATM    6  N2  UNL     1      -2.417   1.217  -0.717  1.00  0.00    -0.191 NA
HETATM    7  C21 UNL     1      -2.708   0.493  -1.911  1.00  0.00     0.123 C 
HETATM    8  C18 UNL     1      -3.730  -1.634  -1.249  1.00  0.00     0.165 C 
HETATM    9  C20 UNL     1      -1.777  -1.630  -2.815  1.00  0.00     0.021 C 
HETATM   10  C17 UNL     1      -3.537  -2.941  -0.511  1.00  0.00     0.217 C 
HETATM   11  C16 UNL     1      -2.616  -2.803   0.655  1.00  0.00     0.165 C 
HETATM   12  F1  UNL     1      -4.782  -3.299  -0.017  1.00  0.00    -0.245 F 
BRANCH   6  13
HETATM   13  S1  UNL     1      -3.555   2.419  -0.322  1.00  0.00     0.298 S 
HETATM   14  O1  UNL     1      -4.855   1.767   0.046  1.00  0.00    -0.188 OA
HETATM   15  O2  UNL     1      -3.765   3.398  -1.447  1.00  0.00    -0.188 OA
BRANCH  13  16
HETATM   16  N1  UNL     1      -3.045   3.366   1.038  1.00  0.00    -0.311 N 
HETATM   17  C1  UNL     1      -2.265   4.520   0.608  1.00  0.00     0.160 C 
ATOM     18  H1  UNL     1      -3.262   3.145   2.010  1.00  0.00     0.172 HD
ENDBRANCH  13  16
ENDBRANCH   6  13
BRANCH   8  19
HETATM   19  O5  UNL     1      -4.396  -1.973  -2.451  1.00  0.00    -0.392 OA
ATOM     20  H5  UNL     1      -4.517  -1.153  -2.914  1.00  0.00     0.210 HD
ENDBRANCH   8  19
ENDBRANCH   1   2
BRANCH   1  21
HETATM   21  O3  UNL     1      -0.345  -3.717   1.467  1.00  0.00    -0.345 OA
ATOM     22  H3  UNL     1       0.464  -4.086   1.802  1.00  0.00     0.219 HD
ENDBRANCH   1  21
BRANCH   1  23
HETATM   23  C5  UNL     1       1.186  -2.123   0.705  1.00  0.00     0.070 C 
HETATM   24  N4  UNL     1       1.497  -1.100   0.127  1.00  0.00    -0.324 N 
HETATM   25  C6  UNL     1       2.460  -0.238  -0.265  1.00  0.00     0.252 C 
ATOM     26  H4  UNL     1       0.623  -0.711  -0.227  1.00  0.00     0.169 HD
HETATM   27  O4  UNL     1       3.195  -0.559  -1.272  1.00  0.00    -0.271 OA
BRANCH  25  28
HETATM   28  C7  UNL     1       2.765   1.089   0.369  1.00  0.00     0.275 C 
BRANCH  28  29
HETATM   29  N5  UNL     1       1.907   1.360   1.480  1.00  0.00    -0.066 N 
ATOM     30  H53 UNL     1       0.924   1.293   1.214  1.00  0.00     0.275 HD
ATOM     31  H52 UNL     1       1.939   0.606   2.166  1.00  0.00     0.275 HD
ATOM     32  H51 UNL     1       2.114   2.261   1.911  1.00  0.00     0.275 HD
ENDBRANCH  28  29
BRANCH  28  33
HETATM   33  C8  UNL     1       2.582   2.144  -0.690  1.00  0.00     0.046 C 
BRANCH  33  34
HETATM   34  C9  UNL     1       2.864   3.532  -0.164  1.00  0.00    -0.020 C 
HETATM   35  C10 UNL     1       4.260   3.693   0.347  1.00  0.00     0.009 C 
HETATM   36  C11 UNL     1       2.604   4.577  -1.215  1.00  0.00     0.009 C 
ENDBRANCH  33  34
ENDBRANCH  28  33
ENDBRANCH  25  28
BRANCH  23  37
HETATM   37  C12 UNL     1       2.190  -3.008   1.380  1.00  0.00    -0.004 C 
HETATM   38  C13 UNL     1       2.142  -4.411   0.781  1.00  0.00     0.021 C 
HETATM   39  C14 UNL     1       1.726  -3.174   2.840  1.00  0.00     0.021 C 
HETATM   40  C15 UNL     1       3.599  -2.534   1.318  1.00  0.00     0.021 C 
ENDBRANCH  23  37
ENDBRANCH   1  23
TORSDOF 11
