REMARK  5 active torsions:
REMARK  status: ('A' for Active; 'I' for Inactive)
REMARK    1  A    between atoms: O1_2  and  C2_3 
REMARK    2  A    between atoms: C3_6  and  N2_7 
REMARK    3  A    between atoms: C6_12  and  N4_13 
REMARK       I    between atoms: N4_13  and  C7_14 
REMARK       I    between atoms: C7_14  and  N5_16 
REMARK    4  A    between atoms: N5_16  and  N6_18 
REMARK    5  A    between atoms: N6_18  and  N7_19 
ROOT
HETATM    1  C2  UNL     1      -1.708  -1.689   0.480  1.00  0.00     0.241 A 
HETATM    2  N1  UNL     1      -2.220  -0.504   0.122  1.00  0.00    -0.154 N 
ATOM      3  H1  UNL     1      -3.225  -0.414  -0.031  1.00  0.00     0.188 HD
HETATM    4  C3  UNL     1      -1.422   0.572  -0.039  1.00  0.00     0.686 A 
HETATM    5  N3  UNL     1      -0.106   0.455   0.160  1.00  0.00    -0.148 N 
ATOM      6  H3  UNL     1       0.484   1.278   0.034  1.00  0.00     0.188 HD
HETATM    7  C6  UNL     1       0.484  -0.731   0.528  1.00  0.00     0.281 A 
HETATM    8  N8  UNL     1      -0.406  -1.769   0.669  1.00  0.00    -0.281 N 
ATOM      9  H8  UNL     1      -0.028  -2.676   0.942  1.00  0.00     0.173 HD
ENDROOT
BRANCH   7  10
HETATM   10  N4  UNL     1       1.662  -0.878   0.698  1.00  0.00    -0.314 NA
HETATM   11  C7  UNL     1       2.959  -0.850   0.836  1.00  0.00     0.413 C 
HETATM   12  O2  UNL     1       3.567  -1.527   1.750  1.00  0.00    -0.229 OA
HETATM   13  N5  UNL     1       3.812  -0.083   0.004  1.00  0.00    -0.224 N 
ATOM     14  H5  UNL     1       3.397   0.476  -0.741  1.00  0.00     0.190 HD
BRANCH  13  15
HETATM   15  N6  UNL     1       5.186  -0.063   0.163  1.00  0.00    -0.025 NA
BRANCH  15  16
HETATM   16  N7  UNL     1       5.840   0.297  -1.008  1.00  0.00    -0.329 N 
ATOM     17  H72 UNL     1       5.350   0.518  -1.875  1.00  0.00     0.174 HD
ATOM     18  H71 UNL     1       6.853   0.312  -0.891  1.00  0.00     0.174 HD
ENDBRANCH  15  16
ENDBRANCH  13  15
ENDBRANCH   7  10
BRANCH   4  19
HETATM   19  N2  UNL     1      -1.961   1.844  -0.423  1.00  0.00    -0.226 N 
HETATM   20  C4  UNL     1      -3.362   2.053  -0.715  1.00  0.00     0.168 C 
HETATM   21  C5  UNL     1      -1.077   2.995  -0.520  1.00  0.00     0.168 C 
ENDBRANCH   4  19
BRANCH   1  22
HETATM   22  O1  UNL     1      -2.550  -2.760   0.634  1.00  0.00    -0.327 OA
HETATM   23  C1  UNL     1      -3.917  -2.845   0.479  1.00  0.00     0.213 C 
ENDBRANCH   1  22
TORSDOF 5
