REMARK  10 active torsions:
REMARK  status: ('A' for Active; 'I' for Inactive)
REMARK    1  A    between atoms: N1_1  and  C1_4 
REMARK    2  A    between atoms: C5_14  and  N6_15 
REMARK    3  A    between atoms: N6_15  and  C6_17 
REMARK    4  A    between atoms: C6_17  and  O1_18 
REMARK    5  A    between atoms: C8_23  and  C9_24 
REMARK       I    between atoms: C9_24  and  N8_26 
REMARK    6  A    between atoms: N8_26  and  C10_28 
REMARK    7  A    between atoms: C10_28  and  C11_29 
REMARK    8  A    between atoms: C11_29  and  O3_30 
REMARK    9  A    between atoms: N10_34  and  N11_35 
REMARK   10  A    between atoms: C13_41  and  O4_42 
ROOT
HETATM    1  C6  UNL     1       0.242  -0.205  -0.324  1.00  0.00     0.203 C 
HETATM    2  C7  UNL     1       1.573  -0.649  -0.680  1.00  0.00     0.201 A 
HETATM    3  N7  UNL     1       2.664   0.130  -0.441  1.00  0.00    -0.317 N 
ATOM      4  H7  UNL     1       2.636   1.053  -0.008  1.00  0.00     0.169 HD
HETATM    5  C8  UNL     1       3.774  -0.484  -0.852  1.00  0.00     0.192 A 
HETATM    6  N9  UNL     1       3.380  -1.647  -1.348  1.00  0.00    -0.256 N 
ATOM      7  H9  UNL     1       3.999  -2.353  -1.746  1.00  0.00     0.191 HD
HETATM    8  N10 UNL     1       2.028  -1.760  -1.248  1.00  0.00    -0.149 N 
ENDROOT
BRANCH   1   9
HETATM    9  N6  UNL     1      -0.972  -0.882  -0.501  1.00  0.00    -0.165 N 
ATOM     10  H6  UNL     1      -0.973  -1.807  -0.930  1.00  0.00     0.186 HD
BRANCH   9  11
HETATM   11  C5  UNL     1      -2.204  -0.299  -0.091  1.00  0.00     0.701 A 
HETATM   12  N5  UNL     1      -3.447  -0.792  -0.180  1.00  0.00    -0.171 N 
HETATM   13  C4  UNL     1      -4.339   0.079   0.326  1.00  0.00     0.189 A 
ATOM     14  H5  UNL     1      -3.684  -1.701  -0.576  1.00  0.00     0.186 HD
HETATM   15  C3  UNL     1      -5.722   0.067   0.476  1.00  0.00     0.135 A 
HETATM   16  N15 UNL     1      -3.626   1.142   0.739  1.00  0.00    -0.053 N 
HETATM   17  C2  UNL     1      -6.400   1.124   1.044  1.00  0.00     0.160 A 
HETATM   18  N4  UNL     1      -6.467  -1.053   0.040  1.00  0.00    -0.095 NA
HETATM   19  N2  UNL     1      -5.626   2.176   1.446  1.00  0.00    -0.175 N 
HETATM   20  N3  UNL     1      -7.801   1.152   1.215  1.00  0.00    -0.080 NA
HETATM   21  C1  UNL     1      -4.290   2.172   1.293  1.00  0.00     0.700 A 
ATOM     22  H2  UNL     1      -6.074   2.986   1.874  1.00  0.00     0.185 HD
HETATM   23  N14 UNL     1      -2.345   0.918   0.490  1.00  0.00    -0.109 N 
ATOM     24  H14 UNL     1      -1.582   1.561   0.702  1.00  0.00     0.207 HD
BRANCH  21  25
HETATM   25  N1  UNL     1      -3.644   3.211   1.703  1.00  0.00    -0.233 N 
ATOM     26  H12 UNL     1      -4.148   3.992   2.123  1.00  0.00     0.174 HD
ATOM     27  H11 UNL     1      -2.631   3.208   1.587  1.00  0.00     0.174 HD
ENDBRANCH  21  25
ENDBRANCH   9  11
ENDBRANCH   1   9
BRANCH   1  28
HETATM   28  O1  UNL     1       0.126   0.967   0.234  1.00  0.00    -0.343 OA
ATOM     29  H1  UNL     1       0.949   1.426   0.354  1.00  0.00     0.219 HD
ENDBRANCH   1  28
BRANCH   8  30
HETATM   30  N11 UNL     1       1.320  -2.876  -1.687  1.00  0.00    -0.134 N 
HETATM   31  N12 UNL     1       0.798  -3.016  -2.887  1.00  0.00    -0.218 N 
HETATM   32  N13 UNL     1       0.220  -4.211  -2.985  1.00  0.00    -0.292 N 
ATOM     33  H12 UNL     1       0.831  -2.316  -3.628  1.00  0.00     0.210 HD
HETATM   34  C12 UNL     1       0.373  -4.855  -1.824  1.00  0.00     0.168 A 
ATOM     35  H13 UNL     1      -0.260  -4.574  -3.809  1.00  0.00     0.187 HD
HETATM   36  C13 UNL     1       1.085  -3.987  -0.989  1.00  0.00     0.200 A 
BRANCH  36  37
HETATM   37  O4  UNL     1       1.440  -4.300   0.313  1.00  0.00    -0.343 OA
ATOM     38  H4  UNL     1       1.273  -5.092   0.810  1.00  0.00     0.219 HD
ENDBRANCH  36  37
ENDBRANCH   8  30
BRANCH   5  39
HETATM   39  C9  UNL     1       5.133   0.059  -0.753  1.00  0.00     0.287 C 
HETATM   40  O2  UNL     1       6.065  -0.654  -1.189  1.00  0.00    -0.264 OA
HETATM   41  N8  UNL     1       5.409   1.328  -0.194  1.00  0.00    -0.352 N 
ATOM     42  H8  UNL     1       4.649   1.908   0.162  1.00  0.00     0.162 HD
BRANCH  41  43
HETATM   43  C10 UNL     1       6.759   1.794  -0.130  1.00  0.00     0.149 C 
BRANCH  43  44
HETATM   44  C11 UNL     1       6.833   3.173   0.503  1.00  0.00     0.183 C 
BRANCH  44  45
HETATM   45  O3  UNL     1       6.319   3.118   1.795  1.00  0.00    -0.399 OA
ATOM     46  H3  UNL     1       6.365   3.980   2.191  1.00  0.00     0.209 HD
ENDBRANCH  44  45
ENDBRANCH  43  44
ENDBRANCH  41  43
ENDBRANCH   5  39
TORSDOF 10
