REMARK  11 active torsions:
REMARK  status: ('A' for Active; 'I' for Inactive)
REMARK    1  A    between atoms: O1_2  and  C2_3 
REMARK    2  A    between atoms: C3_4  and  O2_5 
REMARK    3  A    between atoms: C3_4  and  C4_7 
REMARK    4  A    between atoms: C4_7  and  O3_8 
REMARK    5  A    between atoms: C6_16  and  O4_17 
REMARK    6  A    between atoms: C7_19  and  C8_20 
REMARK    7  A    between atoms: C8_20  and  O5_22 
REMARK    8  A    between atoms: C10_25  and  O7_26 
REMARK    9  A    between atoms: O7_26  and  S1_27 
REMARK   10  A    between atoms: S1_27  and  C11_30 
REMARK   11  A    between atoms: C11_30  and  C12_31 
ROOT
HETATM    1  C2  UNL     1      -2.104  -0.435   0.111  1.00  0.00     0.231 C 
HETATM    2  C3  UNL     1      -2.039  -1.889  -0.062  1.00  0.00     0.207 C 
HETATM    3  N1  UNL     1      -0.655  -2.375  -0.281  1.00  0.00    -0.101 NA
HETATM    4  N2  UNL     1      -0.045  -1.808  -1.363  1.00  0.00    -0.106 NA
HETATM    5  C5  UNL     1      -0.442  -0.404  -1.488  1.00  0.00     0.364 C 
HETATM    6  N3  UNL     1      -1.773  -0.500  -2.124  1.00  0.00    -0.012 N 
ATOM      7  H31 UNL     1      -2.126  -1.442  -2.294  1.00  0.00     0.283 HD
ATOM      8  H32 UNL     1      -1.827  -0.224  -3.104  1.00  0.00     0.283 HD
HETATM    9  C6  UNL     1      -2.528   0.311  -1.184  1.00  0.00     0.296 C 
HETATM   10  C7  UNL     1      -1.767   1.616  -1.119  1.00  0.00     0.220 C 
HETATM   11  O6  UNL     1      -0.944   1.464  -0.015  1.00  0.00    -0.336 OA
HETATM   12  C10 UNL     1      -0.640   0.083  -0.092  1.00  0.00     0.268 C 
ENDROOT
BRANCH  12  13
HETATM   13  O7  UNL     1       0.182  -0.355   0.869  1.00  0.00    -0.228 OA
BRANCH  13  14
HETATM   14  S1  UNL     1       1.746   0.173   0.720  1.00  0.00     0.272 S 
HETATM   15  O8  UNL     1       2.013   1.336   1.669  1.00  0.00    -0.198 OA
HETATM   16  O9  UNL     1       2.122   0.662  -0.637  1.00  0.00    -0.198 OA
BRANCH  14  17
HETATM   17  C11 UNL     1       2.881  -1.169   1.103  1.00  0.00     0.209 C 
BRANCH  17  18
HETATM   18  C12 UNL     1       4.261  -0.609   0.945  1.00  0.00    -0.042 A 
HETATM   19  C13 UNL     1       4.935  -0.660  -0.267  1.00  0.00     0.008 A 
HETATM   20  C14 UNL     1       6.203  -0.145  -0.409  1.00  0.00     0.001 A 
HETATM   21  C15 UNL     1       6.840   0.444   0.675  1.00  0.00     0.000 A 
HETATM   22  C16 UNL     1       6.172   0.494   1.877  1.00  0.00     0.001 A 
HETATM   23  C17 UNL     1       4.906  -0.026   1.999  1.00  0.00     0.008 A 
ENDBRANCH  17  18
ENDBRANCH  14  17
ENDBRANCH  13  14
ENDBRANCH  12  13
BRANCH   1  24
HETATM   24  O1  UNL     1      -2.550   0.142   1.217  1.00  0.00    -0.371 OA
HETATM   25  C1  UNL     1      -3.781   0.026   1.719  1.00  0.00     0.203 C 
ENDBRANCH   1  24
BRANCH   2  26
HETATM   26  O2  UNL     1      -2.871  -2.379  -1.092  1.00  0.00    -0.368 OA
ATOM     27  H2  UNL     1      -2.829  -3.321  -1.204  1.00  0.00     0.212 HD
ENDBRANCH   2  26
BRANCH   2  28
HETATM   28  C4  UNL     1      -2.447  -2.728   1.149  1.00  0.00     0.225 C 
BRANCH  28  29
HETATM   29  O3  UNL     1      -1.664  -2.491   2.260  1.00  0.00    -0.396 OA
ATOM     30  H3  UNL     1      -1.918  -3.012   3.013  1.00  0.00     0.209 HD
ENDBRANCH  28  29
ENDBRANCH   2  28
BRANCH   9  31
HETATM   31  O4  UNL     1      -3.841   0.384  -1.367  1.00  0.00    -0.360 OA
ATOM     32  H4  UNL     1      -4.100   0.840  -2.159  1.00  0.00     0.212 HD
ENDBRANCH   9  31
BRANCH  10  33
HETATM   33  C8  UNL     1      -2.575   2.849  -1.177  1.00  0.00     0.148 C 
HETATM   34  C9  UNL     1      -1.596   4.033  -1.197  1.00  0.00     0.042 C 
BRANCH  33  35
HETATM   35  O5  UNL     1      -3.461   3.088  -0.171  1.00  0.00    -0.393 OA
ATOM     36  H5  UNL     1      -3.981   3.882  -0.208  1.00  0.00     0.210 HD
ENDBRANCH  33  35
ENDBRANCH  10  33
TORSDOF 11
