REMARK  11 active torsions:
REMARK  status: ('A' for Active; 'I' for Inactive)
REMARK    1  A    between atoms: C3_5  and  O2_6 
REMARK    2  A    between atoms: C6_10  and  O3_11 
REMARK    3  A    between atoms: C7_13  and  O4_14 
REMARK    4  A    between atoms: C8_16  and  N2_17 
REMARK    5  A    between atoms: N2_17  and  C9_19 
REMARK    6  A    between atoms: C10_20  and  N3_21 
REMARK    7  A    between atoms: N3_21  and  S1_23 
REMARK    8  A    between atoms: S1_23  and  N4_26 
REMARK    9  A    between atoms: N4_26  and  C11_28 
REMARK   10  A    between atoms: C11_28  and  C12_29 
REMARK   11  A    between atoms: C12_29  and  O7_30 
ROOT
HETATM    1  N2  UNL     1       0.288   1.011   1.492  1.00  0.00    -0.349 N 
ATOM      2  H2  UNL     1       0.768   1.053   2.391  1.00  0.00     0.166 HD
ENDROOT
BRANCH   1   3
HETATM    3  C8  UNL     1      -1.113   0.755   1.458  1.00  0.00     0.071 A 
HETATM    4  C7  UNL     1      -1.810   0.566   2.630  1.00  0.00     0.127 A 
HETATM    5  C6  UNL     1      -3.163   0.315   2.666  1.00  0.00     0.113 A 
HETATM    6  C5  UNL     1      -3.817   0.258   1.449  1.00  0.00     0.030 A 
HETATM    7  C4  UNL     1      -5.184   0.008   1.405  1.00  0.00     0.059 A 
HETATM    8  C16 UNL     1      -3.180   0.437   0.239  1.00  0.00     0.052 A 
HETATM    9  C3  UNL     1      -5.871  -0.057   0.211  1.00  0.00     0.135 A 
HETATM   10  C2  UNL     1      -5.193   0.129  -0.975  1.00  0.00     0.281 A 
HETATM   11  N1  UNL     1      -3.862   0.372  -0.934  1.00  0.00    -0.316 N 
HETATM   12  O1  UNL     1      -5.735   0.088  -2.110  1.00  0.00    -0.265 OA
HETATM   13  C1  UNL     1      -3.126   0.571  -2.168  1.00  0.00     0.160 C 
HETATM   14  C15 UNL     1      -1.813   0.687   0.272  1.00  0.00     0.063 A 
BRANCH   4  15
HETATM   15  O4  UNL     1      -1.109   0.634   3.814  1.00  0.00    -0.356 OA
ATOM     16  H4  UNL     1      -0.175   0.807   3.789  1.00  0.00     0.218 HD
ENDBRANCH   4  15
BRANCH   5  17
HETATM   17  O3  UNL     1      -3.886   0.123   3.821  1.00  0.00    -0.357 OA
ATOM     18  H3  UNL     1      -3.437   0.162   4.657  1.00  0.00     0.217 HD
ENDBRANCH   5  17
BRANCH   9  19
HETATM   19  O2  UNL     1      -7.233  -0.304   0.143  1.00  0.00    -0.356 OA
ATOM     20  H2  UNL     1      -7.700  -0.432   0.960  1.00  0.00     0.218 HD
ENDBRANCH   9  19
ENDBRANCH   1   3
BRANCH   1  21
HETATM   21  C9  UNL     1       1.031   1.210   0.289  1.00  0.00     0.119 A 
HETATM   22  C10 UNL     1       1.720   0.377  -0.586  1.00  0.00     0.129 A 
HETATM   23  C13 UNL     1       2.074   1.442  -1.386  1.00  0.00     0.253 A 
HETATM   24  O8  UNL     1       2.728   1.631  -2.447  1.00  0.00    -0.281 OA
HETATM   25  C14 UNL     1       1.391   2.268  -0.518  1.00  0.00     0.253 A 
HETATM   26  O9  UNL     1       1.146   3.518  -0.429  1.00  0.00    -0.281 OA
BRANCH  22  27
HETATM   27  N3  UNL     1       1.961  -1.018  -0.634  1.00  0.00    -0.261 N 
ATOM     28  H3  UNL     1       1.294  -1.607  -1.133  1.00  0.00     0.180 HD
BRANCH  27  29
HETATM   29  S1  UNL     1       3.313  -1.767   0.101  1.00  0.00     0.319 S 
HETATM   30  O5  UNL     1       2.988  -3.180   0.550  1.00  0.00    -0.182 OA
HETATM   31  O6  UNL     1       3.680  -1.020   1.374  1.00  0.00    -0.182 OA
BRANCH  29  32
HETATM   32  N4  UNL     1       4.678  -1.882  -0.948  1.00  0.00    -0.301 N 
ATOM     33  H4  UNL     1       4.859  -2.667  -1.574  1.00  0.00     0.173 HD
BRANCH  32  34
HETATM   34  C11 UNL     1       5.536  -0.715  -0.824  1.00  0.00     0.159 C 
BRANCH  34  35
HETATM   35  C12 UNL     1       6.733  -0.818  -1.745  1.00  0.00     0.184 C 
BRANCH  35  36
HETATM   36  O7  UNL     1       7.512  -1.915  -1.481  1.00  0.00    -0.399 OA
ATOM     37  H7  UNL     1       8.263  -1.980  -2.059  1.00  0.00     0.209 HD
ENDBRANCH  35  36
ENDBRANCH  34  35
ENDBRANCH  32  34
ENDBRANCH  29  32
ENDBRANCH  27  29
ENDBRANCH  22  27
ENDBRANCH   1  21
TORSDOF 11
