REMARK  12 active torsions:
REMARK  status: ('A' for Active; 'I' for Inactive)
REMARK    1  A    between atoms: C2_2  and  C5_5 
REMARK    2  A    between atoms: C6_6  and  O1_7 
REMARK    3  A    between atoms: O1_7  and  C7_8 
REMARK    4  A    between atoms: C8_9  and  C9_10 
REMARK    5  A    between atoms: C9_10  and  N1_11 
REMARK    6  A    between atoms: C12_14  and  C13_15 
REMARK    7  A    between atoms: C13_15  and  C14_16 
REMARK    8  A    between atoms: C14_16  and  N2_17 
REMARK    9  A    between atoms: C15_18  and  O2_19 
REMARK   10  A    between atoms: C20_27  and  C21_28 
REMARK   11  A    between atoms: C22_29  and  C23_30 
REMARK   12  A    between atoms: C31_41  and  O4_42 
ROOT
HETATM    1  C5  UNL     1      -2.888  -1.848  -1.425  1.00  0.00    -0.003 A 
HETATM    2  C6  UNL     1      -3.181  -0.602  -0.834  1.00  0.00     0.101 A 
HETATM    3  C20 UNL     1      -3.765  -0.462   0.395  1.00  0.00     0.054 A 
HETATM    4  C29 UNL     1      -4.068  -1.628   1.101  1.00  0.00     0.054 A 
HETATM    5  C30 UNL     1      -3.786  -2.859   0.570  1.00  0.00     0.046 A 
HETATM    6  N3  UNL     1      -3.967  -4.080   1.103  1.00  0.00    -0.336 N 
ATOM      7  H3  UNL     1      -4.381  -4.270   2.016  1.00  0.00     0.168 HD
HETATM    8  C31 UNL     1      -3.524  -4.997   0.259  1.00  0.00     0.141 A 
HETATM    9  C32 UNL     1      -3.028  -4.352  -0.884  1.00  0.00     0.070 A 
HETATM   10  C33 UNL     1      -3.193  -3.004  -0.694  1.00  0.00     0.005 A 
ENDROOT
BRANCH   2  11
HETATM   11  O1  UNL     1      -2.835   0.530  -1.509  1.00  0.00    -0.321 OA
BRANCH  11  12
HETATM   12  C7  UNL     1      -1.994   1.508  -1.073  1.00  0.00     0.140 C 
HETATM   13  C8  UNL     1      -0.689   1.426  -0.457  1.00  0.00     0.017 C 
BRANCH  13  14
HETATM   14  C9  UNL     1       0.496   0.826  -1.090  1.00  0.00     0.151 C 
BRANCH  14  15
HETATM   15  N1  UNL     1       1.697   0.938  -0.314  1.00  0.00    -0.390 N 
HETATM   16  C10 UNL     1       1.807   0.215   0.873  1.00  0.00     0.058 C 
HETATM   17  C11 UNL     1       3.191  -0.247   1.231  1.00  0.00     0.049 C 
HETATM   18  C12 UNL     1       4.289   0.615   0.663  1.00  0.00    -0.007 C 
HETATM   19  C18 UNL     1       4.028   0.999  -0.755  1.00  0.00     0.025 C 
HETATM   20  C19 UNL     1       2.712   1.784  -0.760  1.00  0.00     0.122 C 
BRANCH  18  21
HETATM   21  C13 UNL     1       5.628  -0.018   0.885  1.00  0.00     0.025 C 
BRANCH  21  22
HETATM   22  C14 UNL     1       6.762   0.794   0.339  1.00  0.00     0.135 C 
BRANCH  22  23
HETATM   23  N2  UNL     1       8.059   0.112   0.595  1.00  0.00    -0.288 N 
HETATM   24  C15 UNL     1       8.585  -0.739  -0.245  1.00  0.00     0.152 A 
HETATM   25  C16 UNL     1       9.784  -1.309   0.086  1.00  0.00     0.111 A 
HETATM   26  S1  UNL     1      10.113  -0.598   1.600  1.00  0.00    -0.036 SA
HETATM   27  C17 UNL     1       8.721   0.375   1.726  1.00  0.00     0.292 A 
HETATM   28  O3  UNL     1       8.364   1.178   2.667  1.00  0.00    -0.259 OA
BRANCH  24  29
HETATM   29  O2  UNL     1       7.975  -1.102  -1.485  1.00  0.00    -0.345 OA
ATOM     30  H2  UNL     1       8.358  -1.721  -2.096  1.00  0.00     0.219 HD
ENDBRANCH  24  29
ENDBRANCH  22  23
ENDBRANCH  21  22
ENDBRANCH  18  21
ENDBRANCH  14  15
ENDBRANCH  13  14
ENDBRANCH  11  12
ENDBRANCH   2  11
BRANCH   1  31
HETATM   31  C2  UNL     1      -2.550  -1.887  -2.827  1.00  0.00    -0.020 C 
HETATM   32  C1  UNL     1      -3.820  -1.231  -3.554  1.00  0.00     0.019 C 
HETATM   33  C3  UNL     1      -1.419  -1.179  -3.422  1.00  0.00     0.019 C 
HETATM   34  C4  UNL     1      -2.571  -3.270  -3.505  1.00  0.00     0.019 C 
ENDBRANCH   1  31
BRANCH   3  35
HETATM   35  C21 UNL     1      -4.140   0.798   0.986  1.00  0.00    -0.059 C 
HETATM   36  C22 UNL     1      -4.492   1.833   1.507  1.00  0.00    -0.061 C 
BRANCH  36  37
HETATM   37  C23 UNL     1      -4.929   3.063   2.106  1.00  0.00     0.021 A 
HETATM   38  C24 UNL     1      -4.024   4.053   2.437  1.00  0.00     0.021 A 
HETATM   39  C25 UNL     1      -4.419   5.247   3.012  1.00  0.00     0.004 A 
HETATM   40  C26 UNL     1      -5.747   5.501   3.281  1.00  0.00     0.042 A 
HETATM   41  C27 UNL     1      -6.661   4.521   2.956  1.00  0.00     0.117 A 
HETATM   42  F1  UNL     1      -7.963   4.770   3.219  1.00  0.00    -0.206 F 
HETATM   43  C28 UNL     1      -6.255   3.333   2.382  1.00  0.00     0.062 A 
ENDBRANCH  36  37
ENDBRANCH   3  35
BRANCH   8  44
HETATM   44  O4  UNL     1      -3.517  -6.383   0.410  1.00  0.00    -0.346 OA
ATOM     45  H4  UNL     1      -3.199  -7.042  -0.196  1.00  0.00     0.219 HD
ENDBRANCH   8  44
TORSDOF 12
