REMARK  5 active torsions:
REMARK  status: ('A' for Active; 'I' for Inactive)
REMARK       I    between atoms: C1_4  and  N2_5 
REMARK       I    between atoms: C1_4  and  N11_29 
REMARK    1  A    between atoms: N2_5  and  C2_7 
REMARK    2  A    between atoms: C3_13  and  N5_14 
REMARK    3  A    between atoms: N5_14  and  N7_18 
REMARK       I    between atoms: N7_18  and  C4_20 
REMARK       I    between atoms: C4_20  and  N9_24 
REMARK    4  A    between atoms: N9_24  and  N10_26 
REMARK    5  A    between atoms: N11_29  and  N12_31 
ROOT
HETATM    1  C2  UNL     1      -1.132  -1.224   0.192  1.00  0.00     0.192 A 
HETATM    2  N3  UNL     1      -1.894  -2.321   0.088  1.00  0.00    -0.221 N 
ATOM      3  H3  UNL     1      -2.861  -2.346  -0.236  1.00  0.00     0.198 HD
HETATM    4  O1  UNL     1      -1.193  -3.351   0.470  1.00  0.00    -0.153 OA
HETATM    5  N4  UNL     1       0.005  -2.987   0.825  1.00  0.00    -0.219 N 
ATOM      6  H4  UNL     1       0.743  -3.604   1.163  1.00  0.00     0.198 HD
HETATM    7  C3  UNL     1       0.100  -1.639   0.667  1.00  0.00     0.213 A 
ENDROOT
BRANCH   7   8
HETATM    8  N5  UNL     1       1.229  -0.823   0.939  1.00  0.00    -0.166 N 
HETATM    9  N6  UNL     1       1.363  -0.396   2.120  1.00  0.00    -0.322 N 
ATOM     10  H62 UNL     1       0.712  -0.601   2.878  1.00  0.00     0.179 HD
ATOM     11  H61 UNL     1       2.174   0.190   2.315  1.00  0.00     0.179 HD
BRANCH   8  12
HETATM   12  N7  UNL     1       2.112  -0.545  -0.088  1.00  0.00    -0.108 N 
HETATM   13  C4  UNL     1       2.785   0.694  -0.250  1.00  0.00     0.706 C 
HETATM   14  N8  UNL     1       2.429   1.763   0.336  1.00  0.00    -0.232 N 
HETATM   15  N9  UNL     1       3.929   0.786  -1.111  1.00  0.00    -0.138 N 
ATOM     16  H82 UNL     1       1.616   1.698   0.948  1.00  0.00     0.174 HD
ATOM     17  H81 UNL     1       2.913   2.653   0.220  1.00  0.00     0.174 HD
ATOM     18  H9  UNL     1       3.871   0.452  -2.073  1.00  0.00     0.205 HD
ATOM     19  H7  UNL     1       2.291  -1.278  -0.774  1.00  0.00     0.208 HD
BRANCH  15  20
HETATM   20  N10 UNL     1       5.106   1.325  -0.640  1.00  0.00    -0.331 N 
ATOM     21 2H10 UNL     1       5.148   1.654   0.324  1.00  0.00     0.177 HD
ATOM     22 1H10 UNL     1       5.919   1.390  -1.252  1.00  0.00     0.177 HD
ENDBRANCH  15  20
ENDBRANCH   8  12
ENDBRANCH   7   8
BRANCH   1  23
HETATM   23  N2  UNL     1      -1.422  -0.010  -0.083  1.00  0.00    -0.170 N 
HETATM   24  C1  UNL     1      -2.655   0.432  -0.572  1.00  0.00     0.697 C 
HETATM   25  N1  UNL     1      -3.265  -0.067  -1.588  1.00  0.00    -0.233 N 
HETATM   26  N11 UNL     1      -3.300   1.521   0.097  1.00  0.00    -0.072 N 
ATOM     27  H12 UNL     1      -2.805  -0.843  -2.065  1.00  0.00     0.174 HD
ATOM     28  H11 UNL     1      -4.165   0.255  -1.945  1.00  0.00     0.174 HD
ATOM     29  H11 UNL     1      -2.762   2.334   0.397  1.00  0.00     0.212 HD
ATOM     30  H2  UNL     1      -0.697   0.692   0.066  1.00  0.00     0.186 HD
BRANCH  26  31
HETATM   31  N12 UNL     1      -4.675   1.458   0.335  1.00  0.00    -0.024 N 
HETATM   32  O2  UNL     1      -5.449   1.819  -0.572  1.00  0.00    -0.516 OA
HETATM   33  O3  UNL     1      -5.230   1.020   1.512  1.00  0.00    -0.516 OA
ENDBRANCH  26  31
ENDBRANCH   1  23
TORSDOF 5
