REMARK  6 active torsions:
REMARK  status: ('A' for Active; 'I' for Inactive)
REMARK    1  A    between atoms: N1_1  and  C1_4 
REMARK    2  A    between atoms: C2_7  and  N3_8 
REMARK       I    between atoms: N3_8  and  C3_10 
REMARK       I    between atoms: C3_10  and  N4_11 
REMARK       I    between atoms: C3_10  and  N5_15 
REMARK    3  A    between atoms: C5_23  and  C6_24 
REMARK    4  A    between atoms: C6_24  and  O1_25 
REMARK    5  A    between atoms: C6_24  and  N8_27 
REMARK    6  A    between atoms: N8_27  and  N9_29 
ROOT
HETATM    1  C1  UNL     1       1.027  -1.229  -0.607  1.00  0.00     0.132 A 
HETATM    2  N2  UNL     1      -0.296  -1.468  -0.607  1.00  0.00    -0.176 N 
ATOM      3  H2  UNL     1      -0.636  -2.396  -0.859  1.00  0.00     0.186 HD
HETATM    4  C2  UNL     1      -1.198  -0.491  -0.276  1.00  0.00     0.684 A 
HETATM    5  N6  UNL     1      -0.749   0.723   0.052  1.00  0.00    -0.178 N 
ATOM      6  H6  UNL     1      -1.413   1.457   0.300  1.00  0.00     0.185 HD
HETATM    7  C4  UNL     1       0.560   0.987   0.059  1.00  0.00     0.150 A 
HETATM    8  N7  UNL     1       0.988   2.302   0.423  1.00  0.00    -0.081 NA
HETATM    9  C5  UNL     1       1.498   0.001  -0.276  1.00  0.00     0.102 A 
ENDROOT
BRANCH   4  10
HETATM   10  N3  UNL     1      -2.420  -0.800  -0.286  1.00  0.00    -0.173 N 
HETATM   11  C3  UNL     1      -3.637  -0.175  -0.034  1.00  0.00     0.494 C 
HETATM   12  N4  UNL     1      -3.708   0.739   1.077  1.00  0.00    -0.032 N 
HETATM   13  N5  UNL     1      -4.605  -1.264   0.287  1.00  0.00    -0.032 N 
ATOM     14  H43 UNL     1      -3.395   0.263   1.923  1.00  0.00     0.278 HD
ATOM     15  H42 UNL     1      -2.982   1.448   0.974  1.00  0.00     0.278 HD
ATOM     16  H41 UNL     1      -4.600   1.197   1.262  1.00  0.00     0.278 HD
ATOM     17  H53 UNL     1      -4.660  -1.984  -0.434  1.00  0.00     0.278 HD
ATOM     18  H52 UNL     1      -4.296  -1.871   1.046  1.00  0.00     0.278 HD
ATOM     19  H51 UNL     1      -5.497  -0.806   0.472  1.00  0.00     0.278 HD
ATOM     20  H3  UNL     1      -2.553  -1.776  -0.552  1.00  0.00     0.181 HD
ENDBRANCH   4  10
BRANCH   1  21
HETATM   21  N1  UNL     1       1.854  -2.167  -0.922  1.00  0.00    -0.384 N 
ATOM     22  H12 UNL     1       1.500  -3.091  -1.171  1.00  0.00     0.157 HD
ATOM     23  H11 UNL     1       2.858  -1.986  -0.922  1.00  0.00     0.157 HD
ENDBRANCH   1  21
BRANCH   9  24
HETATM   24  C6  UNL     1       2.893   0.367  -0.241  1.00  0.00     0.177 C 
BRANCH  24  25
HETATM   25  O1  UNL     1       3.175   1.594   0.098  1.00  0.00    -0.344 OA
ATOM     26  H1  UNL     1       4.094   1.835   0.121  1.00  0.00     0.219 HD
ENDBRANCH  24  25
BRANCH  24  27
HETATM   27  N8  UNL     1       4.027  -0.394  -0.515  1.00  0.00    -0.219 N 
ATOM     28  H8  UNL     1       3.923  -1.370  -0.792  1.00  0.00     0.195 HD
BRANCH  27  29
HETATM   29  N9  UNL     1       5.332   0.174  -0.414  1.00  0.00    -0.037 N 
HETATM   30  O2  UNL     1       6.034   0.347  -1.419  1.00  0.00    -0.516 OA
HETATM   31  O3  UNL     1       5.852   0.546   0.795  1.00  0.00    -0.516 OA
ENDBRANCH  27  29
ENDBRANCH  24  27
ENDBRANCH   9  24
TORSDOF 6
