REMARK  13 active torsions:
REMARK  status: ('A' for Active; 'I' for Inactive)
REMARK    1  A    between atoms: C3_3  and  C4_4 
REMARK    2  A    between atoms: C5_5  and  C6_6 
REMARK    3  A    between atoms: C6_6  and  N1_7 
REMARK    4  A    between atoms: C6_6  and  C7_11 
REMARK    5  A    between atoms: C7_11  and  O1_12 
REMARK    6  A    between atoms: N3_21  and  O4_22 
REMARK    7  A    between atoms: N6_30  and  C13_31 
REMARK    8  A    between atoms: C13_31  and  O5_32 
REMARK    9  A    between atoms: C13_31  and  C14_34 
REMARK   10  A    between atoms: C14_34  and  N7_35 
REMARK   11  A    between atoms: C14_34  and  C15_39 
REMARK       I    between atoms: C15_39  and  N8_41 
REMARK   12  A    between atoms: N8_41  and  N9_43 
REMARK   13  A    between atoms: C16_46  and  O7_47 
ROOT
HETATM    1  C1  UNL     1      -0.010   2.185   1.617  1.00  0.00     0.055 C 
HETATM    2  C2  UNL     1       0.394   1.225   0.511  1.00  0.00     0.019 A 
HETATM    3  C3  UNL     1      -0.412   0.315  -0.113  1.00  0.00     0.071 A 
HETATM    4  N5  UNL     1       0.396  -0.286  -1.001  1.00  0.00    -0.293 N 
ATOM      5  H5  UNL     1       0.091  -1.031  -1.627  1.00  0.00     0.187 HD
HETATM    6  N6  UNL     1       1.628   0.191  -0.977  1.00  0.00    -0.238 N 
HETATM    7  C16 UNL     1       1.661   1.139  -0.030  1.00  0.00     0.168 A 
ENDROOT
BRANCH   3   8
HETATM    8  C4  UNL     1      -1.820   0.085   0.138  1.00  0.00     0.030 A 
HETATM    9  C5  UNL     1      -2.210  -0.881   1.028  1.00  0.00     0.058 A 
HETATM   10  N2  UNL     1      -3.541  -1.091   1.183  1.00  0.00    -0.323 N 
HETATM   11  C8  UNL     1      -4.434  -0.361   0.469  1.00  0.00     0.262 A 
ATOM     12  H2  UNL     1      -3.871  -1.800   1.838  1.00  0.00     0.169 HD
HETATM   13  O2  UNL     1      -5.675  -0.579   0.638  1.00  0.00    -0.267 OA
HETATM   14  C9  UNL     1      -4.071   0.607  -0.430  1.00  0.00     0.116 A 
HETATM   15  C10 UNL     1      -4.960   1.329  -1.218  1.00  0.00     0.303 A 
HETATM   16  C12 UNL     1      -2.699   0.843  -0.601  1.00  0.00     0.017 A 
HETATM   17  O3  UNL     1      -6.179   1.061  -1.017  1.00  0.00    -0.263 OA
HETATM   18  N3  UNL     1      -4.549   2.227  -2.121  1.00  0.00    -0.122 N 
HETATM   19  N4  UNL     1      -3.252   2.439  -2.268  1.00  0.00    -0.282 N 
HETATM   20  C11 UNL     1      -2.325   1.777  -1.535  1.00  0.00     0.123 A 
ATOM     21  H4  UNL     1      -2.939   3.124  -2.956  1.00  0.00     0.188 HD
BRANCH   9  22
HETATM   22  C6  UNL     1      -1.143  -1.573   1.822  1.00  0.00     0.257 C 
BRANCH  22  23
HETATM   23  N1  UNL     1      -1.406  -1.359   3.262  1.00  0.00    -0.068 N 
ATOM     24  H13 UNL     1      -1.490  -0.371   3.500  1.00  0.00     0.275 HD
ATOM     25  H12 UNL     1      -2.345  -1.650   3.534  1.00  0.00     0.275 HD
ATOM     26  H11 UNL     1      -0.680  -1.830   3.802  1.00  0.00     0.275 HD
ENDBRANCH  22  23
BRANCH  22  27
HETATM   27  C7  UNL     1      -1.407  -3.091   1.647  1.00  0.00     0.203 C 
BRANCH  27  28
HETATM   28  O1  UNL     1      -2.654  -3.525   1.936  1.00  0.00    -0.398 OA
ATOM     29  H1  UNL     1      -2.816  -4.455   1.829  1.00  0.00     0.209 HD
ENDBRANCH  27  28
ENDBRANCH  22  27
ENDBRANCH   9  22
BRANCH  18  30
HETATM   30  O4  UNL     1      -5.500   2.890  -2.881  1.00  0.00    -0.265 OA
ATOM     31  H4  UNL     1      -5.208   3.528  -3.522  1.00  0.00     0.247 HD
ENDBRANCH  18  30
ENDBRANCH   3   8
BRANCH   7  32
HETATM   32  O7  UNL     1       2.821   1.864   0.288  1.00  0.00    -0.344 OA
ATOM     33  H7  UNL     1       3.693   1.805  -0.084  1.00  0.00     0.219 HD
ENDBRANCH   7  32
BRANCH   6  34
HETATM   34  C13 UNL     1       2.640  -0.267  -1.869  1.00  0.00     0.283 C 
BRANCH  34  35
HETATM   35  O5  UNL     1       1.988  -1.023  -2.918  1.00  0.00    -0.372 OA
ATOM     36  H5  UNL     1       2.663  -1.328  -3.513  1.00  0.00     0.212 HD
ENDBRANCH  34  35
BRANCH  34  37
HETATM   37  C14 UNL     1       3.680  -1.209  -1.383  1.00  0.00     0.326 C 
BRANCH  37  38
HETATM   38  N7  UNL     1       4.494  -1.570  -2.635  1.00  0.00    -0.062 N 
ATOM     39  H73 UNL     1       3.932  -1.933  -3.405  1.00  0.00     0.275 HD
ATOM     40  H72 UNL     1       4.866  -0.763  -3.135  1.00  0.00     0.275 HD
ATOM     41  H71 UNL     1       5.208  -2.217  -2.301  1.00  0.00     0.275 HD
ENDBRANCH  37  38
BRANCH  37  42
HETATM   42  C15 UNL     1       4.757  -0.643  -0.549  1.00  0.00     0.270 C 
HETATM   43  O6  UNL     1       5.537   0.245  -1.022  1.00  0.00    -0.269 OA
HETATM   44  N8  UNL     1       4.968  -1.054   0.787  1.00  0.00    -0.275 N 
ATOM     45  H8  UNL     1       4.348  -1.756   1.191  1.00  0.00     0.189 HD
BRANCH  44  46
HETATM   46  N9  UNL     1       5.990  -0.533   1.565  1.00  0.00    -0.343 N 
ATOM     47  H92 UNL     1       6.600   0.168   1.145  1.00  0.00     0.176 HD
ATOM     48  H91 UNL     1       6.142  -0.830   2.529  1.00  0.00     0.176 HD
ENDBRANCH  44  46
ENDBRANCH  37  42
ENDBRANCH  34  37
ENDBRANCH   6  34
TORSDOF 13
