REMARK  1 active torsions:
REMARK  status: ('A' for Active; 'I' for Inactive)
REMARK       I    between atoms: C2_3  and  N2_5 
REMARK    1  A    between atoms: N2_5  and  N3_7 
REMARK       I    between atoms: C3_9  and  N5_11 
ROOT
HETATM    1  N1  UNL     1       4.161   1.203   0.534  1.00  0.00    -0.186 NA
HETATM    2  C1  UNL     1       3.002   1.111   0.582  1.00  0.00     0.163 C 
HETATM    3  C2  UNL     1       1.568   1.003   0.617  1.00  0.00     0.340 C 
HETATM    4  O1  UNL     1       1.025   1.080   1.749  1.00  0.00    -0.254 OA
HETATM    5  N2  UNL     1       0.798   0.820  -0.539  1.00  0.00    -0.255 N 
ATOM      6  H2  UNL     1       1.256   0.759  -1.448  1.00  0.00     0.191 HD
ENDROOT
BRANCH   5   7
HETATM    7  N3  UNL     1      -0.580   0.721  -0.455  1.00  0.00    -0.269 N 
HETATM    8  C3  UNL     1      -1.219  -0.315  -0.068  1.00  0.00     0.221 C 
HETATM    9  N4  UNL     1      -0.510  -1.475   0.315  1.00  0.00    -0.061 NA
HETATM   10  N5  UNL     1      -2.620  -0.316  -0.018  1.00  0.00    -0.279 N 
HETATM   11  N6  UNL     1      -3.203  -1.057   0.814  1.00  0.00    -0.343 N 
ATOM     12  H5  UNL     1      -3.160   0.277  -0.649  1.00  0.00     0.189 HD
ATOM     13  H62 UNL     1      -2.649  -1.644   1.438  1.00  0.00     0.176 HD
ATOM     14  H61 UNL     1      -4.222  -1.058   0.850  1.00  0.00     0.176 HD
ATOM     15  H3  UNL     1      -1.128   1.539  -0.723  1.00  0.00     0.190 HD
ENDBRANCH   5   7
TORSDOF 1
