REMARK  4 active torsions:
REMARK  status: ('A' for Active; 'I' for Inactive)
REMARK    1  A    between atoms: C2_2  and  N1_3 
REMARK    2  A    between atoms: C2_2  and  S1_10 
REMARK    3  A    between atoms: N1_3  and  N2_5 
REMARK    4  A    between atoms: S1_10  and  N5_11 
ROOT
HETATM    1  N1  UNL     1      -0.136  -0.986  -0.959  1.00  0.00    -0.295 N 
ATOM      2  H1  UNL     1      -0.301  -1.958  -1.221  1.00  0.00     0.187 HD
ENDROOT
BRANCH   1   3
HETATM    3  C2  UNL     1      -1.142  -0.256  -0.268  1.00  0.00     0.078 C 
HETATM    4  C1  UNL     1      -2.403  -0.972   0.037  1.00  0.00     0.079 C 
BRANCH   3   5
HETATM    5  S1  UNL     1      -0.874   1.295   0.150  1.00  0.00    -0.007 SA
BRANCH   5   6
HETATM    6  N5  UNL     1      -2.161   2.163   1.012  1.00  0.00    -0.369 N 
ATOM      7  H52 UNL     1      -3.037   1.689   1.232  1.00  0.00     0.164 HD
ATOM      8  H51 UNL     1      -1.993   3.134   1.274  1.00  0.00     0.164 HD
ENDBRANCH   5   6
ENDBRANCH   3   5
ENDBRANCH   1   3
BRANCH   1   9
HETATM    9  N2  UNL     1       1.075  -0.376  -1.278  1.00  0.00    -0.275 N 
HETATM   10  C3  UNL     1       2.056  -0.357  -0.467  1.00  0.00     0.215 C 
HETATM   11  N3  UNL     1       1.924  -0.974   0.805  1.00  0.00    -0.065 NA
HETATM   12  N4  UNL     1       3.258   0.274  -0.841  1.00  0.00    -0.065 NA
ATOM     13  H2  UNL     1       1.179   0.069  -2.190  1.00  0.00     0.189 HD
ENDBRANCH   1   9
TORSDOF 4
