REMARK  8 active torsions:
REMARK  status: ('A' for Active; 'I' for Inactive)
REMARK    1  A    between atoms: C2_2  and  N1_3 
REMARK    2  A    between atoms: C2_2  and  C15_26 
REMARK       I    between atoms: N1_3  and  C3_5 
REMARK    3  A    between atoms: C3_5  and  C4_7 
REMARK    4  A    between atoms: C4_7  and  N2_8 
REMARK    5  A    between atoms: C7_13  and  C8_14 
REMARK    6  A    between atoms: C11_18  and  O3_19 
REMARK    7  A    between atoms: C15_26  and  O6_28 
REMARK    8  A    between atoms: O6_28  and  C16_29 
ROOT
HETATM    1  N2  UNL     1       1.632  -1.778  -0.502  1.00  0.00    -0.265 N 
HETATM    2  C5  UNL     1       1.406  -3.107  -0.104  1.00  0.00     0.294 C 
HETATM    3  O2  UNL     1       0.596  -3.944  -0.524  1.00  0.00    -0.259 OA
HETATM    4  S1  UNL     1       2.578  -3.395   1.207  1.00  0.00    -0.023 SA
HETATM    5  C6  UNL     1       3.709  -2.049   0.699  1.00  0.00     0.079 C 
HETATM    6  C7  UNL     1       4.961  -1.986   1.053  1.00  0.00     0.036 C 
HETATM    7  C14 UNL     1       2.832  -1.204  -0.091  1.00  0.00     0.268 C 
HETATM    8  O4  UNL     1       3.171   0.006  -0.376  1.00  0.00    -0.266 OA
ENDROOT
BRANCH   1   9
HETATM    9  C4  UNL     1       0.629  -1.064  -1.313  1.00  0.00     0.238 C 
BRANCH   9  10
HETATM   10  C3  UNL     1      -0.332  -0.351  -0.436  1.00  0.00     0.236 C 
HETATM   11  N1  UNL     1      -1.402   0.412  -0.998  1.00  0.00    -0.346 N 
ATOM     12  H1  UNL     1      -1.491   0.452  -2.013  1.00  0.00     0.163 HD
HETATM   13  O1  UNL     1      -0.259  -0.380   0.811  1.00  0.00    -0.272 OA
BRANCH  11  14
HETATM   14  C2  UNL     1      -2.356   1.123  -0.199  1.00  0.00     0.180 C 
HETATM   15  C1  UNL     1      -2.363   2.607  -0.501  1.00  0.00     0.043 C 
BRANCH  14  16
HETATM   16  C15 UNL     1      -3.720   0.535  -0.347  1.00  0.00     0.282 C 
HETATM   17  O5  UNL     1      -3.856  -0.442  -1.107  1.00  0.00    -0.263 OA
BRANCH  16  18
HETATM   18  O6  UNL     1      -4.812   1.022   0.314  1.00  0.00    -0.310 OA
BRANCH  18  19
HETATM   19  C16 UNL     1      -6.128   0.519   0.225  1.00  0.00     0.060 C 
HETATM   20  C17 UNL     1      -6.234  -0.920   0.654  1.00  0.00     0.045 C 
HETATM   21  C18 UNL     1      -6.965   1.343   1.212  1.00  0.00     0.045 C 
HETATM   22  C19 UNL     1      -6.664   0.713  -1.164  1.00  0.00     0.045 C 
ENDBRANCH  18  19
ENDBRANCH  16  18
ENDBRANCH  14  16
ENDBRANCH  11  14
ENDBRANCH   9  10
ENDBRANCH   1   9
BRANCH   6  23
HETATM   23  C8  UNL     1       5.951  -1.000   0.727  1.00  0.00    -0.032 A 
HETATM   24  C9  UNL     1       6.755  -0.430   1.709  1.00  0.00     0.038 A 
HETATM   25  C10 UNL     1       7.731   0.496   1.394  1.00  0.00     0.069 A 
HETATM   26 CL1  UNL     1       8.751   1.217   2.636  1.00  0.00    -0.081 Cl
HETATM   27  C11 UNL     1       7.927   0.878   0.069  1.00  0.00     0.104 A 
HETATM   28  C12 UNL     1       7.148   0.327  -0.896  1.00  0.00     0.046 A 
HETATM   29 BR1  UNL     1       7.396   0.826  -2.712  1.00  0.00    -0.048 Br
HETATM   30  C13 UNL     1       6.168  -0.606  -0.564  1.00  0.00     0.033 A 
BRANCH  27  31
HETATM   31  O3  UNL     1       8.924   1.817  -0.198  1.00  0.00    -0.358 OA
ATOM     32  H3  UNL     1       9.058   2.078  -1.102  1.00  0.00     0.217 HD
ENDBRANCH  27  31
ENDBRANCH   6  23
TORSDOF 8
