REMARK  19 active torsions:
REMARK  status: ('A' for Active; 'I' for Inactive)
REMARK    1  A    between atoms: C2_2  and  O1_3 
REMARK    2  A    between atoms: C2_2  and  C3_5 
REMARK    3  A    between atoms: C3_5  and  C4_7 
REMARK    4  A    between atoms: C4_7  and  C5_9 
REMARK       I    between atoms: C5_9  and  N1_11 
REMARK    5  A    between atoms: N1_11  and  N2_13 
REMARK    6  A    between atoms: N2_13  and  C6_15 
REMARK    7  A    between atoms: C6_15  and  C7_16 
REMARK    8  A    between atoms: C7_16  and  O5_17 
REMARK    9  A    between atoms: C7_16  and  C8_19 
REMARK       I    between atoms: C8_19  and  N3_21 
REMARK   10  A    between atoms: N3_21  and  C9_23 
REMARK   11  A    between atoms: C9_23  and  C11_25 
REMARK       I    between atoms: C11_25  and  N4_27 
REMARK   12  A    between atoms: N4_27  and  C12_29 
REMARK   13  A    between atoms: C12_29  and  C14_31 
REMARK   14  A    between atoms: C14_31  and  C15_32 
REMARK   15  A    between atoms: C14_31  and  N6_37 
REMARK   16  A    between atoms: C15_32  and  N5_33 
REMARK       I    between atoms: N6_37  and  C16_39 
REMARK   17  A    between atoms: C16_39  and  C17_41 
REMARK   18  A    between atoms: C17_41  and  C18_42 
REMARK       I    between atoms: C18_42  and  N7_44 
REMARK   19  A    between atoms: N7_44  and  N8_46 
ROOT
HETATM    1  C9  UNL     1       0.079   0.260  -0.028  1.00  0.00     0.172 C 
HETATM    2  C10 UNL     1       0.248  -0.651  -1.294  1.00  0.00     0.042 C 
ENDROOT
BRANCH   1   3
HETATM    3  N3  UNL     1       0.764  -0.494   1.027  1.00  0.00    -0.346 N 
HETATM    4  C8  UNL     1       2.164  -0.633   1.076  1.00  0.00     0.248 C 
HETATM    5  O6  UNL     1       2.884  -0.136   0.201  1.00  0.00    -0.271 OA
ATOM      6  H3  UNL     1       0.203  -0.936   1.755  1.00  0.00     0.163 HD
BRANCH   4   7
HETATM    7  C7  UNL     1       2.777  -1.389   2.194  1.00  0.00     0.229 C 
BRANCH   7   8
HETATM    8  C6  UNL     1       4.262  -1.264   2.184  1.00  0.00     0.180 C 
BRANCH   8   9
HETATM    9  N2  UNL     1       4.847  -1.720   0.979  1.00  0.00    -0.331 N 
ATOM     10  H2  UNL     1       4.238  -1.969   0.199  1.00  0.00     0.180 HD
BRANCH   9  11
HETATM   11  N1  UNL     1       6.171  -1.836   0.827  1.00  0.00    -0.267 N 
HETATM   12  C5  UNL     1       7.026  -0.699   0.618  1.00  0.00     0.313 C 
HETATM   13  O4  UNL     1       6.558   0.469   0.577  1.00  0.00    -0.262 OA
ATOM     14  H1  UNL     1       6.590  -2.766   0.861  1.00  0.00     0.190 HD
BRANCH  12  15
HETATM   15  C4  UNL     1       8.452  -0.929   0.450  1.00  0.00     0.288 C 
HETATM   16  O3  UNL     1       8.861  -2.137   0.537  1.00  0.00    -0.278 OA
BRANCH  15  17
HETATM   17  C3  UNL     1       9.365   0.161   0.191  1.00  0.00     0.232 C 
HETATM   18  O2  UNL     1       9.003   1.328   0.150  1.00  0.00    -0.286 OA
BRANCH  17  19
HETATM   19  C2  UNL     1      10.836  -0.201  -0.045  1.00  0.00     0.192 C 
HETATM   20  C1  UNL     1      11.428  -0.869   1.155  1.00  0.00     0.048 C 
BRANCH  19  21
HETATM   21  O1  UNL     1      11.514   0.932  -0.384  1.00  0.00    -0.388 OA
ATOM     22  H1  UNL     1      11.138   1.356  -1.146  1.00  0.00     0.210 HD
ENDBRANCH  19  21
ENDBRANCH  17  19
ENDBRANCH  15  17
ENDBRANCH  12  15
ENDBRANCH   9  11
ENDBRANCH   8   9
ENDBRANCH   7   8
BRANCH   7  23
HETATM   23  O5  UNL     1       2.165  -1.040   3.380  1.00  0.00    -0.384 OA
ATOM     24  H5  UNL     1       1.218  -1.120   3.386  1.00  0.00     0.210 HD
ENDBRANCH   7  23
ENDBRANCH   4   7
ENDBRANCH   1   3
BRANCH   1  25
HETATM   25  C11 UNL     1      -1.350   0.260   0.229  1.00  0.00     0.244 C 
HETATM   26  O7  UNL     1      -1.831  -0.698   0.894  1.00  0.00    -0.271 OA
HETATM   27  N4  UNL     1      -2.225   1.295  -0.235  1.00  0.00    -0.331 N 
ATOM     28  H4  UNL     1      -1.820   2.072  -0.757  1.00  0.00     0.168 HD
BRANCH  27  29
HETATM   29  C12 UNL     1      -3.624   1.296  -0.007  1.00  0.00     0.010 C 
HETATM   30  C13 UNL     1      -3.835   0.874   1.460  1.00  0.00     0.066 C 
BRANCH  29  31
HETATM   31  C14 UNL     1      -4.619   0.754  -0.911  1.00  0.00     0.155 C 
BRANCH  31  32
HETATM   32  C15 UNL     1      -4.599  -0.675  -1.319  1.00  0.00     0.260 C 
BRANCH  32  33
HETATM   33  N5  UNL     1      -3.471  -1.116  -2.070  1.00  0.00    -0.077 N 
ATOM     34  H53 UNL     1      -3.358  -0.525  -2.894  1.00  0.00     0.274 HD
ATOM     35  H52 UNL     1      -2.615  -0.895  -1.561  1.00  0.00     0.274 HD
ATOM     36  H51 UNL     1      -3.457  -2.097  -2.350  1.00  0.00     0.274 HD
ENDBRANCH  32  33
ENDBRANCH  31  32
BRANCH  31  37
HETATM   37  N6  UNL     1      -5.993   1.045  -0.434  1.00  0.00    -0.349 N 
HETATM   38  C16 UNL     1      -7.044   1.352  -1.311  1.00  0.00     0.227 C 
HETATM   39  O8  UNL     1      -6.818   1.347  -2.560  1.00  0.00    -0.273 OA
ATOM     40  H6  UNL     1      -6.181   1.021   0.568  1.00  0.00     0.163 HD
BRANCH  38  41
HETATM   41  C17 UNL     1      -8.418   1.688  -0.895  1.00  0.00     0.207 C 
BRANCH  41  42
HETATM   42  C18 UNL     1      -9.382   1.511  -2.003  1.00  0.00     0.244 C 
HETATM   43  O9  UNL     1      -9.054   1.045  -3.146  1.00  0.00    -0.271 OA
HETATM   44  N7  UNL     1     -10.754   1.866  -1.812  1.00  0.00    -0.276 N 
ATOM     45  H7  UNL     1     -11.027   2.244  -0.905  1.00  0.00     0.189 HD
BRANCH  44  46
HETATM   46  N8  UNL     1     -11.734   1.730  -2.777  1.00  0.00    -0.343 N 
ATOM     47  H82 UNL     1     -11.443   1.350  -3.678  1.00  0.00     0.176 HD
ATOM     48  H81 UNL     1     -12.713   1.983  -2.641  1.00  0.00     0.176 HD
ENDBRANCH  44  46
ENDBRANCH  41  42
ENDBRANCH  38  41
ENDBRANCH  31  37
ENDBRANCH  29  31
ENDBRANCH  27  29
ENDBRANCH   1  25
TORSDOF 19
