REMARK  1 active torsions:
REMARK  status: ('A' for Active; 'I' for Inactive)
REMARK    1  A    between atoms: N2_4  and  N3_6 
ROOT
HETATM    1  N3  UNL     1       0.680   0.044   0.223  1.00  0.00    -0.326 N 
HETATM    2  C3  UNL     1       0.555   0.572   1.580  1.00  0.00     0.142 C 
HETATM    3  C4  UNL     1      -0.904   0.663   1.931  1.00  0.00     0.022 C 
HETATM    4  C5  UNL     1      -1.616  -0.473   1.191  1.00  0.00     0.016 C 
HETATM    5  C6  UNL     1      -1.647  -0.075  -0.267  1.00  0.00     0.025 C 
HETATM    6  C7  UNL     1      -2.298  -1.048  -1.193  1.00  0.00     0.245 C 
HETATM    7  N4  UNL     1      -3.583  -0.443  -0.849  1.00  0.00    -0.073 N 
ATOM      8  H41 UNL     1      -4.198  -0.868  -0.155  1.00  0.00     0.277 HD
ATOM      9  H42 UNL     1      -4.362  -0.449  -1.507  1.00  0.00     0.277 HD
HETATM   10  C8  UNL     1      -2.850   0.784  -0.557  1.00  0.00     0.245 C 
HETATM   11  C9  UNL     1      -0.335   0.468  -0.740  1.00  0.00     0.155 C 
ENDROOT
BRANCH   1  12
HETATM   12  N2  UNL     1       1.722  -0.810  -0.089  1.00  0.00    -0.294 N 
HETATM   13  C2  UNL     1       2.861  -0.351  -0.469  1.00  0.00     0.103 C 
HETATM   14  C1  UNL     1       3.973  -1.274  -0.802  1.00  0.00     0.086 C 
HETATM   15  N1  UNL     1       3.059   1.048  -0.572  1.00  0.00    -0.087 NA
ATOM     16  H2  UNL     1       1.585  -1.818  -0.017  1.00  0.00     0.187 HD
ENDBRANCH   1  12
TORSDOF 1
