REMARK  4 active torsions:
REMARK  status: ('A' for Active; 'I' for Inactive)
REMARK    1  A    between atoms: O1_2  and  C2_3 
REMARK    2  A    between atoms: C2_3  and  C4_5 
REMARK    3  A    between atoms: C7_8  and  C8_9 
REMARK    4  A    between atoms: C8_9  and  O2_12 
ROOT
HETATM    1  C4  UNL     1      -0.960   0.469  -0.284  1.00  0.00     0.150 C 
HETATM    2  C5  UNL     1      -0.846  -0.751  -1.145  1.00  0.00     0.037 C 
HETATM    3  C6  UNL     1       0.625  -1.135  -0.946  1.00  0.00     0.037 C 
HETATM    4  C7  UNL     1       1.172   0.168  -0.428  1.00  0.00     0.155 C 
HETATM    5  O3  UNL     1       0.200   0.521   0.506  1.00  0.00    -0.375 OA
ENDROOT
BRANCH   4   6
HETATM    6  C8  UNL     1       2.540   0.041   0.167  1.00  0.00     0.076 C 
HETATM    7  C9  UNL     1       3.516  -0.209  -0.959  1.00  0.00     0.048 C 
HETATM    8  C10 UNL     1       2.666  -0.997   1.224  1.00  0.00     0.048 C 
BRANCH   6   9
HETATM    9  O2  UNL     1       2.874   1.286   0.716  1.00  0.00    -0.388 OA
ATOM     10  H2  UNL     1       3.742   1.205   1.094  1.00  0.00     0.210 HD
ENDBRANCH   6   9
ENDBRANCH   4   6
BRANCH   1  11
HETATM   11  C2  UNL     1      -2.199   0.480   0.572  1.00  0.00     0.145 C 
HETATM   12  C3  UNL     1      -2.237  -0.633   1.568  1.00  0.00     0.042 C 
BRANCH  11  13
HETATM   13  O1  UNL     1      -3.295   0.426  -0.280  1.00  0.00    -0.389 OA
HETATM   14  C1  UNL     1      -4.049   1.612  -0.191  1.00  0.00     0.202 C 
ENDBRANCH  11  13
ENDBRANCH   1  11
TORSDOF 4
