REMARK  2 active torsions:
REMARK  status: ('A' for Active; 'I' for Inactive)
REMARK    1  A    between atoms: C1_2  and  C2_5 
REMARK    2  A    between atoms: N1_13  and  C9_14 
ROOT
HETATM    1  C2  UNL     1      -1.262  -0.448  -0.327  1.00  0.00     0.201 C 
HETATM    2  C3  UNL     1      -0.510  -1.292   0.737  1.00  0.00     0.039 C 
HETATM    3  C4  UNL     1       0.811  -1.669   0.070  1.00  0.00     0.044 C 
HETATM    4  C5  UNL     1       1.618  -0.369   0.045  1.00  0.00    -0.024 A 
HETATM    5  C6  UNL     1       2.956  -0.244   0.215  1.00  0.00     0.017 A 
HETATM    6  C7  UNL     1       3.478   1.028   0.153  1.00  0.00     0.052 A 
HETATM    7  S1  UNL     1       2.095   1.982  -0.136  1.00  0.00    -0.084 SA
HETATM    8  C8  UNL     1       0.904   0.772  -0.172  1.00  0.00     0.086 A 
HETATM    9  N1  UNL     1      -0.534   0.784  -0.370  1.00  0.00    -0.270 N 
ENDROOT
BRANCH   1  10
HETATM   10  C1  UNL     1      -2.667  -0.434   0.111  1.00  0.00     0.407 C 
HETATM   11  F1  UNL     1      -3.537   0.245  -0.684  1.00  0.00    -0.169 F 
HETATM   12  F2  UNL     1      -2.797  -0.111   1.449  1.00  0.00    -0.169 F 
HETATM   13  F3  UNL     1      -3.095  -1.779   0.047  1.00  0.00    -0.169 F 
ENDBRANCH   1  10
BRANCH   9  14
HETATM   14  C9  UNL     1      -1.142   2.064  -0.601  1.00  0.00     0.488 C 
HETATM   15  F4  UNL     1      -2.040   2.475   0.330  1.00  0.00    -0.150 F 
HETATM   16  F5  UNL     1      -1.625   2.062  -1.899  1.00  0.00    -0.150 F 
HETATM   17  F6  UNL     1      -0.164   3.083  -0.622  1.00  0.00    -0.150 F 
ENDBRANCH   9  14
TORSDOF 2
