REMARK  2 active torsions:
REMARK  status: ('A' for Active; 'I' for Inactive)
REMARK    1  A    between atoms: C6_6  and  C7_7 
REMARK    2  A    between atoms: C8_11  and  N1_12 
ROOT
HETATM    1  C1  UNL     1       1.850   0.915  -1.097  1.00  0.00     0.015 C 
HETATM    2  C2  UNL     1       1.360  -0.073  -0.069  1.00  0.00    -0.046 C 
HETATM    3  C3  UNL     1       2.609  -0.533   0.701  1.00  0.00     0.015 C 
HETATM    4  C4  UNL     1       0.717  -1.279  -0.633  1.00  0.00     0.009 C 
HETATM    5  C5  UNL     1      -0.746  -1.192  -0.886  1.00  0.00     0.016 C 
HETATM    6  C6  UNL     1      -1.497  -0.487   0.228  1.00  0.00     0.124 C 
HETATM    7  C8  UNL     1      -0.877   0.858   0.342  1.00  0.00     0.196 C 
HETATM    8  C9  UNL     1       0.496   0.630   0.959  1.00  0.00     0.042 C 
ENDROOT
BRANCH   6   9
HETATM    9  C7  UNL     1      -2.965  -0.497  -0.040  1.00  0.00     0.393 C 
HETATM   10  F1  UNL     1      -3.723   0.111   0.902  1.00  0.00    -0.171 F 
HETATM   11  F2  UNL     1      -3.363  -1.832  -0.106  1.00  0.00    -0.171 F 
HETATM   12  F3  UNL     1      -3.170   0.052  -1.303  1.00  0.00    -0.171 F 
ENDBRANCH   6   9
BRANCH   7  13
HETATM   13  N1  UNL     1      -1.610   1.822   1.096  1.00  0.00    -0.074 N 
ATOM     14  H13 UNL     1      -2.556   1.907   0.723  1.00  0.00     0.274 HD
ATOM     15  H12 UNL     1      -1.812   1.454   2.026  1.00  0.00     0.274 HD
ATOM     16  H11 UNL     1      -1.184   2.746   1.174  1.00  0.00     0.274 HD
ENDBRANCH   7  13
TORSDOF 2
