REMARK  2 active torsions:
REMARK  status: ('A' for Active; 'I' for Inactive)
REMARK    1  A    between atoms: C2_2  and  C3_3 
REMARK    2  A    between atoms: C6_9  and  C7_10 
ROOT
HETATM    1  C1  UNL     1      -1.929   0.851  -1.321  1.00  0.00     0.021 C 
HETATM    2  C2  UNL     1      -1.218   0.125  -0.175  1.00  0.00    -0.013 C 
HETATM    3  C4  UNL     1      -0.544   1.169   0.655  1.00  0.00     0.015 C 
HETATM    4  C5  UNL     1       0.942   1.224   0.487  1.00  0.00     0.014 C 
HETATM    5  C6  UNL     1       1.626  -0.095   0.625  1.00  0.00     0.093 C 
HETATM    6  C8  UNL     1       0.865  -1.253   0.071  1.00  0.00     0.014 C 
HETATM    7  C9  UNL     1      -0.299  -0.876  -0.785  1.00  0.00     0.015 C 
ENDROOT
BRANCH   2   8
HETATM    8  C3  UNL     1      -2.277  -0.568   0.603  1.00  0.00     0.062 C 
HETATM    9  N1  UNL     1      -2.025  -1.737   1.038  1.00  0.00    -0.410 N 
ATOM     10  H12 UNL     1      -1.121  -2.170   0.850  1.00  0.00     0.155 HD
ATOM     11  H11 UNL     1      -2.752  -2.213   1.572  1.00  0.00     0.155 HD
ENDBRANCH   2   8
BRANCH   5  12
HETATM   12  C7  UNL     1       2.983   0.024  -0.076  1.00  0.00     0.391 C 
HETATM   13  F1  UNL     1       3.739   1.009   0.502  1.00  0.00    -0.171 F 
HETATM   14  F2  UNL     1       3.588  -1.222   0.052  1.00  0.00    -0.171 F 
HETATM   15  F3  UNL     1       2.737   0.219  -1.401  1.00  0.00    -0.171 F 
ENDBRANCH   5  12
TORSDOF 2
