REMARK  0 active torsions:
REMARK  status: ('A' for Active; 'I' for Inactive)
ROOT
HETATM    1  C1  UNL     1       2.379   0.653  -0.551  1.00  0.00     0.001 A 
HETATM    2  C2  UNL     1       2.438  -0.191   0.537  1.00  0.00     0.001 A 
HETATM    3  C3  UNL     1       1.280  -0.717   1.073  1.00  0.00     0.012 A 
HETATM    4  C4  UNL     1       0.032  -0.426   0.549  1.00  0.00    -0.026 A 
HETATM    5  C5  UNL     1      -1.135  -0.951   1.081  1.00  0.00     0.012 A 
HETATM    6  C6  UNL     1      -2.379  -0.661   0.561  1.00  0.00     0.001 A 
HETATM    7  C7  UNL     1      -2.430   0.185  -0.529  1.00  0.00     0.001 A 
HETATM    8  C8  UNL     1      -1.272   0.705  -1.057  1.00  0.00     0.012 A 
HETATM    9  C9  UNL     1      -0.024   0.420  -0.540  1.00  0.00    -0.026 A 
HETATM   10  C10 UNL     1       1.142   0.951  -1.081  1.00  0.00     0.012 A 
ENDROOT
TORSDOF 0
