REMARK  3 active torsions:
REMARK  status: ('A' for Active; 'I' for Inactive)
REMARK    1  A    between atoms: N1_1  and  C1_4 
REMARK    2  A    between atoms: C2_7  and  O1_8 
REMARK    3  A    between atoms: O1_8  and  C3_9 
ROOT
HETATM    1  C1  UNL     1       3.196   0.234  -0.494  1.00  0.00     0.693 A 
HETATM    2  N2  UNL     1       1.861   0.368  -0.383  1.00  0.00    -0.153 N 
ATOM      3  H2  UNL     1       1.344   1.227  -0.572  1.00  0.00     0.188 HD
HETATM    4  C2  UNL     1       1.308  -0.785   0.010  1.00  0.00     0.255 A 
HETATM    5  N5  UNL     1       2.305  -1.668   0.153  1.00  0.00    -0.250 N 
ATOM      6  H5  UNL     1       2.212  -2.641   0.444  1.00  0.00     0.191 HD
HETATM    7  N6  UNL     1       3.432  -1.048  -0.152  1.00  0.00    -0.129 N 
ATOM      8  H6  UNL     1       4.355  -1.481  -0.131  1.00  0.00     0.205 HD
ENDROOT
BRANCH   4   9
HETATM    9  O1  UNL     1      -0.040  -0.980   0.217  1.00  0.00    -0.296 OA
BRANCH   9  10
HETATM   10  C3  UNL     1      -0.940   0.054   0.021  1.00  0.00     0.261 C 
HETATM   11  C4  UNL     1      -1.763   0.372   1.275  1.00  0.00     0.216 C 
HETATM   12  S1  UNL     1      -3.141   1.199   0.459  1.00  0.00     0.244 S 
HETATM   13  O2  UNL     1      -4.442   0.645   0.900  1.00  0.00    -0.205 OA
HETATM   14  O3  UNL     1      -3.030   2.674   0.574  1.00  0.00    -0.205 OA
HETATM   15  N3  UNL     1      -2.764   0.727  -1.185  1.00  0.00    -0.228 N 
HETATM   16  N4  UNL     1      -1.893  -0.339  -0.989  1.00  0.00    -0.098 NA
ATOM     17  H3  UNL     1      -3.097   1.130  -2.061  1.00  0.00     0.195 HD
ENDBRANCH   9  10
ENDBRANCH   4   9
BRANCH   1  18
HETATM   18  N1  UNL     1       4.048   1.145  -0.851  1.00  0.00    -0.233 N 
ATOM     19  H12 UNL     1       3.869   2.115  -1.110  1.00  0.00     0.174 HD
ATOM     20  H11 UNL     1       5.059   1.043  -0.935  1.00  0.00     0.174 HD
ENDBRANCH   1  18
TORSDOF 3
