REMARK  6 active torsions:
REMARK  status: ('A' for Active; 'I' for Inactive)
REMARK    1  A    between atoms: C2_3  and  N2_4 
REMARK    2  A    between atoms: C6_12  and  C7_13 
REMARK    3  A    between atoms: C7_13  and  N4_14 
REMARK    4  A    between atoms: C7_13  and  C8_18 
REMARK    5  A    between atoms: C8_18  and  N5_19 
REMARK    6  A    between atoms: C8_18  and  O1_23 
ROOT
HETATM    1  C1  UNL     1      -3.304   1.399   0.841  1.00  0.00     0.175 C 
HETATM    2  N1  UNL     1      -2.829   0.171   0.183  1.00  0.00    -0.184 N 
HETATM    3  C2  UNL     1      -3.581  -0.897  -0.134  1.00  0.00     0.679 A 
HETATM    4  N3  UNL     1      -2.806  -1.847  -0.731  1.00  0.00    -0.175 N 
ATOM      5  H3  UNL     1      -3.123  -2.755  -1.071  1.00  0.00     0.186 HD
HETATM    6  C3  UNL     1      -1.543  -1.370  -0.792  1.00  0.00     0.144 A 
HETATM    7  C4  UNL     1      -1.561  -0.107  -0.219  1.00  0.00     0.092 A 
HETATM    8  C5  UNL     1      -0.499   0.649  -0.111  1.00  0.00     0.016 A 
HETATM    9  C6  UNL     1       0.828   0.249  -0.582  1.00  0.00     0.063 A 
HETATM   10  C9  UNL     1       0.824  -1.099  -1.187  1.00  0.00     0.132 A 
HETATM   11  N6  UNL     1      -0.419  -1.773  -1.219  1.00  0.00    -0.373 N 
ATOM     12  H6  UNL     1      -0.410  -2.702  -1.639  1.00  0.00     0.161 HD
ENDROOT
BRANCH   9  13
HETATM   13  C7  UNL     1       1.857   0.404   0.520  1.00  0.00     0.248 C 
BRANCH  13  14
HETATM   14  N4  UNL     1       1.588  -0.380   1.682  1.00  0.00    -0.070 N 
ATOM     15  H43 UNL     1       0.652  -0.184   2.037  1.00  0.00     0.274 HD
ATOM     16  H42 UNL     1       1.476  -1.363   1.433  1.00  0.00     0.274 HD
ATOM     17  H41 UNL     1       2.280  -0.276   2.424  1.00  0.00     0.274 HD
ENDBRANCH  13  14
BRANCH  13  18
HETATM   18  C8  UNL     1       3.257   0.178  -0.023  1.00  0.00     0.347 C 
BRANCH  18  19
HETATM   19  N5  UNL     1       3.518   0.971  -1.186  1.00  0.00    -0.051 N 
ATOM     20  H53 UNL     1       2.813   0.814  -1.906  1.00  0.00     0.277 HD
ATOM     21  H52 UNL     1       3.347   1.960  -1.005  1.00  0.00     0.277 HD
ATOM     22  H51 UNL     1       4.458   0.819  -1.551  1.00  0.00     0.277 HD
ENDBRANCH  18  19
BRANCH  18  23
HETATM   23  O1  UNL     1       4.209   0.515   0.940  1.00  0.00    -0.368 OA
ATOM     24  H1  UNL     1       5.085   0.374   0.600  1.00  0.00     0.212 HD
ENDBRANCH  18  23
ENDBRANCH  13  18
ENDBRANCH   9  13
BRANCH   3  25
HETATM   25  N2  UNL     1      -4.842  -0.982   0.104  1.00  0.00    -0.234 N 
ATOM     26  H22 UNL     1      -5.422  -0.271   0.551  1.00  0.00     0.174 HD
ATOM     27  H21 UNL     1      -5.413  -1.792  -0.137  1.00  0.00     0.174 HD
ENDBRANCH   3  25
TORSDOF 6
