REMARK  5 active torsions:
REMARK  status: ('A' for Active; 'I' for Inactive)
REMARK    1  A    between atoms: O1_1  and  C1_3 
REMARK    2  A    between atoms: C1_3  and  C2_4 
REMARK    3  A    between atoms: C1_3  and  C8_12 
REMARK    4  A    between atoms: C2_4  and  C3_5 
REMARK    5  A    between atoms: C3_5  and  N1_6 
ROOT
HETATM    1  C1  UNL     1       0.810   0.285   0.692  1.00  0.00     0.123 C 
ENDROOT
BRANCH   1   2
HETATM    2  O1  UNL     1       0.533   1.617   0.427  1.00  0.00    -0.395 OA
ATOM      3  H1  UNL     1       0.978   2.202   1.029  1.00  0.00     0.210 HD
ENDBRANCH   1   2
BRANCH   1   4
HETATM    4  C2  UNL     1       0.128  -0.612  -0.230  1.00  0.00     0.062 C 
BRANCH   4   5
HETATM    5  C3  UNL     1      -1.352  -0.616  -0.226  1.00  0.00     0.275 C 
BRANCH   5   6
HETATM    6  N1  UNL     1      -2.072   0.596  -0.475  1.00  0.00     0.092 N 
HETATM    7  C4  UNL     1      -3.389   0.177  -1.046  1.00  0.00     0.298 C 
HETATM    8  C5  UNL     1      -4.016  -0.795  -0.124  1.00  0.00     0.198 C 
HETATM    9  O2  UNL     1      -4.351  -0.156   1.067  1.00  0.00    -0.388 OA
HETATM   10  C6  UNL     1      -3.882   1.132   1.129  1.00  0.00     0.198 C 
HETATM   11  C7  UNL     1      -2.400   1.226   0.822  1.00  0.00     0.298 C 
ENDBRANCH   5   6
ENDBRANCH   4   5
ENDBRANCH   1   4
BRANCH   1  12
HETATM   12  C8  UNL     1       2.319   0.162   0.685  1.00  0.00     0.014 C 
HETATM   13  C9  UNL     1       2.928   0.552  -0.627  1.00  0.00     0.007 C 
HETATM   14  C10 UNL     1       4.393   0.166  -0.368  1.00  0.00     0.000 C 
HETATM   15  C11 UNL     1       4.317  -1.037   0.578  1.00  0.00     0.000 C 
HETATM   16  C12 UNL     1       2.816  -1.247   0.839  1.00  0.00     0.007 C 
ENDBRANCH   1  12
TORSDOF 5
