REMARK  4 active torsions:
REMARK  status: ('A' for Active; 'I' for Inactive)
REMARK    1  A    between atoms: O1_1  and  C1_3 
REMARK    2  A    between atoms: C1_3  and  C2_4 
REMARK    3  A    between atoms: C2_4  and  N1_5 
REMARK    4  A    between atoms: C5_8  and  N2_9 
ROOT
HETATM    1  N1  UNL     1       2.145  -0.354  -0.376  1.00  0.00    -0.391 N 
HETATM    2  C3  UNL     1       1.616  -0.971   0.772  1.00  0.00     0.060 C 
HETATM    3  C4  UNL     1       0.198  -0.699   1.124  1.00  0.00     0.080 C 
HETATM    4  C5  UNL     1      -0.642  -0.625  -0.109  1.00  0.00     0.229 C 
HETATM    5  C10 UNL     1      -0.085   0.444  -0.981  1.00  0.00     0.056 C 
HETATM    6  C11 UNL     1       1.258  -0.118  -1.475  1.00  0.00     0.124 C 
ENDROOT
BRANCH   4   7
HETATM    7  N2  UNL     1      -2.014  -0.553   0.224  1.00  0.00     0.093 N 
HETATM    8  C6  UNL     1      -2.406   0.608   0.984  1.00  0.00     0.273 C 
HETATM    9  C7  UNL     1      -3.918   0.338   1.089  1.00  0.00     0.032 C 
HETATM   10  C8  UNL     1      -4.226  -0.099  -0.334  1.00  0.00     0.032 C 
HETATM   11  C9  UNL     1      -2.917  -0.638  -0.897  1.00  0.00     0.273 C 
ENDBRANCH   4   7
BRANCH   1  12
HETATM   12  C2  UNL     1       3.090   0.713  -0.156  1.00  0.00     0.148 C 
BRANCH  12  13
HETATM   13  C1  UNL     1       4.377   0.182   0.436  1.00  0.00     0.183 C 
BRANCH  13  14
HETATM   14  O1  UNL     1       5.266   1.248   0.631  1.00  0.00    -0.399 OA
ATOM     15  H1  UNL     1       6.074   0.915   1.003  1.00  0.00     0.209 HD
ENDBRANCH  13  14
ENDBRANCH  12  13
ENDBRANCH   1  12
TORSDOF 4
