REMARK  6 active torsions:
REMARK  status: ('A' for Active; 'I' for Inactive)
REMARK    1  A    between atoms: C2_2  and  N1_3 
REMARK    2  A    between atoms: N1_3  and  C3_4 
REMARK    3  A    between atoms: N1_3  and  C9_11 
REMARK    4  A    between atoms: C3_4  and  C4_5 
REMARK    5  A    between atoms: C11_13  and  N2_14 
REMARK    6  A    between atoms: C17_22  and  N4_23 
ROOT
HETATM    1  C9  UNL     1       0.198   0.026   0.457  1.00  0.00     0.037 A 
HETATM    2  C10 UNL     1      -0.692  -0.963   0.102  1.00  0.00     0.077 A 
HETATM    3  C11 UNL     1      -1.995  -0.657  -0.220  1.00  0.00     0.106 A 
HETATM    4  N3  UNL     1      -2.363   0.636  -0.174  1.00  0.00    -0.329 N 
ATOM      5  H3  UNL     1      -3.329   0.863  -0.411  1.00  0.00     0.169 HD
HETATM    6  C17 UNL     1      -1.547   1.652   0.163  1.00  0.00     0.106 A 
HETATM    7  C22 UNL     1      -0.238   1.319   0.483  1.00  0.00     0.077 A 
ENDROOT
BRANCH   1   8
HETATM    8  N1  UNL     1       1.526  -0.393   0.786  1.00  0.00    -0.381 N 
BRANCH   8   9
HETATM    9  C2  UNL     1       1.847  -0.518   2.168  1.00  0.00     0.118 C 
HETATM   10  C1  UNL     1       2.069  -1.937   2.629  1.00  0.00     0.026 C 
ENDBRANCH   8   9
BRANCH   8  11
HETATM   11  C3  UNL     1       2.402  -0.662  -0.297  1.00  0.00     0.129 C 
BRANCH  11  12
HETATM   12  C4  UNL     1       3.560   0.265  -0.491  1.00  0.00     0.027 C 
HETATM   13  C5  UNL     1       4.522   0.349   0.645  1.00  0.00     0.010 C 
HETATM   14  C6  UNL     1       5.926   0.521   0.045  1.00  0.00     0.027 C 
HETATM   15  C7  UNL     1       6.300  -0.791  -0.587  1.00  0.00     0.167 C 
HETATM   16  O1  UNL     1       5.187  -1.310  -1.241  1.00  0.00    -0.391 OA
HETATM   17  C8  UNL     1       4.340  -0.301  -1.694  1.00  0.00     0.173 C 
ENDBRANCH  11  12
ENDBRANCH   8  11
ENDBRANCH   1   8
BRANCH   3  18
HETATM   18  N2  UNL     1      -2.875  -1.681  -0.598  1.00  0.00    -0.367 N 
HETATM   19  C12 UNL     1      -2.439  -2.997  -0.974  1.00  0.00     0.124 C 
HETATM   20  C13 UNL     1      -2.942  -3.942   0.105  1.00  0.00     0.020 C 
HETATM   21  C14 UNL     1      -4.449  -3.853   0.097  1.00  0.00     0.003 C 
HETATM   22  C15 UNL     1      -4.891  -2.451   0.383  1.00  0.00     0.020 C 
HETATM   23  C16 UNL     1      -4.322  -1.463  -0.621  1.00  0.00     0.124 C 
ENDBRANCH   3  18
BRANCH   6  24
HETATM   24  N4  UNL     1      -2.008   2.993   0.197  1.00  0.00    -0.367 N 
HETATM   25  C18 UNL     1      -3.351   3.430  -0.064  1.00  0.00     0.124 C 
HETATM   26  C19 UNL     1      -3.213   4.821  -0.598  1.00  0.00     0.021 C 
HETATM   27  C20 UNL     1      -2.091   5.359   0.291  1.00  0.00     0.021 C 
HETATM   28  C21 UNL     1      -1.201   4.139   0.505  1.00  0.00     0.124 C 
ENDBRANCH   6  24
TORSDOF 6
