REMARK  7 active torsions:
REMARK  status: ('A' for Active; 'I' for Inactive)
REMARK    1  A    between atoms: C2_2  and  C3_3 
REMARK    2  A    between atoms: C3_3  and  C4_4 
REMARK    3  A    between atoms: C4_4  and  C6_6 
REMARK    4  A    between atoms: C6_6  and  C7_8 
REMARK    5  A    between atoms: C8_9  and  C9_10 
REMARK    6  A    between atoms: C9_10  and  O3_12 
REMARK    7  A    between atoms: O3_12  and  C10_13 
ROOT
HETATM    1  C10 UNL     1      -1.714   0.044   1.041  1.00  0.00     0.148 C 
HETATM    2  C11 UNL     1      -2.649  -1.077   1.359  1.00  0.00     0.042 C 
HETATM    3  C12 UNL     1      -3.662  -0.623   2.430  1.00  0.00     0.175 C 
HETATM    4  O4  UNL     1      -4.390   0.452   2.064  1.00  0.00    -0.385 OA
HETATM    5  C13 UNL     1      -3.775   1.437   1.353  1.00  0.00     0.131 C 
HETATM    6  C14 UNL     1      -4.407   1.494  -0.020  1.00  0.00     0.036 C 
HETATM    7  C15 UNL     1      -5.219   0.237  -0.335  1.00  0.00     0.043 C 
HETATM    8  C16 UNL     1      -4.629  -0.595  -1.411  1.00  0.00     0.084 A 
HETATM    9  C17 UNL     1      -5.513  -1.019  -2.594  1.00  0.00     0.049 C 
HETATM   10  O5  UNL     1      -3.342  -0.204  -1.717  1.00  0.00    -0.370 OA
HETATM   11  C18 UNL     1      -3.403  -1.385  -1.087  1.00  0.00     0.157 A 
HETATM   12  C19 UNL     1      -3.339  -1.796   0.292  1.00  0.00     0.044 C 
HETATM   13  C20 UNL     1      -2.291   1.414   1.344  1.00  0.00     0.006 C 
HETATM   14  C21 UNL     1      -1.811   2.420   0.284  1.00  0.00     0.020 C 
HETATM   15  C22 UNL     1      -1.793   1.979   2.654  1.00  0.00     0.020 C 
ENDROOT
BRANCH   1  16
HETATM   16  O3  UNL     1      -0.411  -0.108   1.504  1.00  0.00    -0.311 OA
BRANCH  16  17
HETATM   17  C9  UNL     1       0.730  -0.231   0.769  1.00  0.00     0.283 C 
HETATM   18  O2  UNL     1       0.513  -0.196  -0.465  1.00  0.00    -0.260 OA
BRANCH  17  19
HETATM   19  C8  UNL     1       2.050  -0.385   1.342  1.00  0.00     0.086 C 
HETATM   20  C7  UNL     1       3.116  -0.500   0.577  1.00  0.00     0.056 C 
BRANCH  20  21
HETATM   21  C6  UNL     1       4.456  -0.656   1.121  1.00  0.00     0.153 C 
HETATM   22  O1  UNL     1       4.614  -0.685   2.361  1.00  0.00    -0.293 OA
BRANCH  21  23
HETATM   23  C4  UNL     1       5.650  -0.784   0.246  1.00  0.00     0.055 C 
HETATM   24  C5  UNL     1       6.897  -0.998   1.071  1.00  0.00     0.018 C 
BRANCH  23  25
HETATM   25  C3  UNL     1       5.756   0.458  -0.602  1.00  0.00     0.011 C 
BRANCH  25  26
HETATM   26  C2  UNL     1       6.911   0.399  -1.563  1.00  0.00    -0.004 C 
HETATM   27  C1  UNL     1       6.809  -0.750  -2.515  1.00  0.00     0.005 C 
ENDBRANCH  25  26
ENDBRANCH  23  25
ENDBRANCH  21  23
ENDBRANCH  20  21
ENDBRANCH  17  19
ENDBRANCH  16  17
ENDBRANCH   1  16
TORSDOF 7
