REMARK  6 active torsions:
REMARK  status: ('A' for Active; 'I' for Inactive)
REMARK    1  A    between atoms: C2_2  and  C3_3 
REMARK    2  A    between atoms: C3_3  and  C4_4 
REMARK    3  A    between atoms: C3_3  and  C6_6 
REMARK    4  A    between atoms: C9_12  and  N3_13 
REMARK    5  A    between atoms: N4_19  and  C15_20 
REMARK    6  A    between atoms: C15_20  and  C16_21 
ROOT
HETATM    1  C6  UNL     1       0.194   2.194  -0.683  1.00  0.00     0.112 A 
HETATM    2  N1  UNL     1       1.136   2.365  -1.681  1.00  0.00    -0.330 N 
ATOM      3  H1  UNL     1       1.209   3.201  -2.261  1.00  0.00     0.168 HD
HETATM    4  C7  UNL     1       1.920   1.327  -1.791  1.00  0.00     0.160 A 
HETATM    5  C8  UNL     1       3.010   1.126  -2.708  1.00  0.00     0.121 C 
HETATM    6  N2  UNL     1       3.878   0.979  -3.461  1.00  0.00    -0.190 NA
HETATM    7  C9  UNL     1       1.514   0.381  -0.827  1.00  0.00     0.145 A 
HETATM    8  N4  UNL     1       0.474   0.947  -0.189  1.00  0.00    -0.314 N 
ENDROOT
BRANCH   7   9
HETATM    9  N3  UNL     1       2.196  -0.866  -0.676  1.00  0.00    -0.364 N 
HETATM   10  C10 UNL     1       2.149  -1.963  -1.596  1.00  0.00     0.125 C 
HETATM   11  C11 UNL     1       2.778  -3.126  -0.891  1.00  0.00     0.026 C 
HETATM   12  C12 UNL     1       3.836  -2.430  -0.024  1.00  0.00     0.001 C 
HETATM   13  C13 UNL     1       4.253  -3.296   1.129  1.00  0.00     0.011 C 
HETATM   14  C14 UNL     1       3.079  -1.191   0.403  1.00  0.00     0.128 C 
ENDBRANCH   7   9
BRANCH   1  15
HETATM   15  C3  UNL     1      -0.743   3.247  -0.338  1.00  0.00    -0.036 C 
BRANCH  15  16
HETATM   16  C2  UNL     1      -0.928   3.592   1.110  1.00  0.00     0.033 C 
HETATM   17  C1  UNL     1      -1.410   5.054   1.258  1.00  0.00     0.010 C 
ENDBRANCH  15  16
BRANCH  15  18
HETATM   18  C4  UNL     1      -2.031   3.367  -1.074  1.00  0.00     0.033 C 
HETATM   19  C5  UNL     1      -1.967   3.035  -2.533  1.00  0.00     0.010 C 
ENDBRANCH  15  18
ENDBRANCH   1  15
BRANCH   8  20
HETATM   20  C15 UNL     1      -0.263   0.353   0.869  1.00  0.00     0.174 C 
BRANCH  20  21
HETATM   21  C16 UNL     1      -1.347  -0.615   0.603  1.00  0.00     0.176 C 
HETATM   22  C17 UNL     1      -2.457  -0.193  -0.293  1.00  0.00     0.045 C 
HETATM   23  C18 UNL     1      -3.192  -1.476  -0.591  1.00  0.00     0.033 C 
HETATM   24  C19 UNL     1      -2.211  -2.557  -0.266  1.00  0.00     0.273 C 
HETATM   25  N5  UNL     1      -0.999  -1.924   0.189  1.00  0.00     0.099 N 
HETATM   26  C20 UNL     1      -0.512  -2.668   1.324  1.00  0.00     0.273 C 
HETATM   27  C21 UNL     1      -1.127  -2.025   2.551  1.00  0.00     0.033 C 
HETATM   28  C22 UNL     1      -2.015  -0.973   1.993  1.00  0.00     0.045 C 
ENDBRANCH  20  21
ENDBRANCH   8  20
TORSDOF 6
