REMARK  3 active torsions:
REMARK  status: ('A' for Active; 'I' for Inactive)
REMARK    1  A    between atoms: O1_2  and  C2_3 
REMARK    2  A    between atoms: C4_5  and  O2_6 
REMARK    3  A    between atoms: C14_21  and  O6_22 
ROOT
HETATM    1  C2  UNL     1      -2.145  -0.852  -1.079  1.00  0.00     0.113 A 
HETATM    2  C3  UNL     1      -1.567  -0.664  -2.307  1.00  0.00     0.103 A 
HETATM    3  C4  UNL     1      -0.198  -0.823  -2.609  1.00  0.00     0.097 A 
HETATM    4  C5  UNL     1       0.634  -1.176  -1.543  1.00  0.00     0.069 A 
HETATM    5  C6  UNL     1       0.105  -1.343  -0.268  1.00  0.00     0.053 A 
HETATM    6  C7  UNL     1      -1.269  -1.184   0.014  1.00  0.00     0.063 A 
HETATM    7  C8  UNL     1      -1.624  -0.848   1.451  1.00  0.00     0.131 C 
HETATM    8  O3  UNL     1      -2.090  -1.624   2.399  1.00  0.00    -0.268 OA
HETATM    9  C9  UNL     1      -3.313  -1.418   3.049  1.00  0.00     0.340 C 
HETATM   10  O4  UNL     1      -3.625  -2.316   3.818  1.00  0.00    -0.255 OA
HETATM   11  C10 UNL     1      -4.118  -0.322   2.867  1.00  0.00     0.261 C 
HETATM   12  O5  UNL     1      -5.282  -0.430   3.334  1.00  0.00    -0.281 OA
HETATM   13  C11 UNL     1      -3.826   0.920   2.224  1.00  0.00     0.070 C 
HETATM   14  C12 UNL     1      -4.864   1.902   2.439  1.00  0.00     0.118 C 
HETATM   15  N1  UNL     1      -4.696   3.192   1.866  1.00  0.00    -0.114 NA
HETATM   16  C13 UNL     1      -2.664   1.221   1.432  1.00  0.00     0.121 C 
HETATM   17  C14 UNL     1      -1.433   0.583   1.809  1.00  0.00     0.135 C 
HETATM   18  O7  UNL     1      -3.002   2.059   0.467  1.00  0.00    -0.336 OA
HETATM   19  C15 UNL     1      -2.656   2.856  -0.570  1.00  0.00     0.181 C 
HETATM   20  C16 UNL     1      -1.549   3.901  -0.038  1.00  0.00     0.204 C 
HETATM   21  O8  UNL     1      -0.348   3.267  -0.160  1.00  0.00    -0.386 OA
HETATM   22  C17 UNL     1       0.749   3.933  -0.554  1.00  0.00     0.193 C 
HETATM   23  C18 UNL     1       2.052   3.366  -0.035  1.00  0.00     0.193 C 
HETATM   24  O9  UNL     1       2.515   2.269  -0.755  1.00  0.00    -0.387 OA
HETATM   25  C19 UNL     1       3.637   1.721  -0.133  1.00  0.00     0.193 C 
HETATM   26  C20 UNL     1       4.262   0.575  -0.849  1.00  0.00     0.193 C 
HETATM   27  O10 UNL     1       4.683  -0.445  -0.017  1.00  0.00    -0.387 OA
HETATM   28  C21 UNL     1       5.400  -1.456  -0.578  1.00  0.00     0.189 C 
HETATM   29  C22 UNL     1       4.590  -2.595  -1.155  1.00  0.00     0.178 C 
HETATM   30  N2  UNL     1       4.764  -3.857  -0.474  1.00  0.00    -0.257 N 
HETATM   31  N3  UNL     1       5.952  -4.461  -0.280  1.00  0.00    -0.224 N 
ATOM     32  H3  UNL     1       6.848  -4.085  -0.590  1.00  0.00     0.210 HD
HETATM   33  N4  UNL     1       5.807  -5.590   0.356  1.00  0.00    -0.226 N 
ATOM     34  H4  UNL     1       6.542  -6.243   0.630  1.00  0.00     0.210 HD
HETATM   35  N5  UNL     1       4.508  -5.712   0.572  1.00  0.00    -0.267 N 
ATOM     36  H5  UNL     1       4.063  -6.495   1.052  1.00  0.00     0.190 HD
HETATM   37  C23 UNL     1       3.857  -4.639   0.059  1.00  0.00     0.155 A 
HETATM   38  C24 UNL     1       2.370  -4.401   0.110  1.00  0.00     0.142 C 
HETATM   39  N6  UNL     1       1.963  -3.788   1.311  1.00  0.00    -0.337 N 
ATOM     40  H6  UNL     1       2.104  -4.370   2.137  1.00  0.00     0.168 HD
HETATM   41  C25 UNL     1       1.448  -2.638   1.571  1.00  0.00     0.192 C 
HETATM   42  N7  UNL     1       1.180  -2.406   2.998  1.00  0.00    -0.063 NA
HETATM   43  N8  UNL     1       1.159  -1.590   0.665  1.00  0.00    -0.330 N 
ATOM     44  H8  UNL     1       1.857  -0.847   0.682  1.00  0.00     0.168 HD
HETATM   45  C26 UNL     1      -2.011   2.307  -1.737  1.00  0.00     0.082 C 
HETATM   46  C27 UNL     1      -2.648   1.612  -2.864  1.00  0.00     0.244 C 
HETATM   47  O11 UNL     1      -3.620   2.058  -3.452  1.00  0.00    -0.269 OA
HETATM   48  N9  UNL     1      -2.118   0.295  -3.352  1.00  0.00    -0.319 N 
ATOM     49  H9  UNL     1      -2.127   0.053  -4.343  1.00  0.00     0.169 HD
ENDROOT
BRANCH   1  50
HETATM   50  O1  UNL     1      -3.616  -0.776  -0.891  1.00  0.00    -0.353 OA
HETATM   51  C1  UNL     1      -4.430  -1.916  -1.048  1.00  0.00     0.210 C 
ENDBRANCH   1  50
BRANCH   3  52
HETATM   52  O2  UNL     1       0.347  -0.656  -3.876  1.00  0.00    -0.358 OA
ATOM     53  H2  UNL     1       1.269  -0.763  -4.079  1.00  0.00     0.217 HD
ENDBRANCH   3  52
BRANCH  17  54
HETATM   54  O6  UNL     1      -0.348   1.152   2.363  1.00  0.00    -0.356 OA
ATOM     55  H6  UNL     1      -0.226   2.066   2.592  1.00  0.00     0.218 HD
ENDBRANCH  17  54
TORSDOF 3
