REMARK  10 active torsions:
REMARK  status: ('A' for Active; 'I' for Inactive)
REMARK    1  A    between atoms: C2_2  and  C3_3 
REMARK    2  A    between atoms: C3_3  and  C4_4 
REMARK    3  A    between atoms: C4_4  and  N1_5 
REMARK    4  A    between atoms: N1_5  and  C5_8 
REMARK    5  A    between atoms: C5_8  and  C6_9 
REMARK    6  A    between atoms: C6_9  and  C7_10 
REMARK    7  A    between atoms: C7_10  and  C8_11 
REMARK    8  A    between atoms: C8_11  and  C9_12 
REMARK    9  A    between atoms: C9_12  and  C10_13 
REMARK   10  A    between atoms: C10_13  and  C11_14 
ROOT
HETATM    1  C7  UNL     1       1.092   1.871  -0.520  1.00  0.00     0.002 C 
ENDROOT
BRANCH   1   2
HETATM    2  C6  UNL     1       2.127   0.813  -0.800  1.00  0.00     0.027 C 
BRANCH   2   3
HETATM    3  C5  UNL     1       2.041  -0.405   0.048  1.00  0.00     0.232 C 
BRANCH   3   4
HETATM    4  N1  UNL     1       3.051  -1.390  -0.247  1.00  0.00    -0.075 N 
ATOM      5  H12 UNL     1       3.039  -1.668  -1.228  1.00  0.00     0.277 HD
ATOM      6  H11 UNL     1       2.834  -2.296   0.167  1.00  0.00     0.277 HD
BRANCH   4   7
HETATM    7  C4  UNL     1       4.328  -0.911   0.156  1.00  0.00     0.236 C 
BRANCH   7   8
HETATM    8  C3  UNL     1       5.435  -1.931  -0.091  1.00  0.00     0.054 C 
BRANCH   8   9
HETATM    9  C2  UNL     1       6.699  -1.335   0.365  1.00  0.00    -0.035 C 
HETATM   10  C1  UNL     1       6.725  -0.126   0.877  1.00  0.00     0.007 C 
ENDBRANCH   8   9
ENDBRANCH   7   8
ENDBRANCH   4   7
ENDBRANCH   3   4
ENDBRANCH   2   3
ENDBRANCH   1   2
BRANCH   1  11
HETATM   11  C8  UNL     1      -0.295   1.273  -0.749  1.00  0.00     0.000 C 
BRANCH  11  12
HETATM   12  C9  UNL     1      -1.363   2.276  -0.517  1.00  0.00     0.000 C 
BRANCH  12  13
HETATM   13  C10 UNL     1      -2.746   1.827  -0.766  1.00  0.00     0.004 C 
BRANCH  13  14
HETATM   14  C11 UNL     1      -3.343   0.718  -0.010  1.00  0.00    -0.014 C 
HETATM   15  C12 UNL     1      -2.699  -0.603  -0.162  1.00  0.00     0.004 C 
HETATM   16  C13 UNL     1      -3.764  -1.704  -0.273  1.00  0.00     0.000 C 
HETATM   17  C14 UNL     1      -4.770  -1.557   0.848  1.00  0.00     0.000 C 
HETATM   18  C15 UNL     1      -5.528  -0.248   0.712  1.00  0.00     0.000 C 
HETATM   19  C16 UNL     1      -4.838   0.620  -0.317  1.00  0.00     0.004 C 
ENDBRANCH  13  14
ENDBRANCH  12  13
ENDBRANCH  11  12
ENDBRANCH   1  11
TORSDOF 10
