REMARK  2 active torsions:
REMARK  status: ('A' for Active; 'I' for Inactive)
REMARK    1  A    between atoms: N3_11  and  C5_12 
REMARK    2  A    between atoms: C5_12  and  C6_13 
ROOT
HETATM    1  S1  UNL     1       5.551  -1.606  -0.301  1.00  0.00    -0.057 SA
HETATM    2  C1  UNL     1       4.245  -0.553  -0.297  1.00  0.00     0.136 A 
HETATM    3  N1  UNL     1       4.384   0.625  -0.901  1.00  0.00    -0.314 N 
ATOM      4  H1  UNL     1       5.203   0.993  -1.385  1.00  0.00     0.175 HD
HETATM    5  S2  UNL     1       2.886   1.363  -0.677  1.00  0.00     0.007 SA
HETATM    6  C2  UNL     1       2.088   0.137   0.200  1.00  0.00     0.124 A 
HETATM    7  C3  UNL     1       3.050  -0.821   0.282  1.00  0.00     0.107 A 
HETATM    8  N2  UNL     1       2.449  -1.837   0.986  1.00  0.00    -0.347 N 
ATOM      9  H2  UNL     1       2.890  -2.723   1.233  1.00  0.00     0.167 HD
HETATM   10  C4  UNL     1       1.191  -1.482   1.298  1.00  0.00     0.184 A 
HETATM   11  N3  UNL     1       0.938  -0.264   0.824  1.00  0.00    -0.332 N 
ENDROOT
BRANCH  11  12
HETATM   12  C5  UNL     1      -0.232   0.557   0.885  1.00  0.00     0.162 C 
BRANCH  12  13
HETATM   13  C6  UNL     1      -1.177   0.357  -0.267  1.00  0.00     0.139 C 
HETATM   14  C7  UNL     1      -2.351   1.301  -0.039  1.00  0.00     0.035 C 
HETATM   15  C8  UNL     1      -3.472   0.416   0.381  1.00  0.00     0.029 C 
HETATM   16  C9  UNL     1      -2.896  -0.952   0.324  1.00  0.00     0.168 C 
HETATM   17  O1  UNL     1      -1.697  -0.914  -0.343  1.00  0.00    -0.384 OA
ENDBRANCH  12  13
ENDBRANCH  11  12
TORSDOF 2
