REMARK  7 active torsions:
REMARK  status: ('A' for Active; 'I' for Inactive)
REMARK    1  A    between atoms: O1_2  and  C2_3 
REMARK    2  A    between atoms: C2_3  and  C3_5 
REMARK    3  A    between atoms: C3_5  and  C4_6 
REMARK    4  A    between atoms: C4_6  and  C5_7 
REMARK    5  A    between atoms: C8_11  and  O3_12 
REMARK    6  A    between atoms: C9_14  and  C10_15 
REMARK       I    between atoms: C10_15  and  N1_17 
REMARK    7  A    between atoms: N1_17  and  C11_19 
ROOT
HETATM    1  C5  UNL     1       2.695  -1.327   0.767  1.00  0.00     0.002 A 
HETATM    2  S1  UNL     1       3.833  -2.430   0.079  1.00  0.00    -0.096 SA
HETATM    3  C6  UNL     1       2.914  -3.034  -1.188  1.00  0.00     0.013 A 
HETATM    4  C7  UNL     1       3.325  -4.062  -2.206  1.00  0.00     0.059 C 
HETATM    5  C8  UNL     1       1.726  -2.371  -1.065  1.00  0.00     0.095 A 
HETATM    6  C9  UNL     1       1.582  -1.484  -0.062  1.00  0.00     0.079 A 
ENDROOT
BRANCH   6   7
HETATM    7  C10 UNL     1       0.359  -0.724   0.231  1.00  0.00     0.256 C 
HETATM    8  O4  UNL     1       0.345   0.061   1.211  1.00  0.00    -0.268 OA
HETATM    9  N1  UNL     1      -0.843  -0.793  -0.507  1.00  0.00    -0.347 N 
ATOM     10  H1  UNL     1      -0.895  -1.415  -1.314  1.00  0.00     0.163 HD
BRANCH   9  11
HETATM   11  C11 UNL     1      -2.021   0.007  -0.143  1.00  0.00     0.034 C 
HETATM   12  C12 UNL     1      -1.757   1.463  -0.220  1.00  0.00     0.035 C 
HETATM   13  C13 UNL     1      -3.045   2.220   0.063  1.00  0.00    -0.012 C 
HETATM   14  C14 UNL     1      -4.101   1.917  -0.962  1.00  0.00     0.009 C 
HETATM   15  C18 UNL     1      -3.504   1.822   1.437  1.00  0.00     0.009 C 
HETATM   16  C15 UNL     1      -4.355   0.434  -0.972  1.00  0.00    -0.012 C 
HETATM   17  C16 UNL     1      -4.928   0.077   0.399  1.00  0.00     0.009 C 
HETATM   18  C20 UNL     1      -3.085  -0.307  -1.197  1.00  0.00     0.035 C 
HETATM   19  C17 UNL     1      -3.859   0.361   1.407  1.00  0.00    -0.012 C 
HETATM   20  C19 UNL     1      -2.604  -0.448   1.172  1.00  0.00     0.035 C 
ENDBRANCH   9  11
ENDBRANCH   6   7
BRANCH   1  21
HETATM   21  C4  UNL     1       2.913  -0.422   1.935  1.00  0.00     0.057 C 
BRANCH  21  22
HETATM   22  C3  UNL     1       3.278   0.974   1.629  1.00  0.00     0.116 C 
BRANCH  22  23
HETATM   23  C2  UNL     1       4.558   1.109   0.899  1.00  0.00     0.258 C 
HETATM   24  O2  UNL     1       5.293   0.168   0.632  1.00  0.00    -0.265 OA
BRANCH  23  25
HETATM   25  O1  UNL     1       4.978   2.390   0.475  1.00  0.00    -0.326 OA
HETATM   26  C1  UNL     1       6.185   2.552  -0.220  1.00  0.00     0.213 C 
ENDBRANCH  23  25
ENDBRANCH  22  23
ENDBRANCH  21  22
ENDBRANCH   1  21
BRANCH   5  27
HETATM   27  O3  UNL     1       0.716  -2.669  -2.014  1.00  0.00    -0.359 OA
ATOM     28  H3  UNL     1      -0.110  -2.208  -1.928  1.00  0.00     0.217 HD
ENDBRANCH   5  27
TORSDOF 7
