REMARK  6 active torsions:
REMARK  status: ('A' for Active; 'I' for Inactive)
REMARK    1  A    between atoms: N4_10  and  C3_11 
REMARK    2  A    between atoms: C3_11  and  C4_12 
REMARK    3  A    between atoms: C4_12  and  N5_13 
REMARK    4  A    between atoms: N5_13  and  O1_14 
REMARK    5  A    between atoms: N5_13  and  C5_16 
REMARK    6  A    between atoms: C5_16  and  C6_17 
ROOT
HETATM    1  C4  UNL     1       0.683  -0.362   0.666  1.00  0.00     0.141 C 
ENDROOT
BRANCH   1   2
HETATM    2  C3  UNL     1       1.395  -0.716  -0.607  1.00  0.00     0.165 C 
BRANCH   2   3
HETATM    3  N4  UNL     1       2.809  -0.513  -0.355  1.00  0.00    -0.176 N 
HETATM    4  C1  UNL     1       3.482   0.624  -0.564  1.00  0.00     0.693 A 
HETATM    5  N1  UNL     1       3.012   1.757  -1.030  1.00  0.00    -0.233 N 
HETATM    6  N2  UNL     1       4.742   0.399  -0.211  1.00  0.00    -0.131 N 
ATOM      7  H12 UNL     1       3.525   2.624  -1.189  1.00  0.00     0.174 HD
ATOM      8  H11 UNL     1       2.044   1.930  -1.301  1.00  0.00     0.174 HD
HETATM    9  N3  UNL     1       4.840  -0.866   0.211  1.00  0.00    -0.281 N 
ATOM     10  H2  UNL     1       5.504   1.075  -0.254  1.00  0.00     0.205 HD
HETATM   11  C2  UNL     1       3.622  -1.464   0.127  1.00  0.00     0.218 A 
ATOM     12  H3  UNL     1       5.695  -1.312   0.544  1.00  0.00     0.188 HD
ENDBRANCH   2   3
ENDBRANCH   1   2
BRANCH   1  13
HETATM   13  N5  UNL     1      -0.742  -0.491   0.617  1.00  0.00    -0.193 NA
BRANCH  13  14
HETATM   14  O1  UNL     1      -1.222  -0.514   1.859  1.00  0.00    -0.313 OA
ATOM     15  H1  UNL     1      -2.168  -0.600   1.826  1.00  0.00     0.237 HD
ENDBRANCH  13  14
BRANCH  13  16
HETATM   16  C5  UNL     1      -1.337   0.491  -0.250  1.00  0.00     0.178 C 
BRANCH  16  17
HETATM   17  C6  UNL     1      -2.801   0.416  -0.329  1.00  0.00     0.041 A 
HETATM   18  C7  UNL     1      -3.677  -0.455   0.277  1.00  0.00     0.115 A 
HETATM   19  N6  UNL     1      -4.914  -0.099  -0.119  1.00  0.00    -0.360 N 
HETATM   20  C8  UNL     1      -4.831   0.961  -0.949  1.00  0.00     0.180 A 
ATOM     21  H6  UNL     1      -5.779  -0.559   0.165  1.00  0.00     0.166 HD
HETATM   22  N7  UNL     1      -3.541   1.261  -1.066  1.00  0.00    -0.354 N 
ATOM     23  H7  UNL     1      -3.167   2.022  -1.633  1.00  0.00     0.166 HD
ENDBRANCH  16  17
ENDBRANCH  13  16
ENDBRANCH   1  13
TORSDOF 6
