REMARK  6 active torsions:
REMARK  status: ('A' for Active; 'I' for Inactive)
REMARK    1  A    between atoms: N1_1  and  C1_4 
REMARK    2  A    between atoms: N6_16  and  C5_17 
REMARK    3  A    between atoms: C5_17  and  C6_18 
REMARK    4  A    between atoms: C6_18  and  C7_19 
REMARK    5  A    between atoms: C7_19  and  C8_20 
REMARK    6  A    between atoms: C8_20  and  N7_21 
ROOT
HETATM    1  C1  UNL     1      -3.781  -0.708  -0.768  1.00  0.00     0.132 A 
HETATM    2  N2  UNL     1      -4.366   0.491  -0.634  1.00  0.00    -0.337 N 
ATOM      3  H2  UNL     1      -5.358   0.586  -0.853  1.00  0.00     0.168 HD
HETATM    4  C2  UNL     1      -3.690   1.558  -0.224  1.00  0.00     0.183 A 
HETATM    5  N3  UNL     1      -2.381   1.516   0.084  1.00  0.00    -0.335 N 
ATOM      6  H3  UNL     1      -1.880   2.348   0.397  1.00  0.00     0.168 HD
HETATM    7  C3  UNL     1      -1.759   0.321  -0.040  1.00  0.00     0.156 A 
HETATM    8  C4  UNL     1      -2.431  -0.798  -0.461  1.00  0.00     0.139 A 
HETATM    9  N4  UNL     1      -1.507  -1.867  -0.483  1.00  0.00    -0.279 N 
ATOM     10  H4  UNL     1      -1.722  -2.826  -0.756  1.00  0.00     0.189 HD
HETATM   11  N5  UNL     1      -0.369  -1.448  -0.110  1.00  0.00    -0.238 N 
ATOM     12  H5  UNL     1       0.463  -2.035  -0.043  1.00  0.00     0.208 HD
HETATM   13  N6  UNL     1      -0.393  -0.106   0.193  1.00  0.00    -0.260 N 
ENDROOT
BRANCH  13  14
HETATM   14  C5  UNL     1       0.597   0.812   0.666  1.00  0.00     0.152 C 
BRANCH  14  15
HETATM   15  C6  UNL     1       1.952   0.177   0.724  1.00  0.00     0.024 C 
BRANCH  15  16
HETATM   16  C7  UNL     1       2.419  -0.237  -0.626  1.00  0.00     0.029 C 
BRANCH  16  17
HETATM   17  C8  UNL     1       3.808  -0.869  -0.436  1.00  0.00     0.229 C 
BRANCH  17  18
HETATM   18  N7  UNL     1       4.646   0.158   0.144  1.00  0.00    -0.079 N 
ATOM     19  H73 UNL     1       4.665   1.021  -0.400  1.00  0.00     0.274 HD
ATOM     20  H72 UNL     1       4.262   0.558   1.000  1.00  0.00     0.274 HD
ATOM     21  H71 UNL     1       5.567  -0.261   0.270  1.00  0.00     0.274 HD
ENDBRANCH  17  18
ENDBRANCH  16  17
ENDBRANCH  15  16
ENDBRANCH  14  15
ENDBRANCH  13  14
BRANCH   1  22
HETATM   22  N1  UNL     1      -4.413  -1.748  -1.161  1.00  0.00    -0.383 N 
ATOM     23  H12 UNL     1      -5.406  -1.682  -1.387  1.00  0.00     0.157 HD
ATOM     24  H11 UNL     1      -3.968  -2.660  -1.263  1.00  0.00     0.157 HD
ENDBRANCH   1  22
TORSDOF 6
