REMARK  7 active torsions:
REMARK  status: ('A' for Active; 'I' for Inactive)
REMARK    1  A    between atoms: C2_2  and  C3_3 
REMARK    2  A    between atoms: C3_3  and  C4_4 
REMARK    3  A    between atoms: C4_4  and  C5_5 
REMARK    4  A    between atoms: C5_5  and  O1_6 
REMARK    5  A    between atoms: C6_8  and  O2_9 
REMARK    6  A    between atoms: C15_19  and  C16_20 
REMARK    7  A    between atoms: C16_20  and  C17_21 
ROOT
HETATM    1  C5  UNL     1      -1.679  -0.120   0.189  1.00  0.00     0.091 C 
HETATM    2  C6  UNL     1      -3.137  -0.257   0.007  1.00  0.00     0.153 C 
HETATM    3  C7  UNL     1      -3.681  -1.624  -0.164  1.00  0.00     0.039 C 
HETATM    4  C8  UNL     1      -2.755  -2.718   0.242  1.00  0.00    -0.011 C 
HETATM    5  C9  UNL     1      -2.842  -2.909   1.713  1.00  0.00     0.010 C 
HETATM    6  C10 UNL     1      -1.455  -2.558  -0.399  1.00  0.00     0.001 C 
HETATM    7  C11 UNL     1      -0.377  -3.510   0.154  1.00  0.00     0.011 C 
HETATM    8  C12 UNL     1       0.762  -2.818  -0.450  1.00  0.00    -0.009 C 
HETATM    9  C13 UNL     1       2.127  -3.038   0.084  1.00  0.00     0.005 C 
HETATM   10  C14 UNL     1       2.721  -1.785  -0.589  1.00  0.00     0.005 C 
HETATM   11  C15 UNL     1       1.699  -0.708  -0.182  1.00  0.00    -0.006 C 
HETATM   12  C22 UNL     1       0.474  -1.421   0.155  1.00  0.00     0.005 C 
HETATM   13  C23 UNL     1      -0.840  -1.185  -0.486  1.00  0.00    -0.002 C 
HETATM   14  C24 UNL     1      -0.726  -0.741  -1.932  1.00  0.00     0.019 C 
ENDROOT
BRANCH  11  15
HETATM   15  C16 UNL     1       2.241   0.117   0.958  1.00  0.00     0.041 C 
BRANCH  15  16
HETATM   16  C17 UNL     1       3.481   0.862   0.787  1.00  0.00     0.154 C 
HETATM   17  C18 UNL     1       3.342   1.864  -0.321  1.00  0.00     0.002 C 
HETATM   18  C19 UNL     1       4.034   2.973  -0.356  1.00  0.00    -0.018 C 
HETATM   19  C20 UNL     1       4.990   3.262   0.727  1.00  0.00     0.138 C 
HETATM   20  C21 UNL     1       4.684   2.574   1.996  1.00  0.00     0.262 C 
HETATM   21  O3  UNL     1       5.348   2.904   3.010  1.00  0.00    -0.265 OA
HETATM   22  O4  UNL     1       3.691   1.619   1.979  1.00  0.00    -0.312 OA
ENDBRANCH  15  16
ENDBRANCH  11  15
BRANCH   1  23
HETATM   23  C4  UNL     1      -1.322   1.260  -0.321  1.00  0.00     0.041 C 
BRANCH  23  24
HETATM   24  C3  UNL     1      -2.040   2.366   0.378  1.00  0.00     0.003 C 
BRANCH  24  25
HETATM   25  C2  UNL     1      -1.623   3.705  -0.199  1.00  0.00    -0.004 C 
HETATM   26  C1  UNL     1      -1.935   3.806  -1.666  1.00  0.00     0.005 C 
ENDBRANCH  24  25
ENDBRANCH  23  24
ENDBRANCH   1  23
BRANCH   1  27
HETATM   27  O1  UNL     1      -1.379  -0.192   1.557  1.00  0.00    -0.386 OA
ATOM     28  H1  UNL     1      -1.603  -1.058   1.877  1.00  0.00     0.210 HD
ENDBRANCH   1  27
BRANCH   2  29
HETATM   29  O2  UNL     1      -3.649   0.465  -1.106  1.00  0.00    -0.393 OA
ATOM     30  H2  UNL     1      -4.588   0.377  -1.223  1.00  0.00     0.210 HD
ENDBRANCH   2  29
TORSDOF 7
