REMARK  6 active torsions:
REMARK  status: ('A' for Active; 'I' for Inactive)
REMARK    1  A    between atoms: C1_2  and  C2_3 
REMARK       I    between atoms: C1_2  and  N1_16 
REMARK    2  A    between atoms: C2_3  and  C3_4 
REMARK    3  A    between atoms: C3_4  and  C4_5 
REMARK    4  A    between atoms: C7_8  and  C8_9 
REMARK    5  A    between atoms: C8_9  and  C9_11 
REMARK    6  A    between atoms: N1_16  and  C12_18 
ROOT
HETATM    1  C3  UNL     1       1.306   0.854   0.011  1.00  0.00     0.014 C 
ENDROOT
BRANCH   1   2
HETATM    2  C2  UNL     1       0.223   0.765  -1.016  1.00  0.00     0.103 C 
BRANCH   2   3
HETATM    3  C1  UNL     1      -1.096   0.752  -0.306  1.00  0.00     0.217 C 
HETATM    4  O1  UNL     1      -1.105   0.812   0.943  1.00  0.00    -0.274 OA
HETATM    5  N1  UNL     1      -2.274   0.673  -1.081  1.00  0.00    -0.356 N 
ATOM      6  H1  UNL     1      -2.216   0.627  -2.098  1.00  0.00     0.162 HD
BRANCH   5   7
HETATM    7  C12 UNL     1      -3.558   0.658  -0.427  1.00  0.00     0.084 C 
HETATM    8  C13 UNL     1      -4.343   1.845  -0.932  1.00  0.00     0.025 C 
HETATM    9  C14 UNL     1      -5.801   1.772  -0.568  1.00  0.00     0.002 C 
HETATM   10  C15 UNL     1      -6.413   0.438  -0.931  1.00  0.00     0.000 C 
HETATM   11  C16 UNL     1      -5.648  -0.617  -0.141  1.00  0.00     0.002 C 
HETATM   12  C17 UNL     1      -4.250  -0.657  -0.716  1.00  0.00     0.025 C 
ENDBRANCH   5   7
ENDBRANCH   2   3
ENDBRANCH   1   2
BRANCH   1  13
HETATM   13  C4  UNL     1       2.686   0.887  -0.556  1.00  0.00    -0.014 C 
HETATM   14  C5  UNL     1       3.098  -0.292  -1.365  1.00  0.00     0.005 C 
HETATM   15  C6  UNL     1       3.753  -1.405  -0.643  1.00  0.00     0.013 C 
HETATM   16  C7  UNL     1       3.505  -1.465   0.830  1.00  0.00     0.067 C 
HETATM   17  C10 UNL     1       3.494  -0.123   1.502  1.00  0.00     0.013 C 
HETATM   18  C11 UNL     1       3.691   1.021   0.576  1.00  0.00     0.005 C 
BRANCH  16  19
HETATM   19  C8  UNL     1       4.457  -2.357   1.519  1.00  0.00     0.229 C 
HETATM   20  O2  UNL     1       4.000  -3.373   2.109  1.00  0.00    -0.285 OA
BRANCH  19  21
HETATM   21  C9  UNL     1       5.894  -2.171   1.582  1.00  0.00     0.247 C 
HETATM   22  O3  UNL     1       6.393  -1.166   1.024  1.00  0.00    -0.642 OA
HETATM   23  O4  UNL     1       6.737  -3.061   2.234  1.00  0.00    -0.642 OA
ENDBRANCH  19  21
ENDBRANCH  16  19
ENDBRANCH   1  13
TORSDOF 6
