REMARK  4 active torsions:
REMARK  status: ('A' for Active; 'I' for Inactive)
REMARK       I    between atoms: N1_2  and  C2_4 
REMARK    1  A    between atoms: C2_4  and  C3_6 
REMARK    2  A    between atoms: C4_7  and  C5_8 
REMARK    3  A    between atoms: C5_8  and  O2_9 
REMARK    4  A    between atoms: N2_11  and  O3_13 
ROOT
HETATM    1  C3  UNL     1      -1.605   0.385   0.323  1.00  0.00     0.098 C 
HETATM    2  C4  UNL     1      -1.838   1.677  -0.325  1.00  0.00     0.076 C 
HETATM    3  C6  UNL     1      -0.454   1.521  -0.999  1.00  0.00     0.024 C 
HETATM    4  C7  UNL     1      -0.098   0.439   0.020  1.00  0.00    -0.023 C 
HETATM    5  C8  UNL     1       0.446  -0.745  -0.688  1.00  0.00     0.011 C 
HETATM    6  C9  UNL     1       1.583  -0.347  -1.616  1.00  0.00     0.005 C 
HETATM    7  C10 UNL     1       2.889  -0.192  -0.908  1.00  0.00    -0.018 C 
HETATM    8  C11 UNL     1       3.818  -1.282  -1.406  1.00  0.00     0.010 C 
HETATM    9  C12 UNL     1       2.793  -0.258   0.584  1.00  0.00     0.009 C 
HETATM   10  C13 UNL     1       2.098   0.881   1.210  1.00  0.00    -0.009 C 
HETATM   11  C14 UNL     1       2.005   0.657   2.730  1.00  0.00     0.005 C 
HETATM   12  C15 UNL     1       0.596   0.154   2.470  1.00  0.00     0.006 C 
HETATM   13  C16 UNL     1       0.640   0.941   1.177  1.00  0.00    -0.001 C 
ENDROOT
BRANCH   1  14
HETATM   14  C2  UNL     1      -2.288  -0.832  -0.078  1.00  0.00     0.223 C 
HETATM   15  N1  UNL     1      -1.936  -2.060   0.541  1.00  0.00    -0.365 N 
HETATM   16  C1  UNL     1      -2.601  -3.320   0.169  1.00  0.00     0.149 C 
ATOM     17  H1  UNL     1      -1.209  -2.070   1.257  1.00  0.00     0.161 HD
HETATM   18  O1  UNL     1      -3.174  -0.838  -0.947  1.00  0.00    -0.273 OA
ENDBRANCH   1  14
BRANCH   2  19
HETATM   19  C5  UNL     1      -2.891   1.896  -1.302  1.00  0.00     0.140 C 
HETATM   20  N2  UNL     1      -3.940   2.571  -0.997  1.00  0.00    -0.251 N 
ATOM     21  H2  UNL     1      -4.653   2.698  -1.715  1.00  0.00     0.196 HD
BRANCH  19  22
HETATM   22  O2  UNL     1      -2.792   1.385  -2.579  1.00  0.00    -0.348 OA
ATOM     23  H2  UNL     1      -3.480   1.528  -3.218  1.00  0.00     0.219 HD
ENDBRANCH  19  22
BRANCH  20  24
HETATM   24  O3  UNL     1      -4.159   3.128   0.227  1.00  0.00    -0.288 OA
ATOM     25  H3  UNL     1      -4.935   3.627   0.453  1.00  0.00     0.244 HD
ENDBRANCH  20  24
ENDBRANCH   2  19
TORSDOF 4
