REMARK  4 active torsions:
REMARK  status: ('A' for Active; 'I' for Inactive)
REMARK    1  A    between atoms: C2_2  and  C3_3 
REMARK    2  A    between atoms: C3_3  and  N1_4 
REMARK    3  A    between atoms: N1_4  and  C4_6 
REMARK    4  A    between atoms: C5_7  and  C6_8 
ROOT
HETATM    1  C4  UNL     1      -0.445  -0.417  -0.227  1.00  0.00     0.132 A 
HETATM    2  C5  UNL     1      -1.503   0.153   0.429  1.00  0.00     0.145 A 
HETATM    3  N3  UNL     1      -2.631  -0.568   0.142  1.00  0.00    -0.291 N 
ATOM      4  H3  UNL     1      -3.573  -0.382   0.487  1.00  0.00     0.187 HD
HETATM    5  N4  UNL     1      -2.272  -1.547  -0.664  1.00  0.00    -0.264 N 
ATOM      6  H4  UNL     1      -2.908  -2.248  -1.044  1.00  0.00     0.190 HD
HETATM    7  C7  UNL     1      -0.953  -1.494  -0.916  1.00  0.00     0.288 A 
HETATM    8  O2  UNL     1      -0.328  -2.300  -1.652  1.00  0.00    -0.264 OA
ENDROOT
BRANCH   1   9
HETATM    9  N1  UNL     1       0.916   0.038  -0.185  1.00  0.00    -0.380 N 
ATOM     10  H1  UNL     1       1.190   0.847   0.373  1.00  0.00     0.160 HD
BRANCH   9  11
HETATM   11  C3  UNL     1       1.879  -0.699  -0.966  1.00  0.00     0.146 C 
BRANCH  11  12
HETATM   12  C2  UNL     1       3.252  -0.227  -0.874  1.00  0.00    -0.018 C 
HETATM   13  C1  UNL     1       3.653   0.771  -0.166  1.00  0.00     0.008 C 
ENDBRANCH  11  12
ENDBRANCH   9  11
ENDBRANCH   1   9
BRANCH   2  14
HETATM   14  C6  UNL     1      -1.537   1.327   1.309  1.00  0.00     0.285 C 
HETATM   15  N2  UNL     1      -2.773   1.746   1.893  1.00  0.00    -0.056 NA
HETATM   16  O1  UNL     1      -0.524   1.998   1.584  1.00  0.00    -0.269 OA
ENDBRANCH   2  14
TORSDOF 4
