REMARK  3 active torsions:
REMARK  status: ('A' for Active; 'I' for Inactive)
REMARK    1  A    between atoms: C2_2  and  C4_12 
REMARK    2  A    between atoms: N1_3  and  N2_5 
REMARK       I    between atoms: N2_5  and  C3_7 
REMARK    3  A    between atoms: C8_16  and  C9_17 
ROOT
HETATM    1  C1  UNL     1       1.375   0.157  -2.498  1.00  0.00     0.070 C 
HETATM    2  C2  UNL     1       0.875  -0.175  -1.127  1.00  0.00     0.032 C 
HETATM    3  N1  UNL     1       1.631  -0.576  -0.189  1.00  0.00    -0.302 N 
ATOM      4  H1  UNL     1       1.197  -0.778   0.712  1.00  0.00     0.186 HD
ENDROOT
BRANCH   2   5
HETATM    5  C4  UNL     1      -0.555  -0.042  -0.818  1.00  0.00    -0.012 A 
HETATM    6  C5  UNL     1      -1.463   0.388  -1.774  1.00  0.00     0.013 A 
HETATM    7  C6  UNL     1      -2.803   0.514  -1.488  1.00  0.00     0.002 A 
HETATM    8  C7  UNL     1      -3.285   0.213  -0.233  1.00  0.00     0.017 A 
HETATM    9  C8  UNL     1      -2.417  -0.218   0.745  1.00  0.00     0.030 A 
HETATM   10  C10 UNL     1      -1.068  -0.335   0.426  1.00  0.00     0.030 A 
BRANCH   9  11
HETATM   11  C9  UNL     1      -2.934  -0.530   2.057  1.00  0.00     0.265 C 
HETATM   12  N5  UNL     1      -4.308  -0.399   2.343  1.00  0.00    -0.057 NA
HETATM   13  O1  UNL     1      -2.160  -0.921   2.954  1.00  0.00    -0.271 OA
ENDBRANCH   9  11
ENDBRANCH   2   5
BRANCH   3  14
HETATM   14  N2  UNL     1       3.008  -0.762  -0.295  1.00  0.00    -0.274 N 
HETATM   15  C3  UNL     1       3.833  -0.002   0.583  1.00  0.00     0.200 C 
HETATM   16  N3  UNL     1       4.646   0.840   0.023  1.00  0.00    -0.372 N 
HETATM   17  N4  UNL     1       3.777  -0.149   1.993  1.00  0.00    -0.062 NA
ATOM     18  H32 UNL     1       4.686   0.946  -0.991  1.00  0.00     0.158 HD
ATOM     19  H31 UNL     1       5.237   1.384   0.652  1.00  0.00     0.158 HD
ATOM     20  H2  UNL     1       3.407  -1.413  -0.971  1.00  0.00     0.189 HD
ENDBRANCH   3  14
TORSDOF 3
