REMARK  12 active torsions:
REMARK  status: ('A' for Active; 'I' for Inactive)
REMARK    1  A    between atoms: N1_1  and  C1_4 
REMARK    2  A    between atoms: C9_16  and  C10_17 
REMARK    3  A    between atoms: C10_17  and  C11_18 
REMARK    4  A    between atoms: C11_18  and  C12_19 
REMARK    5  A    between atoms: C12_19  and  C13_20 
REMARK    6  A    between atoms: C13_20  and  C14_21 
REMARK    7  A    between atoms: C14_21  and  C15_22 
REMARK    8  A    between atoms: C15_22  and  C16_23 
REMARK    9  A    between atoms: C16_23  and  C17_24 
REMARK   10  A    between atoms: C17_24  and  C18_25 
REMARK   11  A    between atoms: C18_25  and  C19_26 
REMARK   12  A    between atoms: C19_26  and  C20_27 
ROOT
HETATM    1  C1  UNL     1       7.002   0.694   0.820  1.00  0.00     0.069 A 
HETATM    2  C2  UNL     1       7.800   0.179  -0.160  1.00  0.00     0.037 A 
HETATM    3  C3  UNL     1       9.186   0.339  -0.161  1.00  0.00     0.019 A 
HETATM    4  C4  UNL     1       9.969  -0.193  -1.166  1.00  0.00     0.018 A 
HETATM    5  C5  UNL     1       9.371  -0.898  -2.190  1.00  0.00     0.090 A 
HETATM    6  N2  UNL     1       8.019  -1.053  -2.185  1.00  0.00    -0.352 N 
ATOM      7  H2  UNL     1       7.573  -1.574  -2.940  1.00  0.00     0.166 HD
HETATM    8  C6  UNL     1       7.260  -0.534  -1.207  1.00  0.00     0.118 A 
HETATM    9  N3  UNL     1       5.923  -0.702  -1.226  1.00  0.00    -0.340 N 
ATOM     10  H3  UNL     1       5.508  -1.228  -1.995  1.00  0.00     0.167 HD
HETATM   11  C7  UNL     1       5.110  -0.205  -0.272  1.00  0.00     0.063 A 
HETATM   12  C8  UNL     1       3.742  -0.381  -0.299  1.00  0.00     0.040 A 
HETATM   13  C9  UNL     1       2.945   0.142   0.693  1.00  0.00    -0.040 A 
HETATM   14  C23 UNL     1       3.489   0.846   1.725  1.00  0.00     0.095 A 
HETATM   15  N6  UNL     1       4.836   1.024   1.759  1.00  0.00    -0.362 N 
ATOM     16  H6  UNL     1       5.255   1.549   2.527  1.00  0.00     0.165 HD
HETATM   17  C24 UNL     1       5.632   0.513   0.786  1.00  0.00     0.086 A 
ENDROOT
BRANCH  13  18
HETATM   18  C10 UNL     1       1.460  -0.108   0.568  1.00  0.00     0.043 C 
BRANCH  18  19
HETATM   19  C11 UNL     1       0.802   0.966  -0.210  1.00  0.00     0.031 C 
BRANCH  19  20
HETATM   20  C12 UNL     1      -0.626   0.872  -0.473  1.00  0.00    -0.030 C 
BRANCH  20  21
HETATM   21  C13 UNL     1      -1.667   0.862   0.537  1.00  0.00    -0.031 C 
BRANCH  21  22
HETATM   22  C14 UNL     1      -1.775  -0.189   1.564  1.00  0.00     0.027 C 
BRANCH  22  23
HETATM   23  C15 UNL     1      -2.994   0.025   2.471  1.00  0.00     0.004 C 
BRANCH  23  24
HETATM   24  C16 UNL     1      -4.280   0.020   1.727  1.00  0.00     0.000 C 
BRANCH  24  25
HETATM   25  C17 UNL     1      -4.589  -1.238   0.986  1.00  0.00     0.000 C 
BRANCH  25  26
HETATM   26  C18 UNL     1      -5.901  -1.128   0.281  1.00  0.00     0.006 C 
BRANCH  26  27
HETATM   27  C19 UNL     1      -5.961  -0.021  -0.721  1.00  0.00     0.058 C 
BRANCH  27  28
HETATM   28  C20 UNL     1      -7.316  -0.021  -1.350  1.00  0.00     0.025 A 
HETATM   29  C21 UNL     1      -8.385  -0.836  -1.129  1.00  0.00     0.113 A 
HETATM   30  N4  UNL     1      -9.382  -0.447  -1.934  1.00  0.00    -0.360 N 
HETATM   31  C22 UNL     1      -8.968   0.609  -2.672  1.00  0.00     0.180 A 
ATOM     32  H4  UNL     1     -10.305  -0.878  -1.983  1.00  0.00     0.166 HD
HETATM   33  N5  UNL     1      -7.687   0.860  -2.298  1.00  0.00    -0.355 N 
ATOM     34  H5  UNL     1      -7.097   1.601  -2.677  1.00  0.00     0.166 HD
ENDBRANCH  27  28
ENDBRANCH  26  27
ENDBRANCH  25  26
ENDBRANCH  24  25
ENDBRANCH  23  24
ENDBRANCH  22  23
ENDBRANCH  21  22
ENDBRANCH  20  21
ENDBRANCH  19  20
ENDBRANCH  18  19
ENDBRANCH  13  18
BRANCH   1  35
HETATM   35  N1  UNL     1       7.551   1.350   1.774  1.00  0.00    -0.396 N 
ATOM     36  H12 UNL     1       8.562   1.484   1.799  1.00  0.00     0.156 HD
ATOM     37  H11 UNL     1       6.955   1.735   2.506  1.00  0.00     0.156 HD
ENDBRANCH   1  35
TORSDOF 12
