REMARK  12 active torsions:
REMARK  status: ('A' for Active; 'I' for Inactive)
REMARK       I    between atoms: C3_3  and  N1_5 
REMARK    1  A    between atoms: N1_5  and  C4_7 
REMARK    2  A    between atoms: C8_14  and  C9_15 
REMARK    3  A    between atoms: C11_17  and  N4_18 
REMARK    4  A    between atoms: N4_18  and  C12_20 
REMARK    5  A    between atoms: C12_20  and  C13_21 
REMARK    6  A    between atoms: C13_21  and  N5_22 
REMARK    7  A    between atoms: N5_22  and  C14_23 
REMARK    8  A    between atoms: N5_22  and  C18_28 
REMARK    9  A    between atoms: C14_23  and  C15_24 
REMARK   10  A    between atoms: C15_24  and  N6_25 
REMARK   11  A    between atoms: C22_33  and  N7_34 
REMARK       I    between atoms: N7_34  and  C23_36 
REMARK   12  A    between atoms: C23_36  and  C24_38 
ROOT
HETATM    1  C1  UNL     1      10.269  -2.937  -1.917  1.00  0.00     0.022 C 
HETATM    2  C2  UNL     1       9.831  -1.968  -1.363  1.00  0.00    -0.016 C 
HETATM    3  C3  UNL     1       9.272  -0.772  -0.687  1.00  0.00     0.300 C 
HETATM    4  O1  UNL     1      10.119  -0.068  -0.105  1.00  0.00    -0.258 OA
HETATM    5  N1  UNL     1       7.912  -0.525  -0.742  1.00  0.00    -0.316 N 
ATOM      6  H1  UNL     1       7.364  -1.212  -1.260  1.00  0.00     0.170 HD
ENDROOT
BRANCH   5   7
HETATM    7  C4  UNL     1       7.179   0.532  -0.190  1.00  0.00     0.040 A 
HETATM    8  C5  UNL     1       7.782   1.634   0.363  1.00  0.00     0.070 A 
HETATM    9  C6  UNL     1       6.944   2.614   0.897  1.00  0.00     0.116 A 
HETATM   10  C7  UNL     1       7.607   3.757   1.478  1.00  0.00     0.117 C 
HETATM   11  N3  UNL     1       5.602   2.511   0.884  1.00  0.00    -0.346 N 
HETATM   12  N2  UNL     1       8.126   4.699   1.950  1.00  0.00    -0.190 NA
HETATM   13  C8  UNL     1       4.972   1.446   0.351  1.00  0.00     0.062 A 
ATOM     14  H3  UNL     1       5.045   3.263   1.290  1.00  0.00     0.167 HD
HETATM   15  C28 UNL     1       5.768   0.472  -0.178  1.00  0.00     0.061 A 
BRANCH  13  16
HETATM   16  C9  UNL     1       3.518   1.349   0.340  1.00  0.00     0.064 A 
HETATM   17  C10 UNL     1       2.811   0.311  -0.187  1.00  0.00     0.080 A 
HETATM   18  C11 UNL     1       1.410   0.263  -0.185  1.00  0.00     0.104 A 
HETATM   19  N8  UNL     1       0.778   1.305   0.369  1.00  0.00    -0.333 N 
HETATM   20  C26 UNL     1       1.455   2.358   0.905  1.00  0.00     0.079 A 
ATOM     21  H8  UNL     1      -0.242   1.310   0.390  1.00  0.00     0.168 HD
HETATM   22  C27 UNL     1       0.639   3.469   1.499  1.00  0.00     0.089 C 
HETATM   23  N9  UNL     1       2.788   2.368   0.886  1.00  0.00    -0.344 N 
ATOM     24  H9  UNL     1       3.280   3.163   1.293  1.00  0.00     0.167 HD
BRANCH  18  25
HETATM   25  N4  UNL     1       0.806  -0.759  -0.699  1.00  0.00    -0.375 N 
ATOM     26  H4  UNL     1       1.394  -1.497  -1.087  1.00  0.00     0.161 HD
BRANCH  25  27
HETATM   27  C12 UNL     1      -0.614  -0.950  -0.774  1.00  0.00     0.141 C 
BRANCH  27  28
HETATM   28  C13 UNL     1      -1.219  -1.473   0.492  1.00  0.00     0.142 C 
BRANCH  28  29
HETATM   29  N5  UNL     1      -2.625  -1.680   0.503  1.00  0.00    -0.378 N 
BRANCH  29  30
HETATM   30  C14 UNL     1      -3.401  -2.691  -0.138  1.00  0.00     0.153 C 
BRANCH  30  31
HETATM   31  C15 UNL     1      -3.525  -2.678  -1.610  1.00  0.00     0.291 C 
BRANCH  31  32
HETATM   32  N6  UNL     1      -4.413  -3.775  -2.076  1.00  0.00     0.081 N 
HETATM   33  C16 UNL     1      -4.566  -3.600  -3.537  1.00  0.00     0.309 C 
HETATM   34  C17 UNL     1      -3.715  -5.037  -1.888  1.00  0.00     0.309 C 
ENDBRANCH  31  32
ENDBRANCH  30  31
ENDBRANCH  29  30
BRANCH  29  35
HETATM   35  C18 UNL     1      -3.417  -0.716   1.279  1.00  0.00     0.034 A 
HETATM   36  C19 UNL     1      -3.917  -1.063   2.512  1.00  0.00     0.053 A 
HETATM   37  C20 UNL     1      -4.658  -0.117   3.200  1.00  0.00     0.038 A 
HETATM   38 CL1  UNL     1      -5.328  -0.487   4.782  1.00  0.00    -0.084 Cl
HETATM   39  C21 UNL     1      -4.879   1.145   2.638  1.00  0.00     0.053 A 
HETATM   40  C22 UNL     1      -4.379   1.485   1.411  1.00  0.00     0.038 A 
HETATM   41  C25 UNL     1      -3.637   0.516   0.742  1.00  0.00     0.059 A 
BRANCH  40  42
HETATM   42  N7  UNL     1      -4.562   2.709   0.747  1.00  0.00    -0.326 N 
HETATM   43  C23 UNL     1      -5.686   3.514   0.945  1.00  0.00     0.235 C 
HETATM   44  O2  UNL     1      -6.652   3.230   1.716  1.00  0.00    -0.272 OA
ATOM     45  H7  UNL     1      -3.845   3.023   0.093  1.00  0.00     0.169 HD
BRANCH  43  46
HETATM   46  C24 UNL     1      -5.798   4.812   0.212  1.00  0.00     0.217 C 
HETATM   47 CL2  UNL     1      -4.343   5.097  -0.732  1.00  0.00    -0.121 Cl
ENDBRANCH  43  46
ENDBRANCH  40  42
ENDBRANCH  29  35
ENDBRANCH  28  29
ENDBRANCH  27  28
ENDBRANCH  25  27
ENDBRANCH  18  25
ENDBRANCH  13  16
ENDBRANCH   5   7
TORSDOF 12
