REMARK  18 active torsions:
REMARK  status: ('A' for Active; 'I' for Inactive)
REMARK    1  A    between atoms: C2_2  and  O1_3 
REMARK    2  A    between atoms: C2_2  and  C3_5 
REMARK    3  A    between atoms: C2_2  and  C6_20 
REMARK    4  A    between atoms: C3_5  and  N1_6 
REMARK    5  A    between atoms: C3_5  and  C4_10 
REMARK    6  A    between atoms: C4_10  and  O2_11 
REMARK    7  A    between atoms: C4_10  and  C5_13 
REMARK       I    between atoms: C5_13  and  N2_15 
REMARK    8  A    between atoms: N2_15  and  N3_17 
REMARK    9  A    between atoms: C6_20  and  O4_21 
REMARK   10  A    between atoms: C6_20  and  C7_23 
REMARK   11  A    between atoms: C7_23  and  O5_24 
REMARK   12  A    between atoms: C7_23  and  C8_26 
REMARK   13  A    between atoms: C8_26  and  O6_27 
REMARK   14  A    between atoms: C8_26  and  C9_29 
REMARK   15  A    between atoms: C10_31  and  O8_32 
REMARK   16  A    between atoms: C11_34  and  O9_35 
REMARK   17  A    between atoms: C12_37  and  N4_38 
REMARK   18  A    between atoms: C15_43  and  N6_44 
ROOT
HETATM    1  C8  UNL     1      -0.137  -0.184   0.006  1.00  0.00     0.204 C 
ENDROOT
BRANCH   1   2
HETATM    2  C7  UNL     1       1.015  -0.995   0.485  1.00  0.00     0.183 C 
BRANCH   2   3
HETATM    3  C6  UNL     1       2.267  -0.150   0.363  1.00  0.00     0.185 C 
BRANCH   3   4
HETATM    4  C2  UNL     1       3.495  -0.995   0.571  1.00  0.00     0.113 C 
HETATM    5  C1  UNL     1       3.481  -2.102  -0.450  1.00  0.00     0.051 C 
BRANCH   4   6
HETATM    6  O1  UNL     1       3.492  -1.587   1.849  1.00  0.00    -0.385 OA
ATOM      7  H1  UNL     1       3.501  -0.889   2.493  1.00  0.00     0.210 HD
ENDBRANCH   4   6
BRANCH   4   8
HETATM    8  C3  UNL     1       4.770  -0.234   0.469  1.00  0.00     0.257 C 
BRANCH   8   9
HETATM    9  N1  UNL     1       4.921   0.804   1.462  1.00  0.00    -0.069 N 
ATOM     10  H13 UNL     1       4.123   1.439   1.438  1.00  0.00     0.275 HD
ATOM     11  H12 UNL     1       4.809   0.420   2.400  1.00  0.00     0.275 HD
ATOM     12  H11 UNL     1       5.795   1.326   1.392  1.00  0.00     0.275 HD
ENDBRANCH   8   9
BRANCH   8  13
HETATM   13  C4  UNL     1       5.124   0.252  -0.907  1.00  0.00     0.245 C 
BRANCH  13  14
HETATM   14  O2  UNL     1       4.361   1.313  -1.355  1.00  0.00    -0.384 OA
ATOM     15  H2  UNL     1       4.585   1.620  -2.226  1.00  0.00     0.210 HD
ENDBRANCH  13  14
BRANCH  13  16
HETATM   16  C5  UNL     1       6.555   0.614  -0.920  1.00  0.00     0.266 C 
HETATM   17  O3  UNL     1       7.413  -0.209  -0.550  1.00  0.00    -0.269 OA
HETATM   18  N2  UNL     1       6.955   1.894  -1.351  1.00  0.00    -0.274 N 
ATOM     19  H2  UNL     1       6.247   2.564  -1.653  1.00  0.00     0.189 HD
BRANCH  18  20
HETATM   20  N3  UNL     1       8.298   2.263  -1.373  1.00  0.00    -0.343 N 
ATOM     21  H32 UNL     1       8.993   1.581  -1.068  1.00  0.00     0.176 HD
ATOM     22  H31 UNL     1       8.588   3.190  -1.685  1.00  0.00     0.176 HD
ENDBRANCH  18  20
ENDBRANCH  13  16
ENDBRANCH   8  13
ENDBRANCH   4   8
ENDBRANCH   3   4
BRANCH   3  23
HETATM   23  O4  UNL     1       2.141   0.883   1.256  1.00  0.00    -0.390 OA
ATOM     24  H4  UNL     1       1.366   1.416   1.125  1.00  0.00     0.210 HD
ENDBRANCH   3  23
ENDBRANCH   2   3
BRANCH   2  25
HETATM   25  O5  UNL     1       0.847  -1.509   1.759  1.00  0.00    -0.390 OA
ATOM     26  H5  UNL     1       0.062  -2.039   1.835  1.00  0.00     0.210 HD
ENDBRANCH   2  25
ENDBRANCH   1   2
BRANCH   1  27
HETATM   27  O6  UNL     1       0.091   0.166  -1.324  1.00  0.00    -0.388 OA
ATOM     28  H6  UNL     1      -0.644   0.684  -1.630  1.00  0.00     0.210 HD
ENDBRANCH   1  27
BRANCH   1  29
HETATM   29  C9  UNL     1      -1.467  -0.887   0.118  1.00  0.00     0.297 C 
HETATM   30  O7  UNL     1      -1.703  -1.197   1.432  1.00  0.00    -0.326 OA
HETATM   31  C10 UNL     1      -2.850  -1.956   1.642  1.00  0.00     0.293 C 
HETATM   32  C11 UNL     1      -3.925  -1.339   0.728  1.00  0.00     0.222 C 
HETATM   33  C12 UNL     1      -3.457   0.080   0.479  1.00  0.00     0.267 C 
HETATM   34  O10 UNL     1      -2.417  -0.018  -0.444  1.00  0.00    -0.331 OA
BRANCH  31  35
HETATM   35  O8  UNL     1      -3.276  -1.715   2.945  1.00  0.00    -0.368 OA
ATOM     36  H8  UNL     1      -4.059  -2.233   3.088  1.00  0.00     0.212 HD
ENDBRANCH  31  35
BRANCH  32  37
HETATM   37  O9  UNL     1      -3.827  -2.106  -0.458  1.00  0.00    -0.386 OA
ATOM     38  H9  UNL     1      -4.490  -1.725  -1.022  1.00  0.00     0.210 HD
ENDBRANCH  32  37
BRANCH  33  39
HETATM   39  N4  UNL     1      -4.491   0.992   0.116  1.00  0.00    -0.297 N 
HETATM   40  C13 UNL     1      -4.616   2.263   0.604  1.00  0.00     0.188 A 
HETATM   41  N5  UNL     1      -5.674   2.853   0.075  1.00  0.00    -0.346 N 
HETATM   42  C14 UNL     1      -6.288   1.990  -0.785  1.00  0.00     0.122 A 
ATOM     43  H5  UNL     1      -5.983   3.804   0.278  1.00  0.00     0.167 HD
HETATM   44  C15 UNL     1      -7.406   2.093  -1.583  1.00  0.00     0.131 A 
HETATM   45  C17 UNL     1      -5.520   0.842  -0.731  1.00  0.00     0.142 A 
HETATM   46  N7  UNL     1      -7.740   1.027  -2.325  1.00  0.00    -0.337 N 
HETATM   47  C16 UNL     1      -6.976  -0.096  -2.262  1.00  0.00     0.183 A 
ATOM     48  H7  UNL     1      -8.560   1.058  -2.931  1.00  0.00     0.168 HD
HETATM   49  N8  UNL     1      -5.889  -0.196  -1.486  1.00  0.00    -0.336 N 
ATOM     50  H8  UNL     1      -5.346  -1.060  -1.472  1.00  0.00     0.168 HD
BRANCH  44  51
HETATM   51  N6  UNL     1      -8.092   3.174  -1.606  1.00  0.00    -0.383 N 
ATOM     52  H62 UNL     1      -7.838   3.985  -1.042  1.00  0.00     0.157 HD
ATOM     53  H61 UNL     1      -8.920   3.250  -2.197  1.00  0.00     0.157 HD
ENDBRANCH  44  51
ENDBRANCH  33  39
ENDBRANCH   1  29
TORSDOF 18
