REMARK  13 active torsions:
REMARK  status: ('A' for Active; 'I' for Inactive)
REMARK    1  A    between atoms: N3_9  and  C4_10 
REMARK    2  A    between atoms: C5_12  and  N4_13 
REMARK    3  A    between atoms: C6_16  and  N6_17 
REMARK    4  A    between atoms: C9_25  and  N8_26 
REMARK    5  A    between atoms: C11_32  and  O5_33 
REMARK    6  A    between atoms: O5_33  and  C12_34 
REMARK    7  A    between atoms: C12_34  and  C13_35 
REMARK    8  A    between atoms: C12_34  and  C14_38 
REMARK    9  A    between atoms: C13_35  and  O6_36 
REMARK   10  A    between atoms: C14_38  and  N10_39 
REMARK   11  A    between atoms: C14_38  and  C15_43 
REMARK   12  A    between atoms: C15_43  and  O7_44 
REMARK   13  A    between atoms: C16_46  and  O8_47 
ROOT
HETATM    1  C4  UNL     1       1.666   1.120  -0.751  1.00  0.00     0.271 C 
HETATM    2  O3  UNL     1       1.343  -0.159  -1.272  1.00  0.00    -0.334 OA
HETATM    3  C5  UNL     1       0.766  -0.707  -0.099  1.00  0.00     0.280 C 
HETATM    4  C11 UNL     1      -0.259   0.277   0.282  1.00  0.00     0.205 C 
HETATM    5  C16 UNL     1       0.290   1.574  -0.340  1.00  0.00     0.201 C 
ENDROOT
BRANCH   3   6
HETATM    6  N4  UNL     1       0.348  -2.050  -0.290  1.00  0.00    -0.241 N 
HETATM    7  N5  UNL     1      -0.402  -2.577  -1.234  1.00  0.00    -0.279 N 
HETATM    8  C6  UNL     1      -0.569  -3.888  -1.063  1.00  0.00     0.133 A 
ATOM      9  H5  UNL     1      -0.807  -2.046  -2.005  1.00  0.00     0.189 HD
HETATM   10  C7  UNL     1       0.123  -4.236   0.076  1.00  0.00     0.123 A 
HETATM   11  C8  UNL     1       0.312  -5.439   0.739  1.00  0.00     0.277 A 
HETATM   12  C10 UNL     1       0.684  -3.060   0.532  1.00  0.00     0.160 A 
HETATM   13  O4  UNL     1      -0.205  -6.500   0.313  1.00  0.00    -0.266 OA
HETATM   14  N7  UNL     1       1.059  -5.465   1.855  1.00  0.00    -0.155 N 
HETATM   15  C9  UNL     1       1.611  -4.324   2.308  1.00  0.00     0.680 A 
ATOM     16  H7  UNL     1       1.207  -6.342   2.355  1.00  0.00     0.187 HD
HETATM   17  N9  UNL     1       1.429  -3.155   1.667  1.00  0.00    -0.174 N 
ATOM     18  H9  UNL     1       1.863  -2.313   2.044  1.00  0.00     0.186 HD
BRANCH   8  19
HETATM   19  N6  UNL     1      -1.267  -4.679  -1.843  1.00  0.00    -0.384 N 
ATOM     20  H62 UNL     1      -1.779  -4.421  -2.686  1.00  0.00     0.157 HD
ATOM     21  H61 UNL     1      -1.395  -5.682  -1.712  1.00  0.00     0.157 HD
ENDBRANCH   8  19
BRANCH  15  22
HETATM   22  N8  UNL     1       2.334  -4.372   3.392  1.00  0.00    -0.234 N 
ATOM     23  H82 UNL     1       2.472  -5.258   3.878  1.00  0.00     0.174 HD
ATOM     24  H81 UNL     1       2.752  -3.507   3.735  1.00  0.00     0.174 HD
ENDBRANCH  15  22
ENDBRANCH   3   6
BRANCH   4  25
HETATM   25  O5  UNL     1      -1.517   0.111  -0.197  1.00  0.00    -0.369 OA
BRANCH  25  26
HETATM   26  C12 UNL     1      -2.404   0.214   0.924  1.00  0.00     0.178 C 
BRANCH  26  27
HETATM   27  C13 UNL     1      -3.140  -1.098   1.057  1.00  0.00     0.198 C 
BRANCH  27  28
HETATM   28  O6  UNL     1      -3.986  -1.111   2.121  1.00  0.00    -0.398 OA
ATOM     29  H6  UNL     1      -4.449  -1.936   2.205  1.00  0.00     0.209 HD
ENDBRANCH  27  28
ENDBRANCH  26  27
BRANCH  26  30
HETATM   30  C14 UNL     1      -3.368   1.335   0.688  1.00  0.00     0.237 C 
BRANCH  30  31
HETATM   31  N10 UNL     1      -4.207   1.183  -0.463  1.00  0.00    -0.070 N 
ATOM     32 3H10 UNL     1      -3.638   1.028  -1.295  1.00  0.00     0.274 HD
ATOM     33 2H10 UNL     1      -4.705   0.294  -0.420  1.00  0.00     0.274 HD
ATOM     34 1H10 UNL     1      -4.864   1.947  -0.624  1.00  0.00     0.274 HD
ENDBRANCH  30  31
BRANCH  30  35
HETATM   35  C15 UNL     1      -4.153   1.729   1.911  1.00  0.00     0.199 C 
BRANCH  35  36
HETATM   36  O7  UNL     1      -4.790   2.966   1.715  1.00  0.00    -0.399 OA
ATOM     37  H7  UNL     1      -5.285   3.215   2.487  1.00  0.00     0.209 HD
ENDBRANCH  35  36
ENDBRANCH  30  35
ENDBRANCH  26  30
ENDBRANCH  25  26
ENDBRANCH   4  25
BRANCH   1  38
HETATM   38  N3  UNL     1       2.338   1.944  -1.679  1.00  0.00    -0.220 N 
HETATM   39  C3  UNL     1       2.259   1.708  -2.995  1.00  0.00     0.336 A 
HETATM   40  N2  UNL     1       2.891   2.479  -3.907  1.00  0.00    -0.260 N 
HETATM   41  O2  UNL     1       1.578   0.740  -3.428  1.00  0.00    -0.246 OA
HETATM   42  C2  UNL     1       3.625   3.518  -3.472  1.00  0.00     0.334 A 
ATOM     43  H2  UNL     1       2.813   2.277  -4.904  1.00  0.00     0.175 HD
HETATM   44  N1  UNL     1       3.721   3.775  -2.175  1.00  0.00    -0.255 N 
HETATM   45  O1  UNL     1       4.231   4.259  -4.321  1.00  0.00    -0.246 OA
HETATM   46  C1  UNL     1       4.514   4.899  -1.688  1.00  0.00     0.166 C 
HETATM   47  C17 UNL     1       3.074   2.985  -1.271  1.00  0.00     0.338 A 
HETATM   48  O9  UNL     1       3.211   3.289  -0.050  1.00  0.00    -0.246 OA
ENDBRANCH   1  38
BRANCH   5  49
HETATM   49  O8  UNL     1       0.272   2.623   0.537  1.00  0.00    -0.388 OA
ATOM     50  H8  UNL     1      -0.596   2.909   0.796  1.00  0.00     0.210 HD
ENDBRANCH   5  49
TORSDOF 13
