REMARK  4 active torsions:
REMARK  status: ('A' for Active; 'I' for Inactive)
REMARK    1  A    between atoms: N1_1  and  N2_4 
REMARK    2  A    between atoms: N2_4  and  N3_5 
REMARK    3  A    between atoms: N2_4  and  N4_8 
REMARK    4  A    between atoms: N5_10  and  N6_12 
ROOT
HETATM    1  N4  UNL     1       0.956  -0.670   0.593  1.00  0.00    -0.192 N 
ATOM      2  H4  UNL     1       0.992  -1.348   1.355  1.00  0.00     0.213 HD
HETATM    3  N5  UNL     1      -0.130  -0.506  -0.063  1.00  0.00    -0.224 N 
ATOM      4  H5  UNL     1      -0.137   0.178  -0.819  1.00  0.00     0.210 HD
ENDROOT
BRANCH   1   5
HETATM    5  N2  UNL     1       2.093   0.076   0.270  1.00  0.00    -0.128 N 
BRANCH   5   6
HETATM    6  N1  UNL     1       3.310  -0.514  -0.093  1.00  0.00    -0.308 N 
ATOM      7  H12 UNL     1       4.140   0.030  -0.329  1.00  0.00     0.180 HD
ATOM      8  H11 UNL     1       3.347  -1.533  -0.116  1.00  0.00     0.180 HD
ENDBRANCH   5   6
BRANCH   5   9
HETATM    9  N3  UNL     1       2.042   1.475   0.301  1.00  0.00    -0.308 N 
ATOM     10  H32 UNL     1       2.872   2.019   0.065  1.00  0.00     0.180 HD
ATOM     11  H31 UNL     1       1.156   1.905   0.565  1.00  0.00     0.180 HD
ENDBRANCH   5   9
ENDBRANCH   1   5
BRANCH   3  12
HETATM   12  N6  UNL     1      -1.290  -1.201   0.194  1.00  0.00    -0.265 N 
HETATM   13  C1  UNL     1      -2.396  -0.558   0.302  1.00  0.00     0.193 A 
HETATM   14  N7  UNL     1      -3.743  -0.776   0.539  1.00  0.00    -0.301 N 
HETATM   15  C2  UNL     1      -3.279   0.498   0.332  1.00  0.00     0.292 A 
ATOM     16  H7  UNL     1      -4.515  -1.415   0.729  1.00  0.00     0.171 HD
HETATM   17  O1  UNL     1      -3.464   1.716   0.234  1.00  0.00    -0.264 OA
ATOM     18  H6  UNL     1      -1.271  -2.216   0.297  1.00  0.00     0.190 HD
ENDBRANCH   3  12
TORSDOF 4
