REMARK  2 active torsions:
REMARK  status: ('A' for Active; 'I' for Inactive)
REMARK       I    between atoms: C1_2  and  N2_4 
REMARK    1  A    between atoms: N2_4  and  N3_6 
REMARK       I    between atoms: N3_6  and  C2_8 
REMARK    2  A    between atoms: N5_10  and  O2_12 
ROOT
HETATM    1  N3  UNL     1       0.648  -0.413   0.586  1.00  0.00    -0.268 N 
ATOM      2  H3  UNL     1       0.716  -0.577   1.590  1.00  0.00     0.190 HD
HETATM    3  C2  UNL     1       1.820   0.010  -0.088  1.00  0.00     0.227 C 
HETATM    4  N4  UNL     1       1.898   1.382  -0.457  1.00  0.00    -0.060 NA
HETATM    5  N5  UNL     1       2.804  -0.771  -0.373  1.00  0.00    -0.240 N 
ATOM      6  H5  UNL     1       3.601  -0.364  -0.862  1.00  0.00     0.197 HD
ENDROOT
BRANCH   1   7
HETATM    7  N2  UNL     1      -0.586  -0.621  -0.016  1.00  0.00    -0.252 N 
HETATM    8  C1  UNL     1      -1.741   0.139   0.277  1.00  0.00     0.347 C 
HETATM    9  N1  UNL     1      -2.977  -0.104  -0.357  1.00  0.00    -0.038 NA
HETATM   10  O1  UNL     1      -1.741   1.085   1.130  1.00  0.00    -0.249 OA
ATOM     11  H2  UNL     1      -0.663  -1.365  -0.709  1.00  0.00     0.191 HD
ENDBRANCH   1   7
BRANCH   5  12
HETATM   12  O2  UNL     1       2.863  -2.090  -0.074  1.00  0.00    -0.287 OA
ATOM     13  H2  UNL     1       3.589  -2.666  -0.284  1.00  0.00     0.244 HD
ENDBRANCH   5  12
TORSDOF 2
