REMARK  5 active torsions:
REMARK  status: ('A' for Active; 'I' for Inactive)
REMARK    1  A    between atoms: N1_2  and  N2_4 
REMARK    2  A    between atoms: N2_4  and  C3_6 
REMARK    3  A    between atoms: C3_6  and  N3_8 
REMARK    4  A    between atoms: N3_8  and  C4_10 
REMARK       I    between atoms: N4_13  and  C7_14 
REMARK       I    between atoms: C7_14  and  N6_18 
REMARK    5  A    between atoms: N6_18  and  C8_20 
ROOT
HETATM    1  C4  UNL     1       1.991  -1.089   0.765  1.00  0.00     0.087 C 
HETATM    2  C5  UNL     1       1.519  -2.371   1.432  1.00  0.00     0.045 C 
HETATM    3  C6  UNL     1       0.065  -2.673   1.222  1.00  0.00     0.143 C 
HETATM    4  N4  UNL     1      -0.703  -1.505   1.549  1.00  0.00    -0.216 N 
HETATM    5  C7  UNL     1      -2.108  -1.476   1.362  1.00  0.00     0.700 C 
HETATM    6  N5  UNL     1      -2.839  -1.675   2.412  1.00  0.00    -0.054 N 
ATOM      7  H5  UNL     1      -2.375  -1.840   3.306  1.00  0.00     0.218 HD
HETATM    8  F1  UNL     1      -4.174  -1.674   2.375  1.00  0.00    -0.086 F 
HETATM    9  N6  UNL     1      -2.698  -1.245   0.105  1.00  0.00    -0.220 N 
ATOM     10  H6  UNL     1      -3.153  -2.024  -0.371  1.00  0.00     0.178 HD
HETATM   11  C13 UNL     1      -0.035  -0.358   2.073  1.00  0.00     0.143 C 
HETATM   12  C14 UNL     1       1.133   0.077   1.207  1.00  0.00     0.045 C 
ENDROOT
BRANCH   9  13
HETATM   13  C8  UNL     1      -2.687   0.037  -0.534  1.00  0.00     0.099 C 
HETATM   14  C9  UNL     1      -3.371   1.117   0.272  1.00  0.00     0.026 C 
HETATM   15  C10 UNL     1      -3.801   2.079  -0.843  1.00  0.00     0.002 C 
HETATM   16  C11 UNL     1      -4.465   1.093  -1.803  1.00  0.00     0.002 C 
HETATM   17  C12 UNL     1      -3.412  -0.009  -1.856  1.00  0.00     0.026 C 
ENDBRANCH   9  13
BRANCH   1  18
HETATM   18  N3  UNL     1       1.833  -1.276  -0.664  1.00  0.00    -0.362 N 
ATOM     19  H3  UNL     1       1.265  -2.072  -0.952  1.00  0.00     0.162 HD
BRANCH  18  20
HETATM   20  C3  UNL     1       2.366  -0.496  -1.695  1.00  0.00     0.182 C 
HETATM   21  S1  UNL     1       1.982  -0.946  -3.249  1.00  0.00    -0.040 SA
BRANCH  20  22
HETATM   22  N2  UNL     1       3.174   0.602  -1.536  1.00  0.00    -0.296 N 
ATOM     23  H2  UNL     1       3.456   1.045  -2.411  1.00  0.00     0.183 HD
BRANCH  22  24
HETATM   24  N1  UNL     1       3.677   1.219  -0.396  1.00  0.00    -0.238 NA
HETATM   25  C1  UNL     1       3.434   2.657  -0.489  1.00  0.00     0.135 C 
HETATM   26  C2  UNL     1       5.112   1.009  -0.256  1.00  0.00     0.135 C 
ENDBRANCH  22  24
ENDBRANCH  20  22
ENDBRANCH  18  20
ENDBRANCH   1  18
TORSDOF 5
