REMARK  4 active torsions:
REMARK  status: ('A' for Active; 'I' for Inactive)
REMARK    1  A    between atoms: C2_2  and  C3_3 
REMARK    2  A    between atoms: C3_3  and  C4_4 
REMARK    3  A    between atoms: N1_5  and  N2_7 
REMARK    4  A    between atoms: N2_7  and  C5_9 
ROOT
HETATM    1  C5  UNL     1       1.340  -0.247   0.147  1.00  0.00     0.704 C 
HETATM    2  N3  UNL     1       1.820  -0.964  -0.801  1.00  0.00    -0.223 N 
ATOM      3  H3  UNL     1       1.181  -1.578  -1.306  1.00  0.00     0.177 HD
HETATM    4  C6  UNL     1       3.212  -0.958  -1.201  1.00  0.00     0.156 C 
HETATM    5  C7  UNL     1       4.072  -0.405  -0.070  1.00  0.00     0.155 C 
HETATM    6  N4  UNL     1       3.477   0.898   0.267  1.00  0.00    -0.125 NA
HETATM    7  N5  UNL     1       2.236   0.607   0.847  1.00  0.00    -0.135 N 
ATOM      8  H5  UNL     1       1.980   1.000   1.753  1.00  0.00     0.201 HD
ENDROOT
BRANCH   1   9
HETATM    9  N2  UNL     1      -0.039  -0.276   0.519  1.00  0.00    -0.132 N 
ATOM     10  H2  UNL     1      -0.407   0.481   1.095  1.00  0.00     0.205 HD
BRANCH   9  11
HETATM   11  N1  UNL     1      -0.899  -1.297   0.125  1.00  0.00    -0.301 N 
HETATM   12  C4  UNL     1      -2.123  -1.033  -0.093  1.00  0.00     0.084 C 
ATOM     13  H1  UNL     1      -0.550  -2.249   0.012  1.00  0.00     0.186 HD
BRANCH  12  14
HETATM   14  C3  UNL     1      -2.624   0.342   0.070  1.00  0.00     0.072 C 
BRANCH  14  15
HETATM   15  C2  UNL     1      -4.056   0.419  -0.315  1.00  0.00    -0.032 C 
HETATM   16  C1  UNL     1      -4.936   0.807   0.589  1.00  0.00     0.007 C 
ENDBRANCH  14  15
ENDBRANCH  12  14
ENDBRANCH   9  11
ENDBRANCH   1   9
TORSDOF 4
