REMARK  4 active torsions:
REMARK  status: ('A' for Active; 'I' for Inactive)
REMARK    1  A    between atoms: C2_3  and  C3_4 
REMARK    2  A    between atoms: C3_4  and  C4_5 
REMARK    3  A    between atoms: C4_5  and  N2_6 
REMARK    4  A    between atoms: C5_9  and  N4_10 
ROOT
HETATM    1  N1  UNL     1      -3.765   2.286   1.077  1.00  0.00    -0.197 NA
HETATM    2  C1  UNL     1      -2.963   1.678   0.491  1.00  0.00     0.059 C 
HETATM    3  C2  UNL     1      -1.943   0.907  -0.225  1.00  0.00     0.125 C 
ENDROOT
BRANCH   3   4
HETATM    4  C3  UNL     1      -1.776  -0.474   0.412  1.00  0.00     0.036 C 
BRANCH   4   5
HETATM    5  C4  UNL     1      -0.739  -1.284  -0.302  1.00  0.00     0.169 C 
BRANCH   5   6
HETATM    6  N2  UNL     1       0.538  -0.622  -0.261  1.00  0.00    -0.109 N 
HETATM    7  N3  UNL     1       1.009   0.231  -1.132  1.00  0.00    -0.115 N 
HETATM    8  C5  UNL     1       2.233   0.607  -0.720  1.00  0.00     0.705 A 
ATOM      9  H3  UNL     1       0.533   0.554  -1.974  1.00  0.00     0.206 HD
HETATM   10  N5  UNL     1       2.511  -0.032   0.428  1.00  0.00    -0.020 N 
HETATM   11  C6  UNL     1       1.451  -0.805   0.723  1.00  0.00     0.707 A 
ATOM     12  H5  UNL     1       3.368   0.053   0.975  1.00  0.00     0.203 HD
HETATM   13  N6  UNL     1       1.328  -1.569   1.738  1.00  0.00    -0.233 N 
ATOM     14  H62 UNL     1       0.524  -2.155   1.962  1.00  0.00     0.174 HD
ATOM     15  H61 UNL     1       2.015  -1.707   2.479  1.00  0.00     0.174 HD
BRANCH   8  16
HETATM   16  N4  UNL     1       3.002   1.454  -1.350  1.00  0.00    -0.233 N 
ATOM     17  H42 UNL     1       2.791   1.939  -2.222  1.00  0.00     0.174 HD
ATOM     18  H41 UNL     1       3.930   1.739  -1.038  1.00  0.00     0.174 HD
ENDBRANCH   8  16
ENDBRANCH   5   6
ENDBRANCH   4   5
ENDBRANCH   3   4
TORSDOF 4
