REMARK  5 active torsions:
REMARK  status: ('A' for Active; 'I' for Inactive)
REMARK    1  A    between atoms: N1_1  and  C1_4 
REMARK    2  A    between atoms: N5_14  and  C5_15 
REMARK    3  A    between atoms: C5_15  and  C6_16 
REMARK    4  A    between atoms: C6_16  and  C7_17 
REMARK    5  A    between atoms: C7_17  and  N6_18 
ROOT
HETATM    1  C1  UNL     1      -3.338  -0.221   0.486  1.00  0.00     0.132 A 
HETATM    2  N2  UNL     1      -3.844   0.879  -0.118  1.00  0.00    -0.337 N 
ATOM      3  H2  UNL     1      -4.852   1.010  -0.207  1.00  0.00     0.168 HD
HETATM    4  C2  UNL     1      -2.986   1.795  -0.598  1.00  0.00     0.183 A 
HETATM    5  N3  UNL     1      -1.654   1.643  -0.492  1.00  0.00    -0.335 N 
ATOM      6  H3  UNL     1      -1.042   2.365  -0.872  1.00  0.00     0.168 HD
HETATM    7  C3  UNL     1      -1.102   0.562   0.103  1.00  0.00     0.155 A 
HETATM    8  C4  UNL     1      -1.951  -0.390   0.603  1.00  0.00     0.138 A 
HETATM    9  N4  UNL     1      -0.914  -1.094   1.003  1.00  0.00    -0.290 N 
ATOM     10  H4  UNL     1      -0.794  -1.984   1.487  1.00  0.00     0.187 HD
HETATM   11  N5  UNL     1      -0.094  -0.182   0.524  1.00  0.00    -0.274 N 
ENDROOT
BRANCH  11  12
HETATM   12  C5  UNL     1       1.351  -0.054   0.481  1.00  0.00     0.152 C 
BRANCH  12  13
HETATM   13  C6  UNL     1       1.933  -0.671  -0.768  1.00  0.00     0.049 C 
BRANCH  13  14
HETATM   14  C7  UNL     1       3.421  -0.529  -0.795  1.00  0.00     0.231 C 
BRANCH  14  15
HETATM   15  N6  UNL     1       3.887   0.818  -0.768  1.00  0.00    -0.079 N 
ATOM     16  H63 UNL     1       3.465   1.355  -1.526  1.00  0.00     0.274 HD
ATOM     17  H62 UNL     1       3.498   1.312   0.035  1.00  0.00     0.274 HD
ATOM     18  H61 UNL     1       4.902   0.915  -0.786  1.00  0.00     0.274 HD
ENDBRANCH  14  15
ENDBRANCH  13  14
ENDBRANCH  12  13
ENDBRANCH  11  12
BRANCH   1  19
HETATM   19  N1  UNL     1      -4.101  -1.137   0.968  1.00  0.00    -0.383 N 
ATOM     20  H12 UNL     1      -5.110  -1.014   0.883  1.00  0.00     0.157 HD
ATOM     21  H11 UNL     1      -3.720  -1.966   1.423  1.00  0.00     0.157 HD
ENDBRANCH   1  19
TORSDOF 5
