REMARK  1 active torsions:
REMARK  status: ('A' for Active; 'I' for Inactive)
REMARK    1  A    between atoms: C1_2  and  C2_4 
ROOT
HETATM    1  C2  UNL     1       1.151  -0.262   0.181  1.00  0.00     0.053 C 
HETATM    2  C3  UNL     1       0.214  -0.009   1.294  1.00  0.00     0.025 C 
HETATM    3  C4  UNL     1      -1.074   0.640   0.945  1.00  0.00    -0.011 C 
HETATM    4  C5  UNL     1      -2.141  -0.290   0.460  1.00  0.00     0.007 C 
HETATM    5  C6  UNL     1      -1.725  -1.289  -0.538  1.00  0.00     0.032 C 
HETATM    6  C7  UNL     1      -0.607  -0.877  -1.450  1.00  0.00     0.123 C 
HETATM    7  C8  UNL     1       0.687  -1.304  -0.797  1.00  0.00     0.052 C 
HETATM    8  O3  UNL     1      -0.644   0.400  -1.888  1.00  0.00    -0.381 OA
HETATM    9  C9  UNL     1      -0.052   1.363  -1.144  1.00  0.00     0.123 C 
HETATM   10  C10 UNL     1      -0.962   1.779  -0.026  1.00  0.00     0.036 C 
HETATM   11  C11 UNL     1       1.330   1.011  -0.634  1.00  0.00     0.052 C 
ENDROOT
BRANCH   1  12
HETATM   12  C1  UNL     1       2.472  -0.635   0.729  1.00  0.00     0.182 C 
HETATM   13  O1  UNL     1       3.004  -1.740   0.472  1.00  0.00    -0.647 OA
HETATM   14  O2  UNL     1       3.118   0.280   1.547  1.00  0.00    -0.647 OA
ENDBRANCH   1  12
TORSDOF 1
