REMARK  2 active torsions:
REMARK  status: ('A' for Active; 'I' for Inactive)
REMARK    1  A    between atoms: N3_8  and  N4_9 
REMARK    2  A    between atoms: N4_9  and  C4_11 
ROOT
HETATM    1  C1  UNL     1      -3.859   0.388  -1.017  1.00  0.00     0.092 C 
HETATM    2  C2  UNL     1      -3.250  -0.436   0.085  1.00  0.00     0.114 A 
HETATM    3  N1  UNL     1      -3.934  -1.069   1.042  1.00  0.00    -0.287 N 
ATOM      4  H1  UNL     1      -4.947  -1.083   1.159  1.00  0.00     0.188 HD
HETATM    5  N2  UNL     1      -3.040  -1.675   1.809  1.00  0.00    -0.293 N 
ATOM      6  H2  UNL     1      -3.256  -2.242   2.629  1.00  0.00     0.187 HD
HETATM    7  C3  UNL     1      -1.805  -1.428   1.342  1.00  0.00     0.224 A 
HETATM    8  N3  UNL     1      -1.937  -0.650   0.259  1.00  0.00    -0.241 N 
ENDROOT
BRANCH   8   9
HETATM    9  N4  UNL     1      -0.924  -0.144  -0.556  1.00  0.00    -0.323 N 
ATOM     10  H4  UNL     1      -1.170   0.435  -1.359  1.00  0.00     0.181 HD
BRANCH   9  11
HETATM   11  C4  UNL     1       0.491  -0.430  -0.278  1.00  0.00     0.100 C 
HETATM   12  C5  UNL     1       1.304   0.233  -1.368  1.00  0.00     0.026 C 
HETATM   13  C6  UNL     1       2.788   0.077  -1.138  1.00  0.00     0.002 C 
HETATM   14  C7  UNL     1       3.173   0.440   0.285  1.00  0.00     0.000 C 
HETATM   15  C8  UNL     1       2.017   1.099   1.006  1.00  0.00     0.002 C 
HETATM   16  C9  UNL     1       0.885   0.097   1.066  1.00  0.00     0.026 C 
ENDBRANCH   9  11
ENDBRANCH   8   9
TORSDOF 2
