REMARK  6 active torsions:
REMARK  status: ('A' for Active; 'I' for Inactive)
REMARK    1  A    between atoms: O1_2  and  C2_3 
REMARK    2  A    between atoms: C2_3  and  C3_5 
REMARK    3  A    between atoms: C4_6  and  N1_7 
REMARK       I    between atoms: N1_7  and  C5_8 
REMARK    4  A    between atoms: N1_7  and  C7_11 
REMARK    5  A    between atoms: C7_11  and  O4_12 
REMARK    6  A    between atoms: C7_11  and  N2_14 
ROOT
HETATM    1  N1  UNL     1      -0.954   0.488  -0.441  1.00  0.00    -0.278 N 
HETATM    2  C5  UNL     1      -1.607   0.909  -1.668  1.00  0.00     0.223 C 
HETATM    3  C6  UNL     1      -0.811   0.935  -2.965  1.00  0.00     0.117 C 
HETATM    4  O3  UNL     1      -2.770   1.263  -1.809  1.00  0.00    -0.273 OA
ENDROOT
BRANCH   1   5
HETATM    5  C4  UNL     1       0.469   0.176  -0.593  1.00  0.00     0.119 A 
HETATM    6  C3  UNL     1       1.490  -0.031   0.390  1.00  0.00     0.119 A 
HETATM    7  C10 UNL     1       0.915  -1.249  -0.244  1.00  0.00    -0.011 A 
HETATM    8  C11 UNL     1       0.063  -2.173   0.540  1.00  0.00     0.018 C 
HETATM    9  C12 UNL     1       1.677  -1.919  -1.378  1.00  0.00     0.018 C 
BRANCH   6  10
HETATM   10  C2  UNL     1       2.938   0.290   0.039  1.00  0.00     0.265 C 
HETATM   11  O2  UNL     1       3.335   0.275  -1.146  1.00  0.00    -0.265 OA
BRANCH  10  12
HETATM   12  O1  UNL     1       3.819   0.600   1.043  1.00  0.00    -0.326 OA
HETATM   13  C1  UNL     1       5.199   0.914   0.797  1.00  0.00     0.213 C 
ENDBRANCH  10  12
ENDBRANCH   6  10
ENDBRANCH   1   5
BRANCH   1  14
HETATM   14  C7  UNL     1      -1.611   0.523   0.777  1.00  0.00     0.223 C 
BRANCH  14  15
HETATM   15  O4  UNL     1      -0.746   0.425   1.795  1.00  0.00    -0.332 OA
ATOM     16  H4  UNL     1      -1.197   0.449   2.631  1.00  0.00     0.221 HD
ENDBRANCH  14  15
BRANCH  14  17
HETATM   17  N2  UNL     1      -2.906   0.625   1.269  1.00  0.00    -0.356 N 
HETATM   18  C8  UNL     1      -4.182   0.671   0.630  1.00  0.00     0.152 C 
HETATM   19  C9  UNL     1      -3.070   0.730   2.787  1.00  0.00     0.152 C 
ENDBRANCH  14  17
ENDBRANCH   1  14
TORSDOF 6
