REMARK  3 active torsions:
REMARK  status: ('A' for Active; 'I' for Inactive)
REMARK    1  A    between atoms: N1_2  and  C2_4 
REMARK    2  A    between atoms: C2_4  and  C3_6 
REMARK    3  A    between atoms: C3_6  and  C4_7 
ROOT
HETATM    1  C4  UNL     1      -1.174  -0.063  -0.600  1.00  0.00     0.232 C 
HETATM    2  C5  UNL     1       0.207  -0.584  -0.822  1.00  0.00     0.079 C 
HETATM    3  C6  UNL     1       1.116   0.469  -0.213  1.00  0.00     0.127 C 
HETATM    4  C7  UNL     1       0.160   1.404   0.463  1.00  0.00     0.313 C 
HETATM    5  N2  UNL     1      -1.071   0.621   0.657  1.00  0.00     0.092 N 
HETATM    6  C8  UNL     1      -0.847  -0.261   1.777  1.00  0.00     0.310 C 
HETATM    7  C9  UNL     1       2.124  -0.141   0.728  1.00  0.00     0.083 C 
HETATM    8  C10 UNL     1       3.414   0.031  -0.045  1.00  0.00     0.092 C 
HETATM    9  C11 UNL     1       4.306   1.081   0.583  1.00  0.00     0.049 C 
HETATM   10  C12 UNL     1       4.161  -1.271  -0.022  1.00  0.00     0.049 C 
HETATM   11  O1  UNL     1       2.988   0.385  -1.305  1.00  0.00    -0.230 OA
HETATM   12  O2  UNL     1       1.896   1.106  -1.175  1.00  0.00    -0.227 OA
ENDROOT
BRANCH   1  13
HETATM   13  C3  UNL     1      -2.215  -1.149  -0.611  1.00  0.00     0.105 C 
BRANCH  13  14
HETATM   14  C2  UNL     1      -3.573  -0.658  -0.396  1.00  0.00     0.075 C 
HETATM   15  S1  UNL     1      -4.413  -1.206   0.887  1.00  0.00    -0.066 SA
BRANCH  14  16
HETATM   16  N1  UNL     1      -4.187   0.269  -1.253  1.00  0.00    -0.389 N 
HETATM   17  C1  UNL     1      -5.524   0.728  -1.009  1.00  0.00     0.147 C 
ATOM     18  H1  UNL     1      -3.675   0.622  -2.061  1.00  0.00     0.159 HD
ENDBRANCH  14  16
ENDBRANCH  13  14
ENDBRANCH   1  13
TORSDOF 3
