REMARK  10 active torsions:
REMARK  status: ('A' for Active; 'I' for Inactive)
REMARK    1  A    between atoms: C2_2  and  C5_5 
REMARK    2  A    between atoms: C5_5  and  N1_6 
REMARK    3  A    between atoms: C8_10  and  N2_11 
REMARK       I    between atoms: N2_11  and  C9_13 
REMARK    4  A    between atoms: C9_13  and  C10_15 
REMARK    5  A    between atoms: C10_15  and  C11_16 
REMARK    6  A    between atoms: C11_16  and  C12_17 
REMARK    7  A    between atoms: C12_17  and  C13_18 
REMARK    8  A    between atoms: C13_18  and  C14_19 
REMARK    9  A    between atoms: C14_19  and  N3_20 
REMARK       I    between atoms: N3_20  and  C15_22 
REMARK   10  A    between atoms: C15_22  and  C16_24 
ROOT
HETATM    1  C11 UNL     1      -0.784   2.714   2.678  1.00  0.00     0.009 C 
ENDROOT
BRANCH   1   2
HETATM    2  C10 UNL     1       0.359   1.792   2.906  1.00  0.00     0.103 C 
BRANCH   2   3
HETATM    3  C9  UNL     1       1.596   2.104   2.167  1.00  0.00     0.219 C 
HETATM    4  N2  UNL     1       2.729   1.236   2.159  1.00  0.00    -0.327 N 
ATOM      5  H2  UNL     1       2.706   0.358   2.678  1.00  0.00     0.165 HD
HETATM    6  O2  UNL     1       1.672   3.168   1.514  1.00  0.00    -0.274 OA
BRANCH   4   7
HETATM    7  C8  UNL     1       3.890   1.601   1.423  1.00  0.00     0.317 C 
HETATM    8  O1  UNL     1       5.027   1.829   2.177  1.00  0.00    -0.356 OA
HETATM    9  C7  UNL     1       5.571   0.709   2.733  1.00  0.00     0.191 C 
HETATM   10  C6  UNL     1       5.715  -0.460   1.831  1.00  0.00     0.152 C 
HETATM   11  N1  UNL     1       5.378  -0.130   0.432  1.00  0.00    -0.346 N 
HETATM   12  C26 UNL     1       4.218   0.679   0.286  1.00  0.00     0.269 C 
HETATM   13  O4  UNL     1       3.525   0.612  -0.737  1.00  0.00    -0.268 OA
BRANCH  11  14
HETATM   14  C5  UNL     1       6.183  -0.629  -0.638  1.00  0.00     0.134 C 
BRANCH  14  15
HETATM   15  C2  UNL     1       5.897  -1.972  -1.170  1.00  0.00    -0.035 C 
HETATM   16  C1  UNL     1       6.921  -2.244  -2.295  1.00  0.00     0.016 C 
HETATM   17  C3  UNL     1       6.125  -3.088  -0.170  1.00  0.00     0.016 C 
HETATM   18  C4  UNL     1       4.553  -2.104  -1.829  1.00  0.00     0.016 C 
ENDBRANCH  14  15
ENDBRANCH  11  14
ENDBRANCH   4   7
ENDBRANCH   2   3
ENDBRANCH   1   2
BRANCH   1  19
HETATM   19  C12 UNL     1      -1.268   2.728   1.269  1.00  0.00     0.002 C 
BRANCH  19  20
HETATM   20  C13 UNL     1      -2.449   3.689   1.145  1.00  0.00     0.020 C 
BRANCH  20  21
HETATM   21  C14 UNL     1      -2.951   3.719  -0.270  1.00  0.00     0.122 C 
BRANCH  21  22
HETATM   22  N3  UNL     1      -3.372   2.419  -0.691  1.00  0.00    -0.360 N 
HETATM   23  C15 UNL     1      -4.402   1.697  -0.080  1.00  0.00     0.226 C 
HETATM   24  O3  UNL     1      -5.049   2.141   0.896  1.00  0.00    -0.273 OA
ATOM     25  H3  UNL     1      -2.893   1.993  -1.484  1.00  0.00     0.162 HD
BRANCH  23  26
HETATM   26  C16 UNL     1      -4.774   0.337  -0.584  1.00  0.00     0.042 C 
HETATM   27  C17 UNL     1      -3.549  -0.543  -0.436  1.00  0.00     0.024 C 
HETATM   28  C18 UNL     1      -3.896  -1.927  -0.924  1.00  0.00    -0.013 C 
HETATM   29  C19 UNL     1      -5.100  -2.512  -0.235  1.00  0.00     0.009 C 
HETATM   30  C23 UNL     1      -4.189  -1.839  -2.407  1.00  0.00     0.009 C 
HETATM   31  C20 UNL     1      -6.292  -1.576  -0.422  1.00  0.00    -0.013 C 
HETATM   32  C21 UNL     1      -6.596  -1.473  -1.881  1.00  0.00     0.009 C 
HETATM   33  C25 UNL     1      -5.928  -0.239   0.171  1.00  0.00     0.024 C 
HETATM   34  C22 UNL     1      -5.382  -0.940  -2.609  1.00  0.00    -0.013 C 
HETATM   35  C24 UNL     1      -5.041   0.442  -2.083  1.00  0.00     0.024 C 
ENDBRANCH  23  26
ENDBRANCH  21  22
ENDBRANCH  20  21
ENDBRANCH  19  20
ENDBRANCH   1  19
TORSDOF 10
