REMARK  6 active torsions:
REMARK  status: ('A' for Active; 'I' for Inactive)
REMARK    1  A    between atoms: O1_2  and  C2_3 
REMARK    2  A    between atoms: C5_6  and  N1_7 
REMARK    3  A    between atoms: N1_7  and  C6_9 
REMARK    4  A    between atoms: C6_9  and  C7_10 
REMARK    5  A    between atoms: N4_20  and  C13_22 
REMARK    6  A    between atoms: C13_22  and  C14_23 
ROOT
HETATM    1  C2  UNL     1       2.066   3.419   0.293  1.00  0.00     0.089 A 
HETATM    2  C3  UNL     1       2.072   2.064   0.033  1.00  0.00     0.055 A 
HETATM    3  C4  UNL     1       0.908   1.353  -0.050  1.00  0.00     0.038 A 
HETATM    4  C5  UNL     1       0.861  -0.003  -0.308  1.00  0.00     0.130 A 
HETATM    5  N3  UNL     1      -0.283  -0.702  -0.389  1.00  0.00    -0.176 N 
ATOM      6  H3  UNL     1      -0.284  -1.704  -0.581  1.00  0.00     0.186 HD
HETATM    7  C12 UNL     1      -1.446  -0.008  -0.202  1.00  0.00     0.680 A 
HETATM    8  N4  UNL     1      -2.571  -0.644  -0.272  1.00  0.00    -0.222 N 
ATOM      9  H4  UNL     1      -2.598  -1.646  -0.463  1.00  0.00     0.178 HD
HETATM   10  N5  UNL     1      -1.414   1.313   0.050  1.00  0.00    -0.191 N 
ATOM     11  H5  UNL     1      -2.301   1.798   0.184  1.00  0.00     0.184 HD
HETATM   12  C20 UNL     1      -0.281   2.032   0.136  1.00  0.00     0.064 A 
HETATM   13  C21 UNL     1      -0.315   3.401   0.400  1.00  0.00     0.056 A 
HETATM   14  C22 UNL     1       0.867   4.108   0.481  1.00  0.00     0.080 A 
HETATM   15  C23 UNL     1       0.851   5.528   0.754  1.00  0.00     0.102 C 
HETATM   16  N6  UNL     1       0.855   6.664   0.984  1.00  0.00    -0.191 NA
ENDROOT
BRANCH   1  17
HETATM   17  O1  UNL     1       3.221   4.184   0.386  1.00  0.00    -0.354 OA
HETATM   18  C1  UNL     1       4.517   3.638   0.221  1.00  0.00     0.210 C 
ENDBRANCH   1  17
BRANCH   4  19
HETATM   19  N1  UNL     1       1.987  -0.620  -0.479  1.00  0.00    -0.371 N 
ATOM     20  H1  UNL     1       2.842  -0.068  -0.414  1.00  0.00     0.161 HD
BRANCH  19  21
HETATM   21  C6  UNL     1       2.122  -2.014  -0.752  1.00  0.00     0.161 C 
BRANCH  21  22
HETATM   22  C7  UNL     1       3.495  -2.434  -0.391  1.00  0.00    -0.025 A 
HETATM   23  C8  UNL     1       4.545  -2.399  -1.283  1.00  0.00     0.011 A 
HETATM   24  C9  UNL     1       5.780  -2.812  -0.841  1.00  0.00     0.018 A 
HETATM   25  C10 UNL     1       5.983  -3.248   0.443  1.00  0.00     0.087 A 
HETATM   26  N2  UNL     1       4.957  -3.277   1.297  1.00  0.00    -0.375 N 
HETATM   27  C11 UNL     1       3.742  -2.879   0.892  1.00  0.00     0.096 A 
ATOM     28  H2  UNL     1       5.097  -3.601   2.254  1.00  0.00     0.164 HD
ENDBRANCH  21  22
ENDBRANCH  19  21
ENDBRANCH   4  19
BRANCH   8  29
HETATM   29  C13 UNL     1      -3.789   0.111  -0.070  1.00  0.00     0.176 C 
BRANCH  29  30
HETATM   30  C14 UNL     1      -4.985  -0.730  -0.179  1.00  0.00    -0.040 A 
HETATM   31  C15 UNL     1      -5.625  -0.922  -1.371  1.00  0.00     0.009 A 
HETATM   32  C16 UNL     1      -6.744  -1.718  -1.432  1.00  0.00     0.001 A 
HETATM   33  C17 UNL     1      -7.260  -2.344  -0.322  1.00  0.00     0.000 A 
HETATM   34  C18 UNL     1      -6.601  -2.144   0.893  1.00  0.00     0.001 A 
HETATM   35  C19 UNL     1      -5.486  -1.349   0.949  1.00  0.00     0.009 A 
ENDBRANCH  29  30
ENDBRANCH   8  29
TORSDOF 6
