REMARK  7 active torsions:
REMARK  status: ('A' for Active; 'I' for Inactive)
REMARK    1  A    between atoms: C4_5  and  S1_6 
REMARK    2  A    between atoms: S1_6  and  N2_7 
REMARK    3  A    between atoms: C7_14  and  N3_15 
REMARK    4  A    between atoms: N3_15  and  S2_17 
REMARK    5  A    between atoms: S2_17  and  C8_20 
REMARK    6  A    between atoms: C13_25  and  S3_26 
REMARK    7  A    between atoms: S3_26  and  N4_27 
ROOT
HETATM    1  N1  UNL     1      -3.679  -4.128   0.791  1.00  0.00    -0.191 NA
HETATM    2  C1  UNL     1      -3.574  -3.012   0.559  1.00  0.00     0.102 C 
HETATM    3  C2  UNL     1      -3.456  -1.605   0.280  1.00  0.00     0.073 A 
HETATM    4  C3  UNL     1      -4.084  -0.687   1.097  1.00  0.00     0.050 A 
HETATM    5  C4  UNL     1      -3.949   0.664   0.799  1.00  0.00     0.081 A 
HETATM    6  C5  UNL     1      -3.210   1.048  -0.279  1.00  0.00     0.027 A 
HETATM    7  C6  UNL     1      -2.584   0.094  -1.092  1.00  0.00     0.033 A 
HETATM    8  C7  UNL     1      -2.703  -1.248  -0.816  1.00  0.00     0.063 A 
ENDROOT
BRANCH   8   9
HETATM    9  N3  UNL     1      -2.092  -2.229  -1.624  1.00  0.00    -0.279 N 
ATOM     10  H3  UNL     1      -2.483  -3.170  -1.582  1.00  0.00     0.179 HD
BRANCH   9  11
HETATM   11  S2  UNL     1      -0.760  -1.991  -2.666  1.00  0.00     0.263 S 
HETATM   12  O3  UNL     1      -0.384  -3.244  -3.401  1.00  0.00    -0.200 OA
HETATM   13  O4  UNL     1      -1.027  -0.938  -3.705  1.00  0.00    -0.200 OA
BRANCH  11  14
HETATM   14  C8  UNL     1       0.650  -1.487  -1.763  1.00  0.00     0.080 A 
HETATM   15  C9  UNL     1       1.498  -2.449  -1.204  1.00  0.00     0.026 A 
HETATM   16  C10 UNL     1       2.617  -2.075  -0.494  1.00  0.00     0.014 A 
HETATM   17  C11 UNL     1       2.956  -0.751  -0.300  1.00  0.00    -0.024 A 
HETATM   18  C12 UNL     1       4.081  -0.396   0.414  1.00  0.00     0.037 A 
HETATM   19  C16 UNL     1       2.129   0.208  -0.846  1.00  0.00    -0.024 A 
HETATM   20  C13 UNL     1       4.429   0.929   0.613  1.00  0.00     0.080 A 
HETATM   21  C14 UNL     1       3.598   1.898   0.065  1.00  0.00     0.026 A 
HETATM   22  C15 UNL     1       2.472   1.521  -0.649  1.00  0.00     0.014 A 
HETATM   23  C17 UNL     1       1.011  -0.186  -1.555  1.00  0.00     0.037 A 
BRANCH  20  24
HETATM   24  S3  UNL     1       5.851   1.407   1.515  1.00  0.00     0.256 S 
HETATM   25  O5  UNL     1       6.908   0.354   1.342  1.00  0.00    -0.201 OA
HETATM   26  O6  UNL     1       6.410   2.695   0.962  1.00  0.00    -0.201 OA
BRANCH  24  27
HETATM   27  N4  UNL     1       5.394   1.575   3.172  1.00  0.00    -0.324 N 
ATOM     28  H42 UNL     1       4.457   1.420   3.544  1.00  0.00     0.169 HD
ATOM     29  H41 UNL     1       6.223   1.854   3.698  1.00  0.00     0.169 HD
ENDBRANCH  24  27
ENDBRANCH  20  24
ENDBRANCH  11  14
ENDBRANCH   9  11
ENDBRANCH   8   9
BRANCH   5  30
HETATM   30  S1  UNL     1      -4.748   1.843   1.839  1.00  0.00     0.256 S 
HETATM   31  O1  UNL     1      -3.925   3.090   1.833  1.00  0.00    -0.201 OA
HETATM   32  O2  UNL     1      -4.832   1.336   3.248  1.00  0.00    -0.201 OA
BRANCH  30  33
HETATM   33  N2  UNL     1      -6.329   2.198   1.305  1.00  0.00    -0.324 N 
ATOM     34  H22 UNL     1      -6.748   1.770   0.479  1.00  0.00     0.169 HD
ATOM     35  H21 UNL     1      -6.791   2.880   1.907  1.00  0.00     0.169 HD
ENDBRANCH  30  33
ENDBRANCH   5  30
TORSDOF 7
