REMARK  6 active torsions:
REMARK  status: ('A' for Active; 'I' for Inactive)
REMARK    1  A    between atoms: C8_8  and  S1_9 
REMARK    2  A    between atoms: C11_14  and  S2_15 
REMARK    3  A    between atoms: S2_15  and  N1_18 
REMARK    4  A    between atoms: C16_26  and  C17_27 
REMARK    5  A    between atoms: C17_27  and  C18_28 
REMARK    6  A    between atoms: C18_28  and  O5_29 
ROOT
HETATM    1  C1  UNL     1      -1.600   2.466  -1.504  1.00  0.00     0.016 C 
HETATM    2  C2  UNL     1      -1.164   1.110  -1.032  1.00  0.00    -0.036 C 
HETATM    3  C3  UNL     1      -1.300   0.063  -2.124  1.00  0.00     0.016 C 
HETATM    4  C4  UNL     1       0.395   1.170  -0.820  1.00  0.00     0.050 C 
HETATM    5  C5  UNL     1       0.563  -0.120  -0.109  1.00  0.00    -0.027 A 
HETATM    6  C6  UNL     1      -0.569  -0.452   0.567  1.00  0.00    -0.044 A 
HETATM    7  C7  UNL     1      -0.690  -1.598   1.310  1.00  0.00     0.031 A 
HETATM    8  C8  UNL     1       0.374  -2.494   1.407  1.00  0.00     0.060 A 
HETATM    9  C10 UNL     1       1.510  -2.158   0.728  1.00  0.00     0.049 A 
HETATM   10  C11 UNL     1       1.638  -1.011  -0.021  1.00  0.00     0.088 A 
HETATM   11  C16 UNL     1      -1.574   0.674   0.307  1.00  0.00     0.030 C 
ENDROOT
BRANCH  10  12
HETATM   12  S2  UNL     1       3.086  -0.573  -0.892  1.00  0.00     0.264 S 
HETATM   13  O3  UNL     1       2.717  -0.546  -2.366  1.00  0.00    -0.200 OA
HETATM   14  O4  UNL     1       4.073  -1.695  -0.700  1.00  0.00    -0.200 OA
BRANCH  12  15
HETATM   15  N1  UNL     1       3.743   0.913  -0.377  1.00  0.00    -0.270 N 
HETATM   16  C12 UNL     1       5.003   1.066  -0.299  1.00  0.00     0.086 C 
HETATM   17  C13 UNL     1       6.096   0.112  -0.598  1.00  0.00     0.078 C 
HETATM   18  N2  UNL     1       5.610   2.301   0.131  1.00  0.00    -0.379 N 
HETATM   19  C14 UNL     1       7.355   0.933  -0.663  1.00  0.00     0.027 C 
HETATM   20  C15 UNL     1       6.979   2.342  -0.339  1.00  0.00     0.121 C 
ATOM     21  H2  UNL     1       5.149   3.028   0.678  1.00  0.00     0.160 HD
ATOM     22  H1  UNL     1       3.122   1.684  -0.130  1.00  0.00     0.180 HD
ENDBRANCH  12  15
ENDBRANCH  10  12
BRANCH   8  23
HETATM   23  S1  UNL     1       0.294  -3.970   2.334  1.00  0.00     0.171 S 
HETATM   24  C9  UNL     1      -0.288  -5.334   1.372  1.00  0.00     0.167 C 
HETATM   25  O1  UNL     1       1.709  -4.271   2.809  1.00  0.00    -0.223 OA
HETATM   26  O2  UNL     1      -0.531  -3.803   3.578  1.00  0.00    -0.223 OA
ENDBRANCH   8  23
BRANCH  11  27
HETATM   27  C17 UNL     1      -2.915   0.213   0.638  1.00  0.00     0.049 C 
BRANCH  27  28
HETATM   28  C18 UNL     1      -4.077   1.096   0.488  1.00  0.00     0.084 C 
HETATM   29  C19 UNL     1      -5.279   0.394   1.268  1.00  0.00     0.067 C 
HETATM   30  C20 UNL     1      -6.433   1.085   0.612  1.00  0.00     0.235 C 
HETATM   31  N3  UNL     1      -6.094   1.045  -0.808  1.00  0.00    -0.072 N 
HETATM   32  C21 UNL     1      -4.658   1.369  -0.827  1.00  0.00     0.269 C 
ATOM     33  H32 UNL     1      -6.337   0.172  -1.276  1.00  0.00     0.277 HD
ATOM     34  H31 UNL     1      -6.671   1.645  -1.397  1.00  0.00     0.277 HD
BRANCH  28  35
HETATM   35  O5  UNL     1      -3.973   2.288   1.228  1.00  0.00    -0.388 OA
ATOM     36  H5  UNL     1      -4.725   2.860   1.131  1.00  0.00     0.210 HD
ENDBRANCH  28  35
ENDBRANCH  27  28
ENDBRANCH  11  27
TORSDOF 6
