REMARK  12 active torsions:
REMARK  status: ('A' for Active; 'I' for Inactive)
REMARK    1  A    between atoms: C4_4  and  N1_5 
REMARK    2  A    between atoms: N1_5  and  C5_7 
REMARK    3  A    between atoms: C5_7  and  C6_8 
REMARK    4  A    between atoms: C6_8  and  N2_9 
REMARK    5  A    between atoms: N3_12  and  C9_13 
REMARK    6  A    between atoms: C9_13  and  C10_14 
REMARK    7  A    between atoms: C10_14  and  C11_15 
REMARK    8  A    between atoms: C11_15  and  N4_16 
REMARK    9  A    between atoms: N4_16  and  C12_18 
REMARK   10  A    between atoms: C18_28  and  N7_29 
REMARK   11  A    between atoms: N7_29  and  C19_30 
REMARK   12  A    between atoms: C22_33  and  N8_35 
ROOT
HETATM    1  N4  UNL     1      -2.209  -2.499  -1.028  1.00  0.00    -0.376 N 
ATOM      2  H4  UNL     1      -2.393  -1.915  -1.843  1.00  0.00     0.161 HD
ENDROOT
BRANCH   1   3
HETATM    3  C11 UNL     1      -0.843  -2.803  -0.741  1.00  0.00     0.123 C 
BRANCH   3   4
HETATM    4  C10 UNL     1      -0.259  -1.832   0.271  1.00  0.00     0.039 C 
BRANCH   4   5
HETATM    5  C9  UNL     1       1.143  -2.085   0.652  1.00  0.00     0.119 C 
BRANCH   5   6
HETATM    6  N3  UNL     1       2.140  -2.095  -0.354  1.00  0.00    -0.406 N 
HETATM    7  C8  UNL     1       3.457  -2.261   0.175  1.00  0.00     0.161 C 
HETATM    8  C7  UNL     1       4.572  -2.103  -0.809  1.00  0.00     0.077 C 
HETATM    9  N2  UNL     1       4.422  -0.927  -1.567  1.00  0.00    -0.389 N 
HETATM   10  C27 UNL     1       3.166  -0.254  -1.499  1.00  0.00     0.141 C 
HETATM   11  C26 UNL     1       1.976  -1.185  -1.420  1.00  0.00     0.137 C 
BRANCH   9  12
HETATM   12  C6  UNL     1       5.535  -0.049  -1.698  1.00  0.00     0.141 C 
BRANCH  12  13
HETATM   13  C5  UNL     1       5.826   0.580  -0.333  1.00  0.00     0.139 C 
BRANCH  13  14
HETATM   14  N1  UNL     1       6.896   1.522  -0.500  1.00  0.00    -0.388 N 
ATOM     15  H1  UNL     1       7.185   1.799  -1.438  1.00  0.00     0.159 HD
BRANCH  14  16
HETATM   16  C4  UNL     1       7.488   2.015   0.519  1.00  0.00     0.042 A 
HETATM   17  C3  UNL     1       7.136   1.666   1.790  1.00  0.00     0.054 A 
HETATM   18  C2  UNL     1       7.750   2.221   2.917  1.00  0.00     0.007 A 
HETATM   19  C1  UNL     1       7.293   1.798   4.263  1.00  0.00     0.068 C 
HETATM   20  N10 UNL     1       8.713   3.122   2.736  1.00  0.00    -0.359 N 
HETATM   21  C33 UNL     1       9.106   3.508   1.473  1.00  0.00     0.044 A 
ATOM     22  H10 UNL     1       9.169   3.535   3.549  1.00  0.00     0.166 HD
HETATM   23  C28 UNL     1       8.487   2.948   0.380  1.00  0.00     0.017 A 
HETATM   24  C32 UNL     1      10.092   4.461   1.365  1.00  0.00     0.030 A 
HETATM   25  C29 UNL     1       8.876   3.364  -0.905  1.00  0.00     0.016 A 
HETATM   26  C30 UNL     1       9.852   4.309  -1.014  1.00  0.00     0.001 A 
HETATM   27  C31 UNL     1      10.480   4.879   0.064  1.00  0.00     0.002 A 
ENDBRANCH  14  16
ENDBRANCH  13  14
ENDBRANCH  12  13
ENDBRANCH   9  12
ENDBRANCH   5   6
ENDBRANCH   4   5
ENDBRANCH   3   4
ENDBRANCH   1   3
BRANCH   1  28
HETATM   28  C12 UNL     1      -3.218  -2.893  -0.356  1.00  0.00     0.103 C 
HETATM   29  C13 UNL     1      -2.974  -3.679   0.733  1.00  0.00     0.050 C 
HETATM   30  C14 UNL     1      -3.701  -3.766   1.909  1.00  0.00     0.036 C 
HETATM   31  C15 UNL     1      -5.016  -3.413   2.078  1.00  0.00     0.065 A 
HETATM   32  N5  UNL     1      -5.687  -3.744   3.213  1.00  0.00    -0.350 N 
HETATM   33  C17 UNL     1      -5.824  -2.722   1.213  1.00  0.00     0.118 A 
HETATM   34  C16 UNL     1      -6.931  -3.253   3.054  1.00  0.00     0.181 A 
ATOM     35  H5  UNL     1      -5.324  -4.257   4.017  1.00  0.00     0.166 HD
HETATM   36  N6  UNL     1      -7.007  -2.633   1.838  1.00  0.00    -0.347 N 
ATOM     37  H6  UNL     1      -7.837  -2.173   1.463  1.00  0.00     0.167 HD
HETATM   38  C18 UNL     1      -5.579  -2.170  -0.053  1.00  0.00     0.204 C 
HETATM   39  N9  UNL     1      -4.440  -2.479  -0.764  1.00  0.00    -0.316 N 
ATOM     40  H9  UNL     1      -4.534  -2.378  -1.775  1.00  0.00     0.170 HD
BRANCH  38  41
HETATM   41  N7  UNL     1      -6.343  -1.420  -0.550  1.00  0.00    -0.423 NA
BRANCH  41  42
HETATM   42  C19 UNL     1      -7.220  -0.559  -1.120  1.00  0.00     0.165 C 
HETATM   43  C20 UNL     1      -7.932   0.254  -0.057  1.00  0.00     0.042 C 
HETATM   44  C21 UNL     1      -8.742   1.394  -0.504  1.00  0.00     0.041 C 
HETATM   45  C22 UNL     1      -8.530   1.741  -1.938  1.00  0.00     0.120 C 
HETATM   46  C23 UNL     1      -9.030   3.172  -2.166  1.00  0.00     0.046 C 
HETATM   47  C24 UNL     1      -7.051   1.696  -2.249  1.00  0.00     0.041 C 
HETATM   48  C25 UNL     1      -6.483   0.324  -2.122  1.00  0.00     0.042 C 
BRANCH  45  49
HETATM   49  N8  UNL     1      -9.223   0.871  -2.834  1.00  0.00    -0.071 N 
ATOM     50  H83 UNL     1      -8.979  -0.103  -2.656  1.00  0.00     0.275 HD
ATOM     51  H82 UNL     1     -10.218   0.838  -2.611  1.00  0.00     0.275 HD
ATOM     52  H81 UNL     1      -9.078   1.108  -3.815  1.00  0.00     0.275 HD
ENDBRANCH  45  49
ENDBRANCH  41  42
ENDBRANCH  38  41
ENDBRANCH   1  28
TORSDOF 12
