REMARK  7 active torsions:
REMARK  status: ('A' for Active; 'I' for Inactive)
REMARK    1  A    between atoms: C2_2  and  C3_3 
REMARK    2  A    between atoms: C3_3  and  N1_4 
REMARK    3  A    between atoms: C4_6  and  C5_7 
REMARK    4  A    between atoms: C6_8  and  O1_9 
REMARK    5  A    between atoms: N3_15  and  C9_16 
REMARK    6  A    between atoms: C9_16  and  C10_17 
REMARK    7  A    between atoms: C10_17  and  C11_18 
ROOT
HETATM    1  C5  UNL     1       1.811   0.579   0.243  1.00  0.00     0.098 A 
HETATM    2  C6  UNL     1       1.964   1.768   0.810  1.00  0.00     0.159 A 
HETATM    3  N2  UNL     1       0.814   2.426   1.296  1.00  0.00    -0.323 N 
ATOM      4  H2  UNL     1       0.913   3.341   1.735  1.00  0.00     0.169 HD
HETATM    5  C7  UNL     1      -0.501   1.836   1.187  1.00  0.00     0.102 A 
HETATM    6  C8  UNL     1      -1.546   2.484   1.649  1.00  0.00     0.064 C 
HETATM    7  N3  UNL     1      -0.673   0.565   0.582  1.00  0.00    -0.300 N 
HETATM    8  C15 UNL     1       0.510  -0.066   0.104  1.00  0.00     0.265 A 
HETATM    9  O2  UNL     1       0.380  -1.203  -0.441  1.00  0.00    -0.267 OA
ENDROOT
BRANCH   7  10
HETATM   10  C9  UNL     1      -1.953  -0.045   0.457  1.00  0.00     0.138 C 
BRANCH  10  11
HETATM   11  C10 UNL     1      -2.679   0.315  -0.822  1.00  0.00     0.060 C 
BRANCH  11  12
HETATM   12  C11 UNL     1      -3.981  -0.393  -0.799  1.00  0.00    -0.040 A 
HETATM   13  C12 UNL     1      -5.156   0.095  -0.276  1.00  0.00     0.025 A 
HETATM   14  C13 UNL     1      -6.135  -0.869  -0.450  1.00  0.00     0.088 A 
HETATM   15  N4  UNL     1      -5.565  -1.921  -1.067  1.00  0.00    -0.375 N 
HETATM   16  C14 UNL     1      -4.267  -1.647  -1.283  1.00  0.00     0.094 A 
ATOM     17  H4  UNL     1      -6.040  -2.785  -1.328  1.00  0.00     0.164 HD
ENDBRANCH  11  12
ENDBRANCH  10  11
ENDBRANCH   7  10
BRANCH   1  18
HETATM   18  C4  UNL     1       3.009  -0.080  -0.251  1.00  0.00     0.104 C 
HETATM   19  N1  UNL     1       4.182   0.433  -0.160  1.00  0.00    -0.394 N 
ATOM     20  H1  UNL     1       4.272   1.348   0.281  1.00  0.00     0.159 HD
BRANCH  19  21
HETATM   21  C3  UNL     1       5.376  -0.206  -0.643  1.00  0.00     0.145 C 
BRANCH  21  22
HETATM   22  C2  UNL     1       5.471  -1.552  -0.020  1.00  0.00    -0.018 C 
HETATM   23  C1  UNL     1       5.497  -2.677  -0.667  1.00  0.00     0.008 C 
ENDBRANCH  21  22
ENDBRANCH  19  21
ENDBRANCH   1  18
BRANCH   2  24
HETATM   24  O1  UNL     1       3.245   2.349   0.919  1.00  0.00    -0.345 OA
ATOM     25  H1  UNL     1       3.355   3.201   1.325  1.00  0.00     0.219 HD
ENDBRANCH   2  24
TORSDOF 7
