REMARK  2 active torsions:
REMARK  status: ('A' for Active; 'I' for Inactive)
REMARK    1  A    between atoms: N1_1  and  C1_5 
REMARK    2  A    between atoms: C6_10  and  O1_11 
ROOT
HETATM    1  C1  UNL     1       0.922  -0.261   0.203  1.00  0.00     0.212 C 
HETATM    2  C2  UNL     1       0.847   1.176  -0.214  1.00  0.00     0.035 C 
HETATM    3  C3  UNL     1      -0.520   1.695   0.204  1.00  0.00     0.002 C 
HETATM    4  C4  UNL     1      -1.504   0.601   0.459  1.00  0.00     0.003 C 
HETATM    5  C5  UNL     1      -1.404  -0.548  -0.504  1.00  0.00     0.034 C 
HETATM    6  C6  UNL     1       0.001  -1.067  -0.665  1.00  0.00     0.148 C 
ENDROOT
BRANCH   1   7
HETATM    7  N1  UNL     1       2.261  -0.728   0.248  1.00  0.00    -0.073 N 
ATOM      8  H13 UNL     1       2.738  -0.574  -0.640  1.00  0.00     0.274 HD
ATOM      9  H12 UNL     1       2.840  -0.138   0.845  1.00  0.00     0.274 HD
ATOM     10  H11 UNL     1       2.312  -1.706   0.532  1.00  0.00     0.274 HD
ENDBRANCH   1   7
BRANCH   6  11
HETATM   11  O1  UNL     1       0.027  -2.384  -0.146  1.00  0.00    -0.393 OA
ATOM     12  H1  UNL     1      -0.556  -2.894  -0.696  1.00  0.00     0.210 HD
ENDBRANCH   6  11
TORSDOF 2
