REMARK  0 active torsions:
REMARK  status: ('A' for Active; 'I' for Inactive)
ROOT
HETATM    1  C1  UNL     1      -2.089   0.884   0.051  1.00  0.00     0.040 C 
HETATM    2  C2  UNL     1      -0.803   0.274  -0.352  1.00  0.00     0.183 C 
HETATM    3  C3  UNL     1      -0.581  -1.122   0.174  1.00  0.00     0.035 C 
HETATM    4  C4  UNL     1       0.929  -1.271  -0.043  1.00  0.00     0.047 C 
HETATM    5  C5  UNL     1       1.424   0.129  -0.377  1.00  0.00     0.258 C 
HETATM    6  S1  UNL     1       3.024   0.435   0.354  1.00  0.00    -0.062 SA
HETATM    7  N1  UNL     1       0.366   0.967   0.214  1.00  0.00    -0.058 N 
ATOM      8  H11 UNL     1       0.384   1.073   1.228  1.00  0.00     0.279 HD
ATOM      9  H12 UNL     1       0.429   1.970   0.037  1.00  0.00     0.279 HD
ENDROOT
TORSDOF 0
