REMARK  4 active torsions:
REMARK  status: ('A' for Active; 'I' for Inactive)
REMARK    1  A    between atoms: S1_2  and  C2_3 
REMARK    2  A    between atoms: C6_8  and  C7_9 
REMARK    3  A    between atoms: C7_9  and  O2_10 
REMARK    4  A    between atoms: C8_12  and  C10_14 
ROOT
HETATM    1  C2  UNL     1       2.302   0.780   0.668  1.00  0.00     0.015 C 
HETATM    2  C3  UNL     1       1.670   2.119   0.448  1.00  0.00     0.050 C 
HETATM    3  C4  UNL     1       0.478   1.943  -0.428  1.00  0.00     0.008 C 
HETATM    4  C5  UNL     1      -0.389   0.941  -0.195  1.00  0.00     0.052 C 
HETATM    5  O1  UNL     1      -1.454   0.880  -1.072  1.00  0.00    -0.346 OA
HETATM    6  C6  UNL     1      -2.272  -0.237  -1.453  1.00  0.00     0.170 C 
HETATM    7  C8  UNL     1      -3.172  -0.684  -0.370  1.00  0.00     0.073 C 
HETATM    8  C9  UNL     1      -3.590  -2.126  -0.518  1.00  0.00     0.029 C 
HETATM    9  C11 UNL     1      -2.414  -0.615   0.955  1.00  0.00     0.024 C 
HETATM   10  C12 UNL     1      -1.016  -1.154   0.881  1.00  0.00     0.018 C 
HETATM   11  C13 UNL     1      -0.092   0.029   0.971  1.00  0.00     0.010 C 
HETATM   12  C14 UNL     1      -0.363   0.709   2.296  1.00  0.00     0.023 C 
HETATM   13  C15 UNL     1       1.377  -0.343   0.947  1.00  0.00     0.019 C 
HETATM   14  C16 UNL     1       1.638  -1.485  -0.021  1.00  0.00     0.007 C 
HETATM   15  C17 UNL     1       3.098  -1.873   0.082  1.00  0.00     0.001 C 
HETATM   16  C18 UNL     1       4.005  -0.749  -0.365  1.00  0.00     0.002 C 
HETATM   17  C19 UNL     1       3.146   0.468  -0.566  1.00  0.00     0.021 C 
ENDROOT
BRANCH   7  18
HETATM   18  C10 UNL     1      -4.386   0.157  -0.187  1.00  0.00     0.184 C 
HETATM   19  O3  UNL     1      -4.640   0.775   0.905  1.00  0.00    -0.647 OA
HETATM   20  O4  UNL     1      -5.352   0.352  -1.173  1.00  0.00    -0.647 OA
ENDBRANCH   7  18
BRANCH   6  21
HETATM   21  C7  UNL     1      -2.934   0.172  -2.746  1.00  0.00     0.197 C 
BRANCH  21  22
HETATM   22  O2  UNL     1      -3.765  -0.778  -3.285  1.00  0.00    -0.398 OA
ATOM     23  H2  UNL     1      -4.182  -0.521  -4.099  1.00  0.00     0.209 HD
ENDBRANCH  21  22
ENDBRANCH   6  21
BRANCH   1  24
HETATM   24  S1  UNL     1       3.514   1.037   2.012  1.00  0.00    -0.163 SA
HETATM   25  C1  UNL     1       4.840   2.149   1.519  1.00  0.00     0.090 C 
ENDBRANCH   1  24
TORSDOF 4
