REMARK  7 active torsions:
REMARK  status: ('A' for Active; 'I' for Inactive)
REMARK    1  A    between atoms: O1_3  and  C3_4 
REMARK       I    between atoms: C3_4  and  N1_6 
REMARK    2  A    between atoms: N1_6  and  C4_8 
REMARK    3  A    between atoms: C4_8  and  C5_9 
REMARK    4  A    between atoms: C4_8  and  C11_20 
REMARK    5  A    between atoms: C5_9  and  O3_10 
REMARK    6  A    between atoms: C5_9  and  N2_12 
REMARK    7  A    between atoms: C9_16  and  C10_17 
ROOT
HETATM    1  C1  UNL     1       5.599   3.239  -1.730  1.00  0.00     0.045 C 
HETATM    2  C2  UNL     1       4.805   2.333  -1.815  1.00  0.00     0.054 C 
HETATM    3  O1  UNL     1       3.918   1.284  -1.907  1.00  0.00    -0.209 OA
ENDROOT
BRANCH   3   4
HETATM    4  C3  UNL     1       2.919   1.176  -0.959  1.00  0.00     0.374 C 
HETATM    5  O2  UNL     1       2.831   2.019  -0.041  1.00  0.00    -0.237 OA
HETATM    6  N1  UNL     1       2.008   0.097  -1.054  1.00  0.00    -0.326 N 
ATOM      7  H1  UNL     1       2.110  -0.572  -1.817  1.00  0.00     0.165 HD
BRANCH   6   8
HETATM    8  C4  UNL     1       0.911  -0.087  -0.076  1.00  0.00     0.153 C 
BRANCH   8   9
HETATM    9  C5  UNL     1      -0.416  -0.012  -0.781  1.00  0.00     0.381 C 
BRANCH   9  10
HETATM   10  O3  UNL     1      -0.409   1.278  -1.393  1.00  0.00    -0.366 OA
ATOM     11  H3  UNL     1      -1.247   1.325  -1.838  1.00  0.00     0.212 HD
ENDBRANCH   9  10
BRANCH   9  12
HETATM   12  N2  UNL     1      -1.546   0.010   0.109  1.00  0.00     0.134 N 
HETATM   13  C6  UNL     1      -1.626   1.142   0.971  1.00  0.00     0.277 C 
HETATM   14  C7  UNL     1      -2.893   1.882   0.618  1.00  0.00     0.033 C 
HETATM   15  C8  UNL     1      -3.300   1.255  -0.692  1.00  0.00     0.049 C 
HETATM   16  C9  UNL     1      -2.819  -0.174  -0.507  1.00  0.00     0.326 C 
BRANCH  16  17
HETATM   17  C10 UNL     1      -3.775  -0.853   0.440  1.00  0.00     0.207 C 
HETATM   18  O4  UNL     1      -3.388  -1.135   1.598  1.00  0.00    -0.646 OA
HETATM   19  O5  UNL     1      -5.060  -1.140  -0.022  1.00  0.00    -0.646 OA
ENDBRANCH  16  17
ENDBRANCH   9  12
ENDBRANCH   8   9
BRANCH   8  20
HETATM   20  C11 UNL     1       1.201  -1.359   0.632  1.00  0.00    -0.026 C 
HETATM   21  C12 UNL     1       0.210  -1.763   1.690  1.00  0.00     0.016 C 
HETATM   22  C13 UNL     1       1.404  -2.540  -0.281  1.00  0.00     0.016 C 
HETATM   23  C14 UNL     1       2.533  -1.192   1.382  1.00  0.00     0.016 C 
ENDBRANCH   8  20
ENDBRANCH   6   8
ENDBRANCH   3   4
TORSDOF 7
