REMARK  9 active torsions:
REMARK  status: ('A' for Active; 'I' for Inactive)
REMARK    1  A    between atoms: O1_1  and  C1_3 
REMARK    2  A    between atoms: N1_6  and  C4_7 
REMARK    3  A    between atoms: C7_10  and  C8_11 
REMARK    4  A    between atoms: C8_11  and  O2_12 
REMARK    5  A    between atoms: C8_11  and  C9_14 
REMARK    6  A    between atoms: C8_11  and  C14_24 
REMARK    7  A    between atoms: C10_19  and  C11_20 
REMARK    8  A    between atoms: C14_24  and  O4_25 
REMARK    9  A    between atoms: C14_24  and  C15_27 
ROOT
HETATM    1  C8  UNL     1      -1.960  -1.140   0.369  1.00  0.00     0.177 C 
ENDROOT
BRANCH   1   2
HETATM    2  C7  UNL     1      -0.588  -0.599   0.414  1.00  0.00    -0.013 A 
HETATM    3  C6  UNL     1      -0.115   0.269  -0.541  1.00  0.00     0.013 A 
HETATM    4  C5  UNL     1       1.182   0.726  -0.422  1.00  0.00     0.030 A 
HETATM    5  C4  UNL     1       2.029   0.355   0.610  1.00  0.00     0.030 A 
HETATM    6  C19 UNL     1       1.540  -0.509   1.551  1.00  0.00     0.030 A 
HETATM    7  C18 UNL     1       0.249  -0.971   1.442  1.00  0.00     0.013 A 
BRANCH   5   8
HETATM    8  N1  UNL     1       3.349   0.843   0.731  1.00  0.00    -0.381 N 
HETATM    9  C3  UNL     1       4.364   0.168   1.506  1.00  0.00     0.125 C 
HETATM   10  C2  UNL     1       5.619  -0.088   0.699  1.00  0.00     0.051 C 
HETATM   11  C1  UNL     1       6.010   1.035  -0.199  1.00  0.00     0.121 C 
HETATM   12  C21 UNL     1       4.827   1.669  -0.925  1.00  0.00     0.051 C 
HETATM   13  C20 UNL     1       3.768   2.073   0.091  1.00  0.00     0.125 C 
BRANCH  11  14
HETATM   14  O1  UNL     1       6.841   0.505  -1.208  1.00  0.00    -0.395 OA
ATOM     15  H1  UNL     1       7.090   1.221  -1.781  1.00  0.00     0.210 HD
ENDBRANCH  11  14
ENDBRANCH   5   8
ENDBRANCH   1   2
BRANCH   1  16
HETATM   16  O2  UNL     1      -2.182  -1.868   1.531  1.00  0.00    -0.374 OA
ATOM     17  H2  UNL     1      -3.065  -2.216   1.502  1.00  0.00     0.211 HD
ENDBRANCH   1  16
BRANCH   1  18
HETATM   18  C9  UNL     1      -2.969  -0.013   0.420  1.00  0.00     0.182 A 
HETATM   19  N2  UNL     1      -3.893   0.246   1.354  1.00  0.00    -0.279 N 
HETATM   20  N3  UNL     1      -4.586   1.321   1.044  1.00  0.00    -0.281 N 
ATOM     21  H2  UNL     1      -4.040  -0.315   2.193  1.00  0.00     0.189 HD
HETATM   22  C10 UNL     1      -4.075   1.755  -0.132  1.00  0.00     0.144 A 
ATOM     23  H3  UNL     1      -5.348   1.739   1.578  1.00  0.00     0.189 HD
HETATM   24  O3  UNL     1      -3.120   0.948  -0.479  1.00  0.00    -0.278 OA
BRANCH  22  25
HETATM   25  C11 UNL     1      -4.603   2.972  -0.822  1.00  0.00     0.062 A 
HETATM   26  C12 UNL     1      -5.149   4.098  -0.005  1.00  0.00     0.013 A 
HETATM   27  C13 UNL     1      -6.090   3.210  -0.749  1.00  0.00     0.013 A 
ENDBRANCH  22  25
ENDBRANCH   1  18
BRANCH   1  28
HETATM   28  C14 UNL     1      -2.215  -2.036  -0.789  1.00  0.00     0.169 C 
BRANCH  28  29
HETATM   29  O4  UNL     1      -2.033  -1.428  -2.024  1.00  0.00    -0.391 OA
ATOM     30  H4  UNL     1      -2.196  -2.001  -2.764  1.00  0.00     0.210 HD
ENDBRANCH  28  29
BRANCH  28  31
HETATM   31  C15 UNL     1      -1.425  -3.311  -0.718  1.00  0.00     0.018 A 
HETATM   32  C16 UNL     1      -1.655  -4.223   0.434  1.00  0.00     0.008 A 
HETATM   33  C17 UNL     1      -1.988  -4.641  -0.958  1.00  0.00     0.008 A 
ENDBRANCH  28  31
ENDBRANCH   1  28
TORSDOF 9
