REMARK  10 active torsions:
REMARK  status: ('A' for Active; 'I' for Inactive)
REMARK    1  A    between atoms: O1_2  and  C2_3 
REMARK    2  A    between atoms: C6_7  and  C7_8 
REMARK    3  A    between atoms: C8_9  and  O2_10 
REMARK    4  A    between atoms: C9_13  and  C10_14 
REMARK    5  A    between atoms: C10_14  and  O4_15 
REMARK    6  A    between atoms: C10_14  and  C11_17 
REMARK    7  A    between atoms: C11_17  and  C13_19 
REMARK    8  A    between atoms: C14_20  and  O5_21 
REMARK    9  A    between atoms: C17_25  and  O6_26 
REMARK   10  A    between atoms: C19_28  and  O7_29 
ROOT
HETATM    1  C7  UNL     1       0.092  -0.819  -0.068  1.00  0.00     0.087 C 
HETATM    2  C8  UNL     1       0.901  -1.277   1.117  1.00  0.00     0.272 C 
HETATM    3  O3  UNL     1       2.236  -1.009   0.787  1.00  0.00    -0.321 OA
HETATM    4  C9  UNL     1       2.074   0.334   0.468  1.00  0.00     0.084 C 
HETATM    5  C15 UNL     1       0.994   0.367  -0.536  1.00  0.00     0.054 C 
HETATM    6  C16 UNL     1       1.308   0.211  -1.986  1.00  0.00     0.018 C 
ENDROOT
BRANCH   1   7
HETATM    7  C6  UNL     1      -1.229  -0.297   0.184  1.00  0.00    -0.012 A 
HETATM    8  C5  UNL     1      -1.518   0.816   0.896  1.00  0.00     0.020 A 
HETATM    9  C3  UNL     1      -2.811   1.378   0.908  1.00  0.00    -0.025 A 
HETATM   10  C2  UNL     1      -3.811   0.778   0.182  1.00  0.00     0.110 A 
HETATM   11  C4  UNL     1      -3.003   2.629   1.684  1.00  0.00     0.051 C 
HETATM   12  C19 UNL     1      -3.550  -0.380  -0.566  1.00  0.00     0.136 A 
HETATM   13  C17 UNL     1      -2.291  -0.869  -0.543  1.00  0.00     0.111 A 
BRANCH  10  14
HETATM   14  O1  UNL     1      -5.095   1.276   0.163  1.00  0.00    -0.352 OA
HETATM   15  C1  UNL     1      -5.573   2.187  -0.817  1.00  0.00     0.210 C 
ENDBRANCH  10  14
BRANCH  12  16
HETATM   16  O7  UNL     1      -4.597  -0.926  -1.269  1.00  0.00    -0.351 OA
HETATM   17  C20 UNL     1      -5.452  -1.917  -0.717  1.00  0.00     0.210 C 
ENDBRANCH  12  16
BRANCH  13  18
HETATM   18  O6  UNL     1      -2.021  -2.042  -1.299  1.00  0.00    -0.352 OA
HETATM   19  C18 UNL     1      -2.129  -3.289  -0.581  1.00  0.00     0.210 C 
ENDBRANCH  13  18
ENDBRANCH   1   7
BRANCH   2  20
HETATM   20  O2  UNL     1       0.589  -0.772   2.332  1.00  0.00    -0.370 OA
ATOM     21  H2  UNL     1       1.099  -1.061   3.079  1.00  0.00     0.212 HD
ENDBRANCH   2  20
BRANCH   4  22
HETATM   22  C10 UNL     1       3.272   1.162   0.383  1.00  0.00     0.080 C 
BRANCH  22  23
HETATM   23  O4  UNL     1       2.948   2.454   0.019  1.00  0.00    -0.362 OA
ATOM     24  H4  UNL     1       3.728   2.993  -0.036  1.00  0.00     0.217 HD
ENDBRANCH  22  23
BRANCH  22  25
HETATM   25  C11 UNL     1       4.519   0.605  -0.230  1.00  0.00     0.065 C 
HETATM   26  C12 UNL     1       5.640   1.667  -0.182  1.00  0.00     0.021 C 
BRANCH  25  27
HETATM   27  C13 UNL     1       5.090  -0.542   0.553  1.00  0.00     0.008 C 
HETATM   28  C14 UNL     1       5.242  -1.685  -0.023  1.00  0.00     0.128 C 
BRANCH  28  29
HETATM   29  O5  UNL     1       5.790  -2.792   0.687  1.00  0.00    -0.373 OA
ATOM     30  H5  UNL     1       5.902  -3.634   0.262  1.00  0.00     0.216 HD
ENDBRANCH  28  29
ENDBRANCH  25  27
ENDBRANCH  22  25
ENDBRANCH   4  22
TORSDOF 10
