REMARK  9 active torsions:
REMARK  status: ('A' for Active; 'I' for Inactive)
REMARK    1  A    between atoms: C2_2  and  C3_3 
REMARK    2  A    between atoms: C3_3  and  O1_4 
REMARK    3  A    between atoms: C3_3  and  C17_27 
REMARK    4  A    between atoms: O1_4  and  C4_5 
REMARK    5  A    between atoms: C5_6  and  O2_7 
REMARK    6  A    between atoms: C7_10  and  O3_11 
REMARK    7  A    between atoms: C8_13  and  O4_14 
REMARK    8  A    between atoms: O4_14  and  C9_15 
REMARK    9  A    between atoms: C11_18  and  C12_19 
ROOT
HETATM    1  C4  UNL     1       0.361  -0.947  -0.684  1.00  0.00     0.162 C 
HETATM    2  C5  UNL     1       0.166  -2.499  -0.619  1.00  0.00     0.150 C 
HETATM    3  C6  UNL     1      -0.531  -2.905   0.623  1.00  0.00     0.068 C 
HETATM    4  C7  UNL     1      -1.428  -1.791   1.100  1.00  0.00     0.151 C 
HETATM    5  C8  UNL     1      -2.015  -1.013  -0.078  1.00  0.00     0.171 C 
HETATM    6  C11 UNL     1      -0.999  -0.415  -0.982  1.00  0.00     0.083 C 
ENDROOT
BRANCH   1   7
HETATM    7  O1  UNL     1       1.039  -0.511   0.399  1.00  0.00    -0.377 OA
BRANCH   7   8
HETATM    8  C3  UNL     1       2.401  -0.398   0.136  1.00  0.00     0.126 C 
BRANCH   8   9
HETATM    9  C2  UNL     1       3.070  -1.438   1.058  1.00  0.00     0.028 C 
HETATM   10  C1  UNL     1       2.804  -1.198   2.500  1.00  0.00     0.007 C 
ENDBRANCH   8   9
BRANCH   8  11
HETATM   11  C17 UNL     1       2.919   0.952   0.443  1.00  0.00     0.015 C 
HETATM   12  C18 UNL     1       2.438   2.114  -0.357  1.00  0.00     0.007 C 
HETATM   13  C19 UNL     1       3.857   2.689  -0.256  1.00  0.00     0.001 C 
HETATM   14  C20 UNL     1       4.316   1.256  -0.081  1.00  0.00     0.007 C 
ENDBRANCH   8  11
ENDBRANCH   7   8
ENDBRANCH   1   7
BRANCH   2  15
HETATM   15  O2  UNL     1      -0.645  -2.809  -1.715  1.00  0.00    -0.393 OA
ATOM     16  H2  UNL     1      -0.763  -3.751  -1.676  1.00  0.00     0.210 HD
ENDBRANCH   2  15
BRANCH   6  17
HETATM   17  C12 UNL     1      -1.128   1.061  -1.017  1.00  0.00    -0.032 A 
HETATM   18  C13 UNL     1      -1.068   1.755  -2.234  1.00  0.00     0.095 A 
HETATM   19  N1  UNL     1      -1.198   3.085  -2.327  1.00  0.00    -0.373 N 
HETATM   20  C14 UNL     1      -1.398   3.857  -1.259  1.00  0.00     0.114 A 
ATOM     21  H1  UNL     1      -1.142   3.522  -3.247  1.00  0.00     0.164 HD
HETATM   22  C15 UNL     1      -1.463   3.202  -0.033  1.00  0.00     0.062 A 
HETATM   23  N2  UNL     1      -1.679   4.052   1.105  1.00  0.00    -0.101 NA
HETATM   24  C16 UNL     1      -1.331   1.842   0.080  1.00  0.00     0.037 A 
ENDBRANCH   6  17
BRANCH   5  25
HETATM   25  O4  UNL     1      -3.027  -1.754  -0.600  1.00  0.00    -0.313 OA
BRANCH  25  26
HETATM   26  C9  UNL     1      -4.349  -1.458  -0.474  1.00  0.00     0.255 C 
HETATM   27  C10 UNL     1      -5.499  -2.214  -1.013  1.00  0.00     0.126 C 
HETATM   28  O5  UNL     1      -4.563  -0.423   0.178  1.00  0.00    -0.266 OA
ENDBRANCH  25  26
ENDBRANCH   5  25
BRANCH   4  29
HETATM   29  O3  UNL     1      -2.476  -2.351   1.851  1.00  0.00    -0.393 OA
ATOM     30  H3  UNL     1      -3.041  -1.649   2.152  1.00  0.00     0.210 HD
ENDBRANCH   4  29
TORSDOF 9
