REMARK  10 active torsions:
REMARK  status: ('A' for Active; 'I' for Inactive)
REMARK    1  A    between atoms: N1_1  and  C1_4 
REMARK    2  A    between atoms: C1_4  and  N2_5 
REMARK    3  A    between atoms: C1_4  and  O1_12 
REMARK    4  A    between atoms: N2_5  and  C2_7 
REMARK    5  A    between atoms: O1_12  and  C7_13 
REMARK    6  A    between atoms: N3_15  and  C9_16 
REMARK    7  A    between atoms: C11_22  and  N6_23 
REMARK    8  A    between atoms: C12_26  and  O2_27 
REMARK    9  A    between atoms: O2_27  and  C13_28 
REMARK   10  A    between atoms: C13_28  and  C14_29 
ROOT
HETATM    1  C9  UNL     1       1.629   0.857  -1.332  1.00  0.00     0.142 A 
HETATM    2  N4  UNL     1       1.362   0.836  -2.686  1.00  0.00    -0.336 N 
ATOM      3  H4  UNL     1       0.669   0.173  -3.033  1.00  0.00     0.168 HD
HETATM    4  C10 UNL     1       1.962   1.635  -3.559  1.00  0.00     0.183 A 
HETATM    5  N5  UNL     1       2.863   2.495  -3.093  1.00  0.00    -0.337 N 
ATOM      6  H5  UNL     1       3.322   3.110  -3.766  1.00  0.00     0.168 HD
HETATM    7  C11 UNL     1       3.214   2.614  -1.800  1.00  0.00     0.137 A 
HETATM    8  C12 UNL     1       2.560   1.746  -0.889  1.00  0.00     0.157 A 
ENDROOT
BRANCH   1   9
HETATM    9  N3  UNL     1       0.860   0.031  -0.490  1.00  0.00    -0.360 N 
HETATM   10  C8  UNL     1      -0.609   0.215  -0.220  1.00  0.00     0.159 C 
HETATM   11  C7  UNL     1      -0.627  -1.323  -0.154  1.00  0.00     0.168 C 
HETATM   12  C18 UNL     1       0.755  -1.100   0.377  1.00  0.00     0.159 C 
BRANCH  11  13
HETATM   13  O1  UNL     1      -1.620  -1.763   0.717  1.00  0.00    -0.314 OA
BRANCH  13  14
HETATM   14  C1  UNL     1      -2.943  -1.426   0.404  1.00  0.00     0.213 C 
BRANCH  14  15
HETATM   15  N1  UNL     1      -3.230  -1.330  -0.846  1.00  0.00    -0.365 N 
ATOM     16  H12 UNL     1      -4.193  -1.085  -1.074  1.00  0.00     0.159 HD
ATOM     17  H11 UNL     1      -2.498  -1.499  -1.536  1.00  0.00     0.159 HD
ENDBRANCH  14  15
BRANCH  14  18
HETATM   18  N2  UNL     1      -3.953  -1.192   1.357  1.00  0.00    -0.352 N 
ATOM     19  H2  UNL     1      -3.752  -1.453   2.322  1.00  0.00     0.163 HD
BRANCH  18  20
HETATM   20  C2  UNL     1      -5.241  -0.617   1.087  1.00  0.00     0.085 C 
HETATM   21  C3  UNL     1      -5.187   0.739   0.450  1.00  0.00     0.025 C 
HETATM   22  C4  UNL     1      -6.562   0.914  -0.145  1.00  0.00     0.002 C 
HETATM   23  C5  UNL     1      -7.182  -0.439  -0.252  1.00  0.00     0.002 C 
HETATM   24  C6  UNL     1      -6.146  -1.446   0.238  1.00  0.00     0.025 C 
ENDBRANCH  18  20
ENDBRANCH  14  18
ENDBRANCH  13  14
ENDBRANCH  11  13
ENDBRANCH   1   9
BRANCH   8  25
HETATM   25  O2  UNL     1       2.937   1.866   0.402  1.00  0.00    -0.342 OA
BRANCH  25  26
HETATM   26  C13 UNL     1       3.990   1.403   1.149  1.00  0.00     0.207 C 
BRANCH  26  27
HETATM   27  C14 UNL     1       4.252  -0.070   1.279  1.00  0.00     0.145 C 
HETATM   28  C15 UNL     1       4.594  -0.770   0.019  1.00  0.00     0.036 C 
HETATM   29  C16 UNL     1       6.103  -0.988   0.096  1.00  0.00     0.029 C 
HETATM   30  C17 UNL     1       6.259  -1.061   1.600  1.00  0.00     0.168 C 
HETATM   31  O3  UNL     1       5.359  -0.188   2.135  1.00  0.00    -0.384 OA
ENDBRANCH  26  27
ENDBRANCH  25  26
ENDBRANCH   8  25
BRANCH   7  32
HETATM   32  N6  UNL     1       4.078   3.478  -1.412  1.00  0.00    -0.383 N 
ATOM     33  H62 UNL     1       4.548   4.102  -2.067  1.00  0.00     0.157 HD
ATOM     34  H61 UNL     1       4.344   3.568  -0.431  1.00  0.00     0.157 HD
ENDBRANCH   7  32
TORSDOF 10
