REMARK  3 active torsions:
REMARK  status: ('A' for Active; 'I' for Inactive)
REMARK       I    between atoms: C1_4  and  N2_5 
REMARK       I    between atoms: C1_4  and  N6_16 
REMARK    1  A    between atoms: N2_5  and  C2_7 
REMARK    2  A    between atoms: N4_11  and  O1_12 
REMARK    3  A    between atoms: N6_16  and  N7_18 
ROOT
HETATM    1  N1  UNL     1       0.904   0.346   1.920  1.00  0.00    -0.233 N 
ATOM      2  H11 UNL     1       1.454   0.079   2.736  1.00  0.00     0.174 HD
ATOM      3  H12 UNL     1       0.045   0.878   2.057  1.00  0.00     0.174 HD
HETATM    4  C1  UNL     1       1.351  -0.018   0.768  1.00  0.00     0.698 C 
HETATM    5  N2  UNL     1       0.586   0.354  -0.368  1.00  0.00    -0.159 N 
ATOM      6  H2  UNL     1       1.011   0.748  -1.208  1.00  0.00     0.187 HD
HETATM    7  N6  UNL     1       2.546  -0.758   0.577  1.00  0.00    -0.072 N 
ATOM      8  H6  UNL     1       2.599  -1.738   0.856  1.00  0.00     0.212 HD
ENDROOT
BRANCH   5   9
HETATM    9  C2  UNL     1      -0.845   0.134  -0.249  1.00  0.00     0.207 C 
HETATM   10  N3  UNL     1      -1.424  -0.986  -0.373  1.00  0.00    -0.345 N 
HETATM   11  C3  UNL     1      -2.832  -0.829  -0.195  1.00  0.00     0.269 C 
ATOM     12  H3  UNL     1      -0.954  -1.869  -0.571  1.00  0.00     0.164 HD
HETATM   13  N4  UNL     1      -2.958   0.433   0.480  1.00  0.00    -0.087 NA
HETATM   14  N5  UNL     1      -1.808   1.132   0.024  1.00  0.00    -0.265 N 
ATOM     15  H5  UNL     1      -1.700   2.141  -0.084  1.00  0.00     0.186 HD
BRANCH  13  16
HETATM   16  O1  UNL     1      -4.071   1.084   0.030  1.00  0.00    -0.292 OA
ATOM     17  H1  UNL     1      -4.154   1.918   0.476  1.00  0.00     0.239 HD
ENDBRANCH  13  16
ENDBRANCH   5   9
BRANCH   7  18
HETATM   18  N7  UNL     1       3.639  -0.129   0.005  1.00  0.00    -0.024 N 
HETATM   19  O2  UNL     1       4.747  -0.716   0.036  1.00  0.00    -0.516 OA
HETATM   20  O3  UNL     1       3.534   1.095  -0.580  1.00  0.00    -0.516 OA
ENDBRANCH   7  18
TORSDOF 3
