REMARK  2 active torsions:
REMARK  status: ('A' for Active; 'I' for Inactive)
REMARK    1  A    between atoms: C4_6  and  N3_7 
REMARK    2  A    between atoms: C5_12  and  N5_13 
REMARK       I    between atoms: N5_13  and  C6_15 
REMARK       I    between atoms: C6_15  and  N6_16 
REMARK       I    between atoms: C6_15  and  N7_20 
ROOT
HETATM    1  C1  UNL     1      -0.094   2.638  -0.083  1.00  0.00     0.175 C 
HETATM    2  N1  UNL     1       0.486   1.305   0.033  1.00  0.00    -0.196 N 
HETATM    3  C2  UNL     1       1.836   1.231   0.052  1.00  0.00     0.139 A 
HETATM    4  C3  UNL     1       2.444  -0.008   0.161  1.00  0.00     0.106 A 
HETATM    5  N2  UNL     1       3.856  -0.092   0.181  1.00  0.00    -0.097 NA
HETATM    6  C4  UNL     1       1.678  -1.125   0.247  1.00  0.00     0.140 A 
HETATM    7  N4  UNL     1       0.327  -0.986   0.223  1.00  0.00    -0.175 N 
ATOM      8  H4  UNL     1      -0.253  -1.822   0.288  1.00  0.00     0.186 HD
HETATM    9  C5  UNL     1      -0.271   0.205   0.118  1.00  0.00     0.684 A 
ENDROOT
BRANCH   9  10
HETATM   10  N5  UNL     1      -1.527   0.305   0.098  1.00  0.00    -0.173 N 
HETATM   11  C6  UNL     1      -2.471  -0.775   0.180  1.00  0.00     0.494 C 
HETATM   12  N6  UNL     1      -2.435  -1.614  -1.016  1.00  0.00    -0.032 N 
HETATM   13  N7  UNL     1      -3.806  -0.152   0.160  1.00  0.00    -0.032 N 
ATOM     14  H63 UNL     1      -2.573  -1.062  -1.862  1.00  0.00     0.278 HD
ATOM     15  H62 UNL     1      -1.492  -1.957  -1.202  1.00  0.00     0.278 HD
ATOM     16  H61 UNL     1      -3.105  -2.381  -0.958  1.00  0.00     0.278 HD
ATOM     17  H73 UNL     1      -3.935   0.556   0.883  1.00  0.00     0.278 HD
ATOM     18  H72 UNL     1      -3.957   0.460  -0.642  1.00  0.00     0.278 HD
ATOM     19  H71 UNL     1      -4.476  -0.919   0.218  1.00  0.00     0.278 HD
ATOM     20  H5  UNL     1      -1.912   1.246   0.015  1.00  0.00     0.181 HD
ENDBRANCH   9  10
BRANCH   6  21
HETATM   21  N3  UNL     1       2.258  -2.274   0.348  1.00  0.00    -0.383 N 
ATOM     22  H32 UNL     1       3.272  -2.378   0.366  1.00  0.00     0.157 HD
ATOM     23  H31 UNL     1       1.682  -3.114   0.413  1.00  0.00     0.157 HD
ENDBRANCH   6  21
TORSDOF 2
