REMARK  6 active torsions:
REMARK  status: ('A' for Active; 'I' for Inactive)
REMARK    1  A    between atoms: C2_2  and  C3_3 
REMARK    2  A    between atoms: C4_6  and  S1_7 
REMARK    3  A    between atoms: S1_7  and  C5_8 
REMARK    4  A    between atoms: C5_8  and  C7_10 
REMARK    5  A    between atoms: N3_15  and  C8_16 
REMARK       I    between atoms: N4_19  and  C11_20 
REMARK    6  A    between atoms: C11_20  and  C12_22 
ROOT
HETATM    1  C3  UNL     1      -3.050   1.763   0.041  1.00  0.00     0.100 A 
HETATM    2  N1  UNL     1      -4.346   1.377   0.139  1.00  0.00    -0.324 N 
ATOM      3  H1  UNL     1      -5.167   1.892  -0.179  1.00  0.00     0.169 HD
HETATM    4  C4  UNL     1      -4.325   0.187   0.736  1.00  0.00     0.161 A 
HETATM    5  N2  UNL     1      -3.072  -0.128   0.986  1.00  0.00    -0.276 N 
ATOM      6  H2  UNL     1      -2.776  -0.992   1.441  1.00  0.00     0.189 HD
HETATM    7  N3  UNL     1      -2.247   0.815   0.574  1.00  0.00    -0.273 N 
ENDROOT
BRANCH   7   8
HETATM    8  C8  UNL     1      -0.824   0.782   0.697  1.00  0.00     0.113 C 
HETATM    9  C9  UNL     1      -0.075   0.969  -0.574  1.00  0.00     0.047 C 
HETATM   10  C10 UNL     1       1.059  -0.035  -0.781  1.00  0.00     0.128 C 
HETATM   11  N4  UNL     1       1.792  -0.334   0.399  1.00  0.00    -0.352 N 
HETATM   12  C11 UNL     1       3.197  -0.488   0.492  1.00  0.00     0.224 C 
HETATM   13  C18 UNL     1       1.033  -0.507   1.650  1.00  0.00     0.128 C 
HETATM   14  O3  UNL     1       3.722  -0.754   1.636  1.00  0.00    -0.273 OA
HETATM   15  C19 UNL     1      -0.407  -0.579   1.264  1.00  0.00     0.047 C 
BRANCH  12  16
HETATM   16  C12 UNL     1       4.162  -0.376  -0.609  1.00  0.00     0.078 C 
HETATM   17  C13 UNL     1       4.923  -1.660  -0.850  1.00  0.00     0.014 C 
HETATM   18  C14 UNL     1       5.974  -1.937   0.174  1.00  0.00     0.001 C 
HETATM   19  C15 UNL     1       6.897  -0.780   0.433  1.00  0.00     0.000 C 
HETATM   20  C16 UNL     1       6.580   0.297  -0.571  1.00  0.00     0.001 C 
HETATM   21  C17 UNL     1       5.153   0.732  -0.326  1.00  0.00     0.014 C 
ENDBRANCH  12  16
ENDBRANCH   7   8
BRANCH   1  22
HETATM   22  C2  UNL     1      -2.616   3.034  -0.561  1.00  0.00     0.073 C 
HETATM   23  C1  UNL     1      -2.541   4.158   0.481  1.00  0.00     0.013 C 
ENDBRANCH   1  22
BRANCH   4  24
HETATM   24  S1  UNL     1      -5.749  -0.807   1.129  1.00  0.00    -0.077 SA
BRANCH  24  25
HETATM   25  C5  UNL     1      -6.147  -1.911  -0.254  1.00  0.00     0.152 C 
HETATM   26  C6  UNL     1      -6.599  -1.133  -1.467  1.00  0.00     0.033 C 
BRANCH  25  27
HETATM   27  C7  UNL     1      -7.253  -2.800   0.187  1.00  0.00     0.187 C 
HETATM   28  O1  UNL     1      -7.147  -4.035   0.226  1.00  0.00    -0.647 OA
HETATM   29  O2  UNL     1      -8.445  -2.171   0.566  1.00  0.00    -0.647 OA
ENDBRANCH  25  27
ENDBRANCH  24  25
ENDBRANCH   4  24
TORSDOF 6
