REMARK  9 active torsions:
REMARK  status: ('A' for Active; 'I' for Inactive)
REMARK    1  A    between atoms: C2_2  and  N1_3 
REMARK    2  A    between atoms: N1_3  and  C3_4 
REMARK    3  A    between atoms: N1_3  and  C5_6 
REMARK    4  A    between atoms: N6_20  and  C10_21 
REMARK    5  A    between atoms: C11_22  and  O1_23 
REMARK    6  A    between atoms: C11_22  and  C12_25 
REMARK    7  A    between atoms: C13_26  and  C14_27 
REMARK    8  A    between atoms: C14_27  and  O2_28 
REMARK    9  A    between atoms: C16_30  and  N7_31 
ROOT
HETATM    1  C10 UNL     1       1.325  -0.452   0.345  1.00  0.00     0.155 A 
HETATM    2  C11 UNL     1       2.238  -0.031  -0.775  1.00  0.00     0.190 A 
HETATM    3  C16 UNL     1       2.727  -1.479  -0.830  1.00  0.00     0.263 A 
HETATM    4  C17 UNL     1       2.619  -2.145  -2.095  1.00  0.00     0.104 C 
HETATM    5  N8  UNL     1       2.510  -2.683  -3.118  1.00  0.00    -0.194 NA
HETATM    6  C18 UNL     1       1.779  -1.833   0.255  1.00  0.00     0.035 A 
HETATM    7  C19 UNL     1       2.584  -2.395   1.453  1.00  0.00     0.015 C 
HETATM    8  C20 UNL     1       1.500  -3.396   1.711  1.00  0.00     0.002 C 
HETATM    9  C21 UNL     1       1.011  -3.034   0.303  1.00  0.00     0.015 C 
ENDROOT
BRANCH   3  10
HETATM   10  N7  UNL     1       4.144  -1.527  -0.419  1.00  0.00    -0.052 N 
ATOM     11  H73 UNL     1       4.729  -0.899  -0.970  1.00  0.00     0.276 HD
ATOM     12  H72 UNL     1       4.297  -1.101   0.495  1.00  0.00     0.276 HD
ATOM     13  H71 UNL     1       4.470  -2.493  -0.456  1.00  0.00     0.276 HD
ENDBRANCH   3  10
BRANCH   2  14
HETATM   14  O1  UNL     1       1.689   0.484  -1.914  1.00  0.00    -0.372 OA
ATOM     15  H1  UNL     1       2.265   0.750  -2.621  1.00  0.00     0.212 HD
ENDBRANCH   2  14
BRANCH   2  16
HETATM   16  C12 UNL     1       3.329   0.908  -0.376  1.00  0.00    -0.060 C 
HETATM   17  C13 UNL     1       4.216   1.651  -0.037  1.00  0.00    -0.077 C 
BRANCH  17  18
HETATM   18  C14 UNL     1       5.312   2.537   0.366  1.00  0.00     0.260 C 
BRANCH  18  19
HETATM   19  O2  UNL     1       6.193   2.591  -0.700  1.00  0.00    -0.384 OA
HETATM   20  C15 UNL     1       7.272   3.413  -0.404  1.00  0.00     0.202 C 
ENDBRANCH  18  19
ENDBRANCH  17  18
ENDBRANCH   2  16
BRANCH   1  21
HETATM   21  N6  UNL     1      -0.021  -0.021   0.385  1.00  0.00    -0.317 N 
HETATM   22  C7  UNL     1      -1.089  -0.225  -0.421  1.00  0.00     0.155 A 
HETATM   23  N4  UNL     1      -1.198  -0.933  -1.538  1.00  0.00    -0.174 N 
HETATM   24  C8  UNL     1      -2.221   0.421   0.046  1.00  0.00     0.123 A 
HETATM   25  C6  UNL     1      -2.352  -1.035  -2.211  1.00  0.00     0.679 A 
ATOM     26  H4  UNL     1      -0.375  -1.416  -1.897  1.00  0.00     0.186 HD
HETATM   27  N2  UNL     1      -3.438  -0.410  -1.755  1.00  0.00    -0.175 N 
HETATM   28  N3  UNL     1      -2.408  -1.754  -3.321  1.00  0.00    -0.234 N 
HETATM   29  C5  UNL     1      -3.428   0.341  -0.618  1.00  0.00     0.150 A 
ATOM     30  H2  UNL     1      -4.310  -0.497  -2.277  1.00  0.00     0.186 HD
ATOM     31  H32 UNL     1      -3.287  -1.832  -3.833  1.00  0.00     0.174 HD
ATOM     32  H31 UNL     1      -1.577  -2.232  -3.670  1.00  0.00     0.174 HD
HETATM   33  N5  UNL     1      -1.831   1.028   1.158  1.00  0.00    -0.346 N 
HETATM   34  C9  UNL     1      -0.561   0.779   1.362  1.00  0.00     0.185 A 
ATOM     35  H5  UNL     1      -2.425   1.598   1.759  1.00  0.00     0.167 HD
BRANCH  29  36
HETATM   36  N1  UNL     1      -4.606   0.995  -0.199  1.00  0.00    -0.366 N 
BRANCH  36  37
HETATM   37  C2  UNL     1      -5.851   0.546  -0.782  1.00  0.00     0.120 C 
HETATM   38  C1  UNL     1      -6.695  -0.149   0.242  1.00  0.00     0.026 C 
ENDBRANCH  36  37
BRANCH  36  39
HETATM   39  C3  UNL     1      -4.595   2.062   0.749  1.00  0.00     0.120 C 
HETATM   40  C4  UNL     1      -5.160   1.754   2.102  1.00  0.00     0.026 C 
ENDBRANCH  36  39
ENDBRANCH  29  36
ENDBRANCH   1  21
TORSDOF 9
