REMARK  8 active torsions:
REMARK  status: ('A' for Active; 'I' for Inactive)
REMARK    1  A    between atoms: C2_2  and  C3_3 
REMARK    2  A    between atoms: C2_2  and  N3_21 
REMARK    3  A    between atoms: C3_3  and  O1_4 
REMARK    4  A    between atoms: O1_4  and  C4_5 
REMARK       I    between atoms: C4_5  and  N1_7 
REMARK    5  A    between atoms: C7_10  and  C8_11 
REMARK    6  A    between atoms: C8_11  and  C9_12 
REMARK    7  A    between atoms: C9_12  and  O3_13 
REMARK    8  A    between atoms: N2_15  and  O4_17 
ROOT
HETATM    1  C4  UNL     1       0.812  -0.844  -0.320  1.00  0.00     0.362 C 
HETATM    2  O2  UNL     1       0.314  -1.502  -1.258  1.00  0.00    -0.238 OA
HETATM    3  N1  UNL     1       2.243  -0.636  -0.378  1.00  0.00    -0.328 N 
HETATM    4  C5  UNL     1       2.826   0.130   0.706  1.00  0.00     0.128 C 
HETATM    5  C6  UNL     1       4.157   0.650   0.140  1.00  0.00     0.025 C 
HETATM    6  C7  UNL     1       4.992  -0.576  -0.109  1.00  0.00    -0.004 C 
HETATM    7  C10 UNL     1       4.424  -1.403  -1.229  1.00  0.00     0.025 C 
HETATM    8  C11 UNL     1       2.963  -1.183  -1.464  1.00  0.00     0.128 C 
ENDROOT
BRANCH   1   9
HETATM    9  O1  UNL     1       0.036  -0.379   0.659  1.00  0.00    -0.302 OA
BRANCH   9  10
HETATM   10  C3  UNL     1      -1.310  -0.447   0.875  1.00  0.00     0.205 C 
BRANCH  10  11
HETATM   11  C2  UNL     1      -2.267   0.301   0.037  1.00  0.00     0.108 C 
HETATM   12  C1  UNL     1      -2.193   0.154  -1.449  1.00  0.00     0.034 C 
BRANCH  11  13
HETATM   13  N3  UNL     1      -3.637   0.124   0.409  1.00  0.00    -0.339 N 
HETATM   14  C12 UNL     1      -4.257  -1.093   0.163  1.00  0.00     0.063 C 
HETATM   15  C13 UNL     1      -5.332  -1.086  -0.891  1.00  0.00     0.044 C 
HETATM   16  C14 UNL     1      -6.062   0.219  -1.000  1.00  0.00     0.006 C 
HETATM   17  C15 UNL     1      -6.665   0.698   0.282  1.00  0.00     0.023 C 
HETATM   18  C16 UNL     1      -5.709   0.808   1.418  1.00  0.00     0.135 C 
HETATM   19 BR1  UNL     1      -6.357   2.220   2.599  1.00  0.00    -0.084 Br
HETATM   20  C17 UNL     1      -4.306   1.167   1.034  1.00  0.00     0.269 C 
HETATM   21  F1  UNL     1      -4.354   2.346   0.283  1.00  0.00    -0.199 F 
HETATM   22 CL1  UNL     1      -3.456   1.603   2.558  1.00  0.00    -0.058 Cl
ENDBRANCH  11  13
ENDBRANCH  10  11
ENDBRANCH   9  10
ENDBRANCH   1   9
BRANCH   6  23
HETATM   23  C8  UNL     1       6.421  -0.128  -0.437  1.00  0.00     0.090 C 
BRANCH  23  24
HETATM   24  C9  UNL     1       6.961   0.638   0.712  1.00  0.00     0.135 C 
HETATM   25  N2  UNL     1       7.328   1.863   0.564  1.00  0.00    -0.251 N 
ATOM     26  H2  UNL     1       7.699   2.390   1.355  1.00  0.00     0.196 HD
BRANCH  24  27
HETATM   27  O3  UNL     1       7.053  -0.008   1.939  1.00  0.00    -0.348 OA
ATOM     28  H3  UNL     1       7.399   0.483   2.675  1.00  0.00     0.219 HD
ENDBRANCH  24  27
BRANCH  25  29
HETATM   29  O4  UNL     1       7.214   2.450  -0.670  1.00  0.00    -0.288 OA
ATOM     30  H4  UNL     1       7.485   3.354  -0.779  1.00  0.00     0.244 HD
ENDBRANCH  25  29
ENDBRANCH  23  24
ENDBRANCH   6  23
TORSDOF 8
