REMARK  9 active torsions:
REMARK  status: ('A' for Active; 'I' for Inactive)
REMARK    1  A    between atoms: C2_2  and  C3_3 
REMARK    2  A    between atoms: C3_3  and  N1_4 
REMARK    3  A    between atoms: N1_4  and  C4_5 
REMARK       I    between atoms: N1_4  and  C7_8 
REMARK    4  A    between atoms: C4_5  and  C5_6 
REMARK       I    between atoms: C7_8  and  N2_10 
REMARK    5  A    between atoms: C9_12  and  C10_13 
REMARK    6  A    between atoms: C10_13  and  C11_14 
REMARK    7  A    between atoms: C11_14  and  O2_15 
REMARK    8  A    between atoms: O2_15  and  C12_16 
REMARK    9  A    between atoms: C16_24  and  N4_25 
ROOT
HETATM    1  N1  UNL     1      -2.657  -1.287  -0.887  1.00  0.00    -0.306 N 
HETATM    2  C7  UNL     1      -2.058  -0.036  -0.835  1.00  0.00     0.333 C 
HETATM    3  O1  UNL     1      -2.789   0.917  -1.329  1.00  0.00    -0.246 OA
HETATM    4  N2  UNL     1      -0.799   0.338  -0.331  1.00  0.00    -0.268 N 
HETATM    5  C8  UNL     1       0.194  -0.467   0.162  1.00  0.00     0.110 A 
HETATM    6  C9  UNL     1       1.283   0.280   0.576  1.00  0.00    -0.022 A 
HETATM    7  C14 UNL     1       0.925   1.565   0.322  1.00  0.00     0.073 A 
HETATM    8  C15 UNL     1       1.730   2.689   0.550  1.00  0.00     0.273 C 
HETATM    9  O4  UNL     1       2.584   2.508   1.419  1.00  0.00    -0.267 OA
HETATM   10  N3  UNL     1       1.681   3.897  -0.048  1.00  0.00    -0.155 N 
ATOM     11  H3  UNL     1       2.422   4.559   0.182  1.00  0.00     0.187 HD
HETATM   12  C16 UNL     1       0.741   4.307  -0.922  1.00  0.00     0.681 C 
HETATM   13  N5  UNL     1      -0.522   3.843  -1.083  1.00  0.00    -0.154 N 
ATOM     14  H5  UNL     1      -1.133   4.389  -1.691  1.00  0.00     0.187 HD
HETATM   15  C17 UNL     1      -1.062   2.730  -0.523  1.00  0.00     0.288 C 
HETATM   16  O5  UNL     1      -2.275   2.737  -0.252  1.00  0.00    -0.265 OA
HETATM   17  C18 UNL     1      -0.352   1.597  -0.228  1.00  0.00     0.128 A 
ENDROOT
BRANCH   1  18
HETATM   18  C3  UNL     1      -4.020  -1.280  -1.519  1.00  0.00     0.159 C 
BRANCH  18  19
HETATM   19  C2  UNL     1      -5.108  -1.053  -0.596  1.00  0.00    -0.017 C 
HETATM   20  C1  UNL     1      -5.935  -0.011  -0.693  1.00  0.00     0.008 C 
ENDBRANCH  18  19
ENDBRANCH   1  18
BRANCH   1  21
HETATM   21  C4  UNL     1      -2.123  -2.518  -0.469  1.00  0.00     0.095 C 
BRANCH  21  22
HETATM   22  C5  UNL     1      -2.267  -2.914   0.938  1.00  0.00     0.007 C 
HETATM   23  C6  UNL     1      -2.804  -2.269   1.929  1.00  0.00     0.012 C 
ENDBRANCH  21  22
ENDBRANCH   1  21
BRANCH   6  24
HETATM   24  C10 UNL     1       2.549  -0.219   1.146  1.00  0.00     0.068 C 
BRANCH  24  25
HETATM   25  C11 UNL     1       3.674  -0.260   0.141  1.00  0.00     0.183 C 
BRANCH  25  26
HETATM   26  O2  UNL     1       4.888  -0.713   0.639  1.00  0.00    -0.321 OA
BRANCH  26  27
HETATM   27  C12 UNL     1       5.184  -1.924   1.186  1.00  0.00     0.254 C 
HETATM   28  C13 UNL     1       6.574  -2.174   1.655  1.00  0.00     0.126 C 
HETATM   29  O3  UNL     1       4.284  -2.778   1.275  1.00  0.00    -0.266 OA
ENDBRANCH  26  27
ENDBRANCH  25  26
ENDBRANCH  24  25
ENDBRANCH   6  24
BRANCH  12  30
HETATM   30  N4  UNL     1       1.116   5.271  -1.692  1.00  0.00    -0.234 N 
ATOM     31  H42 UNL     1       2.067   5.620  -1.571  1.00  0.00     0.174 HD
ATOM     32  H41 UNL     1       0.404   5.581  -2.354  1.00  0.00     0.174 HD
ENDBRANCH  12  30
TORSDOF 9
