REMARK  6 active torsions:
REMARK  status: ('A' for Active; 'I' for Inactive)
REMARK    1  A    between atoms: C5_5  and  C6_6 
REMARK    2  A    between atoms: C6_6  and  C7_7 
REMARK    3  A    between atoms: C6_6  and  C8_10 
REMARK    4  A    between atoms: C7_7  and  O1_8 
REMARK    5  A    between atoms: C9_15  and  N3_16 
REMARK    6  A    between atoms: N4_19  and  O2_20 
ROOT
HETATM    1  C8  UNL     1      -1.334   0.001  -0.153  1.00  0.00     0.177 A 
HETATM    2  N1  UNL     1      -2.110  -1.073   0.020  1.00  0.00    -0.268 N 
ATOM      3  H1  UNL     1      -1.978  -1.967  -0.453  1.00  0.00     0.189 HD
HETATM    4  N2  UNL     1      -3.072  -0.815   0.889  1.00  0.00    -0.129 N 
ATOM      5  H2  UNL     1      -3.800  -1.456   1.203  1.00  0.00     0.205 HD
HETATM    6  C9  UNL     1      -2.900   0.462   1.277  1.00  0.00     0.718 A 
HETATM    7  N4  UNL     1      -1.815   0.981   0.630  1.00  0.00    -0.032 N 
ENDROOT
BRANCH   1   8
HETATM    8  C6  UNL     1      -0.137   0.125  -1.052  1.00  0.00     0.040 C 
BRANCH   8   9
HETATM    9  C5  UNL     1       1.055   0.101  -0.507  1.00  0.00     0.044 A 
HETATM   10  C4  UNL     1       2.278   0.195  -1.108  1.00  0.00     0.032 A 
HETATM   11  C3  UNL     1       3.272   0.120  -0.122  1.00  0.00     0.031 A 
HETATM   12  C2  UNL     1       2.620  -0.019   1.074  1.00  0.00     0.023 A 
HETATM   13  C1  UNL     1       3.216  -0.126   2.266  1.00  0.00     0.043 C 
HETATM   14  N5  UNL     1       1.308  -0.031   0.840  1.00  0.00    -0.356 N 
ATOM     15  H5  UNL     1       0.591  -0.125   1.559  1.00  0.00     0.166 HD
ENDBRANCH   8   9
BRANCH   8  16
HETATM   16  C7  UNL     1      -0.469   0.261  -2.468  1.00  0.00     0.209 C 
BRANCH  16  17
HETATM   17  O1  UNL     1       0.581   0.376  -3.322  1.00  0.00    -0.396 OA
ATOM     18  H1  UNL     1       0.365   0.464  -4.243  1.00  0.00     0.209 HD
ENDBRANCH  16  17
ENDBRANCH   8  16
ENDBRANCH   1   8
BRANCH   7  19
HETATM   19  O2  UNL     1      -1.308   2.264   0.755  1.00  0.00    -0.268 OA
ATOM     20  H2  UNL     1      -1.648   2.957   1.309  1.00  0.00     0.246 HD
ENDBRANCH   7  19
BRANCH   6  21
HETATM   21  N3  UNL     1      -3.642   1.104   2.128  1.00  0.00    -0.231 N 
ATOM     22  H32 UNL     1      -4.452   0.716   2.611  1.00  0.00     0.174 HD
ATOM     23  H31 UNL     1      -3.512   2.072   2.422  1.00  0.00     0.174 HD
ENDBRANCH   6  21
TORSDOF 6
