REMARK  5 active torsions:
REMARK  status: ('A' for Active; 'I' for Inactive)
REMARK    1  A    between atoms: O1_2  and  C2_3 
REMARK    2  A    between atoms: C4_5  and  N1_6 
REMARK    3  A    between atoms: C5_11  and  N3_12 
REMARK       I    between atoms: N3_12  and  C6_14 
REMARK       I    between atoms: C6_14  and  N4_15 
REMARK    4  A    between atoms: N5_17  and  N6_19 
REMARK    5  A    between atoms: N7_22  and  N8_24 
ROOT
HETATM    1  N3  UNL     1       1.650  -0.030   0.342  1.00  0.00    -0.019 N 
ATOM      2  H3  UNL     1       1.961  -0.047   1.313  1.00  0.00     0.203 HD
HETATM    3  C6  UNL     1       2.625   0.022  -0.690  1.00  0.00     0.728 C 
HETATM    4  N4  UNL     1       2.866   1.249  -1.318  1.00  0.00    -0.116 N 
ATOM      5  H4  UNL     1       2.738   1.287  -2.329  1.00  0.00     0.207 HD
HETATM    6  N5  UNL     1       3.227   2.312  -0.744  1.00  0.00    -0.235 N 
ATOM      7  H5  UNL     1       3.366   3.137  -1.328  1.00  0.00     0.208 HD
HETATM    8  N7  UNL     1       3.262  -1.043  -1.025  1.00  0.00    -0.116 N 
ATOM      9  H7  UNL     1       3.957  -0.977  -1.769  1.00  0.00     0.207 HD
ENDROOT
BRANCH   1  10
HETATM   10  C5  UNL     1       0.373  -0.057   0.090  1.00  0.00     0.700 A 
HETATM   11  N2  UNL     1       0.014  -0.033  -1.203  1.00  0.00    -0.176 N 
HETATM   12  C4  UNL     1      -1.301  -0.058  -1.543  1.00  0.00     0.118 A 
ATOM     13  H2  UNL     1       0.728   0.004  -1.930  1.00  0.00     0.186 HD
HETATM   14  C3  UNL     1      -2.219  -0.109  -0.511  1.00  0.00     0.105 A 
HETATM   15  C2  UNL     1      -1.871  -0.134   0.817  1.00  0.00     0.160 A 
HETATM   16  N10 UNL     1      -0.538  -0.107   1.082  1.00  0.00    -0.170 N 
ATOM     17  H10 UNL     1      -0.221  -0.125   2.051  1.00  0.00     0.186 HD
BRANCH  12  18
HETATM   18  N1  UNL     1      -1.654  -0.035  -2.794  1.00  0.00    -0.385 N 
ATOM     19  H12 UNL     1      -2.641  -0.054  -3.049  1.00  0.00     0.157 HD
ATOM     20  H11 UNL     1      -0.977   0.003  -3.556  1.00  0.00     0.157 HD
ENDBRANCH  12  18
BRANCH  15  21
HETATM   21  O1  UNL     1      -2.740  -0.184   1.869  1.00  0.00    -0.340 OA
HETATM   22  C1  UNL     1      -4.124  -0.219   1.806  1.00  0.00     0.211 C 
ENDBRANCH  15  21
ENDBRANCH   1  10
BRANCH   8  23
HETATM   23  N8  UNL     1       3.053  -2.277  -0.427  1.00  0.00    -0.235 N 
HETATM   24  N9  UNL     1       2.096  -3.062  -0.759  1.00  0.00    -0.330 N 
ATOM     25  H92 UNL     1       1.468  -2.750  -1.499  1.00  0.00     0.178 HD
ATOM     26  H91 UNL     1       1.942  -3.969  -0.319  1.00  0.00     0.178 HD
ATOM     27  H8  UNL     1       3.691  -2.574   0.312  1.00  0.00     0.208 HD
ENDBRANCH   8  23
BRANCH   6  28
HETATM   28  N6  UNL     1       3.449   2.449   0.609  1.00  0.00    -0.330 N 
ATOM     29  H62 UNL     1       3.305   1.614   1.177  1.00  0.00     0.178 HD
ATOM     30  H61 UNL     1       3.741   3.309   1.073  1.00  0.00     0.178 HD
ENDBRANCH   6  28
TORSDOF 5
