REMARK  4 active torsions:
REMARK  status: ('A' for Active; 'I' for Inactive)
REMARK    1  A    between atoms: N1_1  and  N2_4 
REMARK    2  A    between atoms: C2_9  and  C3_10 
REMARK    3  A    between atoms: N4_11  and  N5_13 
REMARK    4  A    between atoms: C5_18  and  O1_19 
ROOT
HETATM    1  N2  UNL     1      -2.233   2.396  -0.191  1.00  0.00    -0.287 N 
ATOM      2  H2  UNL     1      -3.107   2.893  -0.362  1.00  0.00     0.188 HD
HETATM    3  C1  UNL     1      -2.208   1.133  -0.342  1.00  0.00     0.190 A 
HETATM    4  N3  UNL     1      -1.016   0.488  -0.103  1.00  0.00    -0.332 N 
ATOM      5  H3  UNL     1      -0.206   1.038   0.183  1.00  0.00     0.168 HD
HETATM    6  C2  UNL     1      -0.886  -0.832  -0.233  1.00  0.00     0.102 A 
HETATM    7  C5  UNL     1      -2.011  -1.575  -0.626  1.00  0.00     0.172 A 
HETATM    8  N8  UNL     1      -3.171  -0.975  -0.863  1.00  0.00    -0.299 N 
ATOM      9  H8  UNL     1      -3.985  -1.519  -1.150  1.00  0.00     0.171 HD
HETATM   10  C6  UNL     1      -3.261   0.363  -0.720  1.00  0.00     0.293 A 
HETATM   11  O2  UNL     1      -4.365   0.907  -0.948  1.00  0.00    -0.264 OA
ENDROOT
BRANCH   6  12
HETATM   12  C3  UNL     1       0.339  -1.533   0.008  1.00  0.00     0.141 C 
HETATM   13  N4  UNL     1       1.429  -1.072   0.357  1.00  0.00    -0.307 N 
ATOM     14  H4  UNL     1       2.143  -1.793   0.458  1.00  0.00     0.186 HD
BRANCH  13  15
HETATM   15  N5  UNL     1       1.892   0.146   0.633  1.00  0.00    -0.276 N 
HETATM   16  C4  UNL     1       3.137   0.418   0.686  1.00  0.00     0.215 C 
HETATM   17  N6  UNL     1       4.071  -0.592   0.448  1.00  0.00    -0.065 NA
HETATM   18  N7  UNL     1       3.549   1.732   0.984  1.00  0.00    -0.065 NA
ATOM     19  H5  UNL     1       1.221   0.894   0.810  1.00  0.00     0.189 HD
ENDBRANCH  13  15
ENDBRANCH   6  12
BRANCH   7  20
HETATM   20  O1  UNL     1      -1.886  -2.939  -0.763  1.00  0.00    -0.344 OA
ATOM     21  H1  UNL     1      -2.647  -3.442  -1.029  1.00  0.00     0.219 HD
ENDBRANCH   7  20
BRANCH   1  22
HETATM   22  N1  UNL     1      -1.116   3.124   0.198  1.00  0.00    -0.343 N 
ATOM     23  H12 UNL     1      -0.250   2.611   0.365  1.00  0.00     0.176 HD
ATOM     24  H11 UNL     1      -1.136   4.137   0.319  1.00  0.00     0.176 HD
ENDBRANCH   1  22
TORSDOF 4
