REMARK  2 active torsions:
REMARK  status: ('A' for Active; 'I' for Inactive)
REMARK    1  A    between atoms: C1_2  and  N1_4 
REMARK    2  A    between atoms: N1_4  and  C2_6 
ROOT
HETATM    1  C2  UNL     1       0.436  -0.236   0.317  1.00  0.00     0.083 C 
HETATM    2  C3  UNL     1       0.113   1.183  -0.166  1.00  0.00     0.025 C 
HETATM    3  C4  UNL     1      -1.261   1.481   0.432  1.00  0.00     0.002 C 
HETATM    4  C5  UNL     1      -2.288   0.540  -0.084  1.00  0.00     0.000 C 
HETATM    5  C6  UNL     1      -1.917  -0.913  -0.051  1.00  0.00     0.002 C 
HETATM    6  C7  UNL     1      -0.470  -1.163  -0.422  1.00  0.00     0.025 C 
ENDROOT
BRANCH   1   7
HETATM    7  N1  UNL     1       1.809  -0.581   0.223  1.00  0.00    -0.370 N 
ATOM      8  H1  UNL     1       2.257  -0.874   1.091  1.00  0.00     0.161 HD
BRANCH   7   9
HETATM    9  C1  UNL     1       2.625  -0.568  -0.917  1.00  0.00     0.145 C 
HETATM   10  S1  UNL     1       2.027  -0.105  -2.358  1.00  0.00    -0.052 SA
HETATM   11  S2  UNL     1       4.359  -1.065  -0.760  1.00  0.00    -0.021 SA
ENDBRANCH   7   9
ENDBRANCH   1   7
TORSDOF 2
