REMARK  14 active torsions:
REMARK  status: ('A' for Active; 'I' for Inactive)
REMARK    1  A    between atoms: C2_2  and  C3_3 
REMARK    2  A    between atoms: C3_3  and  O1_5 
REMARK    3  A    between atoms: C3_3  and  C5_7 
REMARK    4  A    between atoms: C5_7  and  C6_8 
REMARK    5  A    between atoms: C6_8  and  C7_9 
REMARK    6  A    between atoms: C7_9  and  C9_11 
REMARK    7  A    between atoms: C20_22  and  O2_23 
REMARK    8  A    between atoms: O2_23  and  C21_24 
REMARK    9  A    between atoms: C25_29  and  O4_30 
REMARK   10  A    between atoms: C27_32  and  N1_33 
REMARK   11  A    between atoms: C30_36  and  O5_37 
REMARK   12  A    between atoms: C31_39  and  O6_40 
REMARK   13  A    between atoms: O6_40  and  C32_41 
REMARK   14  A    between atoms: C35_45  and  O8_47 
ROOT
HETATM    1  C9  UNL     1       3.729  -0.269   0.117  1.00  0.00     0.020 C 
HETATM    2  C10 UNL     1       4.728  -0.361  -1.037  1.00  0.00    -0.025 C 
HETATM    3  C11 UNL     1       4.383   0.072  -2.193  1.00  0.00    -0.030 C 
HETATM    4  C12 UNL     1       3.085   0.680  -2.597  1.00  0.00     0.033 C 
HETATM    5  C13 UNL     1       2.085   0.537  -1.480  1.00  0.00     0.010 C 
HETATM    6  C14 UNL     1       2.431  -0.638  -0.573  1.00  0.00    -0.032 C 
HETATM    7  C15 UNL     1       2.730  -1.911  -1.335  1.00  0.00     0.016 C 
HETATM    8  C16 UNL     1       1.369  -0.819   0.441  1.00  0.00     0.011 C 
HETATM    9  C17 UNL     1      -0.049  -0.780  -0.103  1.00  0.00     0.013 C 
HETATM   10  C18 UNL     1      -0.307   0.581  -0.769  1.00  0.00    -0.005 C 
HETATM   11  C19 UNL     1      -0.120   1.582   0.320  1.00  0.00     0.019 C 
HETATM   12  C20 UNL     1      -1.735   0.609  -1.253  1.00  0.00     0.163 C 
HETATM   13  C31 UNL     1      -2.009   1.796  -2.160  1.00  0.00     0.164 C 
HETATM   14  C34 UNL     1      -0.963   2.080  -3.162  1.00  0.00     0.073 C 
HETATM   15  C35 UNL     1       0.468   1.945  -2.703  1.00  0.00     0.065 C 
HETATM   16  C36 UNL     1       0.881   3.216  -2.093  1.00  0.00     0.047 C 
HETATM   17  C37 UNL     1       0.683   0.676  -1.904  1.00  0.00     0.001 C 
HETATM   18  C38 UNL     1       0.301  -0.395  -2.927  1.00  0.00     0.019 C 
ENDROOT
BRANCH  12  19
HETATM   19  O2  UNL     1      -2.681   0.706  -0.250  1.00  0.00    -0.350 OA
BRANCH  19  20
HETATM   20  C21 UNL     1      -3.659  -0.257  -0.253  1.00  0.00     0.292 C 
HETATM   21  O3  UNL     1      -3.486  -1.033   0.872  1.00  0.00    -0.346 OA
HETATM   22  C22 UNL     1      -4.166  -0.694   1.990  1.00  0.00     0.085 C 
HETATM   23  C23 UNL     1      -3.903  -1.790   3.029  1.00  0.00     0.048 C 
HETATM   24  C24 UNL     1      -3.576   0.577   2.607  1.00  0.00     0.048 C 
HETATM   25  C25 UNL     1      -5.661  -0.605   1.835  1.00  0.00     0.179 C 
HETATM   26  C27 UNL     1      -6.094  -0.478   0.399  1.00  0.00     0.144 C 
HETATM   27  C30 UNL     1      -5.057   0.223  -0.464  1.00  0.00     0.198 C 
BRANCH  25  28
HETATM   28  O4  UNL     1      -6.335  -1.690   2.389  1.00  0.00    -0.386 OA
HETATM   29  C26 UNL     1      -7.136  -1.327   3.463  1.00  0.00     0.202 C 
ENDBRANCH  25  28
BRANCH  26  30
HETATM   30  N1  UNL     1      -6.645  -1.641  -0.172  1.00  0.00    -0.412 N 
HETATM   31  C28 UNL     1      -5.911  -2.798  -0.315  1.00  0.00     0.143 C 
HETATM   32  C29 UNL     1      -7.556  -1.439  -1.273  1.00  0.00     0.143 C 
ENDBRANCH  26  30
BRANCH  27  33
HETATM   33  O5  UNL     1      -5.510   0.047  -1.779  1.00  0.00    -0.388 OA
ATOM     34  H5  UNL     1      -6.399   0.352  -1.913  1.00  0.00     0.210 HD
ENDBRANCH  27  33
ENDBRANCH  19  20
ENDBRANCH  12  19
BRANCH  13  35
HETATM   35  O6  UNL     1      -2.329   2.977  -1.493  1.00  0.00    -0.314 OA
BRANCH  35  36
HETATM   36  C32 UNL     1      -3.481   3.702  -1.569  1.00  0.00     0.255 C 
HETATM   37  C33 UNL     1      -3.645   4.944  -0.775  1.00  0.00     0.126 C 
HETATM   38  O7  UNL     1      -4.385   3.265  -2.339  1.00  0.00    -0.266 OA
ENDBRANCH  35  36
ENDBRANCH  13  35
BRANCH  15  39
HETATM   39  O8  UNL     1       1.163   1.803  -3.913  1.00  0.00    -0.389 OA
ATOM     40  H8  UNL     1       2.064   1.718  -3.624  1.00  0.00     0.210 HD
ENDBRANCH  15  39
BRANCH   1  41
HETATM   41  C7  UNL     1       4.279  -1.172   1.140  1.00  0.00    -0.010 C 
HETATM   42  C8  UNL     1       3.546  -1.422   2.416  1.00  0.00     0.010 C 
BRANCH  41  43
HETATM   43  C6  UNL     1       5.694  -0.740   1.576  1.00  0.00     0.008 C 
BRANCH  43  44
HETATM   44  C5  UNL     1       6.420  -1.821   2.328  1.00  0.00     0.042 C 
BRANCH  44  45
HETATM   45  C3  UNL     1       7.812  -1.348   2.719  1.00  0.00     0.071 C 
HETATM   46  C4  UNL     1       8.561  -1.051   1.439  1.00  0.00     0.050 C 
BRANCH  45  47
HETATM   47  C2  UNL     1       7.725  -0.149   3.579  1.00  0.00    -0.000 C 
HETATM   48  C1  UNL     1       8.524   0.894   3.429  1.00  0.00     0.010 C 
ENDBRANCH  45  47
BRANCH  45  49
HETATM   49  O1  UNL     1       8.493  -2.351   3.402  1.00  0.00    -0.386 OA
ATOM     50  H1  UNL     1       8.549  -3.122   2.849  1.00  0.00     0.211 HD
ENDBRANCH  45  49
ENDBRANCH  44  45
ENDBRANCH  43  44
ENDBRANCH  41  43
ENDBRANCH   1  41
TORSDOF 14
