REMARK  13 active torsions:
REMARK  status: ('A' for Active; 'I' for Inactive)
REMARK    1  A    between atoms: C4_4  and  C5_5 
REMARK    2  A    between atoms: C5_5  and  C6_6 
REMARK    3  A    between atoms: C12_13  and  C13_14 
REMARK    4  A    between atoms: C13_14  and  O2_15 
REMARK    5  A    between atoms: O2_15  and  C14_16 
REMARK    6  A    between atoms: C14_16  and  C15_17 
REMARK    7  A    between atoms: N1_21  and  C18_22 
REMARK    8  A    between atoms: C18_22  and  C19_23 
REMARK    9  A    between atoms: C23_27  and  O4_28 
REMARK   10  A    between atoms: C24_30  and  C25_31 
REMARK   11  A    between atoms: C25_31  and  O5_32 
REMARK   12  A    between atoms: C29_37  and  O6_38 
REMARK   13  A    between atoms: C29_37  and  C30_40 
ROOT
HETATM    1  C6  UNL     1      -4.984  -0.240  -0.367  1.00  0.00    -0.041 C 
HETATM    2  C7  UNL     1      -4.745   1.182   0.148  1.00  0.00     0.027 C 
HETATM    3  C8  UNL     1      -5.711   1.669   1.157  1.00  0.00     0.015 C 
HETATM    4  C9  UNL     1      -3.332   1.322   0.352  1.00  0.00     0.095 C 
HETATM    5  C10 UNL     1      -2.725   1.223  -0.985  1.00  0.00     0.135 C 
HETATM    6  O1  UNL     1      -3.307   1.878  -1.827  1.00  0.00    -0.297 OA
HETATM    7  C11 UNL     1      -1.575   0.503  -1.480  1.00  0.00     0.090 C 
HETATM    8  C12 UNL     1      -0.886  -0.121  -0.276  1.00  0.00    -0.010 C 
HETATM    9  C27 UNL     1      -1.638  -1.296   0.298  1.00  0.00     0.015 C 
HETATM   10  C28 UNL     1      -2.878  -1.700  -0.339  1.00  0.00     0.044 C 
HETATM   11  C29 UNL     1      -4.284  -1.424   0.103  1.00  0.00     0.085 C 
HETATM   12  C33 UNL     1      -0.452   0.944   0.630  1.00  0.00     0.046 C 
HETATM   13  C34 UNL     1      -1.293   1.677   1.509  1.00  0.00     0.155 C 
HETATM   14  O7  UNL     1      -0.723   2.724   2.163  1.00  0.00    -0.348 OA
HETATM   15  C35 UNL     1      -1.815   3.223   2.901  1.00  0.00     0.158 C 
HETATM   16  C36 UNL     1      -1.675   4.669   3.242  1.00  0.00     0.078 C 
HETATM   17  C37 UNL     1      -2.008   2.420   4.177  1.00  0.00     0.078 C 
HETATM   18  O8  UNL     1      -2.966   2.982   2.117  1.00  0.00    -0.347 OA
HETATM   19  C38 UNL     1      -2.554   2.383   0.971  1.00  0.00     0.166 C 
ENDROOT
BRANCH   8  20
HETATM   20  C13 UNL     1       0.450  -0.608  -0.942  1.00  0.00     0.177 C 
BRANCH  20  21
HETATM   21  O2  UNL     1       1.138   0.396  -1.472  1.00  0.00    -0.390 OA
BRANCH  21  22
HETATM   22  C14 UNL     1       2.272   0.150  -2.143  1.00  0.00     0.176 C 
BRANCH  22  23
HETATM   23  C15 UNL     1       3.451  -0.478  -1.453  1.00  0.00     0.062 C 
HETATM   24  C16 UNL     1       3.281  -1.824  -0.892  1.00  0.00     0.178 C 
HETATM   25  O3  UNL     1       4.400  -2.627  -1.235  1.00  0.00    -0.362 OA
HETATM   26  C17 UNL     1       5.512  -1.941  -0.747  1.00  0.00     0.440 C 
HETATM   27  N1  UNL     1       5.873  -0.860  -1.653  1.00  0.00     0.112 N 
HETATM   28  C26 UNL     1       4.711  -0.302  -2.291  1.00  0.00     0.284 C 
BRANCH  27  29
HETATM   29  C18 UNL     1       6.528   0.161  -0.864  1.00  0.00     0.280 C 
BRANCH  29  30
HETATM   30  C19 UNL     1       7.874  -0.309  -0.350  1.00  0.00     0.026 C 
HETATM   31  C20 UNL     1       8.718  -0.641  -1.561  1.00  0.00     0.033 C 
HETATM   32  C21 UNL     1       8.852   0.616  -2.366  1.00  0.00    -0.028 C 
HETATM   33  C22 UNL     1       9.189   1.715  -1.700  1.00  0.00     0.001 C 
HETATM   34  C23 UNL     1       9.413   1.676  -0.251  1.00  0.00     0.147 C 
HETATM   35  C24 UNL     1       8.495   0.754   0.504  1.00  0.00     0.048 C 
BRANCH  34  36
HETATM   36  O4  UNL     1      10.771   1.376   0.005  1.00  0.00    -0.391 OA
ATOM     37  H4  UNL     1      10.916   1.351   0.944  1.00  0.00     0.210 HD
ENDBRANCH  34  36
BRANCH  35  38
HETATM   38  C25 UNL     1       9.359   0.093   1.589  1.00  0.00     0.172 C 
BRANCH  38  39
HETATM   39  O5  UNL     1       8.622  -0.736   2.399  1.00  0.00    -0.400 OA
ATOM     40  H5  UNL     1       9.156  -1.145   3.070  1.00  0.00     0.209 HD
ENDBRANCH  38  39
ENDBRANCH  35  38
ENDBRANCH  29  30
ENDBRANCH  27  29
ENDBRANCH  22  23
ENDBRANCH  21  22
ENDBRANCH  20  21
ENDBRANCH   8  20
BRANCH  11  41
HETATM   41  O6  UNL     1      -4.897  -2.312  -0.917  1.00  0.00    -0.385 OA
ATOM     42  H6  UNL     1      -4.439  -3.086  -0.610  1.00  0.00     0.211 HD
ENDBRANCH  11  41
BRANCH  11  43
HETATM   43  C30 UNL     1      -4.712  -2.211   1.278  1.00  0.00     0.016 C 
HETATM   44  C31 UNL     1      -4.774  -1.648   2.639  1.00  0.00     0.013 C 
HETATM   45  C32 UNL     1      -3.851  -3.480   1.487  1.00  0.00     0.013 C 
ENDBRANCH  11  43
BRANCH   1  46
HETATM   46  C5  UNL     1      -6.449  -0.237  -0.582  1.00  0.00     0.006 C 
BRANCH  46  47
HETATM   47  C4  UNL     1      -7.180  -1.372  -1.109  1.00  0.00     0.002 C 
HETATM   48  C2  UNL     1      -7.826  -1.387  -2.269  1.00  0.00    -0.088 C 
HETATM   49  C1  UNL     1      -8.538  -2.590  -2.712  1.00  0.00     0.043 C 
HETATM   50  C3  UNL     1      -7.814  -0.173  -3.107  1.00  0.00     0.043 C 
ENDBRANCH  46  47
ENDBRANCH   1  46
TORSDOF 13
