REMARK  3 active torsions:
REMARK  status: ('A' for Active; 'I' for Inactive)
REMARK    1  A    between atoms: C3_4  and  C4_5 
REMARK    2  A    between atoms: C4_5  and  N1_6 
REMARK    3  A    between atoms: C6_10  and  N3_11 
ROOT
HETATM    1  N1  UNL     1      -2.032  -0.729  -0.007  1.00  0.00    -0.267 N 
HETATM    2  C5  UNL     1      -2.561  -0.676   1.234  1.00  0.00     0.218 A 
HETATM    3  N2  UNL     1      -3.585   0.195   1.277  1.00  0.00    -0.185 N 
ATOM      4  H2  UNL     1      -4.163   0.432   2.083  1.00  0.00     0.185 HD
HETATM    5  C6  UNL     1      -3.683   0.687   0.030  1.00  0.00     0.691 A 
HETATM    6  N4  UNL     1      -2.736   0.119  -0.739  1.00  0.00    -0.129 N 
ATOM      7  H4  UNL     1      -2.585   0.312  -1.729  1.00  0.00     0.206 HD
ENDROOT
BRANCH   1   8
HETATM    8  C4  UNL     1      -0.909  -1.557  -0.449  1.00  0.00     0.217 C 
BRANCH   8   9
HETATM    9  C3  UNL     1       0.387  -0.847  -0.281  1.00  0.00     0.090 A 
HETATM   10  O1  UNL     1       1.007  -0.071  -1.144  1.00  0.00    -0.299 OA
HETATM   11  C2  UNL     1       2.134   0.366  -0.608  1.00  0.00     0.121 A 
HETATM   12  C1  UNL     1       3.118   1.274  -1.277  1.00  0.00     0.098 C 
HETATM   13  N5  UNL     1       2.258  -0.131   0.627  1.00  0.00    -0.343 N 
HETATM   14  C7  UNL     1       1.170  -0.890   0.839  1.00  0.00     0.126 A 
HETATM   15  C8  UNL     1       3.369   0.117   1.550  1.00  0.00     0.157 C 
ENDBRANCH   8   9
ENDBRANCH   1   8
BRANCH   5  16
HETATM   16  N3  UNL     1      -4.555   1.571  -0.369  1.00  0.00    -0.233 N 
ATOM     17  H32 UNL     1      -5.273   2.002   0.214  1.00  0.00     0.174 HD
ATOM     18  H31 UNL     1      -4.629   1.944  -1.315  1.00  0.00     0.174 HD
ENDBRANCH   5  16
TORSDOF 3
