REMARK  2 active torsions:
REMARK  status: ('A' for Active; 'I' for Inactive)
REMARK    1  A    between atoms: C1_2  and  C2_3 
REMARK       I    between atoms: C1_2  and  N1_11 
REMARK    2  A    between atoms: C2_3  and  C3_4 
ROOT
HETATM    1  O1  UNL     1       1.055  -0.719   1.885  1.00  0.00    -0.273 OA
HETATM    2  C1  UNL     1       0.685   0.188   1.101  1.00  0.00     0.220 C 
HETATM    3  N1  UNL     1      -0.503  -0.051   0.362  1.00  0.00    -0.352 N 
HETATM    4  C10 UNL     1      -1.299  -1.266   0.468  1.00  0.00     0.128 C 
HETATM    5  C11 UNL     1      -2.669  -0.807   0.910  1.00  0.00     0.061 C 
HETATM    6  C12 UNL     1      -3.314  -0.096  -0.250  1.00  0.00     0.150 C 
HETATM    7  C13 UNL     1      -2.280   0.333  -1.232  1.00  0.00     0.061 C 
HETATM    8  C14 UNL     1      -1.035   0.911  -0.587  1.00  0.00     0.128 C 
HETATM    9  C15 UNL     1      -4.132   1.064   0.282  1.00  0.00     0.206 C 
HETATM   10  O2  UNL     1      -4.869   0.568   1.352  1.00  0.00    -0.387 OA
HETATM   11  C16 UNL     1      -5.737  -0.440   0.975  1.00  0.00     0.195 C 
HETATM   12  C17 UNL     1      -5.593  -0.856  -0.455  1.00  0.00     0.259 C 
HETATM   13  N2  UNL     1      -4.231  -1.034  -0.867  1.00  0.00    -0.062 N 
ATOM     14  H21 UNL     1      -3.928  -1.995  -0.707  1.00  0.00     0.278 HD
ATOM     15  H22 UNL     1      -4.154  -0.999  -1.883  1.00  0.00     0.278 HD
ENDROOT
BRANCH   2  16
HETATM   16  C2  UNL     1       1.443   1.402   0.972  1.00  0.00     0.107 C 
BRANCH  16  17
HETATM   17  C3  UNL     1       2.899   1.364   0.698  1.00  0.00    -0.006 C 
HETATM   18  C4  UNL     1       3.806   0.684   1.627  1.00  0.00     0.005 C 
HETATM   19  C5  UNL     1       4.367  -0.642   1.226  1.00  0.00     0.000 C 
HETATM   20  C6  UNL     1       5.360  -0.531   0.089  1.00  0.00     0.000 C 
HETATM   21  C7  UNL     1       4.631  -0.989  -1.165  1.00  0.00     0.000 C 
HETATM   22  C8  UNL     1       3.231  -0.387  -1.107  1.00  0.00     0.000 C 
HETATM   23  C9  UNL     1       3.264   1.050  -0.729  1.00  0.00     0.005 C 
ENDBRANCH  16  17
ENDBRANCH   2  16
TORSDOF 2
