REMARK  4 active torsions:
REMARK  status: ('A' for Active; 'I' for Inactive)
REMARK    1  A    between atoms: C2_2  and  O1_3 
REMARK    2  A    between atoms: O1_3  and  C3_4 
REMARK    3  A    between atoms: C5_8  and  O4_9 
REMARK    4  A    between atoms: C25_31  and  O5_32 
ROOT
HETATM    1  C3  UNL     1      -2.242   0.838  -0.606  1.00  0.00     0.303 C 
HETATM    2  O2  UNL     1      -1.983  -0.138  -1.585  1.00  0.00    -0.283 OA
HETATM    3  C4  UNL     1      -1.462  -1.420  -1.671  1.00  0.00     0.297 C 
HETATM    4  O3  UNL     1      -0.788  -1.630  -2.711  1.00  0.00    -0.262 OA
HETATM    5  C5  UNL     1      -1.578  -2.549  -0.744  1.00  0.00     0.157 C 
HETATM    6  C6  UNL     1      -3.036  -2.728  -0.385  1.00  0.00     0.050 C 
HETATM    7  C7  UNL     1      -3.612  -1.492   0.281  1.00  0.00     0.013 C 
HETATM    8  C8  UNL     1      -2.681  -0.837   1.235  1.00  0.00     0.023 C 
HETATM    9  C9  UNL     1      -1.712  -1.908   1.683  1.00  0.00     0.027 C 
HETATM   10  C10 UNL     1      -0.819  -2.301   0.514  1.00  0.00     0.025 C 
HETATM   11  C11 UNL     1      -0.342  -3.709   0.961  1.00  0.00     0.024 C 
HETATM   12  C12 UNL     1       0.335  -1.381   0.396  1.00  0.00    -0.040 C 
HETATM   13  C13 UNL     1       1.257  -1.942  -0.340  1.00  0.00    -0.013 C 
HETATM   14  C14 UNL     1       2.572  -1.335  -0.686  1.00  0.00     0.013 C 
HETATM   15  C15 UNL     1       2.980  -1.926  -2.011  1.00  0.00     0.015 C 
HETATM   16  C16 UNL     1       2.423   0.131  -0.697  1.00  0.00     0.045 C 
HETATM   17  C17 UNL     1       3.744   0.753  -1.044  1.00  0.00     0.105 C 
HETATM   18  C18 UNL     1       4.950   0.198  -0.370  1.00  0.00     0.052 C 
HETATM   19  F1  UNL     1       3.933   0.438  -2.412  1.00  0.00    -0.243 F 
HETATM   20  C19 UNL     1       3.765   2.250  -1.001  1.00  0.00     0.043 C 
HETATM   21  C20 UNL     1       2.367   2.694  -1.021  1.00  0.00     0.004 C 
HETATM   22  C21 UNL     1       1.474   2.169   0.074  1.00  0.00     0.014 C 
HETATM   23  C22 UNL     1       1.708   0.732   0.469  1.00  0.00    -0.006 C 
HETATM   24  C23 UNL     1       2.687   0.878   1.671  1.00  0.00     0.021 C 
HETATM   25  C24 UNL     1       0.533  -0.037   0.989  1.00  0.00    -0.009 C 
HETATM   26  C25 UNL     1      -0.672   0.683   1.425  1.00  0.00     0.083 C 
HETATM   27  C27 UNL     1      -2.016   0.430   0.784  1.00  0.00     0.013 C 
ENDROOT
BRANCH   1  28
HETATM   28  O1  UNL     1      -3.523   1.407  -0.836  1.00  0.00    -0.357 OA
BRANCH  28  29
HETATM   29  C2  UNL     1      -3.472   2.710  -1.251  1.00  0.00     0.167 C 
HETATM   30  C1  UNL     1      -4.865   3.254  -1.478  1.00  0.00     0.033 C 
ENDBRANCH  28  29
ENDBRANCH   1  28
BRANCH  26  31
HETATM   31  O5  UNL     1      -0.517   2.032   1.686  1.00  0.00    -0.355 OA
HETATM   32  C26 UNL     1      -0.726   2.453   2.962  1.00  0.00     0.210 C 
ENDBRANCH  26  31
BRANCH   5  33
HETATM   33  O4  UNL     1      -1.219  -3.743  -1.399  1.00  0.00    -0.378 OA
ATOM     34  H4  UNL     1      -1.294  -4.475  -0.798  1.00  0.00     0.211 HD
ENDBRANCH   5  33
TORSDOF 4
