REMARK  12 active torsions:
REMARK  status: ('A' for Active; 'I' for Inactive)
REMARK    1  A    between atoms: C5_5  and  C6_6 
REMARK    2  A    between atoms: C6_6  and  O1_7 
REMARK    3  A    between atoms: O1_7  and  C7_8 
REMARK    4  A    between atoms: C9_11  and  O3_12 
REMARK    5  A    between atoms: C10_14  and  O4_15 
REMARK    6  A    between atoms: C11_17  and  O5_18 
REMARK    7  A    between atoms: C15_23  and  O6_24 
REMARK    8  A    between atoms: O6_24  and  C16_25 
REMARK    9  A    between atoms: C18_27  and  O7_28 
REMARK   10  A    between atoms: C19_30  and  O8_31 
REMARK   11  A    between atoms: C20_33  and  C21_34 
REMARK   12  A    between atoms: C21_34  and  O9_35 
ROOT
HETATM    1  C1  UNL     1      -0.175  -1.652   1.133  1.00  0.00     0.018 C 
HETATM    2  C2  UNL     1      -0.241  -0.182   0.973  1.00  0.00    -0.014 C 
HETATM    3  C3  UNL     1      -0.476   0.591   2.242  1.00  0.00     0.012 C 
HETATM    4  C4  UNL     1       0.868   0.923   2.808  1.00  0.00     0.008 C 
HETATM    5  C5  UNL     1       1.858   0.286   1.823  1.00  0.00     0.014 C 
HETATM    6  C12 UNL     1       1.121   0.429   0.553  1.00  0.00     0.002 C 
HETATM    7  C13 UNL     1       0.639   1.830   0.233  1.00  0.00     0.008 C 
HETATM    8  C14 UNL     1      -0.771   1.735  -0.253  1.00  0.00     0.033 C 
HETATM    9  C15 UNL     1      -1.221   0.300  -0.068  1.00  0.00     0.133 C 
ENDROOT
BRANCH   5  10
HETATM   10  C6  UNL     1       3.210   0.854   1.968  1.00  0.00     0.176 C 
BRANCH  10  11
HETATM   11  O1  UNL     1       4.148   0.350   1.179  1.00  0.00    -0.358 OA
BRANCH  11  12
HETATM   12  C7  UNL     1       4.224   0.434  -0.144  1.00  0.00     0.290 C 
HETATM   13  O2  UNL     1       4.228  -0.886  -0.663  1.00  0.00    -0.356 OA
HETATM   14  C8  UNL     1       4.646  -0.909  -1.997  1.00  0.00     0.205 C 
HETATM   15  C9  UNL     1       6.157  -0.782  -2.000  1.00  0.00     0.173 C 
HETATM   16  C10 UNL     1       6.567   0.008  -0.761  1.00  0.00     0.182 C 
HETATM   17  C11 UNL     1       5.551   1.088  -0.571  1.00  0.00     0.204 C 
BRANCH  15  18
HETATM   18  O3  UNL     1       6.742  -2.031  -1.965  1.00  0.00    -0.391 OA
ATOM     19  H3  UNL     1       7.689  -1.951  -1.967  1.00  0.00     0.210 HD
ENDBRANCH  15  18
BRANCH  16  20
HETATM   20  O4  UNL     1       7.836   0.517  -0.931  1.00  0.00    -0.390 OA
ATOM     21  H4  UNL     1       8.091   1.009  -0.159  1.00  0.00     0.210 HD
ENDBRANCH  16  20
BRANCH  17  22
HETATM   22  O5  UNL     1       5.409   1.813  -1.735  1.00  0.00    -0.388 OA
ATOM     23  H5  UNL     1       6.228   2.216  -1.998  1.00  0.00     0.210 HD
ENDBRANCH  17  22
ENDBRANCH  11  12
ENDBRANCH  10  11
ENDBRANCH   5  10
BRANCH   9  24
HETATM   24  O6  UNL     1      -2.479   0.203   0.492  1.00  0.00    -0.355 OA
BRANCH  24  25
HETATM   25  C16 UNL     1      -3.379  -0.530  -0.261  1.00  0.00     0.263 C 
HETATM   26  C17 UNL     1      -4.017  -1.660   0.500  1.00  0.00     0.095 C 
HETATM   27  C18 UNL     1      -5.479  -1.376   0.800  1.00  0.00     0.154 C 
HETATM   28  C19 UNL     1      -6.190  -1.217  -0.530  1.00  0.00     0.178 C 
HETATM   29  C20 UNL     1      -5.406  -0.223  -1.341  1.00  0.00     0.179 C 
HETATM   30  O10 UNL     1      -4.392   0.361  -0.617  1.00  0.00    -0.351 OA
BRANCH  27  31
HETATM   31  O7  UNL     1      -6.024  -2.482   1.426  1.00  0.00    -0.393 OA
ATOM     32  H7  UNL     1      -6.938  -2.304   1.614  1.00  0.00     0.210 HD
ENDBRANCH  27  31
BRANCH  28  33
HETATM   33  O8  UNL     1      -7.499  -0.831  -0.311  1.00  0.00    -0.390 OA
ATOM     34  H8  UNL     1      -7.944  -0.731  -1.144  1.00  0.00     0.210 HD
ENDBRANCH  28  33
BRANCH  29  35
HETATM   35  C21 UNL     1      -6.279   0.890  -1.887  1.00  0.00     0.198 C 
BRANCH  35  36
HETATM   36  O9  UNL     1      -6.833   1.669  -0.881  1.00  0.00    -0.398 OA
ATOM     37  H9  UNL     1      -7.380   2.366  -1.223  1.00  0.00     0.209 HD
ENDBRANCH  35  36
ENDBRANCH  29  35
ENDBRANCH  24  25
ENDBRANCH   9  24
TORSDOF 12
