REMARK  5 active torsions:
REMARK  status: ('A' for Active; 'I' for Inactive)
REMARK    1  A    between atoms: C5_7  and  N2_8 
REMARK       I    between atoms: N2_8  and  C6_10 
REMARK    2  A    between atoms: C6_10  and  C7_12 
REMARK    3  A    between atoms: C10_15  and  O2_16 
REMARK    4  A    between atoms: C11_18  and  C12_19 
REMARK    5  A    between atoms: C37_48  and  O4_49 
ROOT
HETATM    1  C12 UNL     1       2.691   0.046  -0.522  1.00  0.00     0.063 A 
HETATM    2  C13 UNL     1       2.193  -1.230  -0.416  1.00  0.00     0.065 A 
HETATM    3  C14 UNL     1       1.066  -1.351  -1.273  1.00  0.00     0.080 A 
HETATM    4  N3  UNL     1       0.939  -0.187  -1.840  1.00  0.00    -0.285 N 
HETATM    5  N4  UNL     1       1.910   0.649  -1.391  1.00  0.00    -0.297 N 
ATOM      6  H4  UNL     1       2.019   1.618  -1.689  1.00  0.00     0.187 HD
HETATM    7  C15 UNL     1      -0.023   0.285  -2.831  1.00  0.00     0.187 C 
HETATM    8  C16 UNL     1      -1.277   0.887  -2.230  1.00  0.00    -0.038 A 
HETATM    9  C17 UNL     1      -2.550   0.463  -2.560  1.00  0.00     0.010 A 
HETATM   10  C18 UNL     1      -3.673   1.004  -1.940  1.00  0.00     0.013 A 
HETATM   11  C19 UNL     1      -3.689   1.999  -0.946  1.00  0.00    -0.025 A 
HETATM   12  C20 UNL     1      -2.398   2.405  -0.642  1.00  0.00     0.013 A 
HETATM   13  C21 UNL     1      -1.265   1.874  -1.256  1.00  0.00     0.010 A 
HETATM   14  C22 UNL     1      -4.971   2.433  -0.210  1.00  0.00    -0.017 A 
HETATM   15  C23 UNL     1      -5.456   1.653   0.862  1.00  0.00     0.049 A 
HETATM   16  C24 UNL     1      -6.663   1.909   1.441  1.00  0.00     0.070 A 
HETATM   17  C25 UNL     1      -7.441   2.967   0.992  1.00  0.00     0.037 A 
HETATM   18  C26 UNL     1      -7.034   3.781  -0.042  1.00  0.00     0.010 A 
HETATM   19  C27 UNL     1      -5.826   3.482  -0.597  1.00  0.00    -0.051 A 
HETATM   20  C28 UNL     1      -5.458   4.417  -1.706  1.00  0.00     0.049 C 
HETATM   21  O3  UNL     1      -7.309   1.221   2.487  1.00  0.00    -0.347 OA
HETATM   22  C29 UNL     1      -7.665  -0.184   2.521  1.00  0.00     0.214 C 
HETATM   23  C30 UNL     1      -6.902  -1.020   1.528  1.00  0.00    -0.034 A 
HETATM   24  C31 UNL     1      -5.885  -1.851   1.916  1.00  0.00     0.010 A 
HETATM   25  C32 UNL     1      -5.079  -2.581   0.969  1.00  0.00     0.008 A 
HETATM   26  C33 UNL     1      -5.260  -2.505  -0.384  1.00  0.00    -0.052 A 
HETATM   27  C34 UNL     1      -6.290  -1.673  -0.768  1.00  0.00     0.008 A 
HETATM   28  C35 UNL     1      -7.087  -0.952   0.165  1.00  0.00     0.010 A 
HETATM   29  C36 UNL     1      -4.371  -3.211  -1.364  1.00  0.00     0.105 C 
HETATM   30  C37 UNL     1      -3.188  -3.924  -0.898  1.00  0.00     0.074 C 
HETATM   31  C38 UNL     1      -1.778  -3.813  -1.223  1.00  0.00     0.062 A 
HETATM   32  C39 UNL     1      -1.104  -5.001  -1.572  1.00  0.00     0.032 A 
HETATM   33  C40 UNL     1       0.236  -4.989  -1.837  1.00  0.00     0.005 A 
HETATM   34  C41 UNL     1       0.897  -3.787  -1.750  1.00  0.00     0.032 A 
HETATM   35  C42 UNL     1       0.272  -2.589  -1.409  1.00  0.00     0.061 A 
HETATM   36  N5  UNL     1      -1.041  -2.700  -1.170  1.00  0.00    -0.352 N 
ATOM     37  H5  UNL     1      -1.532  -1.841  -0.920  1.00  0.00     0.166 HD
ENDROOT
BRANCH   1  38
HETATM   38  C11 UNL     1       3.853   0.612   0.195  1.00  0.00     0.026 A 
HETATM   39  C10 UNL     1       4.167   1.937  -0.029  1.00  0.00     0.078 A 
HETATM   40  C9  UNL     1       5.235   2.472   0.636  1.00  0.00     0.038 A 
HETATM   41  C8  UNL     1       5.998   1.726   1.514  1.00  0.00     0.020 A 
HETATM   42  C7  UNL     1       5.695   0.400   1.746  1.00  0.00     0.033 A 
HETATM   43  C43 UNL     1       4.605  -0.145   1.068  1.00  0.00     0.033 A 
BRANCH  39  44
HETATM   44  O2  UNL     1       3.394   2.668  -0.909  1.00  0.00    -0.360 OA
ATOM     45  H2  UNL     1       2.652   2.296  -1.371  1.00  0.00     0.217 HD
ENDBRANCH  39  44
BRANCH  42  46
HETATM   46  C6  UNL     1       6.481  -0.408   2.666  1.00  0.00     0.269 C 
HETATM   47  N2  UNL     1       7.568   0.130   3.361  1.00  0.00    -0.155 N 
ATOM     48  H2  UNL     1       7.464   0.398   4.340  1.00  0.00     0.187 HD
HETATM   49  O1  UNL     1       6.178  -1.610   2.840  1.00  0.00    -0.267 OA
BRANCH  47  50
HETATM   50  C5  UNL     1       8.698   0.287   2.769  1.00  0.00     0.685 A 
HETATM   51  N1  UNL     1       9.752   0.807   3.436  1.00  0.00    -0.202 N 
HETATM   52  C4  UNL     1      10.906   0.945   2.760  1.00  0.00     0.108 A 
ATOM     53  H1  UNL     1       9.675   1.084   4.415  1.00  0.00     0.183 HD
HETATM   54  C3  UNL     1      11.049   0.584   1.444  1.00  0.00     0.042 A 
HETATM   55  C2  UNL     1       9.973   0.061   0.785  1.00  0.00     0.024 A 
HETATM   56  C1  UNL     1      10.021  -0.359  -0.628  1.00  0.00     0.068 C 
HETATM   57  N6  UNL     1       8.824  -0.065   1.496  1.00  0.00    -0.196 N 
ATOM     58  H6  UNL     1       8.008  -0.454   1.023  1.00  0.00     0.184 HD
ENDBRANCH  47  50
ENDBRANCH  42  46
ENDBRANCH   1  38
BRANCH  30  59
HETATM   59  O4  UNL     1      -3.476  -4.845  -0.012  1.00  0.00    -0.362 OA
ATOM     60  H4  UNL     1      -2.705  -5.310   0.292  1.00  0.00     0.217 HD
ENDBRANCH  30  59
TORSDOF 5
