REMARK  10 active torsions:
REMARK  status: ('A' for Active; 'I' for Inactive)
REMARK    1  A    between atoms: N1_1  and  C1_5 
REMARK    2  A    between atoms: C1_5  and  N2_6 
REMARK    3  A    between atoms: C1_5  and  C2_10 
REMARK    4  A    between atoms: C2_10  and  C3_11 
REMARK    5  A    between atoms: C3_11  and  N3_12 
REMARK    6  A    between atoms: N3_12  and  C4_15 
REMARK    7  A    between atoms: C4_15  and  C5_16 
REMARK    8  A    between atoms: C4_15  and  C11_24 
REMARK    9  A    between atoms: C5_16  and  C6_17 
REMARK   10  A    between atoms: C6_17  and  C7_19 
ROOT
HETATM    1  N3  UNL     1      -0.683  -0.089  -1.078  1.00  0.00    -0.061 N 
ATOM      2  H31 UNL     1      -0.375   0.308  -1.966  1.00  0.00     0.278 HD
ATOM      3  H32 UNL     1      -0.407  -1.060  -1.222  1.00  0.00     0.278 HD
ENDROOT
BRANCH   1   4
HETATM    4  C3  UNL     1      -2.092   0.018  -0.941  1.00  0.00     0.237 C 
BRANCH   4   5
HETATM    5  C2  UNL     1      -2.658  -0.813   0.166  1.00  0.00     0.089 C 
BRANCH   5   6
HETATM    6  C1  UNL     1      -4.173  -0.583   0.160  1.00  0.00     0.379 C 
BRANCH   6   7
HETATM    7  N1  UNL     1      -4.808  -1.356   1.205  1.00  0.00    -0.050 N 
ATOM      8  H13 UNL     1      -5.824  -1.277   1.166  1.00  0.00     0.276 HD
ATOM      9  H12 UNL     1      -4.724  -2.358   1.035  1.00  0.00     0.276 HD
ATOM     10  H11 UNL     1      -4.446  -1.099   2.123  1.00  0.00     0.276 HD
ENDBRANCH   6   7
BRANCH   6  11
HETATM   11  N2  UNL     1      -4.690  -0.950  -1.151  1.00  0.00    -0.050 N 
ATOM     12  H23 UNL     1      -4.606  -1.952  -1.321  1.00  0.00     0.276 HD
ATOM     13  H22 UNL     1      -5.706  -0.871  -1.190  1.00  0.00     0.276 HD
ATOM     14  H21 UNL     1      -4.242  -0.405  -1.888  1.00  0.00     0.276 HD
ENDBRANCH   6  11
ENDBRANCH   5   6
ENDBRANCH   4   5
ENDBRANCH   1   4
BRANCH   1  15
HETATM   15  C4  UNL     1       0.067   0.508   0.051  1.00  0.00     0.293 C 
BRANCH  15  16
HETATM   16  C5  UNL     1       1.473  -0.005  -0.086  1.00  0.00     0.128 C 
BRANCH  16  17
HETATM   17  C6  UNL     1       2.423   0.386   0.961  1.00  0.00     0.168 C 
HETATM   18  O1  UNL     1       2.084   0.944   2.019  1.00  0.00    -0.292 OA
BRANCH  17  19
HETATM   19  C7  UNL     1       3.876   0.108   0.762  1.00  0.00     0.050 A 
HETATM   20  C8  UNL     1       4.457  -0.487  -0.324  1.00  0.00     0.023 A 
HETATM   21  C9  UNL     1       5.788  -0.647  -0.297  1.00  0.00     0.009 A 
HETATM   22  C10 UNL     1       6.449  -0.202   0.817  1.00  0.00     0.050 A 
HETATM   23  S1  UNL     1       5.195   0.425   1.785  1.00  0.00    -0.098 SA
ENDBRANCH  17  19
ENDBRANCH  16  17
ENDBRANCH  15  16
BRANCH  15  24
HETATM   24  C11 UNL     1       0.050   1.973  -0.106  1.00  0.00     0.205 C 
HETATM   25  O2  UNL     1      -0.494   2.469  -1.122  1.00  0.00    -0.646 OA
HETATM   26  O3  UNL     1       0.597   2.814   0.805  1.00  0.00    -0.646 OA
ENDBRANCH  15  24
ENDBRANCH   1  15
TORSDOF 10
