REMARK  10 active torsions:
REMARK  status: ('A' for Active; 'I' for Inactive)
REMARK    1  A    between atoms: C2_2  and  C3_6 
REMARK    2  A    between atoms: C3_6  and  C4_7 
REMARK    3  A    between atoms: C3_6  and  N2_9 
REMARK    4  A    between atoms: N2_9  and  C5_11 
REMARK    5  A    between atoms: C5_11  and  C6_12 
REMARK    6  A    between atoms: C5_11  and  C10_23 
REMARK    7  A    between atoms: C6_12  and  C7_14 
REMARK    8  A    between atoms: C7_14  and  N3_15 
REMARK    9  A    between atoms: C7_14  and  C8_19 
REMARK   10  A    between atoms: C8_19  and  O3_21 
ROOT
HETATM    1  C5  UNL     1      -0.130   0.433  -0.724  1.00  0.00     0.185 C 
ENDROOT
BRANCH   1   2
HETATM    2  N2  UNL     1      -1.450   0.008  -0.454  1.00  0.00    -0.392 N 
ATOM      3  H2  UNL     1      -2.152   0.747  -0.497  1.00  0.00     0.155 HD
BRANCH   2   4
HETATM    4  C3  UNL     1      -1.945  -1.234  -0.144  1.00  0.00     0.184 C 
BRANCH   4   5
HETATM    5  C2  UNL     1      -3.384  -1.181   0.220  1.00  0.00     0.005 C 
HETATM    6  C1  UNL     1      -3.729  -1.480   1.657  1.00  0.00     0.065 C 
HETATM    7  N1  UNL     1      -4.222  -0.845  -0.631  1.00  0.00    -0.404 N 
ATOM      8  H12 UNL     1      -5.210  -0.809  -0.381  1.00  0.00     0.155 HD
ATOM      9  H11 UNL     1      -3.989  -0.643  -1.603  1.00  0.00     0.155 HD
ENDBRANCH   4   5
BRANCH   4  10
HETATM   10  C4  UNL     1      -1.684  -2.318  -1.110  1.00  0.00     0.261 C 
HETATM   11  O1  UNL     1      -1.256  -3.395  -0.689  1.00  0.00    -0.304 OA
ENDBRANCH   4  10
ENDBRANCH   2   4
ENDBRANCH   1   2
BRANCH   1  12
HETATM   12  C6  UNL     1       0.754   0.250   0.462  1.00  0.00     0.186 C 
HETATM   13  O2  UNL     1       0.235   0.023   1.534  1.00  0.00    -0.293 OA
BRANCH  12  14
HETATM   14  C7  UNL     1       2.215   0.329   0.370  1.00  0.00     0.283 C 
BRANCH  14  15
HETATM   15  N3  UNL     1       2.761   0.858  -0.812  1.00  0.00    -0.066 N 
ATOM     16  H33 UNL     1       2.400   0.340  -1.613  1.00  0.00     0.275 HD
ATOM     17  H32 UNL     1       2.361   1.780  -0.986  1.00  0.00     0.275 HD
ATOM     18  H31 UNL     1       3.778   0.913  -0.876  1.00  0.00     0.275 HD
ENDBRANCH  14  15
BRANCH  14  19
HETATM   19  C8  UNL     1       2.760  -1.082   0.653  1.00  0.00     0.152 C 
HETATM   20  C9  UNL     1       4.148  -1.055   1.207  1.00  0.00     0.042 C 
BRANCH  19  21
HETATM   21  O3  UNL     1       2.540  -1.901  -0.424  1.00  0.00    -0.393 OA
ATOM     22  H3  UNL     1       2.876  -2.772  -0.249  1.00  0.00     0.210 HD
ENDBRANCH  19  21
ENDBRANCH  14  19
ENDBRANCH  12  14
ENDBRANCH   1  12
BRANCH   1  23
HETATM   23  C10 UNL     1      -0.228   1.924  -0.939  1.00  0.00    -0.004 A 
HETATM   24  C11 UNL     1      -0.938   2.702  -0.042  1.00  0.00     0.036 A 
HETATM   25  C12 UNL     1      -0.897   3.985  -0.544  1.00  0.00     0.142 A 
HETATM   26  O4  UNL     1      -0.228   3.971  -1.634  1.00  0.00    -0.334 OA
HETATM   27  C13 UNL     1       0.208   2.720  -1.922  1.00  0.00     0.150 A 
ENDBRANCH   1  23
TORSDOF 10
