REMARK  9 active torsions:
REMARK  status: ('A' for Active; 'I' for Inactive)
REMARK    1  A    between atoms: C2_2  and  C4_4 
REMARK    2  A    between atoms: C4_4  and  C5_5 
REMARK    3  A    between atoms: C5_5  and  C7_7 
REMARK       I    between atoms: N1_10  and  C10_11 
REMARK       I    between atoms: C10_11  and  N2_13 
REMARK       I    between atoms: C11_15  and  N4_17 
REMARK    4  A    between atoms: N4_17  and  C12_19 
REMARK    5  A    between atoms: C12_19  and  C13_20 
REMARK    6  A    between atoms: C13_20  and  C14_21 
REMARK    7  A    between atoms: C14_21  and  N5_22 
REMARK    8  A    between atoms: N5_22  and  C15_23 
REMARK    9  A    between atoms: N5_22  and  C17_25 
ROOT
HETATM    1  C7  UNL     1      -4.097  -0.359  -0.261  1.00  0.00     0.011 C 
HETATM    2  C8  UNL     1      -3.084  -0.377  -1.425  1.00  0.00     0.033 C 
HETATM    3  C9  UNL     1      -1.794   0.085  -0.917  1.00  0.00     0.098 C 
HETATM    4  N1  UNL     1      -0.981  -0.925  -0.256  1.00  0.00    -0.328 N 
HETATM    5  C10 UNL     1       0.368  -1.036  -0.641  1.00  0.00     0.325 C 
HETATM    6  O1  UNL     1       0.822  -0.434  -1.607  1.00  0.00    -0.247 OA
HETATM    7  N2  UNL     1       1.217  -1.889   0.140  1.00  0.00    -0.283 N 
ATOM      8  H2  UNL     1       0.907  -2.823   0.406  1.00  0.00     0.173 HD
HETATM    9  C11 UNL     1       2.405  -1.448   0.509  1.00  0.00     0.192 C 
HETATM   10  N3  UNL     1       3.179  -2.391   1.318  1.00  0.00    -0.063 NA
HETATM   11  N4  UNL     1       3.011  -0.223   0.189  1.00  0.00    -0.364 N 
ATOM     12  H4  UNL     1       2.822   0.199  -0.720  1.00  0.00     0.162 HD
HETATM   13  C19 UNL     1      -1.663  -1.743   0.720  1.00  0.00     0.129 C 
HETATM   14  C20 UNL     1      -2.594  -0.991   1.554  1.00  0.00     0.030 C 
HETATM   15  C21 UNL     1      -3.272   0.220   0.829  1.00  0.00    -0.029 C 
HETATM   16  C22 UNL     1      -4.033   0.867   1.972  1.00  0.00     0.016 C 
HETATM   17  C23 UNL     1      -2.158   1.001   0.273  1.00  0.00    -0.019 C 
HETATM   18  C24 UNL     1      -2.470   2.305  -0.332  1.00  0.00     0.018 C 
HETATM   19  C25 UNL     1      -0.959   1.186   1.164  1.00  0.00     0.018 C 
ENDROOT
BRANCH   1  20
HETATM   20  C5  UNL     1      -5.384   0.194  -0.621  1.00  0.00     0.058 C 
HETATM   21  C6  UNL     1      -5.537   1.600  -1.188  1.00  0.00     0.023 C 
BRANCH  20  22
HETATM   22  C4  UNL     1      -6.439  -0.501  -0.541  1.00  0.00    -0.145 C 
BRANCH  22  23
HETATM   23  C2  UNL     1      -7.625  -1.227  -0.475  1.00  0.00    -0.030 C 
HETATM   24  C1  UNL     1      -7.623  -2.409   0.072  1.00  0.00     0.027 C 
HETATM   25  C3  UNL     1      -8.922  -0.675  -1.031  1.00  0.00     0.056 C 
ENDBRANCH  22  23
ENDBRANCH  20  22
ENDBRANCH   1  20
BRANCH  11  26
HETATM   26  C12 UNL     1       3.909   0.470   1.124  1.00  0.00     0.124 C 
BRANCH  26  27
HETATM   27  C13 UNL     1       4.604   1.601   0.298  1.00  0.00     0.050 C 
BRANCH  27  28
HETATM   28  C14 UNL     1       5.444   0.806  -0.712  1.00  0.00     0.274 C 
BRANCH  28  29
HETATM   29  N5  UNL     1       6.524   0.094  -0.039  1.00  0.00     0.087 N 
BRANCH  29  30
HETATM   30  C15 UNL     1       7.120  -0.957  -0.733  1.00  0.00     0.268 C 
HETATM   31  C16 UNL     1       8.003  -1.792   0.179  1.00  0.00     0.037 C 
ENDBRANCH  29  30
BRANCH  29  32
HETATM   32  C17 UNL     1       7.412   1.061   0.563  1.00  0.00     0.268 C 
HETATM   33  C18 UNL     1       8.030   2.013  -0.392  1.00  0.00     0.037 C 
ENDBRANCH  29  32
ENDBRANCH  28  29
ENDBRANCH  27  28
ENDBRANCH  26  27
ENDBRANCH  11  26
TORSDOF 9
