REMARK  6 active torsions:
REMARK  status: ('A' for Active; 'I' for Inactive)
REMARK    1  A    between atoms: C2_2  and  N1_3 
REMARK    2  A    between atoms: N1_3  and  C3_4 
REMARK       I    between atoms: N1_3  and  C5_6 
REMARK    3  A    between atoms: C5_6  and  C6_8 
REMARK    4  A    between atoms: C7_9  and  C8_10 
REMARK    5  A    between atoms: C16_18  and  N2_19 
REMARK    6  A    between atoms: N2_19  and  C17_21 
ROOT
HETATM    1  C8  UNL     1       1.718   2.015  -0.588  1.00  0.00    -0.053 C 
HETATM    2  C9  UNL     1       1.073   3.201  -0.688  1.00  0.00    -0.018 C 
HETATM    3  C10 UNL     1      -0.306   3.091  -1.085  1.00  0.00     0.033 C 
HETATM    4  C11 UNL     1      -0.496   1.692  -1.483  1.00  0.00     0.006 C 
HETATM    5  C12 UNL     1      -1.795   1.084  -1.089  1.00  0.00    -0.004 C 
HETATM    6  C13 UNL     1      -2.037  -0.167  -1.840  1.00  0.00     0.006 C 
HETATM    7  C14 UNL     1      -2.848  -1.181  -1.011  1.00  0.00     0.008 C 
HETATM    8  C15 UNL     1      -3.896  -0.377  -0.323  1.00  0.00     0.017 C 
HETATM    9  C16 UNL     1      -5.077  -1.131   0.177  1.00  0.00     0.088 C 
HETATM   10  C18 UNL     1      -4.583  -2.214   1.104  1.00  0.00     0.026 C 
HETATM   11  C19 UNL     1      -3.539  -1.756   2.056  1.00  0.00     0.003 C 
HETATM   12  C20 UNL     1      -3.331  -0.283   2.123  1.00  0.00     0.010 C 
HETATM   13  C21 UNL     1      -3.258   0.433   0.818  1.00  0.00    -0.035 C 
HETATM   14  C22 UNL     1      -4.219   1.642   0.923  1.00  0.00     0.016 C 
HETATM   15  C23 UNL     1      -1.916   0.942   0.431  1.00  0.00    -0.001 C 
HETATM   16  C24 UNL     1      -0.725   0.302   1.026  1.00  0.00     0.007 C 
HETATM   17  C25 UNL     1       0.442   0.047   0.141  1.00  0.00     0.015 C 
HETATM   18  C26 UNL     1       0.737   0.996  -0.949  1.00  0.00    -0.013 C 
HETATM   19  C27 UNL     1       1.316   0.204  -2.145  1.00  0.00     0.021 C 
ENDROOT
BRANCH   1  20
HETATM   20  C7  UNL     1       3.105   1.887  -0.204  1.00  0.00     0.013 C 
HETATM   21  C6  UNL     1       4.036   1.080   0.009  1.00  0.00     0.075 C 
BRANCH  21  22
HETATM   22  C5  UNL     1       4.364  -0.286   0.017  1.00  0.00     0.243 C 
HETATM   23  N1  UNL     1       5.723  -0.706   0.387  1.00  0.00    -0.349 N 
HETATM   24  O1  UNL     1       3.596  -1.233  -0.270  1.00  0.00    -0.268 OA
BRANCH  23  25
HETATM   25  C2  UNL     1       6.033  -2.099   0.334  1.00  0.00     0.121 C 
HETATM   26  C1  UNL     1       5.716  -2.711   1.700  1.00  0.00     0.026 C 
ENDBRANCH  23  25
BRANCH  23  27
HETATM   27  C3  UNL     1       6.705   0.229   0.824  1.00  0.00     0.121 C 
HETATM   28  C4  UNL     1       7.487   0.827  -0.318  1.00  0.00     0.026 C 
ENDBRANCH  23  27
ENDBRANCH  21  22
ENDBRANCH   1  20
BRANCH   9  29
HETATM   29  N2  UNL     1      -5.755  -1.746  -0.938  1.00  0.00    -0.363 N 
ATOM     30  H2  UNL     1      -5.250  -2.437  -1.493  1.00  0.00     0.162 HD
BRANCH  29  31
HETATM   31  C17 UNL     1      -7.092  -1.435  -1.299  1.00  0.00     0.348 C 
HETATM   32  O2  UNL     1      -7.691  -0.568  -0.583  1.00  0.00    -0.284 OA
ENDBRANCH  29  31
ENDBRANCH   9  29
TORSDOF 6
