REMARK  4 active torsions:
REMARK  status: ('A' for Active; 'I' for Inactive)
REMARK    1  A    between atoms: C3_3  and  O1_4 
REMARK    2  A    between atoms: O1_4  and  C4_5 
REMARK    3  A    between atoms: C9_11  and  O3_12 
REMARK    4  A    between atoms: C10_14  and  C11_15 
ROOT
HETATM    1  C1  UNL     1       2.323   1.716   1.798  1.00  0.00     0.022 C 
HETATM    2  C2  UNL     1       2.526   0.739   0.954  1.00  0.00    -0.029 C 
HETATM    3  C3  UNL     1       3.732  -0.084   0.889  1.00  0.00     0.081 C 
HETATM    4  C6  UNL     1       3.418  -1.266   0.353  1.00  0.00     0.016 C 
HETATM    5  C7  UNL     1       2.004  -1.294   0.037  1.00  0.00     0.022 C 
HETATM    6  C8  UNL     1       1.611  -1.853  -1.282  1.00  0.00     0.041 C 
HETATM    7  C9  UNL     1       0.187  -1.615  -1.602  1.00  0.00     0.123 C 
HETATM    8  C10 UNL     1      -0.489  -0.433  -1.043  1.00  0.00     0.025 C 
HETATM    9  C20 UNL     1       0.210   0.271   0.101  1.00  0.00     0.018 C 
HETATM   10  C21 UNL     1       1.676   0.207  -0.104  1.00  0.00     0.029 C 
ENDROOT
BRANCH   8  11
HETATM   11  C11 UNL     1      -1.948  -0.720  -0.617  1.00  0.00    -0.008 C 
HETATM   12  C12 UNL     1      -1.976  -1.739   0.466  1.00  0.00     0.018 C 
HETATM   13  C13 UNL     1      -2.783  -1.242  -1.782  1.00  0.00     0.142 C 
HETATM   14 CL1  UNL     1      -3.062  -2.976  -1.817  1.00  0.00    -0.120 Cl
HETATM   15  C14 UNL     1      -3.941  -0.411  -1.271  1.00  0.00     0.169 C 
HETATM   16 CL2  UNL     1      -4.851   0.457  -2.494  1.00  0.00    -0.085 Cl
HETATM   17  O4  UNL     1      -4.671  -0.961  -0.202  1.00  0.00    -0.291 OA
HETATM   18  C19 UNL     1      -2.841   0.445  -0.587  1.00  0.00     0.066 C 
HETATM   19  C15 UNL     1      -4.558  -0.190   0.941  1.00  0.00     0.269 C 
HETATM   20  O5  UNL     1      -5.115  -0.335   2.036  1.00  0.00    -0.264 OA
HETATM   21  C16 UNL     1      -3.585   0.907   0.586  1.00  0.00     0.049 C 
HETATM   22  C17 UNL     1      -2.844   1.449   1.747  1.00  0.00     0.026 C 
HETATM   23  C18 UNL     1      -4.504   2.046   0.093  1.00  0.00     0.026 C 
ENDBRANCH   8  11
BRANCH   7  24
HETATM   24  O3  UNL     1       0.141  -1.519  -3.024  1.00  0.00    -0.395 OA
ATOM     25  H3  UNL     1      -0.774  -1.366  -3.230  1.00  0.00     0.210 HD
ENDBRANCH   7  24
BRANCH   3  26
HETATM   26  O1  UNL     1       5.031   0.228   1.295  1.00  0.00    -0.279 OA
BRANCH  26  27
HETATM   27  C4  UNL     1       5.950   0.818   0.440  1.00  0.00     0.260 C 
HETATM   28  C5  UNL     1       7.341   1.169   0.823  1.00  0.00     0.126 C 
HETATM   29  O2  UNL     1       5.574   1.067  -0.732  1.00  0.00    -0.265 OA
ENDBRANCH  26  27
ENDBRANCH   3  26
TORSDOF 4
