REMARK  5 active torsions:
REMARK  status: ('A' for Active; 'I' for Inactive)
REMARK    1  A    between atoms: C2_2  and  C3_3 
REMARK    2  A    between atoms: C4_4  and  C5_5 
REMARK    3  A    between atoms: C18_22  and  O3_23 
REMARK    4  A    between atoms: C22_28  and  O4_29 
REMARK    5  A    between atoms: O4_29  and  C23_30 
ROOT
HETATM    1  C3  UNL     1       1.168   1.577  -0.450  1.00  0.00     0.051 C 
HETATM    2  C4  UNL     1       1.433   1.572   1.014  1.00  0.00     0.007 C 
HETATM    3  C6  UNL     1       1.622   0.349   1.391  1.00  0.00     0.063 C 
HETATM    4  C7  UNL     1       1.909  -0.463   2.591  1.00  0.00     0.293 C 
HETATM    5  O1  UNL     1       2.365  -0.053   3.661  1.00  0.00    -0.259 OA
HETATM    6  O2  UNL     1       1.545  -1.756   2.215  1.00  0.00    -0.309 OA
HETATM    7  C8  UNL     1       1.554  -1.847   0.768  1.00  0.00     0.172 C 
HETATM    8  C9  UNL     1       0.684  -2.957   0.328  1.00  0.00     0.036 C 
HETATM    9  C10 UNL     1      -0.664  -3.001   1.016  1.00  0.00     0.003 C 
HETATM   10  C11 UNL     1      -1.584  -2.271   0.020  1.00  0.00     0.006 C 
HETATM   11  C12 UNL     1      -1.466  -0.792   0.223  1.00  0.00     0.004 C 
HETATM   12  C13 UNL     1      -2.799  -0.203   0.695  1.00  0.00    -0.043 C 
HETATM   13  C14 UNL     1      -2.630   0.879   1.741  1.00  0.00     0.015 C 
HETATM   14  C15 UNL     1      -3.583  -1.300   1.439  1.00  0.00     0.015 C 
HETATM   15  C16 UNL     1      -3.694   0.179  -0.427  1.00  0.00     0.011 C 
HETATM   16  C17 UNL     1      -2.972   0.885  -1.466  1.00  0.00     0.033 C 
HETATM   17  C18 UNL     1      -1.521   1.241  -1.150  1.00  0.00     0.127 C 
HETATM   18  C19 UNL     1      -0.738  -0.047  -0.832  1.00  0.00    -0.006 C 
HETATM   19  C20 UNL     1      -1.099  -0.823  -2.138  1.00  0.00     0.019 C 
HETATM   20  C21 UNL     1       0.718   0.138  -0.753  1.00  0.00     0.051 C 
HETATM   21  C22 UNL     1       1.601  -0.551   0.180  1.00  0.00     0.136 C 
ENDROOT
BRANCH  21  22
HETATM   22  O4  UNL     1       2.859  -0.406  -0.463  1.00  0.00    -0.302 OA
BRANCH  22  23
HETATM   23  C23 UNL     1       4.115  -0.611  -0.078  1.00  0.00     0.256 C 
HETATM   24  C24 UNL     1       5.330  -0.412  -0.931  1.00  0.00     0.126 C 
HETATM   25  O5  UNL     1       4.295  -0.992   1.057  1.00  0.00    -0.266 OA
ENDBRANCH  22  23
ENDBRANCH  21  22
BRANCH   2  26
HETATM   26  C5  UNL     1       1.455   2.839   1.791  1.00  0.00     0.384 C 
HETATM   27  F1  UNL     1       1.687   2.660   3.109  1.00  0.00    -0.209 F 
HETATM   28  F2  UNL     1       2.402   3.711   1.282  1.00  0.00    -0.209 F 
ENDBRANCH   2  26
BRANCH   1  29
HETATM   29  C2  UNL     1       2.191   2.176  -1.287  1.00  0.00    -0.027 C 
HETATM   30  C1  UNL     1       2.014   3.314  -2.007  1.00  0.00     0.007 C 
ENDBRANCH   1  29
BRANCH  17  31
HETATM   31  O3  UNL     1      -1.157   1.745  -2.426  1.00  0.00    -0.395 OA
ATOM     32  H3  UNL     1      -0.254   1.966  -2.229  1.00  0.00     0.210 HD
ENDBRANCH  17  31
TORSDOF 5
