REMARK  14 active torsions:
REMARK  status: ('A' for Active; 'I' for Inactive)
REMARK    1  A    between atoms: O1_2  and  C2_3 
REMARK    2  A    between atoms: C2_3  and  C3_4 
REMARK    3  A    between atoms: C6_8  and  C7_9 
REMARK    4  A    between atoms: C7_9  and  C9_11 
REMARK    5  A    between atoms: C9_11  and  O3_12 
REMARK    6  A    between atoms: C9_11  and  C10_14 
REMARK    7  A    between atoms: C10_14  and  C12_16 
REMARK    8  A    between atoms: C13_17  and  C14_18 
REMARK    9  A    between atoms: C18_22  and  O4_23 
REMARK   10  A    between atoms: O4_23  and  C19_24 
REMARK   11  A    between atoms: C23_29  and  O6_30 
REMARK   12  A    between atoms: C24_32  and  O7_33 
REMARK   13  A    between atoms: C25_35  and  O8_36 
REMARK   14  A    between atoms: C26_38  and  C27_39 
ROOT
HETATM    1  C3  UNL     1      -0.316   2.672  -0.648  1.00  0.00     0.054 C 
HETATM    2  C4  UNL     1       0.997   3.179  -1.194  1.00  0.00     0.027 C 
HETATM    3  C5  UNL     1      -0.255   2.249   0.776  1.00  0.00     0.145 C 
HETATM    4  O2  UNL     1       0.019   3.057   1.657  1.00  0.00    -0.296 OA
HETATM    5  C6  UNL     1      -0.552   0.857   0.918  1.00  0.00     0.092 C 
HETATM    6  C18 UNL     1      -1.083   0.340  -0.414  1.00  0.00     0.152 C 
HETATM    7  C26 UNL     1      -0.839   1.481  -1.345  1.00  0.00     0.134 C 
ENDROOT
BRANCH   6   8
HETATM    8  O4  UNL     1      -2.430   0.138  -0.269  1.00  0.00    -0.351 OA
BRANCH   8   9
HETATM    9  C19 UNL     1      -2.917  -1.114  -0.511  1.00  0.00     0.292 C 
HETATM   10  O5  UNL     1      -3.349  -1.800   0.593  1.00  0.00    -0.346 OA
HETATM   11  C20 UNL     1      -4.684  -1.860   0.846  1.00  0.00     0.085 C 
HETATM   12  C21 UNL     1      -5.209  -0.493   1.193  1.00  0.00     0.048 C 
HETATM   13  C22 UNL     1      -4.927  -2.728   2.092  1.00  0.00     0.048 C 
HETATM   14  C23 UNL     1      -5.487  -2.396  -0.321  1.00  0.00     0.183 C 
HETATM   15  C24 UNL     1      -4.595  -2.575  -1.539  1.00  0.00     0.183 C 
HETATM   16  C25 UNL     1      -3.814  -1.284  -1.659  1.00  0.00     0.204 C 
BRANCH  14  17
HETATM   17  O6  UNL     1      -6.039  -3.609   0.079  1.00  0.00    -0.390 OA
ATOM     18  H6  UNL     1      -6.543  -3.945  -0.653  1.00  0.00     0.210 HD
ENDBRANCH  14  17
BRANCH  15  19
HETATM   19  O7  UNL     1      -3.725  -3.637  -1.424  1.00  0.00    -0.390 OA
ATOM     20  H7  UNL     1      -3.168  -3.749  -2.185  1.00  0.00     0.210 HD
ENDBRANCH  15  19
BRANCH  16  21
HETATM   21  O8  UNL     1      -4.755  -0.277  -1.855  1.00  0.00    -0.388 OA
ATOM     22  H8  UNL     1      -5.336  -0.387  -2.599  1.00  0.00     0.210 HD
ENDBRANCH  16  21
ENDBRANCH   8   9
ENDBRANCH   6   8
BRANCH   5  23
HETATM   23  C7  UNL     1       0.539   0.001   1.482  1.00  0.00     0.025 C 
HETATM   24  C8  UNL     1       0.129  -1.425   1.623  1.00  0.00     0.013 C 
BRANCH  23  25
HETATM   25  C9  UNL     1       1.928   0.356   1.206  1.00  0.00     0.130 C 
BRANCH  25  26
HETATM   26  O3  UNL     1       2.306   1.610   1.753  1.00  0.00    -0.395 OA
ATOM     27  H3  UNL     1       3.210   1.841   1.573  1.00  0.00     0.210 HD
ENDBRANCH  25  26
BRANCH  25  28
HETATM   28  C10 UNL     1       3.042  -0.586   1.526  1.00  0.00     0.033 C 
HETATM   29  C11 UNL     1       3.102  -1.843   0.776  1.00  0.00     0.017 C 
BRANCH  28  30
HETATM   30  C12 UNL     1       4.324   0.134   1.569  1.00  0.00    -0.020 C 
HETATM   31  C13 UNL     1       5.488  -0.048   1.131  1.00  0.00    -0.003 C 
BRANCH  31  32
HETATM   32  C14 UNL     1       6.114  -1.090   0.358  1.00  0.00     0.002 C 
HETATM   33  C15 UNL     1       7.403  -0.979   0.049  1.00  0.00    -0.088 C 
HETATM   34  C16 UNL     1       8.163   0.197   0.498  1.00  0.00     0.043 C 
HETATM   35  C17 UNL     1       8.064  -2.028  -0.740  1.00  0.00     0.043 C 
ENDBRANCH  31  32
ENDBRANCH  28  30
ENDBRANCH  25  28
ENDBRANCH  23  25
ENDBRANCH   5  23
BRANCH   7  36
HETATM   36  C27 UNL     1       0.044   1.129  -2.488  1.00  0.00     0.180 C 
HETATM   37  O9  UNL     1       0.635   0.025  -2.583  1.00  0.00    -0.648 OA
HETATM   38  O10 UNL     1       0.241   2.042  -3.510  1.00  0.00    -0.648 OA
ENDBRANCH   7  36
BRANCH   1  39
HETATM   39  C2  UNL     1      -1.271   3.864  -0.803  1.00  0.00     0.184 C 
BRANCH  39  40
HETATM   40  O1  UNL     1      -2.536   3.569  -0.345  1.00  0.00    -0.395 OA
HETATM   41  C1  UNL     1      -3.305   4.727  -0.540  1.00  0.00     0.201 C 
ENDBRANCH  39  40
ENDBRANCH   1  39
TORSDOF 14
