REMARK  17 active torsions:
REMARK  status: ('A' for Active; 'I' for Inactive)
REMARK    1  A    between atoms: C2_2  and  O1_3 
REMARK    2  A    between atoms: O1_3  and  C3_4 
REMARK    3  A    between atoms: C4_5  and  O2_6 
REMARK    4  A    between atoms: C5_8  and  O3_9 
REMARK    5  A    between atoms: C6_11  and  O4_12 
REMARK    6  A    between atoms: C7_14  and  O5_15 
REMARK    7  A    between atoms: O5_15  and  C8_16 
REMARK    8  A    between atoms: C8_16  and  C9_17 
REMARK    9  A    between atoms: C9_17  and  O6_18 
REMARK   10  A    between atoms: C17_27  and  O8_28 
REMARK   11  A    between atoms: C18_30  and  O9_31 
REMARK   12  A    between atoms: O9_31  and  C19_32 
REMARK   13  A    between atoms: C20_33  and  C21_34 
REMARK   14  A    between atoms: C24_39  and  C25_40 
REMARK   15  A    between atoms: C25_40  and  O12_41 
REMARK   16  A    between atoms: C25_40  and  C26_43 
REMARK   17  A    between atoms: C26_43  and  O14_45 
ROOT
HETATM    1  C3  UNL     1      -1.448   1.496   1.166  1.00  0.00     0.184 C 
HETATM    2  C4  UNL     1      -1.811   2.765   0.456  1.00  0.00     0.181 C 
HETATM    3  C5  UNL     1      -0.731   3.399  -0.328  1.00  0.00     0.180 C 
HETATM    4  C6  UNL     1       0.669   3.135   0.021  1.00  0.00     0.181 C 
HETATM    5  C7  UNL     1       1.023   1.711  -0.094  1.00  0.00     0.184 C 
HETATM    6  C17 UNL     1      -0.006   0.808  -0.725  1.00  0.00     0.181 C 
HETATM    7  C18 UNL     1      -1.079   0.369   0.271  1.00  0.00     0.184 C 
ENDROOT
BRANCH   7   8
HETATM    8  O9  UNL     1      -2.153  -0.224  -0.245  1.00  0.00    -0.374 OA
BRANCH   8   9
HETATM    9  C19 UNL     1      -2.526  -1.487  -0.129  1.00  0.00     0.143 C 
HETATM   10  C20 UNL     1      -2.179  -2.244  -1.507  1.00  0.00     0.116 C 
HETATM   11  C22 UNL     1      -3.065  -1.516  -2.436  1.00  0.00     0.018 C 
HETATM   12  C23 UNL     1      -4.365  -1.452  -1.683  1.00  0.00     0.011 C 
HETATM   13  C24 UNL     1      -4.010  -1.678  -0.262  1.00  0.00     0.054 C 
BRANCH  10  14
HETATM   14  C21 UNL     1      -2.667  -3.649  -1.371  1.00  0.00     0.179 C 
HETATM   15  O10 UNL     1      -3.518  -4.090  -2.201  1.00  0.00    -0.648 OA
HETATM   16  O11 UNL     1      -2.231  -4.490  -0.381  1.00  0.00    -0.648 OA
ENDBRANCH  10  14
BRANCH  13  17
HETATM   17  C25 UNL     1      -4.885  -0.892   0.667  1.00  0.00     0.224 C 
BRANCH  17  18
HETATM   18  O12 UNL     1      -4.511  -1.326   1.971  1.00  0.00    -0.385 OA
ATOM     19  H12 UNL     1      -5.066  -0.828   2.560  1.00  0.00     0.210 HD
ENDBRANCH  17  18
BRANCH  17  20
HETATM   20  C26 UNL     1      -6.305  -1.239   0.552  1.00  0.00     0.287 C 
HETATM   21  O13 UNL     1      -6.909  -0.907  -0.512  1.00  0.00    -0.262 OA
BRANCH  20  22
HETATM   22  O14 UNL     1      -7.037  -1.904   1.515  1.00  0.00    -0.324 OA
HETATM   23  C27 UNL     1      -8.391  -2.243   1.415  1.00  0.00     0.213 C 
ENDBRANCH  20  22
ENDBRANCH  17  20
ENDBRANCH  13  17
ENDBRANCH   8   9
ENDBRANCH   7   8
BRANCH   1  24
HETATM   24  O1  UNL     1      -2.451   1.258   2.063  1.00  0.00    -0.381 OA
BRANCH  24  25
HETATM   25  C2  UNL     1      -2.212   1.388   3.387  1.00  0.00     0.164 C 
HETATM   26  C1  UNL     1      -1.794   2.781   3.786  1.00  0.00     0.033 C 
ENDBRANCH  24  25
ENDBRANCH   1  24
BRANCH   6  27
HETATM   27  O8  UNL     1       0.756  -0.292  -1.135  1.00  0.00    -0.390 OA
ATOM     28  H8  UNL     1       0.108  -0.861  -1.533  1.00  0.00     0.210 HD
ENDBRANCH   6  27
BRANCH   2  29
HETATM   29  O2  UNL     1      -2.931   2.509  -0.347  1.00  0.00    -0.390 OA
ATOM     30  H2  UNL     1      -3.161   3.313  -0.797  1.00  0.00     0.210 HD
ENDBRANCH   2  29
BRANCH   5  31
HETATM   31  O5  UNL     1       2.259   1.480  -0.699  1.00  0.00    -0.375 OA
BRANCH  31  32
HETATM   32  C8  UNL     1       3.166   0.876   0.123  1.00  0.00     0.236 C 
BRANCH  32  33
HETATM   33  C9  UNL     1       4.506   0.632  -0.539  1.00  0.00     0.185 C 
HETATM   34  C11 UNL     1       4.300  -0.170  -1.820  1.00  0.00     0.071 C 
HETATM   35  C12 UNL     1       4.162  -1.613  -1.473  1.00  0.00     0.012 C 
HETATM   36  C13 UNL     1       5.339  -2.149  -0.740  1.00  0.00     0.010 C 
HETATM   37  C14 UNL     1       6.247  -2.941  -1.681  1.00  0.00     0.012 C 
HETATM   38  C15 UNL     1       6.050  -1.058  -0.017  1.00  0.00     0.124 C 
HETATM   39  C16 UNL     1       7.374  -0.700  -0.687  1.00  0.00     0.040 C 
HETATM   40  O7  UNL     1       5.321   0.015   0.369  1.00  0.00    -0.348 OA
BRANCH  33  41
HETATM   41  O6  UNL     1       5.078   1.835  -0.956  1.00  0.00    -0.358 OA
HETATM   42  C10 UNL     1       5.303   2.747   0.038  1.00  0.00     0.205 C 
ENDBRANCH  33  41
ENDBRANCH  32  33
ENDBRANCH  31  32
ENDBRANCH   5  31
BRANCH   3  43
HETATM   43  O3  UNL     1      -0.901   4.817  -0.259  1.00  0.00    -0.390 OA
ATOM     44  H3  UNL     1      -0.207   5.225  -0.763  1.00  0.00     0.210 HD
ENDBRANCH   3  43
BRANCH   4  45
HETATM   45  O4  UNL     1       1.072   3.659   1.250  1.00  0.00    -0.390 OA
ATOM     46  H4  UNL     1       1.979   3.488   1.476  1.00  0.00     0.210 HD
ENDBRANCH   4  45
TORSDOF 17
