REMARK  16 active torsions:
REMARK  status: ('A' for Active; 'I' for Inactive)
REMARK    1  A    between atoms: C3_5  and  N2_6 
REMARK    2  A    between atoms: N2_6  and  C4_8 
REMARK    3  A    between atoms: C7_11  and  O1_12 
REMARK    4  A    between atoms: O1_12  and  C8_13 
REMARK    5  A    between atoms: N3_16  and  O2_17 
REMARK    6  A    between atoms: C12_20  and  C13_21 
REMARK    7  A    between atoms: C13_21  and  O3_22 
REMARK    8  A    between atoms: N5_28  and  C16_29 
REMARK    9  A    between atoms: C16_29  and  C17_30 
REMARK   10  A    between atoms: C16_29  and  C18_33 
REMARK   11  A    between atoms: C17_30  and  O4_31 
REMARK   12  A    between atoms: C18_33  and  N6_34 
REMARK   13  A    between atoms: C19_36  and  C20_37 
REMARK   14  A    between atoms: C20_37  and  O5_38 
REMARK   15  A    between atoms: C20_37  and  N7_40 
REMARK   16  A    between atoms: N7_40  and  C21_42 
ROOT
HETATM    1  C21 UNL     1      -6.700   1.459  -0.585  1.00  0.00     0.684 A 
HETATM    2  N8  UNL     1      -7.506   0.871   0.288  1.00  0.00    -0.166 N 
ATOM      3  H8  UNL     1      -7.124   0.507   1.161  1.00  0.00     0.186 HD
HETATM    4  C22 UNL     1      -8.816   0.749   0.037  1.00  0.00     0.205 A 
HETATM    5  C23 UNL     1      -9.665   0.104   1.006  1.00  0.00     0.137 C 
HETATM    6  N9  UNL     1     -10.333  -0.421   1.800  1.00  0.00    -0.188 NA
HETATM    7  N10 UNL     1      -9.309   1.239  -1.130  1.00  0.00    -0.309 N 
ATOM      8  H10 UNL     1     -10.304   1.154  -1.336  1.00  0.00     0.170 HD
HETATM    9  C24 UNL     1      -8.492   1.836  -2.015  1.00  0.00     0.195 A 
HETATM   10 CL1  UNL     1      -9.117   2.480  -3.541  1.00  0.00    -0.044 Cl
HETATM   11  N11 UNL     1      -7.182   1.942  -1.732  1.00  0.00    -0.166 N 
ATOM     12  H11 UNL     1      -6.554   2.393  -2.397  1.00  0.00     0.186 HD
ENDROOT
BRANCH   1  13
HETATM   13  N7  UNL     1      -5.452   1.570  -0.336  1.00  0.00    -0.195 N 
ATOM     14  H7  UNL     1      -4.829   2.023  -1.005  1.00  0.00     0.180 HD
BRANCH  13  15
HETATM   15  C20 UNL     1      -4.934   1.044   0.909  1.00  0.00     0.274 C 
BRANCH  15  16
HETATM   16  C19 UNL     1      -3.466   1.181   0.971  1.00  0.00     0.109 C 
HETATM   17  N6  UNL     1      -2.725   0.308   0.419  1.00  0.00    -0.396 N 
ATOM     18  H6  UNL     1      -1.710   0.403   0.462  1.00  0.00     0.158 HD
BRANCH  17  19
HETATM   19  C18 UNL     1      -3.306  -0.804  -0.261  1.00  0.00     0.148 C 
BRANCH  19  20
HETATM   20  C16 UNL     1      -2.272  -1.657  -0.947  1.00  0.00     0.151 C 
BRANCH  20  21
HETATM   21  N5  UNL     1      -1.316  -2.196  -0.022  1.00  0.00    -0.257 N 
HETATM   22  C2  UNL     1      -1.477  -3.195   0.838  1.00  0.00     0.111 A 
HETATM   23  C1  UNL     1      -2.620  -4.063   1.138  1.00  0.00     0.091 C 
HETATM   24  N1  UNL     1      -0.288  -3.333   1.494  1.00  0.00    -0.178 N 
HETATM   25  C3  UNL     1       0.580  -2.434   1.040  1.00  0.00     0.698 A 
ATOM     26  H1  UNL     1      -0.095  -4.021   2.222  1.00  0.00     0.185 HD
HETATM   27  N4  UNL     1      -0.062  -1.736   0.105  1.00  0.00    -0.128 N 
ATOM     28  H4  UNL     1       0.339  -0.968  -0.433  1.00  0.00     0.206 HD
BRANCH  25  29
HETATM   29  N2  UNL     1       1.789  -2.332   1.482  1.00  0.00    -0.190 N 
ATOM     30  H2  UNL     1       2.096  -2.971   2.215  1.00  0.00     0.184 HD
BRANCH  29  31
HETATM   31  C4  UNL     1       2.716  -1.362   0.988  1.00  0.00     0.049 A 
HETATM   32  C5  UNL     1       3.437  -1.609  -0.168  1.00  0.00     0.033 A 
HETATM   33  C6  UNL     1       4.350  -0.686  -0.678  1.00  0.00     0.039 A 
HETATM   34  C7  UNL     1       4.523   0.499   0.004  1.00  0.00     0.076 A 
HETATM   35  C14 UNL     1       3.802   0.739   1.153  1.00  0.00     0.039 A 
HETATM   36  C15 UNL     1       2.896  -0.177   1.661  1.00  0.00     0.033 A 
BRANCH  34  37
HETATM   37  O1  UNL     1       5.408   1.473  -0.429  1.00  0.00    -0.310 OA
BRANCH  37  38
HETATM   38  C8  UNL     1       6.721   1.450   0.012  1.00  0.00     0.087 A 
HETATM   39  C9  UNL     1       7.177   0.472   0.879  1.00  0.00     0.057 A 
HETATM   40  C10 UNL     1       8.486   0.448   1.319  1.00  0.00     0.125 A 
HETATM   41  N3  UNL     1       9.331   1.396   0.894  1.00  0.00    -0.246 N 
HETATM   42  C11 UNL     1       8.929   2.377   0.042  1.00  0.00     0.134 A 
HETATM   43  C12 UNL     1       7.607   2.415  -0.413  1.00  0.00     0.017 A 
BRANCH  41  44
HETATM   44  O2  UNL     1      10.658   1.438   1.292  1.00  0.00    -0.284 OA
ATOM     45  H2  UNL     1      11.257   2.111   0.991  1.00  0.00     0.245 HD
ENDBRANCH  41  44
BRANCH  43  46
HETATM   46  C13 UNL     1       7.120   3.462  -1.342  1.00  0.00     0.207 C 
BRANCH  46  47
HETATM   47  O3  UNL     1       8.135   4.353  -1.671  1.00  0.00    -0.396 OA
ATOM     48  H3  UNL     1       7.823   5.024  -2.266  1.00  0.00     0.209 HD
ENDBRANCH  46  47
ENDBRANCH  43  46
ENDBRANCH  37  38
ENDBRANCH  34  37
ENDBRANCH  29  31
ENDBRANCH  25  29
ENDBRANCH  20  21
BRANCH  20  49
HETATM   49  C17 UNL     1      -2.863  -2.711  -1.845  1.00  0.00     0.193 C 
BRANCH  49  50
HETATM   50  O4  UNL     1      -3.788  -2.102  -2.733  1.00  0.00    -0.399 OA
ATOM     51  H4  UNL     1      -4.161  -2.767  -3.300  1.00  0.00     0.209 HD
ENDBRANCH  49  50
ENDBRANCH  20  49
ENDBRANCH  19  20
ENDBRANCH  17  19
ENDBRANCH  15  16
BRANCH  15  52
HETATM   52  O5  UNL     1      -5.560   1.808   1.923  1.00  0.00    -0.371 OA
ATOM     53  H5  UNL     1      -6.505   1.720   1.883  1.00  0.00     0.212 HD
ENDBRANCH  15  52
ENDBRANCH  13  15
ENDBRANCH   1  13
TORSDOF 16
