REMARK  17 active torsions:
REMARK  status: ('A' for Active; 'I' for Inactive)
REMARK    1  A    between atoms: C4_4  and  O1_5 
REMARK    2  A    between atoms: C5_7  and  O2_8 
REMARK    3  A    between atoms: C6_10  and  O3_11 
REMARK    4  A    between atoms: O3_11  and  C7_12 
REMARK    5  A    between atoms: C8_13  and  N1_14 
REMARK    6  A    between atoms: N1_14  and  N2_16 
REMARK    7  A    between atoms: N2_16  and  N3_17 
REMARK    8  A    between atoms: C13_24  and  O4_25 
REMARK    9  A    between atoms: O4_25  and  C14_26 
REMARK   10  A    between atoms: C15_28  and  C16_29 
REMARK   11  A    between atoms: C16_29  and  O6_30 
REMARK   12  A    between atoms: C17_32  and  O7_33 
REMARK   13  A    between atoms: C19_36  and  O8_37 
REMARK   14  A    between atoms: O8_37  and  C20_38 
REMARK   15  A    between atoms: C20_38  and  C21_39 
REMARK   16  A    between atoms: C21_39  and  N4_40 
REMARK   17  A    between atoms: N4_40  and  C22_42 
ROOT
HETATM    1  C7  UNL     1       1.101   0.688   0.554  1.00  0.00     0.179 C 
HETATM    2  C8  UNL     1       0.559   2.004   0.955  1.00  0.00     0.146 C 
HETATM    3  C9  UNL     1      -0.187   2.765  -0.060  1.00  0.00     0.031 C 
HETATM    4  C10 UNL     1       0.030   2.406  -1.477  1.00  0.00     0.009 C 
HETATM    5  C11 UNL     1       0.468   1.016  -1.743  1.00  0.00     0.013 C 
HETATM    6  C12 UNL     1      -0.075   0.439  -3.027  1.00  0.00     0.012 C 
HETATM    7  C13 UNL     1       0.213   0.121  -0.558  1.00  0.00     0.159 C 
ENDROOT
BRANCH   7   8
HETATM    8  O4  UNL     1      -1.078   0.147  -0.088  1.00  0.00    -0.350 OA
BRANCH   8   9
HETATM    9  C14 UNL     1      -1.674  -1.074   0.033  1.00  0.00     0.289 C 
HETATM   10  O5  UNL     1      -2.079  -1.312   1.357  1.00  0.00    -0.349 OA
HETATM   11  C15 UNL     1      -2.328  -2.677   1.444  1.00  0.00     0.177 C 
HETATM   12  C17 UNL     1      -3.460  -3.155   0.617  1.00  0.00     0.151 C 
HETATM   13  C18 UNL     1      -3.573  -2.512  -0.734  1.00  0.00     0.071 C 
HETATM   14  C19 UNL     1      -2.934  -1.151  -0.806  1.00  0.00     0.179 C 
BRANCH  11  15
HETATM   15  C16 UNL     1      -2.567  -3.098   2.891  1.00  0.00     0.198 C 
BRANCH  15  16
HETATM   16  O6  UNL     1      -2.806  -4.471   2.875  1.00  0.00    -0.398 OA
ATOM     17  H6  UNL     1      -2.955  -4.733   3.776  1.00  0.00     0.209 HD
ENDBRANCH  15  16
ENDBRANCH  11  15
BRANCH  12  18
HETATM   18  O7  UNL     1      -4.631  -3.054   1.369  1.00  0.00    -0.393 OA
ATOM     19  H7  UNL     1      -5.357  -3.361   0.839  1.00  0.00     0.210 HD
ENDBRANCH  12  18
BRANCH  14  20
HETATM   20  O8  UNL     1      -3.841  -0.143  -0.488  1.00  0.00    -0.379 OA
BRANCH  20  21
HETATM   21  C20 UNL     1      -4.058   0.716  -1.571  1.00  0.00     0.188 C 
BRANCH  21  22
HETATM   22  C21 UNL     1      -5.043   1.784  -1.186  1.00  0.00     0.148 C 
BRANCH  22  23
HETATM   23  N4  UNL     1      -4.577   2.574  -0.081  1.00  0.00    -0.366 N 
ATOM     24  H4  UNL     1      -3.671   2.375   0.343  1.00  0.00     0.161 HD
BRANCH  23  25
HETATM   25  C22 UNL     1      -5.376   3.627   0.417  1.00  0.00     0.348 C 
HETATM   26  O9  UNL     1      -6.487   3.851  -0.125  1.00  0.00    -0.284 OA
ENDBRANCH  23  25
ENDBRANCH  22  23
ENDBRANCH  21  22
ENDBRANCH  20  21
ENDBRANCH  14  20
ENDBRANCH   8   9
ENDBRANCH   7   8
BRANCH   1  27
HETATM   27  O3  UNL     1       2.419   0.778   0.178  1.00  0.00    -0.349 OA
BRANCH  27  28
HETATM   28  C6  UNL     1       3.266  -0.066   0.917  1.00  0.00     0.291 C 
HETATM   29  C5  UNL     1       3.785  -1.104  -0.022  1.00  0.00     0.202 C 
HETATM   30  C4  UNL     1       4.859  -0.566  -0.926  1.00  0.00     0.154 C 
HETATM   31  C3  UNL     1       5.649   0.514  -0.273  1.00  0.00     0.066 C 
HETATM   32  C2  UNL     1       5.476   0.598   1.215  1.00  0.00     0.123 C 
HETATM   33  C1  UNL     1       6.332  -0.466   1.885  1.00  0.00     0.040 C 
HETATM   34  O10 UNL     1       4.188   0.601   1.651  1.00  0.00    -0.354 OA
BRANCH  29  35
HETATM   35  O2  UNL     1       4.146  -2.296   0.604  1.00  0.00    -0.388 OA
ATOM     36  H2  UNL     1       3.467  -2.636   1.175  1.00  0.00     0.210 HD
ENDBRANCH  29  35
BRANCH  30  37
HETATM   37  O1  UNL     1       5.634  -1.628  -1.381  1.00  0.00    -0.393 OA
ATOM     38  H1  UNL     1       5.130  -2.317  -1.798  1.00  0.00     0.210 HD
ENDBRANCH  30  37
ENDBRANCH  27  28
ENDBRANCH   1  27
BRANCH   2  39
HETATM   39  N1  UNL     1       1.671   2.795   1.503  1.00  0.00    -0.245 N 
ATOM     40  H1  UNL     1       2.137   2.497   2.360  1.00  0.00     0.197 HD
BRANCH  39  41
HETATM   41  N2  UNL     1       2.036   3.812   0.928  1.00  0.00    -0.248 NA
BRANCH  41  42
HETATM   42  N3  UNL     1       2.723   4.676   0.395  1.00  0.00    -0.261 N 
ATOM     43  H32 UNL     1       3.604   4.185   0.547  1.00  0.00     0.193 HD
ATOM     44  H31 UNL     1       3.027   5.524  -0.084  1.00  0.00     0.193 HD
ENDBRANCH  41  42
ENDBRANCH  39  41
ENDBRANCH   2  39
TORSDOF 17
