REMARK  2 active torsions:
REMARK  status: ('A' for Active; 'I' for Inactive)
REMARK    1  A    between atoms: C10_13  and  C11_15 
REMARK    2  A    between atoms: C11_15  and  O2_16 
ROOT
HETATM    1  C1  UNL     1       2.260   1.375  -0.055  1.00  0.00     0.043 C 
HETATM    2  C2  UNL     1       1.512   0.088  -0.162  1.00  0.00    -0.078 C 
HETATM    3  C3  UNL     1       2.400  -1.045  -0.613  1.00  0.00     0.043 C 
HETATM    4  C4  UNL     1       0.230  -0.070  -0.003  1.00  0.00    -0.015 C 
HETATM    5  C5  UNL     1      -0.332  -1.447  -0.134  1.00  0.00     0.051 C 
HETATM    6  C6  UNL     1       0.003  -2.436   0.626  1.00  0.00     0.117 C 
HETATM    7 CL1  UNL     1      -0.781  -3.989   0.281  1.00  0.00    -0.070 Cl
HETATM    8 CL2  UNL     1       1.055  -2.369   1.999  1.00  0.00    -0.070 Cl
HETATM    9  C7  UNL     1      -1.414  -1.551  -1.145  1.00  0.00     0.162 C 
HETATM   10  O1  UNL     1      -1.786  -2.639  -1.555  1.00  0.00    -0.292 OA
HETATM   11  C8  UNL     1      -1.966  -0.278  -1.578  1.00  0.00     0.086 C 
HETATM   12  C9  UNL     1      -2.066   0.742  -0.480  1.00  0.00     0.041 C 
HETATM   13  C10 UNL     1      -0.738   1.035   0.224  1.00  0.00     0.086 C 
HETATM   14 CL3  UNL     1      -0.154   2.586  -0.349  1.00  0.00    -0.112 Cl
ENDROOT
BRANCH  13  15
HETATM   15  C11 UNL     1      -1.059   1.130   1.693  1.00  0.00     0.194 C 
BRANCH  15  16
HETATM   16  O2  UNL     1      -0.018   1.371   2.537  1.00  0.00    -0.399 OA
ATOM     17  H2  UNL     1      -0.220   1.431   3.463  1.00  0.00     0.209 HD
ENDBRANCH  15  16
ENDBRANCH  13  15
TORSDOF 2
