REMARK  4 active torsions:
REMARK  status: ('A' for Active; 'I' for Inactive)
REMARK    1  A    between atoms: C2_2  and  O1_3 
REMARK    2  A    between atoms: C2_2  and  C14_17 
REMARK    3  A    between atoms: O1_3  and  C3_4 
REMARK    4  A    between atoms: C9_10  and  O2_12 
ROOT
HETATM    1  C3  UNL     1      -1.637  -0.707  -0.044  1.00  0.00     0.123 C 
HETATM    2  C4  UNL     1      -1.135  -1.399  -1.309  1.00  0.00     0.033 C 
HETATM    3  C5  UNL     1       0.159  -2.021  -0.834  1.00  0.00     0.012 C 
HETATM    4  C6  UNL     1       0.745  -0.860  -0.017  1.00  0.00    -0.038 C 
HETATM    5  C7  UNL     1       1.070   0.285  -0.919  1.00  0.00     0.012 C 
HETATM    6  C8  UNL     1       1.985   1.268  -0.271  1.00  0.00     0.038 C 
HETATM    7  C9  UNL     1       3.228   0.576   0.230  1.00  0.00     0.054 C 
HETATM    8  C10 UNL     1       4.232   1.565   0.747  1.00  0.00     0.045 C 
HETATM    9  C11 UNL     1       2.793  -0.357   1.349  1.00  0.00     0.038 C 
HETATM   10  C12 UNL     1       1.893  -1.395   0.757  1.00  0.00     0.012 C 
HETATM   11  C13 UNL     1      -0.448  -0.487   0.833  1.00  0.00     0.041 C 
ENDROOT
BRANCH   1  12
HETATM   12  O1  UNL     1      -2.314   0.471  -0.354  1.00  0.00    -0.372 OA
BRANCH  12  13
HETATM   13  C2  UNL     1      -3.626   0.401   0.104  1.00  0.00     0.225 C 
HETATM   14  C1  UNL     1      -3.860   1.474   1.146  1.00  0.00     0.049 C 
BRANCH  13  15
HETATM   15  C14 UNL     1      -4.621   0.522  -1.032  1.00  0.00     0.412 C 
HETATM   16  F1  UNL     1      -5.884   0.385  -0.511  1.00  0.00    -0.168 F 
HETATM   17  F2  UNL     1      -4.483   1.691  -1.728  1.00  0.00    -0.168 F 
HETATM   18  F3  UNL     1      -4.412  -0.534  -1.897  1.00  0.00    -0.168 F 
ENDBRANCH  13  15
ENDBRANCH  12  13
ENDBRANCH   1  12
BRANCH   7  19
HETATM   19  O2  UNL     1       3.729  -0.211  -0.797  1.00  0.00    -0.390 OA
ATOM     20  H2  UNL     1       4.512  -0.647  -0.481  1.00  0.00     0.210 HD
ENDBRANCH   7  19
TORSDOF 4
