REMARK  14 active torsions:
REMARK  status: ('A' for Active; 'I' for Inactive)
REMARK    1  A    between atoms: O1_2  and  C2_3 
REMARK    2  A    between atoms: C2_3  and  C3_5 
REMARK    3  A    between atoms: C3_5  and  C4_6 
REMARK    4  A    between atoms: C4_6  and  C6_8 
REMARK    5  A    between atoms: C6_8  and  O3_9 
REMARK    6  A    between atoms: C10_14  and  O4_15 
REMARK    7  A    between atoms: O4_15  and  C11_16 
REMARK    8  A    between atoms: C11_16  and  C12_18 
REMARK    9  A    between atoms: C12_18  and  C13_19 
REMARK   10  A    between atoms: C13_19  and  C14_20 
REMARK   11  A    between atoms: C14_20  and  C15_21 
REMARK   12  A    between atoms: C19_27  and  O7_28 
REMARK   13  A    between atoms: C25_35  and  O8_36 
REMARK   14  A    between atoms: O8_36  and  C26_37 
ROOT
HETATM    1  C6  UNL     1      -2.198   0.409  -0.650  1.00  0.00     0.089 C 
HETATM    2  C7  UNL     1      -0.914   0.307   0.036  1.00  0.00     0.047 C 
HETATM    3  C8  UNL     1       0.366   0.538  -0.622  1.00  0.00     0.014 C 
HETATM    4  C9  UNL     1       0.503   0.298  -2.075  1.00  0.00     0.012 C 
HETATM    5  C10 UNL     1       1.467  -0.316   0.049  1.00  0.00     0.136 C 
HETATM    6  C16 UNL     1       1.282  -1.709  -0.500  1.00  0.00     0.039 C 
HETATM    7  C17 UNL     1       1.861  -2.797   0.366  1.00  0.00     0.013 C 
HETATM    8  C18 UNL     1       1.804  -2.467   1.843  1.00  0.00     0.012 C 
HETATM    9  C19 UNL     1       1.151  -4.117   0.174  1.00  0.00     0.122 C 
HETATM   10  C20 UNL     1      -0.322  -4.042   0.244  1.00  0.00     0.036 C 
HETATM   11  C21 UNL     1      -1.044  -4.317  -1.053  1.00  0.00     0.029 C 
HETATM   12  C22 UNL     1      -2.513  -4.251  -0.880  1.00  0.00    -0.030 C 
HETATM   13  C23 UNL     1      -3.284  -3.198  -1.076  1.00  0.00    -0.028 C 
HETATM   14  C24 UNL     1      -2.857  -1.848  -1.511  1.00  0.00     0.062 C 
HETATM   15  C25 UNL     1      -3.110  -0.803  -0.421  1.00  0.00     0.170 C 
ENDROOT
BRANCH   1  16
HETATM   16  C4  UNL     1      -3.020   1.617  -0.177  1.00  0.00     0.028 C 
HETATM   17  C5  UNL     1      -3.028   1.753   1.323  1.00  0.00     0.014 C 
BRANCH  16  18
HETATM   18  C3  UNL     1      -2.281   2.854  -0.694  1.00  0.00     0.118 C 
BRANCH  18  19
HETATM   19  C2  UNL     1      -2.934   4.114  -0.326  1.00  0.00     0.258 C 
HETATM   20  O2  UNL     1      -2.662   4.654   0.769  1.00  0.00    -0.265 OA
BRANCH  19  21
HETATM   21  O1  UNL     1      -3.859   4.762  -1.140  1.00  0.00    -0.326 OA
HETATM   22  C1  UNL     1      -4.443   5.976  -0.709  1.00  0.00     0.213 C 
ENDBRANCH  19  21
ENDBRANCH  18  19
ENDBRANCH  16  18
ENDBRANCH   1  16
BRANCH   1  23
HETATM   23  O3  UNL     1      -2.184   0.541  -2.038  1.00  0.00    -0.387 OA
ATOM     24  H3  UNL     1      -1.676  -0.206  -2.331  1.00  0.00     0.210 HD
ENDBRANCH   1  23
BRANCH  15  25
HETATM   25  O8  UNL     1      -4.457  -0.493  -0.322  1.00  0.00    -0.313 OA
BRANCH  25  26
HETATM   26  C26 UNL     1      -5.175  -0.852   0.803  1.00  0.00     0.255 C 
HETATM   27  C27 UNL     1      -6.630  -0.513   0.904  1.00  0.00     0.126 C 
HETATM   28  O9  UNL     1      -4.640  -1.465   1.761  1.00  0.00    -0.266 OA
ENDBRANCH  25  26
ENDBRANCH  15  25
BRANCH   5  29
HETATM   29  O4  UNL     1       2.691   0.163  -0.457  1.00  0.00    -0.316 OA
BRANCH  29  30
HETATM   30  C11 UNL     1       3.713   0.686   0.275  1.00  0.00     0.259 C 
HETATM   31  O5  UNL     1       3.579   0.761   1.521  1.00  0.00    -0.265 OA
BRANCH  30  32
HETATM   32  C12 UNL     1       4.929   1.137  -0.452  1.00  0.00     0.111 C 
BRANCH  32  33
HETATM   33  C13 UNL     1       5.924   1.672   0.553  1.00  0.00     0.019 C 
BRANCH  33  34
HETATM   34  C14 UNL     1       7.139   2.116  -0.224  1.00  0.00     0.100 C 
BRANCH  34  35
HETATM   35  C15 UNL     1       8.141   2.644   0.706  1.00  0.00     0.231 C 
HETATM   36  N1  UNL     1       9.397   3.131   0.255  1.00  0.00    -0.062 NA
HETATM   37  O6  UNL     1       7.913   2.679   1.939  1.00  0.00    -0.277 OA
ENDBRANCH  34  35
ENDBRANCH  33  34
ENDBRANCH  32  33
ENDBRANCH  30  32
ENDBRANCH  29  30
ENDBRANCH   5  29
BRANCH   9  38
HETATM   38  O7  UNL     1       1.620  -5.036   1.109  1.00  0.00    -0.395 OA
ATOM     39  H7  UNL     1       1.174  -5.866   0.988  1.00  0.00     0.210 HD
ENDBRANCH   9  38
TORSDOF 14
