REMARK  4 active torsions:
REMARK  status: ('A' for Active; 'I' for Inactive)
REMARK    1  A    between atoms: N1_6  and  C6_7 
REMARK    2  A    between atoms: C6_7  and  C7_8 
REMARK    3  A    between atoms: C7_8  and  O1_9 
REMARK    4  A    between atoms: N2_14  and  O2_15 
ROOT
HETATM    1  C1  UNL     1      -2.646  -0.341  -1.493  1.00  0.00     0.040 C 
HETATM    2  C2  UNL     1      -1.809   0.292  -0.387  1.00  0.00     0.051 C 
HETATM    3  C3  UNL     1      -2.778   1.173   0.397  1.00  0.00     0.040 C 
HETATM    4  C4  UNL     1      -0.777   1.190  -1.002  1.00  0.00     0.052 C 
HETATM    5  C5  UNL     1       0.415   1.401  -0.075  1.00  0.00     0.122 C 
HETATM    6  N1  UNL     1       1.013   0.184   0.351  1.00  0.00    -0.385 N 
HETATM    7  C8  UNL     1       0.133  -0.949   0.385  1.00  0.00     0.117 C 
HETATM    8  C9  UNL     1       0.487  -1.735   1.647  1.00  0.00     0.064 C 
HETATM    9  C10 UNL     1       0.285  -1.887  -0.776  1.00  0.00     0.064 C 
HETATM   10  N2  UNL     1      -1.250  -0.638   0.518  1.00  0.00    -0.259 N 
ENDROOT
BRANCH   6  11
HETATM   11  C6  UNL     1       2.320  -0.096  -0.125  1.00  0.00     0.145 C 
BRANCH  11  12
HETATM   12  C7  UNL     1       3.434   0.720   0.455  1.00  0.00     0.183 C 
BRANCH  12  13
HETATM   13  O1  UNL     1       3.389   2.064   0.191  1.00  0.00    -0.399 OA
ATOM     14  H1  UNL     1       4.096   2.582   0.559  1.00  0.00     0.209 HD
ENDBRANCH  12  13
ENDBRANCH  11  12
ENDBRANCH   6  11
BRANCH  10  15
HETATM   15  O2  UNL     1      -1.729  -0.630   1.757  1.00  0.00    -0.289 OA
ATOM     16  H2  UNL     1      -1.353  -1.255   2.365  1.00  0.00     0.244 HD
ENDBRANCH  10  15
TORSDOF 4
