REMARK  5 active torsions:
REMARK  status: ('A' for Active; 'I' for Inactive)
REMARK    1  A    between atoms: N1_2  and  C2_4 
REMARK    2  A    between atoms: C2_4  and  C3_6 
REMARK    3  A    between atoms: C7_10  and  N2_11 
REMARK    4  A    between atoms: N2_11  and  N3_13 
REMARK    5  A    between atoms: N3_13  and  N4_14 
ROOT
HETATM    1  C3  UNL     1       0.459  -0.641  -0.074  1.00  0.00     0.249 C 
HETATM    2  C4  UNL     1      -0.471  -1.785   0.117  1.00  0.00     0.040 C 
HETATM    3  C5  UNL     1      -1.682  -1.558  -0.764  1.00  0.00     0.006 C 
HETATM    4  C6  UNL     1      -2.273  -0.225  -0.460  1.00  0.00     0.057 C 
HETATM    5  C7  UNL     1      -1.512   0.599   0.529  1.00  0.00     0.313 C 
HETATM    6  N5  UNL     1      -0.092   0.631   0.307  1.00  0.00    -0.042 N 
ATOM      7  H51 UNL     1       0.150   1.348  -0.377  1.00  0.00     0.280 HD
ATOM      8  H52 UNL     1       0.392   1.004   1.123  1.00  0.00     0.280 HD
ENDROOT
BRANCH   5   9
HETATM    9  N2  UNL     1      -2.028   1.970   0.428  1.00  0.00    -0.221 N 
ATOM     10  H2  UNL     1      -2.864   2.237   0.947  1.00  0.00     0.199 HD
BRANCH   9  11
HETATM   11  N3  UNL     1      -1.465   2.788  -0.270  1.00  0.00    -0.247 NA
BRANCH  11  12
HETATM   12  N4  UNL     1      -1.093   3.725  -0.951  1.00  0.00    -0.261 N 
ATOM     13  H42 UNL     1      -1.998   4.173  -0.806  1.00  0.00     0.193 HD
ATOM     14  H41 UNL     1      -0.620   4.412  -1.538  1.00  0.00     0.193 HD
ENDBRANCH  11  12
ENDBRANCH   9  11
ENDBRANCH   5   9
BRANCH   1  15
HETATM   15  C2  UNL     1       1.746  -0.932   0.589  1.00  0.00     0.104 C 
HETATM   16  S1  UNL     1       1.913  -2.346   1.376  1.00  0.00    -0.063 SA
BRANCH  15  17
HETATM   17  N1  UNL     1       2.822  -0.021   0.556  1.00  0.00    -0.387 N 
HETATM   18  C1  UNL     1       2.701   1.234  -0.132  1.00  0.00     0.147 C 
ATOM     19  H1  UNL     1       3.696  -0.256   1.026  1.00  0.00     0.159 HD
ENDBRANCH  15  17
ENDBRANCH   1  15
TORSDOF 5
