REMARK  5 active torsions:
REMARK  status: ('A' for Active; 'I' for Inactive)
REMARK    1  A    between atoms: N1_2  and  O1_3 
REMARK    2  A    between atoms: N1_2  and  C2_5 
REMARK    3  A    between atoms: C2_5  and  C3_6 
REMARK    4  A    between atoms: C3_6  and  O2_7 
REMARK    5  A    between atoms: C6_11  and  O3_12 
ROOT
HETATM    1  C2  UNL     1       1.279   0.159  -0.096  1.00  0.00     0.160 C 
HETATM    2  C4  UNL     1       0.337  -0.234   1.060  1.00  0.00     0.069 C 
HETATM    3  C5  UNL     1      -0.799  -0.659   0.244  1.00  0.00     0.053 C 
HETATM    4  C6  UNL     1      -2.161  -0.731   0.678  1.00  0.00     0.125 C 
HETATM    5  C7  UNL     1      -2.937  -0.497  -0.627  1.00  0.00     0.035 C 
HETATM    6  C8  UNL     1      -1.894  -0.004  -1.645  1.00  0.00     0.041 C 
HETATM    7  C9  UNL     1      -0.851   0.533  -0.733  1.00  0.00     0.066 C 
HETATM    8  C10 UNL     1      -1.376   1.778  -0.086  1.00  0.00     0.046 C 
HETATM    9  O4  UNL     1       0.428   0.582  -1.137  1.00  0.00    -0.350 OA
ENDROOT
BRANCH   1  10
HETATM   10  N1  UNL     1       1.841  -1.091  -0.557  1.00  0.00    -0.167 NA
HETATM   11  C1  UNL     1       2.595  -1.777   0.443  1.00  0.00     0.147 C 
BRANCH  10  12
HETATM   12  O1  UNL     1       2.510  -0.958  -1.721  1.00  0.00    -0.310 OA
ATOM     13  H1  UNL     1       2.008  -0.502  -2.386  1.00  0.00     0.237 HD
ENDBRANCH  10  12
ENDBRANCH   1  10
BRANCH   1  14
HETATM   14  C3  UNL     1       2.276   1.178   0.302  1.00  0.00     0.221 C 
BRANCH  14  15
HETATM   15  O2  UNL     1       1.724   2.368   0.739  1.00  0.00    -0.396 OA
ATOM     16  H2  UNL     1       2.364   3.022   0.994  1.00  0.00     0.209 HD
ENDBRANCH  14  15
ENDBRANCH   1  14
BRANCH   4  17
HETATM   17  O3  UNL     1      -2.587   0.076   1.697  1.00  0.00    -0.395 OA
ATOM     18  H3  UNL     1      -3.491   0.028   1.985  1.00  0.00     0.210 HD
ENDBRANCH   4  17
TORSDOF 5
