REMARK  4 active torsions:
REMARK  status: ('A' for Active; 'I' for Inactive)
REMARK    1  A    between atoms: C2_3  and  C3_4 
REMARK    2  A    between atoms: C4_5  and  O1_6 
REMARK    3  A    between atoms: C6_10  and  N2_11 
REMARK    4  A    between atoms: C10_17  and  O3_18 
ROOT
HETATM    1  N1  UNL     1      -2.310   3.687   0.043  1.00  0.00    -0.197 NA
HETATM    2  C1  UNL     1      -2.433   2.560  -0.141  1.00  0.00     0.059 C 
HETATM    3  C2  UNL     1      -2.611   1.147  -0.378  1.00  0.00     0.133 C 
ENDROOT
BRANCH   3   4
HETATM    4  C3  UNL     1      -1.552   0.322   0.345  1.00  0.00     0.062 C 
HETATM    5  C4  UNL     1      -1.862  -1.129   0.007  1.00  0.00     0.149 C 
HETATM    6  C5  UNL     1      -0.807  -2.072   0.465  1.00  0.00     0.202 C 
HETATM    7  O2  UNL     1       0.334  -1.367   0.825  1.00  0.00    -0.360 OA
HETATM    8  C6  UNL     1       0.649  -0.538  -0.266  1.00  0.00     0.272 C 
HETATM    9  C10 UNL     1      -0.158   0.704  -0.138  1.00  0.00     0.176 C 
BRANCH   5  10
HETATM   10  O1  UNL     1      -3.068  -1.452   0.612  1.00  0.00    -0.393 OA
ATOM     11  H1  UNL     1      -3.262  -2.358   0.401  1.00  0.00     0.210 HD
ENDBRANCH   5  10
BRANCH   8  12
HETATM   12  N2  UNL     1       2.085  -0.308  -0.203  1.00  0.00    -0.272 N 
HETATM   13  C7  UNL     1       2.739   0.420   0.744  1.00  0.00     0.114 A 
HETATM   14  C8  UNL     1       4.082   0.403   0.460  1.00  0.00     0.037 A 
HETATM   15  C9  UNL     1       4.216  -0.352  -0.678  1.00  0.00     0.108 A 
HETATM   16  N3  UNL     1       3.007  -0.752  -1.034  1.00  0.00    -0.308 N 
ATOM     17  H3  UNL     1       2.812  -1.332  -1.850  1.00  0.00     0.186 HD
ENDBRANCH   8  12
BRANCH   9  18
HETATM   18  O3  UNL     1      -0.253   1.413  -1.334  1.00  0.00    -0.391 OA
ATOM     19  H3  UNL     1       0.616   1.651  -1.635  1.00  0.00     0.210 HD
ENDBRANCH   9  18
ENDBRANCH   3   4
TORSDOF 4
