REMARK  6 active torsions:
REMARK  status: ('A' for Active; 'I' for Inactive)
REMARK       I    between atoms: C2_2  and  N1_4 
REMARK    1  A    between atoms: N1_4  and  C3_6 
REMARK    2  A    between atoms: C3_6  and  C4_7 
REMARK    3  A    between atoms: C3_6  and  C14_19 
REMARK    4  A    between atoms: C4_7  and  N2_8 
REMARK    5  A    between atoms: C9_13  and  C10_14 
REMARK    6  A    between atoms: C14_19  and  N4_21 
ROOT
HETATM    1  C3  UNL     1       1.807   0.035   0.498  1.00  0.00     0.142 C 
ENDROOT
BRANCH   1   2
HETATM    2  N1  UNL     1       3.149  -0.666   0.740  1.00  0.00    -0.353 N 
HETATM    3  C2  UNL     1       3.328  -1.513   1.826  1.00  0.00     0.214 C 
HETATM    4  C1  UNL     1       4.545  -2.240   2.175  1.00  0.00     0.117 C 
HETATM    5  O1  UNL     1       2.329  -1.681   2.610  1.00  0.00    -0.274 OA
ATOM      6  H1  UNL     1       3.922  -0.508   0.094  1.00  0.00     0.163 HD
ENDBRANCH   1   2
BRANCH   1   7
HETATM    7  C4  UNL     1       1.416  -0.375  -0.869  1.00  0.00     0.287 C 
BRANCH   7   8
HETATM    8  N2  UNL     1       0.222  -0.001  -1.484  1.00  0.00     0.009 N 
HETATM    9  C5  UNL     1       0.527   0.899  -2.618  1.00  0.00     0.297 C 
HETATM   10  C6  UNL     1      -0.248  -1.229  -2.217  1.00  0.00     0.260 C 
HETATM   11  C7  UNL     1      -1.611  -1.012  -2.777  1.00  0.00     0.031 C 
HETATM   12  C8  UNL     1      -2.618  -0.896  -1.649  1.00  0.00     0.025 C 
HETATM   13  C9  UNL     1      -1.834  -0.448  -0.434  1.00  0.00     0.114 C 
HETATM   14  N3  UNL     1      -0.810   0.495  -0.739  1.00  0.00    -0.041 NA
BRANCH  13  15
HETATM   15  C10 UNL     1      -2.798   0.074   0.601  1.00  0.00    -0.032 C 
HETATM   16  C11 UNL     1      -3.611   1.231   0.141  1.00  0.00     0.016 C 
HETATM   17  C12 UNL     1      -2.069   0.380   1.882  1.00  0.00     0.016 C 
HETATM   18  C13 UNL     1      -3.764  -1.075   0.907  1.00  0.00     0.016 C 
ENDBRANCH  13  15
ENDBRANCH   7   8
ENDBRANCH   1   7
BRANCH   1  19
HETATM   19  C14 UNL     1       2.224   1.455   0.728  1.00  0.00     0.203 C 
HETATM   20  C15 UNL     1       1.241   2.540   0.665  1.00  0.00     0.042 C 
BRANCH  19  21
HETATM   21  N4  UNL     1       2.864   1.559   2.068  1.00  0.00    -0.073 N 
ATOM     22  H43 UNL     1       2.265   1.204   2.814  1.00  0.00     0.274 HD
ATOM     23  H42 UNL     1       3.637   0.903   2.182  1.00  0.00     0.274 HD
ATOM     24  H41 UNL     1       3.148   2.526   2.225  1.00  0.00     0.274 HD
ENDBRANCH  19  21
ENDBRANCH   1  19
TORSDOF 6
