REMARK  8 active torsions:
REMARK  status: ('A' for Active; 'I' for Inactive)
REMARK    1  A    between atoms: O1_2  and  C2_3 
REMARK    2  A    between atoms: C2_3  and  C3_4 
REMARK    3  A    between atoms: C3_4  and  C4_8 
REMARK    4  A    between atoms: C4_8  and  N2_10 
REMARK       I    between atoms: N2_10  and  C6_12 
REMARK    5  A    between atoms: C6_12  and  C7_14 
REMARK    6  A    between atoms: C9_20  and  N5_21 
REMARK    7  A    between atoms: C13_29  and  N8_30 
REMARK    8  A    between atoms: C14_33  and  C15_34 
ROOT
HETATM    1  C7  UNL     1      -0.301  -0.920   0.053  1.00  0.00     0.136 A 
HETATM    2  N3  UNL     1      -1.231  -0.061   0.581  1.00  0.00    -0.184 N 
ATOM      3  H3  UNL     1      -0.964   0.521   1.375  1.00  0.00     0.184 HD
HETATM    4  C8  UNL     1      -2.472   0.046   0.099  1.00  0.00     0.709 A 
HETATM    5  N4  UNL     1      -3.346   0.901   0.647  1.00  0.00    -0.021 N 
ATOM      6  H4  UNL     1      -3.039   1.464   1.440  1.00  0.00     0.203 HD
HETATM    7  C9  UNL     1      -4.611   1.056   0.205  1.00  0.00     0.698 A 
HETATM    8  N6  UNL     1      -4.950   0.289  -0.837  1.00  0.00    -0.140 N 
ATOM      9  H6  UNL     1      -5.894   0.362  -1.217  1.00  0.00     0.189 HD
HETATM   10  C12 UNL     1      -4.084  -0.580  -1.404  1.00  0.00     0.361 A 
HETATM   11  O3  UNL     1      -4.468  -1.267  -2.377  1.00  0.00    -0.245 OA
HETATM   12  N7  UNL     1      -2.835  -0.713  -0.946  1.00  0.00    -0.079 N 
HETATM   13  C13 UNL     1      -1.978  -1.583  -1.518  1.00  0.00     0.145 A 
HETATM   14  C14 UNL     1      -0.664  -1.679  -0.982  1.00  0.00     0.106 A 
ENDROOT
BRANCH   1  15
HETATM   15  C6  UNL     1       0.985  -0.841   0.725  1.00  0.00     0.270 C 
HETATM   16  N2  UNL     1       2.207  -0.790   0.042  1.00  0.00    -0.346 N 
ATOM     17  H2  UNL     1       2.227  -0.808  -0.978  1.00  0.00     0.163 HD
HETATM   18  O2  UNL     1       1.016  -0.803   2.005  1.00  0.00    -0.266 OA
BRANCH  16  19
HETATM   19  C4  UNL     1       3.459  -0.711   0.807  1.00  0.00     0.128 C 
HETATM   20  C5  UNL     1       4.348  -1.870   0.468  1.00  0.00     0.038 C 
BRANCH  19  21
HETATM   21  C3  UNL     1       4.083   0.589   0.405  1.00  0.00     0.026 C 
HETATM   22  N1  UNL     1       4.288   1.463   1.303  1.00  0.00    -0.402 N 
ATOM     23  H12 UNL     1       4.713   2.349   1.029  1.00  0.00     0.155 HD
ATOM     24  H11 UNL     1       4.043   1.264   2.273  1.00  0.00     0.155 HD
BRANCH  21  25
HETATM   25  C2  UNL     1       4.438   0.877  -1.001  1.00  0.00     0.221 C 
BRANCH  25  26
HETATM   26  O1  UNL     1       5.185   1.979  -1.241  1.00  0.00    -0.390 OA
HETATM   27  C1  UNL     1       6.447   2.051  -0.750  1.00  0.00     0.201 C 
ENDBRANCH  25  26
ENDBRANCH  21  25
ENDBRANCH  19  21
ENDBRANCH  16  19
ENDBRANCH   1  15
BRANCH  14  28
HETATM   28  C15 UNL     1       0.164  -2.730  -1.520  1.00  0.00     0.271 C 
HETATM   29  N9  UNL     1       1.116  -3.415  -0.770  1.00  0.00    -0.057 NA
HETATM   30  O4  UNL     1       0.011  -3.057  -2.743  1.00  0.00    -0.271 OA
ENDBRANCH  14  28
BRANCH  13  31
HETATM   31  N8  UNL     1      -2.213  -2.323  -2.479  1.00  0.00    -0.384 N 
ATOM     32  H82 UNL     1      -3.155  -2.254  -2.863  1.00  0.00     0.157 HD
ATOM     33  H81 UNL     1      -1.565  -2.981  -2.912  1.00  0.00     0.157 HD
ENDBRANCH  13  31
BRANCH   7  34
HETATM   34  N5  UNL     1      -5.513   1.974   0.812  1.00  0.00    -0.226 N 
HETATM   35  C10 UNL     1      -5.109   2.776   1.927  1.00  0.00     0.168 C 
HETATM   36  C11 UNL     1      -6.849   2.088   0.287  1.00  0.00     0.168 C 
ENDBRANCH   7  34
TORSDOF 8
