REMARK  10 active torsions:
REMARK  status: ('A' for Active; 'I' for Inactive)
REMARK    1  A    between atoms: C6_9  and  O1_10 
REMARK    2  A    between atoms: O1_10  and  C7_11 
REMARK    3  A    between atoms: C7_11  and  C8_12 
REMARK    4  A    between atoms: C7_11  and  C24_35 
REMARK    5  A    between atoms: C8_12  and  C9_13 
REMARK    6  A    between atoms: C9_13  and  N1_14 
REMARK       I    between atoms: N1_14  and  C10_16 
REMARK    7  A    between atoms: C10_16  and  C11_18 
REMARK    8  A    between atoms: C11_18  and  C13_20 
REMARK    9  A    between atoms: C16_24  and  N2_25 
REMARK       I    between atoms: C24_35  and  N4_37 
REMARK   10  A    between atoms: N4_37  and  C25_39 
ROOT
HETATM    1  C9  UNL     1      -1.590  -3.494  -1.302  1.00  0.00     0.125 C 
ENDROOT
BRANCH   1   2
HETATM    2  C8  UNL     1      -2.684  -2.620  -1.831  1.00  0.00     0.062 C 
BRANCH   2   3
HETATM    3  C7  UNL     1      -2.899  -1.332  -1.127  1.00  0.00     0.222 C 
BRANCH   3   4
HETATM    4  O1  UNL     1      -1.816  -0.494  -1.074  1.00  0.00    -0.331 OA
BRANCH   4   5
HETATM    5  C6  UNL     1      -1.587   0.666  -0.376  1.00  0.00     0.134 A 
HETATM    6  C5  UNL     1      -1.596   1.873  -1.022  1.00  0.00     0.193 A 
HETATM    7  C4  UNL     1      -1.375   3.030  -0.269  1.00  0.00     0.196 A 
HETATM    8  F3  UNL     1      -1.728   2.014  -2.393  1.00  0.00    -0.200 F 
HETATM    9  C3  UNL     1      -1.150   2.968   1.090  1.00  0.00     0.165 A 
HETATM   10  F2  UNL     1      -1.395   4.235  -0.923  1.00  0.00    -0.199 F 
HETATM   11  C2  UNL     1      -1.141   1.736   1.731  1.00  0.00     0.004 A 
HETATM   12  F1  UNL     1      -0.936   4.085   1.828  1.00  0.00    -0.202 F 
HETATM   13  C1  UNL     1      -0.898   1.667   3.218  1.00  0.00     0.053 C 
HETATM   14  C28 UNL     1      -1.357   0.611   0.995  1.00  0.00     0.079 A 
HETATM   15 CL1  UNL     1      -1.351  -0.962   1.826  1.00  0.00    -0.081 Cl
ENDBRANCH   4   5
ENDBRANCH   3   4
BRANCH   3  16
HETATM   16  C24 UNL     1      -4.213  -0.728  -1.528  1.00  0.00     0.247 C 
HETATM   17  O3  UNL     1      -4.384   0.490  -1.762  1.00  0.00    -0.271 OA
HETATM   18  N4  UNL     1      -5.405  -1.518  -1.679  1.00  0.00    -0.354 N 
ATOM     19  H4  UNL     1      -5.357  -2.522  -1.508  1.00  0.00     0.162 HD
BRANCH  18  20
HETATM   20  C25 UNL     1      -6.662  -0.936  -2.064  1.00  0.00     0.084 A 
HETATM   21  C26 UNL     1      -7.888  -1.477  -1.324  1.00  0.00     0.027 A 
HETATM   22  C27 UNL     1      -7.705  -1.736  -2.752  1.00  0.00     0.027 A 
ENDBRANCH  18  20
ENDBRANCH   3  16
ENDBRANCH   2   3
ENDBRANCH   1   2
BRANCH   1  23
HETATM   23  N1  UNL     1      -0.268  -2.970  -1.413  1.00  0.00    -0.360 N 
HETATM   24  C10 UNL     1       0.822  -3.766  -0.922  1.00  0.00     0.226 C 
HETATM   25  O2  UNL     1       0.643  -4.877  -0.385  1.00  0.00    -0.273 OA
ATOM     26  H1  UNL     1      -0.101  -2.054  -1.830  1.00  0.00     0.162 HD
BRANCH  24  27
HETATM   27  C11 UNL     1       2.214  -3.272  -1.058  1.00  0.00     0.110 C 
HETATM   28  C12 UNL     1       2.574  -3.193  -2.543  1.00  0.00     0.025 C 
BRANCH  27  29
HETATM   29  C13 UNL     1       2.380  -1.983  -0.404  1.00  0.00    -0.004 A 
HETATM   30  C14 UNL     1       2.629  -0.853  -1.177  1.00  0.00     0.055 A 
HETATM   31  C15 UNL     1       2.816   0.394  -0.567  1.00  0.00     0.143 A 
HETATM   32  F4  UNL     1       3.065   1.403  -1.434  1.00  0.00    -0.204 F 
HETATM   33  C16 UNL     1       2.758   0.542   0.799  1.00  0.00     0.072 A 
HETATM   34  C22 UNL     1       2.507  -0.606   1.534  1.00  0.00     0.075 A 
HETATM   35  C23 UNL     1       2.321  -1.844   0.948  1.00  0.00     0.125 A 
HETATM   36  F5  UNL     1       2.075  -2.912   1.772  1.00  0.00    -0.205 F 
BRANCH  33  37
HETATM   37  N2  UNL     1       2.934   1.801   1.399  1.00  0.00    -0.372 N 
HETATM   38  C17 UNL     1       3.363   1.897   2.817  1.00  0.00     0.167 C 
HETATM   39  C18 UNL     1       4.498   2.888   2.889  1.00  0.00     0.077 C 
HETATM   40  N3  UNL     1       4.973   3.397   1.670  1.00  0.00    -0.394 N 
HETATM   41  C19 UNL     1       6.214   2.923   1.173  1.00  0.00     0.148 C 
HETATM   42  C20 UNL     1       4.022   3.851   0.717  1.00  0.00     0.141 C 
HETATM   43  C21 UNL     1       2.717   3.087   0.784  1.00  0.00     0.143 C 
ENDBRANCH  33  37
ENDBRANCH  27  29
ENDBRANCH  24  27
ENDBRANCH   1  23
TORSDOF 10
