REMARK  13 active torsions:
REMARK  status: ('A' for Active; 'I' for Inactive)
REMARK    1  A    between atoms: C1_2  and  N1_3 
REMARK    2  A    between atoms: N1_3  and  O2_4 
REMARK    3  A    between atoms: N1_3  and  C2_6 
REMARK    4  A    between atoms: C2_6  and  C3_7 
REMARK    5  A    between atoms: C2_6  and  C10_17 
REMARK    6  A    between atoms: C3_7  and  C4_8 
REMARK    7  A    between atoms: C10_17  and  O3_18 
REMARK    8  A    between atoms: C10_17  and  N2_20 
REMARK    9  A    between atoms: C12_22  and  C13_23 
REMARK   10  A    between atoms: C13_23  and  N3_24 
REMARK   11  A    between atoms: C19_30  and  N4_31 
REMARK   12  A    between atoms: N4_31  and  C20_34 
REMARK   13  A    between atoms: C20_34  and  C21_35 
ROOT
HETATM    1  N2  UNL     1       0.187   0.039   0.779  1.00  0.00    -0.332 N 
HETATM    2  C11 UNL     1      -0.280  -1.175   1.325  1.00  0.00     0.133 C 
HETATM    3  C12 UNL     1      -1.352  -1.574   0.293  1.00  0.00     0.036 C 
HETATM    4  C18 UNL     1      -1.819  -0.201  -0.202  1.00  0.00     0.062 C 
HETATM    5  C19 UNL     1      -1.095   0.786   0.739  1.00  0.00     0.288 C 
ENDROOT
BRANCH   1   6
HETATM    6  C10 UNL     1       1.390   0.523   0.330  1.00  0.00     0.166 C 
BRANCH   6   7
HETATM    7  C2  UNL     1       2.712  -0.078   0.139  1.00  0.00     0.098 C 
BRANCH   7   8
HETATM    8  N1  UNL     1       2.805  -1.358  -0.472  1.00  0.00    -0.198 N 
BRANCH   8   9
HETATM    9  C1  UNL     1       3.421  -1.502  -1.796  1.00  0.00     0.381 C 
HETATM   10  O1  UNL     1       3.862  -0.467  -2.326  1.00  0.00    -0.281 OA
ENDBRANCH   8   9
BRANCH   8  11
HETATM   11  O2  UNL     1       2.368  -2.545   0.001  1.00  0.00    -0.280 OA
ATOM     12  H2  UNL     1       1.969  -2.452   0.858  1.00  0.00     0.245 HD
ENDBRANCH   8  11
ENDBRANCH   7   8
BRANCH   7  13
HETATM   13  C3  UNL     1       3.637   0.169   1.304  1.00  0.00     0.109 C 
BRANCH  13  14
HETATM   14  C4  UNL     1       5.041   0.074   0.902  1.00  0.00     0.025 A 
HETATM   15  C5  UNL     1       5.790  -1.064   0.865  1.00  0.00     0.129 A 
HETATM   16  F1  UNL     1       5.294  -2.229   1.314  1.00  0.00    -0.205 F 
HETATM   17  C6  UNL     1       7.116  -1.104   0.413  1.00  0.00     0.085 A 
HETATM   18  C7  UNL     1       7.696   0.061  -0.014  1.00  0.00     0.122 A 
HETATM   19  F2  UNL     1       8.984  -0.017  -0.447  1.00  0.00    -0.206 F 
HETATM   20  C8  UNL     1       6.992   1.238   0.002  1.00  0.00     0.085 A 
HETATM   21  C9  UNL     1       5.702   1.238   0.449  1.00  0.00     0.129 A 
HETATM   22  F3  UNL     1       5.016   2.393   0.463  1.00  0.00    -0.205 F 
ENDBRANCH  13  14
ENDBRANCH   7  13
ENDBRANCH   6   7
BRANCH   6  23
HETATM   23  O3  UNL     1       1.424   1.813  -0.024  1.00  0.00    -0.345 OA
ATOM     24  H3  UNL     1       0.567   2.203   0.100  1.00  0.00     0.219 HD
ENDBRANCH   6  23
ENDBRANCH   1   6
BRANCH   5  25
HETATM   25  N4  UNL     1      -1.001   2.099   0.228  1.00  0.00    -0.050 N 
ATOM     26  H42 UNL     1      -0.438   2.724   0.805  1.00  0.00     0.280 HD
ATOM     27  H41 UNL     1      -0.434   2.170  -0.617  1.00  0.00     0.280 HD
BRANCH  25  28
HETATM   28  C20 UNL     1      -2.401   2.556   0.046  1.00  0.00     0.273 C 
BRANCH  28  29
HETATM   29  C21 UNL     1      -2.479   3.941  -0.427  1.00  0.00    -0.028 A 
HETATM   30  C22 UNL     1      -2.024   4.285  -1.674  1.00  0.00     0.052 A 
HETATM   31  C23 UNL     1      -2.119   5.617  -2.084  1.00  0.00     0.140 A 
HETATM   32  F4  UNL     1      -1.670   5.975  -3.321  1.00  0.00    -0.204 F 
HETATM   33  C24 UNL     1      -2.659   6.593  -1.265  1.00  0.00     0.094 A 
HETATM   34 CL1  UNL     1      -2.783   8.281  -1.760  1.00  0.00    -0.079 Cl
HETATM   35  C25 UNL     1      -3.112   6.224  -0.011  1.00  0.00     0.059 A 
HETATM   36 CL2  UNL     1      -3.798   7.471   1.013  1.00  0.00    -0.082 Cl
HETATM   37  C26 UNL     1      -3.021   4.911   0.401  1.00  0.00     0.034 A 
ENDBRANCH  28  29
ENDBRANCH  25  28
ENDBRANCH   5  25
BRANCH   3  38
HETATM   38  C13 UNL     1      -2.484  -2.297   0.984  1.00  0.00     0.278 C 
BRANCH  38  39
HETATM   39  N3  UNL     1      -3.468  -2.656  -0.007  1.00  0.00     0.088 N 
HETATM   40  C14 UNL     1      -3.033  -3.668  -0.923  1.00  0.00     0.272 C 
HETATM   41  C15 UNL     1      -3.666  -4.948  -0.361  1.00  0.00     0.032 C 
HETATM   42  C16 UNL     1      -5.056  -4.430   0.008  1.00  0.00     0.032 C 
HETATM   43  C17 UNL     1      -4.710  -3.096   0.602  1.00  0.00     0.272 C 
ENDBRANCH  38  39
ENDBRANCH   3  38
TORSDOF 13
