REMARK  13 active torsions:
REMARK  status: ('A' for Active; 'I' for Inactive)
REMARK    1  A    between atoms: C2_2  and  C3_3 
REMARK    2  A    between atoms: C3_3  and  C4_4 
REMARK    3  A    between atoms: C4_4  and  C5_5 
REMARK    4  A    between atoms: C5_5  and  C6_6 
REMARK    5  A    between atoms: C6_6  and  O1_7 
REMARK    6  A    between atoms: O1_7  and  C7_8 
REMARK       I    between atoms: C7_8  and  N1_10 
REMARK    7  A    between atoms: C10_13  and  N2_14 
REMARK    8  A    between atoms: C14_19  and  C15_20 
REMARK       I    between atoms: C15_20  and  N3_22 
REMARK    9  A    between atoms: N3_22  and  C16_24 
REMARK   10  A    between atoms: C16_24  and  C17_25 
REMARK   11  A    between atoms: C16_24  and  C25_38 
REMARK   12  A    between atoms: C17_25  and  C18_26 
REMARK   13  A    between atoms: C19_27  and  C20_28 
ROOT
HETATM    1  N2  UNL     1       0.230  -1.372  -1.804  1.00  0.00    -0.334 N 
HETATM    2  C11 UNL     1       0.758  -2.561  -2.501  1.00  0.00     0.221 C 
HETATM    3  O3  UNL     1       1.955  -2.784  -2.798  1.00  0.00    -0.273 OA
HETATM    4  C12 UNL     1      -0.346  -3.483  -2.813  1.00  0.00     0.105 C 
HETATM    5  C13 UNL     1      -1.524  -2.852  -2.130  1.00  0.00     0.044 C 
HETATM    6  C14 UNL     1      -1.113  -1.355  -2.249  1.00  0.00     0.180 C 
ENDROOT
BRANCH   6   7
HETATM    7  C15 UNL     1      -2.142  -0.632  -1.547  1.00  0.00     0.241 C 
HETATM    8  O4  UNL     1      -1.966   0.042  -0.538  1.00  0.00    -0.271 OA
HETATM    9  N3  UNL     1      -3.478  -0.695  -2.051  1.00  0.00    -0.344 N 
ATOM     10  H3  UNL     1      -3.664  -1.247  -2.888  1.00  0.00     0.163 HD
BRANCH   9  11
HETATM   11  C16 UNL     1      -4.577   0.001  -1.411  1.00  0.00     0.196 C 
BRANCH  11  12
HETATM   12  C17 UNL     1      -5.620  -0.976  -0.910  1.00  0.00     0.130 C 
BRANCH  12  13
HETATM   13  C18 UNL     1      -6.742  -0.327  -0.251  1.00  0.00    -0.103 C 
HETATM   14  C19 UNL     1      -7.671   0.210   0.322  1.00  0.00    -0.098 C 
BRANCH  14  15
HETATM   15  C20 UNL     1      -8.779   0.873   1.030  1.00  0.00     0.111 C 
HETATM   16  C21 UNL     1      -9.191   0.007   2.178  1.00  0.00     0.106 C 
HETATM   17  C22 UNL     1      -9.441   0.926   3.345  1.00  0.00     0.312 C 
HETATM   18  F1  UNL     1     -10.808   1.047   3.621  1.00  0.00    -0.199 F 
HETATM   19  F2  UNL     1      -8.844   0.397   4.485  1.00  0.00    -0.199 F 
HETATM   20  C23 UNL     1      -8.894   2.271   2.995  1.00  0.00     0.339 C 
HETATM   21  F3  UNL     1      -9.880   3.229   2.837  1.00  0.00    -0.196 F 
HETATM   22  F4  UNL     1      -7.994   2.647   3.961  1.00  0.00    -0.196 F 
HETATM   23  C24 UNL     1      -8.180   2.117   1.668  1.00  0.00     0.264 C 
HETATM   24  F5  UNL     1      -6.820   1.958   1.851  1.00  0.00    -0.241 F 
ENDBRANCH  14  15
ENDBRANCH  12  13
ENDBRANCH  11  12
BRANCH  11  25
HETATM   25  C25 UNL     1      -5.184   1.009  -2.293  1.00  0.00     0.197 C 
HETATM   26  O5  UNL     1      -4.732   1.168  -3.456  1.00  0.00    -0.646 OA
HETATM   27  O6  UNL     1      -6.244   1.801  -1.896  1.00  0.00    -0.646 OA
ENDBRANCH  11  25
ENDBRANCH   9  11
ENDBRANCH   6   7
BRANCH   1  28
HETATM   28  C10 UNL     1       1.112  -0.617  -0.986  1.00  0.00     0.091 C 
HETATM   29  C9  UNL     1       0.819  -0.658   0.509  1.00  0.00     0.045 C 
HETATM   30  C8  UNL     1       2.203  -0.602   1.208  1.00  0.00     0.130 C 
HETATM   31  N1  UNL     1       2.806   0.611   0.631  1.00  0.00    -0.328 N 
HETATM   32  C7  UNL     1       4.159   0.877   1.059  1.00  0.00     0.362 C 
HETATM   33  C27 UNL     1       2.139   1.478  -0.275  1.00  0.00     0.130 C 
HETATM   34  O2  UNL     1       4.716   1.903   0.599  1.00  0.00    -0.238 OA
HETATM   35  C26 UNL     1       1.312   0.814  -1.344  1.00  0.00     0.045 C 
BRANCH  32  36
HETATM   36  O1  UNL     1       4.853   0.104   1.911  1.00  0.00    -0.304 OA
BRANCH  36  37
HETATM   37  C6  UNL     1       6.101   0.115   2.443  1.00  0.00     0.180 C 
BRANCH  37  38
HETATM   38  C5  UNL     1       7.315  -0.159   1.664  1.00  0.00     0.027 C 
BRANCH  38  39
HETATM   39  C4  UNL     1       7.610   0.714   0.514  1.00  0.00     0.002 C 
BRANCH  39  40
HETATM   40  C3  UNL     1       8.933   0.351  -0.167  1.00  0.00    -0.000 C 
BRANCH  40  41
HETATM   41  C2  UNL     1      10.100   0.472   0.777  1.00  0.00    -0.005 C 
HETATM   42  C1  UNL     1      11.408   0.113   0.076  1.00  0.00     0.005 C 
ENDBRANCH  40  41
ENDBRANCH  39  40
ENDBRANCH  38  39
ENDBRANCH  37  38
ENDBRANCH  36  37
ENDBRANCH  32  36
ENDBRANCH   1  28
TORSDOF 13
