REMARK  12 active torsions:
REMARK  status: ('A' for Active; 'I' for Inactive)
REMARK    1  A    between atoms: C7_7  and  C8_8 
REMARK    2  A    between atoms: C8_8  and  S1_9 
REMARK    3  A    between atoms: S1_9  and  N1_12 
REMARK    4  A    between atoms: N1_12  and  C9_14 
REMARK    5  A    between atoms: C9_14  and  C10_15 
REMARK    6  A    between atoms: C10_15  and  C11_16 
REMARK    7  A    between atoms: C11_16  and  C12_19 
REMARK       I    between atoms: C12_19  and  N2_21 
REMARK    8  A    between atoms: N2_21  and  C13_23 
REMARK    9  A    between atoms: C13_23  and  C14_24 
REMARK   10  A    between atoms: C14_24  and  N3_26 
REMARK   11  A    between atoms: C14_24  and  C20_32 
REMARK   12  A    between atoms: C20_32  and  C21_33 
ROOT
HETATM    1  C12 UNL     1      -1.226   0.151  -1.100  1.00  0.00     0.290 C 
HETATM    2  O3  UNL     1      -0.578   0.321  -0.029  1.00  0.00    -0.267 OA
HETATM    3  N2  UNL     1      -2.630  -0.083  -0.958  1.00  0.00    -0.354 N 
ATOM      4  H2  UNL     1      -3.218  -0.216  -1.781  1.00  0.00     0.162 HD
ENDROOT
BRANCH   1   5
HETATM    5  C11 UNL     1      -0.649   0.173  -2.430  1.00  0.00     0.324 C 
HETATM    6  F1  UNL     1      -1.609   0.702  -3.323  1.00  0.00    -0.196 F 
HETATM    7  F2  UNL     1      -0.577  -1.173  -2.858  1.00  0.00    -0.196 F 
BRANCH   5   8
HETATM    8  C10 UNL     1       0.646   0.852  -2.621  1.00  0.00     0.110 C 
BRANCH   8   9
HETATM    9  C9  UNL     1       1.781   0.454  -1.753  1.00  0.00     0.138 C 
BRANCH   9  10
HETATM   10  N1  UNL     1       2.133  -0.940  -1.766  1.00  0.00    -0.319 N 
ATOM     11  H1  UNL     1       1.662  -1.658  -2.316  1.00  0.00     0.172 HD
BRANCH  10  12
HETATM   12  S1  UNL     1       3.500  -1.223  -0.689  1.00  0.00     0.227 S 
HETATM   13  O1  UNL     1       3.755  -2.691  -0.772  1.00  0.00    -0.206 OA
HETATM   14  O2  UNL     1       3.003  -0.828   0.669  1.00  0.00    -0.206 OA
BRANCH  12  15
HETATM   15  C8  UNL     1       4.830  -0.307  -1.301  1.00  0.00     0.173 C 
BRANCH  15  16
HETATM   16  C7  UNL     1       6.132  -0.328  -0.656  1.00  0.00    -0.018 C 
HETATM   17  C2  UNL     1       6.330   0.142   0.729  1.00  0.00    -0.035 C 
HETATM   18  C1  UNL     1       5.933   1.574   0.999  1.00  0.00     0.016 C 
HETATM   19  C3  UNL     1       5.857  -0.730   1.841  1.00  0.00     0.016 C 
HETATM   20  C4  UNL     1       7.882   0.024   0.740  1.00  0.00    -0.006 C 
HETATM   21  C5  UNL     1       8.239   0.867  -0.422  1.00  0.00     0.006 C 
HETATM   22  C26 UNL     1       7.967  -1.443   0.335  1.00  0.00     0.006 C 
HETATM   23  C6  UNL     1       7.145   0.568  -1.418  1.00  0.00     0.012 C 
HETATM   24  C25 UNL     1       6.809  -1.687  -0.620  1.00  0.00     0.012 C 
ENDBRANCH  15  16
ENDBRANCH  12  15
ENDBRANCH  10  12
ENDBRANCH   9  10
ENDBRANCH   8   9
ENDBRANCH   5   8
ENDBRANCH   1   5
BRANCH   3  25
HETATM   25  C13 UNL     1      -3.203  -0.128   0.366  1.00  0.00     0.154 C 
BRANCH  25  26
HETATM   26  C14 UNL     1      -4.725  -0.278   0.284  1.00  0.00     0.056 C 
HETATM   27  C15 UNL     1      -4.905  -1.559  -0.544  1.00  0.00     0.041 C 
BRANCH  26  28
HETATM   28  N3  UNL     1      -5.388   0.860  -0.215  1.00  0.00    -0.397 N 
HETATM   29  C16 UNL     1      -6.523   0.695  -1.041  1.00  0.00     0.144 C 
HETATM   30  C17 UNL     1      -6.722   1.875  -2.003  1.00  0.00     0.187 C 
HETATM   31  O4  UNL     1      -6.701   3.024  -1.215  1.00  0.00    -0.388 OA
HETATM   32  C18 UNL     1      -5.452   3.224  -0.684  1.00  0.00     0.187 C 
HETATM   33  C19 UNL     1      -4.599   1.937  -0.713  1.00  0.00     0.144 C 
ENDBRANCH  26  28
BRANCH  26  34
HETATM   34  C20 UNL     1      -5.195  -0.619   1.688  1.00  0.00     0.084 C 
HETATM   35  C22 UNL     1      -6.627  -1.081   1.778  1.00  0.00     0.021 C 
HETATM   36  C23 UNL     1      -6.235  -2.377   2.436  1.00  0.00     0.002 C 
HETATM   37  C24 UNL     1      -4.794  -2.013   2.165  1.00  0.00     0.021 C 
BRANCH  34  38
HETATM   38  C21 UNL     1      -4.904   0.358   2.777  1.00  0.00     0.397 C 
HETATM   39  F3  UNL     1      -5.411   1.610   2.596  1.00  0.00    -0.170 F 
HETATM   40  F4  UNL     1      -5.591  -0.121   3.944  1.00  0.00    -0.170 F 
HETATM   41  F5  UNL     1      -3.588   0.313   3.167  1.00  0.00    -0.170 F 
ENDBRANCH  34  38
ENDBRANCH  26  34
ENDBRANCH  25  26
ENDBRANCH   3  25
TORSDOF 12
