REMARK  7 active torsions:
REMARK  status: ('A' for Active; 'I' for Inactive)
REMARK    1  A    between atoms: S1_2  and  C2_4 
REMARK    2  A    between atoms: S1_2  and  C5_7 
REMARK    3  A    between atoms: C8_13  and  C9_14 
REMARK    4  A    between atoms: C9_14  and  N2_16 
REMARK    5  A    between atoms: N2_16  and  S2_18 
REMARK    6  A    between atoms: C12_22  and  O4_23 
REMARK    7  A    between atoms: C13_25  and  O5_26 
ROOT
HETATM    1  C5  UNL     1      -1.311   0.301  -0.053  1.00  0.00     0.129 C 
HETATM    2  C6  UNL     1      -0.277  -0.564   0.510  1.00  0.00     0.200 C 
HETATM    3  C7  UNL     1      -0.691  -1.491   1.632  1.00  0.00     0.041 C 
HETATM    4  N1  UNL     1       0.506  -1.324  -0.468  1.00  0.00    -0.061 N 
ATOM      5  H11 UNL     1      -0.087  -1.946  -1.017  1.00  0.00     0.278 HD
ATOM      6  H12 UNL     1       1.092  -2.024  -0.013  1.00  0.00     0.278 HD
HETATM    7  C8  UNL     1       1.285  -0.456  -1.315  1.00  0.00     0.240 C 
HETATM    8  C12 UNL     1       0.563   0.812  -1.591  1.00  0.00     0.180 C 
HETATM    9  C13 UNL     1      -0.956   0.517  -1.543  1.00  0.00     0.166 C 
ENDROOT
BRANCH   7  10
HETATM   10  C9  UNL     1       2.715  -0.366  -0.911  1.00  0.00     0.122 C 
HETATM   11  C10 UNL     1       3.231  -1.835  -1.013  1.00  0.00     0.035 C 
BRANCH  10  12
HETATM   12  N2  UNL     1       3.548   0.502  -1.649  1.00  0.00    -0.313 N 
ATOM     13  H2  UNL     1       3.550   0.495  -2.669  1.00  0.00     0.172 HD
BRANCH  12  14
HETATM   14  S2  UNL     1       4.550   1.562  -0.771  1.00  0.00     0.223 S 
HETATM   15  C11 UNL     1       5.650   0.511   0.203  1.00  0.00     0.185 C 
HETATM   16  O2  UNL     1       3.883   2.450   0.194  1.00  0.00    -0.206 OA
HETATM   17  O3  UNL     1       5.492   2.324  -1.695  1.00  0.00    -0.206 OA
ENDBRANCH  12  14
ENDBRANCH  10  12
ENDBRANCH   7  10
BRANCH   8  18
HETATM   18  O4  UNL     1       0.737   1.837  -0.702  1.00  0.00    -0.391 OA
ATOM     19  H4  UNL     1       0.275   2.648  -0.879  1.00  0.00     0.210 HD
ENDBRANCH   8  18
BRANCH   9  20
HETATM   20  O5  UNL     1      -1.290  -0.524  -2.346  1.00  0.00    -0.392 OA
ATOM     21  H5  UNL     1      -1.072  -0.391  -3.261  1.00  0.00     0.210 HD
ENDBRANCH   9  20
BRANCH   1  22
HETATM   22  S1  UNL     1      -2.984  -0.036   0.150  1.00  0.00    -0.047 S 
HETATM   23  C1  UNL     1      -3.534  -1.388  -0.467  1.00  0.00     0.114 C 
HETATM   24  O1  UNL     1      -3.770   0.978  -0.685  1.00  0.00    -0.270 OA
BRANCH  22  25
HETATM   25  C2  UNL     1      -3.513   0.179   1.826  1.00  0.00     0.059 C 
HETATM   26  C3  UNL     1      -5.003  -0.056   1.973  1.00  0.00     0.022 C 
HETATM   27  C4  UNL     1      -3.256   1.598   2.301  1.00  0.00     0.022 C 
ENDBRANCH  22  25
ENDBRANCH   1  22
TORSDOF 7
