REMARK  9 active torsions:
REMARK  status: ('A' for Active; 'I' for Inactive)
REMARK    1  A    between atoms: C1_2  and  C2_4 
REMARK    2  A    between atoms: C2_4  and  C3_5 
REMARK    3  A    between atoms: C2_4  and  N2_9 
REMARK    4  A    between atoms: C3_5  and  C4_6 
REMARK    5  A    between atoms: N2_9  and  O4_10 
REMARK    6  A    between atoms: O4_10  and  C5_11 
REMARK    7  A    between atoms: C5_11  and  C6_12 
REMARK    8  A    between atoms: C6_12  and  O5_13 
REMARK    9  A    between atoms: C6_12  and  C7_15 
ROOT
HETATM    1  O4  UNL     1       1.178  -0.105  -0.220  1.00  0.00    -0.283 OA
ENDROOT
BRANCH   1   2
HETATM    2  N2  UNL     1       2.106   0.819   0.183  1.00  0.00    -0.086 NA
BRANCH   2   3
HETATM    3  C2  UNL     1       3.425   0.333  -0.240  1.00  0.00     0.205 C 
BRANCH   3   4
HETATM    4  C1  UNL     1       3.667  -0.954   0.387  1.00  0.00     0.253 C 
HETATM    5  N1  UNL     1       4.783  -1.792   0.225  1.00  0.00    -0.061 NA
HETATM    6  O1  UNL     1       2.773  -1.410   1.189  1.00  0.00    -0.275 OA
ENDBRANCH   3   4
BRANCH   3   7
HETATM    7  C3  UNL     1       4.404   1.396   0.119  1.00  0.00     0.146 C 
BRANCH   7   8
HETATM    8  C4  UNL     1       5.799   1.198  -0.252  1.00  0.00     0.174 C 
HETATM    9  O2  UNL     1       6.237   0.299  -0.977  1.00  0.00    -0.648 OA
HETATM   10  O3  UNL     1       6.725   2.126   0.274  1.00  0.00    -0.648 OA
ENDBRANCH   7   8
ENDBRANCH   3   7
ENDBRANCH   2   3
ENDBRANCH   1   2
BRANCH   1  11
HETATM   11  C5  UNL     1      -0.095   0.264   0.200  1.00  0.00     0.227 C 
BRANCH  11  12
HETATM   12  C6  UNL     1      -1.051  -0.785  -0.272  1.00  0.00     0.148 C 
BRANCH  12  13
HETATM   13  O5  UNL     1      -0.712  -2.032   0.267  1.00  0.00    -0.393 OA
ATOM     14  H5  UNL     1      -1.319  -2.698  -0.033  1.00  0.00     0.210 HD
ENDBRANCH  12  13
BRANCH  12  15
HETATM   15  C7  UNL     1      -2.493  -0.445   0.129  1.00  0.00     0.017 C 
HETATM   16  C8  UNL     1      -2.871   0.867  -0.487  1.00  0.00     0.007 C 
HETATM   17  C9  UNL     1      -4.322   1.113  -0.044  1.00  0.00     0.000 C 
HETATM   18  C10 UNL     1      -5.158   0.140  -0.807  1.00  0.00     0.000 C 
HETATM   19  C11 UNL     1      -4.701  -1.261  -0.789  1.00  0.00     0.000 C 
HETATM   20  C12 UNL     1      -3.415  -1.567  -0.151  1.00  0.00     0.007 C 
ENDBRANCH  12  15
ENDBRANCH  11  12
ENDBRANCH   1  11
TORSDOF 9
