REMARK  8 active torsions:
REMARK  status: ('A' for Active; 'I' for Inactive)
REMARK    1  A    between atoms: C6_6  and  C7_7 
REMARK    2  A    between atoms: C7_7  and  C10_10 
REMARK    3  A    between atoms: C10_10  and  C11_11 
REMARK    4  A    between atoms: C11_11  and  N1_12 
REMARK    5  A    between atoms: N2_15  and  C14_16 
REMARK    6  A    between atoms: C14_16  and  C15_17 
REMARK    7  A    between atoms: C16_21  and  C17_22 
REMARK    8  A    between atoms: C21_26  and  O2_27 
ROOT
HETATM    1  C14 UNL     1       1.854   2.729  -0.095  1.00  0.00     0.200 C 
ENDROOT
BRANCH   1   2
HETATM    2  N2  UNL     1       0.557   2.671  -0.683  1.00  0.00    -0.383 N 
HETATM    3  C13 UNL     1      -0.318   3.630  -0.104  1.00  0.00     0.152 C 
HETATM    4  C12 UNL     1      -1.228   2.909   0.867  1.00  0.00     0.292 C 
HETATM    5  N1  UNL     1      -2.083   2.067   0.048  1.00  0.00     0.094 N 
HETATM    6  C27 UNL     1      -1.279   1.003  -0.456  1.00  0.00     0.316 C 
HETATM    7  C26 UNL     1       0.040   1.400  -0.994  1.00  0.00     0.088 C 
BRANCH   5   8
HETATM    8  C11 UNL     1      -3.195   1.591   0.836  1.00  0.00     0.274 C 
BRANCH   8   9
HETATM    9  C10 UNL     1      -4.135   0.711   0.051  1.00  0.00     0.046 C 
BRANCH   9  10
HETATM   10  C7  UNL     1      -5.290   0.231   0.906  1.00  0.00     0.004 C 
HETATM   11  C8  UNL     1      -4.837  -0.469   2.143  1.00  0.00     0.022 C 
HETATM   12  C9  UNL     1      -6.060   1.471   1.335  1.00  0.00     0.022 C 
BRANCH  10  13
HETATM   13  C6  UNL     1      -6.206  -0.632   0.119  1.00  0.00     0.067 A 
HETATM   14  C4  UNL     1      -5.879  -1.861  -0.400  1.00  0.00    -0.029 A 
HETATM   15  C3  UNL     1      -7.018  -2.322  -1.059  1.00  0.00     0.041 A 
HETATM   16  C5  UNL     1      -4.623  -2.607  -0.327  1.00  0.00     0.050 C 
HETATM   17  C2  UNL     1      -7.958  -1.343  -0.897  1.00  0.00     0.050 A 
HETATM   18  C1  UNL     1      -9.342  -1.459  -1.468  1.00  0.00     0.076 C 
HETATM   19  O3  UNL     1      -7.461  -0.373  -0.208  1.00  0.00    -0.319 OA
ENDBRANCH  10  13
ENDBRANCH   9  10
ENDBRANCH   8   9
ENDBRANCH   5   8
ENDBRANCH   1   2
BRANCH   1  20
HETATM   20  C15 UNL     1       2.862   1.821  -0.625  1.00  0.00     0.122 A 
HETATM   21  N3  UNL     1       2.949   1.400  -1.899  1.00  0.00    -0.245 N 
HETATM   22  O1  UNL     1       3.953   0.601  -2.042  1.00  0.00    -0.217 OA
ATOM     23  H3  UNL     1       2.312   1.673  -2.647  1.00  0.00     0.196 HD
HETATM   24  C16 UNL     1       4.584   0.452  -0.874  1.00  0.00     0.182 A 
HETATM   25  N4  UNL     1       3.896   1.210  -0.018  1.00  0.00    -0.321 N 
ATOM     26  H4  UNL     1       4.125   1.313   0.971  1.00  0.00     0.169 HD
BRANCH  24  27
HETATM   27  C17 UNL     1       5.761  -0.391  -0.706  1.00  0.00     0.024 A 
HETATM   28  C18 UNL     1       6.291  -1.094  -1.780  1.00  0.00     0.026 A 
HETATM   29  C19 UNL     1       7.410  -1.898  -1.631  1.00  0.00    -0.027 A 
HETATM   30  C20 UNL     1       7.983  -2.653  -2.774  1.00  0.00     0.051 C 
HETATM   31  C21 UNL     1       8.015  -2.007  -0.398  1.00  0.00     0.078 A 
HETATM   32  C22 UNL     1       7.499  -1.316   0.669  1.00  0.00    -0.021 A 
HETATM   33  C23 UNL     1       8.105  -1.391   2.028  1.00  0.00     0.052 C 
HETATM   34  C24 UNL     1       6.374  -0.509   0.517  1.00  0.00    -0.039 A 
HETATM   35  C25 UNL     1       5.853   0.222   1.715  1.00  0.00     0.050 C 
BRANCH  31  36
HETATM   36  O2  UNL     1       9.145  -2.800  -0.181  1.00  0.00    -0.360 OA
ATOM     37  H2  UNL     1       9.562  -2.875   0.669  1.00  0.00     0.217 HD
ENDBRANCH  31  36
ENDBRANCH  24  27
ENDBRANCH   1  20
TORSDOF 8
