REMARK  0 active torsions:
REMARK  status: ('A' for Active; 'I' for Inactive)
ROOT
HETATM    1  N1  UNL     1      -1.282   1.242  -2.788  1.00  0.00    -0.193 NA
HETATM    2  C1  UNL     1      -1.257   0.792  -1.726  1.00  0.00     0.118 C 
HETATM    3  C2  UNL     1      -1.202   0.224  -0.403  1.00  0.00     0.335 C 
HETATM    4  C3  UNL     1      -2.492  -0.060   0.167  1.00  0.00     0.118 C 
HETATM    5  N2  UNL     1      -3.537  -0.299   0.630  1.00  0.00    -0.193 NA
HETATM    6  C4  UNL     1      -0.320  -1.008  -0.420  1.00  0.00     0.056 C 
HETATM    7  C5  UNL     1       0.997  -0.761  -1.061  1.00  0.00     0.011 C 
HETATM    8  C6  UNL     1       1.703   0.355  -0.315  1.00  0.00     0.031 C 
HETATM    9  C7  UNL     1       0.747   1.480  -0.072  1.00  0.00     0.276 C 
HETATM   10  N3  UNL     1      -0.478   1.070   0.547  1.00  0.00     0.126 N 
HETATM   11  C8  UNL     1      -0.271   0.156   1.640  1.00  0.00     0.276 C 
HETATM   12  C9  UNL     1      -0.089  -1.215   1.068  1.00  0.00     0.039 C 
ENDROOT
TORSDOF 0
