REMARK  2 active torsions:
REMARK  status: ('A' for Active; 'I' for Inactive)
REMARK    1  A    between atoms: N1_1  and  N2_4 
REMARK    2  A    between atoms: N2_4  and  C1_5 
ROOT
HETATM    1  C1  UNL     1       1.335   0.510  -0.012  1.00  0.00     0.172 C 
HETATM    2  C2  UNL     1       1.258  -0.708  -0.824  1.00  0.00     0.052 C 
HETATM    3  C3  UNL     1       0.040  -1.529  -0.760  1.00  0.00     0.008 C 
HETATM    4  C4  UNL     1      -0.870  -1.297   0.392  1.00  0.00    -0.011 C 
HETATM    5  C5  UNL     1      -2.010  -0.402  -0.045  1.00  0.00     0.035 C 
HETATM    6  C6  UNL     1      -1.572   0.970  -0.375  1.00  0.00     0.273 C 
HETATM    7  N3  UNL     1      -0.458   1.483   0.285  1.00  0.00     0.100 N 
HETATM    8  C7  UNL     1       0.697   1.767  -0.576  1.00  0.00     0.323 C 
HETATM    9  C8  UNL     1       0.353   0.674   1.074  1.00  0.00     0.268 C 
HETATM   10  C9  UNL     1      -0.190  -0.620   1.551  1.00  0.00     0.044 C 
ENDROOT
BRANCH   1  11
HETATM   11  N2  UNL     1       2.672   0.810   0.384  1.00  0.00    -0.362 NA
BRANCH  11  12
HETATM   12  N1  UNL     1       3.722   1.039   0.682  1.00  0.00    -0.285 N 
ATOM     13  H12 UNL     1       3.088   0.640  -0.011  1.00  0.00     0.191 HD
ATOM     14  H11 UNL     1       4.678   1.254   0.965  1.00  0.00     0.191 HD
ENDBRANCH  11  12
ENDBRANCH   1  11
TORSDOF 2
