REMARK  11 active torsions:
REMARK  status: ('A' for Active; 'I' for Inactive)
REMARK    1  A    between atoms: N1_2  and  C2_5 
REMARK       I    between atoms: N2_7  and  C4_9 
REMARK    2  A    between atoms: N4_11  and  C5_13 
REMARK    3  A    between atoms: C5_13  and  C6_14 
REMARK    4  A    between atoms: C6_14  and  C7_15 
REMARK    5  A    between atoms: C7_15  and  C8_16 
REMARK    6  A    between atoms: C8_16  and  N5_17 
REMARK    7  A    between atoms: C8_16  and  C9_21 
REMARK    8  A    between atoms: C9_21  and  C10_22 
REMARK    9  A    between atoms: C10_22  and  C11_23 
REMARK   10  A    between atoms: C11_23  and  N6_24 
REMARK   11  A    between atoms: C13_29  and  N9_30 
ROOT
HETATM    1  C2  UNL     1      -5.702  -0.815   0.783  1.00  0.00     0.268 A 
HETATM    2  C3  UNL     1      -5.089   0.528   0.858  1.00  0.00     0.055 A 
HETATM    3  N2  UNL     1      -4.199   1.445   0.603  1.00  0.00    -0.334 N 
ATOM      4  H2  UNL     1      -4.277   2.387   0.986  1.00  0.00     0.168 HD
HETATM    5  C4  UNL     1      -3.119   1.071  -0.230  1.00  0.00     0.188 C 
HETATM    6  N3  UNL     1      -2.972   1.672  -1.501  1.00  0.00    -0.064 NA
HETATM    7  N4  UNL     1      -2.294   0.195   0.186  1.00  0.00    -0.364 N 
ATOM      8  H4  UNL     1      -2.453  -0.201   1.112  1.00  0.00     0.162 HD
HETATM    9  C13 UNL     1      -6.356   0.281   1.594  1.00  0.00     0.267 A 
ENDROOT
BRANCH   7  10
HETATM   10  C5  UNL     1      -1.150  -0.279  -0.557  1.00  0.00     0.122 C 
BRANCH  10  11
HETATM   11  C6  UNL     1       0.076   0.442  -0.040  1.00  0.00     0.022 C 
BRANCH  11  12
HETATM   12  C7  UNL     1       1.329   0.004  -0.767  1.00  0.00     0.034 C 
BRANCH  12  13
HETATM   13  C8  UNL     1       2.479   0.804  -0.151  1.00  0.00     0.183 C 
BRANCH  13  14
HETATM   14  N5  UNL     1       2.214   2.195  -0.347  1.00  0.00    -0.075 N 
ATOM     15  H53 UNL     1       2.053   2.430  -1.326  1.00  0.00     0.274 HD
ATOM     16  H52 UNL     1       1.302   2.476   0.015  1.00  0.00     0.274 HD
ATOM     17  H51 UNL     1       2.980   2.728   0.064  1.00  0.00     0.274 HD
ENDBRANCH  13  14
BRANCH  13  18
HETATM   18  C9  UNL     1       3.745   0.343  -0.831  1.00  0.00     0.034 C 
BRANCH  18  19
HETATM   19  C10 UNL     1       4.963   1.052  -0.318  1.00  0.00     0.022 C 
BRANCH  19  20
HETATM   20  C11 UNL     1       5.176   0.838   1.165  1.00  0.00     0.122 C 
BRANCH  20  21
HETATM   21  N6  UNL     1       5.345  -0.541   1.507  1.00  0.00    -0.367 N 
HETATM   22  C12 UNL     1       6.415  -1.219   1.303  1.00  0.00     0.196 C 
HETATM   23  N7  UNL     1       7.587  -0.687   0.705  1.00  0.00    -0.067 NA
HETATM   24  N8  UNL     1       6.431  -2.585   1.699  1.00  0.00    -0.067 NA
ATOM     25  H6  UNL     1       4.558  -1.020   1.945  1.00  0.00     0.161 HD
ENDBRANCH  20  21
ENDBRANCH  19  20
ENDBRANCH  18  19
ENDBRANCH  13  18
ENDBRANCH  12  13
ENDBRANCH  11  12
ENDBRANCH  10  11
ENDBRANCH   7  10
BRANCH   1  26
HETATM   26  N1  UNL     1      -6.433  -1.184  -0.416  1.00  0.00    -0.067 N 
HETATM   27  C1  UNL     1      -6.938  -2.535  -0.258  1.00  0.00     0.267 C 
ATOM     28  H12 UNL     1      -5.875  -1.073  -1.262  1.00  0.00     0.277 HD
ATOM     29  H11 UNL     1      -7.170  -0.517  -0.644  1.00  0.00     0.277 HD
ENDBRANCH   1  26
BRANCH   9  30
HETATM   30  N9  UNL     1      -7.503   0.950   1.038  1.00  0.00    -0.068 N 
ATOM     31  H93 UNL     1      -7.260   1.317   0.118  1.00  0.00     0.275 HD
ATOM     32  H92 UNL     1      -8.207   0.254   0.791  1.00  0.00     0.275 HD
ATOM     33  H91 UNL     1      -7.944   1.689   1.585  1.00  0.00     0.275 HD
ENDBRANCH   9  30
TORSDOF 11
