REMARK  10 active torsions:
REMARK  status: ('A' for Active; 'I' for Inactive)
REMARK    1  A    between atoms: N1_1  and  C1_5 
REMARK    2  A    between atoms: C1_5  and  C2_6 
REMARK    3  A    between atoms: C2_6  and  C3_7 
REMARK    4  A    between atoms: C3_7  and  C4_8 
REMARK    5  A    between atoms: C4_8  and  C5_9 
REMARK    6  A    between atoms: C7_14  and  C8_15 
REMARK    7  A    between atoms: C8_15  and  C9_16 
REMARK    8  A    between atoms: C9_16  and  N3_17 
REMARK    9  A    between atoms: C11_22  and  C12_23 
REMARK   10  A    between atoms: C12_23  and  N6_24 
ROOT
HETATM    1  C5  UNL     1       1.484  -0.482  -0.665  1.00  0.00     0.176 C 
HETATM    2  N2  UNL     1       0.711  -0.163   0.494  1.00  0.00    -0.347 N 
ATOM      3  H2  UNL     1       1.241   0.028   1.344  1.00  0.00     0.163 HD
HETATM    4  C6  UNL     1      -0.699  -0.078   0.611  1.00  0.00     0.224 C 
HETATM    5  O1  UNL     1      -1.095   0.754   1.477  1.00  0.00    -0.273 OA
HETATM    6  C7  UNL     1      -1.756  -0.788  -0.098  1.00  0.00     0.104 C 
HETATM    7  C11 UNL     1      -1.367  -2.182  -0.531  1.00  0.00     0.122 C 
HETATM    8  N7  UNL     1      -0.301  -2.204  -1.477  1.00  0.00    -0.352 N 
ATOM      9  H7  UNL     1      -0.335  -2.979  -2.140  1.00  0.00     0.163 HD
HETATM   10  C13 UNL     1       0.800  -1.326  -1.649  1.00  0.00     0.240 C 
HETATM   11  O2  UNL     1       1.261  -1.263  -2.832  1.00  0.00    -0.271 OA
ENDROOT
BRANCH   1  12
HETATM   12  C4  UNL     1       2.802  -1.141  -0.325  1.00  0.00     0.035 C 
BRANCH  12  13
HETATM   13  C3  UNL     1       3.674  -0.273   0.532  1.00  0.00     0.004 C 
BRANCH  13  14
HETATM   14  C2  UNL     1       4.016   1.042  -0.136  1.00  0.00     0.027 C 
BRANCH  14  15
HETATM   15  C1  UNL     1       4.895   1.816   0.833  1.00  0.00     0.229 C 
BRANCH  15  16
HETATM   16  N1  UNL     1       5.276   3.104   0.270  1.00  0.00    -0.079 N 
ATOM     17  H13 UNL     1       5.720   3.001  -0.642  1.00  0.00     0.274 HD
ATOM     18  H12 UNL     1       4.461   3.647  -0.016  1.00  0.00     0.274 HD
ATOM     19  H11 UNL     1       5.866   3.623   0.920  1.00  0.00     0.274 HD
ENDBRANCH  15  16
ENDBRANCH  14  15
ENDBRANCH  13  14
ENDBRANCH  12  13
ENDBRANCH   1  12
BRANCH   6  20
HETATM   20  C8  UNL     1      -2.271  -0.062  -1.323  1.00  0.00     0.036 C 
BRANCH  20  21
HETATM   21  C9  UNL     1      -2.844   1.295  -0.964  1.00  0.00     0.123 C 
BRANCH  21  22
HETATM   22  N3  UNL     1      -3.932   1.123  -0.046  1.00  0.00    -0.367 N 
HETATM   23  C10 UNL     1      -4.638   2.119   0.347  1.00  0.00     0.196 C 
HETATM   24  N4  UNL     1      -5.691   1.860   1.253  1.00  0.00    -0.067 NA
HETATM   25  N5  UNL     1      -4.333   3.410  -0.137  1.00  0.00    -0.067 NA
ATOM     26  H3  UNL     1      -4.149   0.189   0.302  1.00  0.00     0.161 HD
ENDBRANCH  21  22
ENDBRANCH  20  21
ENDBRANCH   6  20
BRANCH   7  27
HETATM   27  C12 UNL     1      -1.107  -3.089   0.670  1.00  0.00     0.255 C 
BRANCH  27  28
HETATM   28  N6  UNL     1      -0.743  -4.394   0.132  1.00  0.00    -0.077 N 
ATOM     29  H63 UNL     1      -1.434  -4.771  -0.516  1.00  0.00     0.274 HD
ATOM     30  H62 UNL     1       0.038  -4.357  -0.523  1.00  0.00     0.274 HD
ATOM     31  H61 UNL     1      -0.569  -5.000   0.934  1.00  0.00     0.274 HD
ENDBRANCH  27  28
ENDBRANCH   7  27
TORSDOF 10
