REMARK  9 active torsions:
REMARK  status: ('A' for Active; 'I' for Inactive)
REMARK    1  A    between atoms: O1_2  and  C2_3 
REMARK    2  A    between atoms: C2_3  and  C3_5 
REMARK    3  A    between atoms: C3_5  and  C4_6 
REMARK    4  A    between atoms: C3_5  and  C5_9 
REMARK    5  A    between atoms: C4_6  and  O3_7 
REMARK    6  A    between atoms: C6_10  and  O4_11 
REMARK    7  A    between atoms: C10_17  and  O5_18 
REMARK    8  A    between atoms: C12_20  and  C13_21 
REMARK    9  A    between atoms: C15_28  and  O7_29 
ROOT
HETATM    1  C5  UNL     1       0.236   0.303  -0.429  1.00  0.00     0.030 A 
HETATM    2  C6  UNL     1       0.758   1.549  -0.011  1.00  0.00     0.102 A 
HETATM    3  C8  UNL     1       0.198   2.367   0.897  1.00  0.00     0.041 A 
HETATM    4  C9  UNL     1       0.742   3.672   1.324  1.00  0.00     0.071 C 
HETATM    5  N1  UNL     1      -0.955   1.961   1.442  1.00  0.00    -0.338 N 
ATOM      6  H1  UNL     1      -1.409   2.553   2.138  1.00  0.00     0.168 HD
HETATM    7  C10 UNL     1      -1.540   0.781   1.095  1.00  0.00     0.156 A 
HETATM    8  C12 UNL     1      -0.947  -0.067   0.145  1.00  0.00     0.060 A 
ENDROOT
BRANCH   8   9
HETATM    9  C13 UNL     1      -1.714  -1.223  -0.298  1.00  0.00     0.103 A 
HETATM   10  N2  UNL     1      -1.886  -1.661  -1.580  1.00  0.00    -0.304 N 
HETATM   11  C14 UNL     1      -2.585  -2.814  -1.647  1.00  0.00     0.326 A 
ATOM     12  H2  UNL     1      -1.525  -1.170  -2.398  1.00  0.00     0.171 HD
HETATM   13  O6  UNL     1      -2.913  -3.464  -2.663  1.00  0.00    -0.247 OA
HETATM   14  N3  UNL     1      -2.873  -3.126  -0.371  1.00  0.00    -0.287 N 
HETATM   15  C15 UNL     1      -2.370  -2.196   0.469  1.00  0.00     0.172 A 
ATOM     16  H3  UNL     1      -3.398  -3.950  -0.078  1.00  0.00     0.172 HD
BRANCH  15  17
HETATM   17  O7  UNL     1      -2.501  -2.236   1.827  1.00  0.00    -0.344 OA
ATOM     18  H7  UNL     1      -2.946  -2.895   2.347  1.00  0.00     0.219 HD
ENDBRANCH  15  17
ENDBRANCH   8   9
BRANCH   1  19
HETATM   19  C3  UNL     1       1.153  -0.619  -1.085  1.00  0.00     0.054 C 
BRANCH  19  20
HETATM   20  C2  UNL     1       2.181  -1.169  -0.152  1.00  0.00     0.292 C 
HETATM   21  O2  UNL     1       2.618  -2.341  -0.438  1.00  0.00    -0.260 OA
BRANCH  20  22
HETATM   22  O1  UNL     1       2.656  -0.535   0.972  1.00  0.00    -0.323 OA
HETATM   23  C1  UNL     1       3.568  -1.270   1.781  1.00  0.00     0.213 C 
ENDBRANCH  20  22
ENDBRANCH  19  20
BRANCH  19  24
HETATM   24  C4  UNL     1       1.364  -0.778  -2.504  1.00  0.00     0.210 C 
BRANCH  24  25
HETATM   25  O3  UNL     1       1.467  -2.113  -2.888  1.00  0.00    -0.396 OA
ATOM     26  H3  UNL     1       1.606  -2.218  -3.822  1.00  0.00     0.209 HD
ENDBRANCH  24  25
ENDBRANCH  19  24
ENDBRANCH   1  19
BRANCH   7  27
HETATM   27  O5  UNL     1      -2.712   0.417   1.673  1.00  0.00    -0.340 OA
HETATM   28  C11 UNL     1      -3.383   1.187   2.655  1.00  0.00     0.211 C 
ENDBRANCH   7  27
BRANCH   2  29
HETATM   29  O4  UNL     1       1.950   1.973  -0.602  1.00  0.00    -0.353 OA
HETATM   30  C7  UNL     1       1.853   2.805  -1.778  1.00  0.00     0.210 C 
ENDBRANCH   2  29
TORSDOF 9
