REMARK  2 active torsions:
REMARK  status: ('A' for Active; 'I' for Inactive)
REMARK    1  A    between atoms: O1_1  and  C1_3 
REMARK    2  A    between atoms: C1_3  and  C2_4 
ROOT
HETATM    1  C2  UNL     1      -1.648   0.347   0.335  1.00  0.00     0.011 C 
HETATM    2  C3  UNL     1      -1.570  -1.102   0.062  1.00  0.00     0.008 C 
HETATM    3  C4  UNL     1      -0.345  -1.556  -0.667  1.00  0.00     0.031 C 
HETATM    4  C5  UNL     1       0.917  -1.451   0.125  1.00  0.00     0.273 C 
HETATM    5  N1  UNL     1       1.526  -0.154   0.079  1.00  0.00     0.049 N 
HETATM    6  C6  UNL     1       2.888  -0.104   0.508  1.00  0.00     0.302 C 
HETATM    7  C7  UNL     1       2.962   0.945  -0.587  1.00  0.00     0.238 C 
HETATM    8  O2  UNL     1       1.873   0.259  -1.152  1.00  0.00    -0.200 OA
HETATM    9  C8  UNL     1       0.694   0.799   0.805  1.00  0.00     0.274 C 
HETATM   10  C9  UNL     1      -0.460   1.142  -0.100  1.00  0.00     0.037 C 
ENDROOT
BRANCH   1  11
HETATM   11  C1  UNL     1      -2.882   1.000  -0.302  1.00  0.00     0.168 C 
BRANCH  11  12
HETATM   12  O1  UNL     1      -4.052   0.434   0.179  1.00  0.00    -0.400 OA
ATOM     13  H1  UNL     1      -4.816   0.838  -0.215  1.00  0.00     0.209 HD
ENDBRANCH  11  12
ENDBRANCH   1  11
TORSDOF 2
