REMARK  3 active torsions:
REMARK  status: ('A' for Active; 'I' for Inactive)
REMARK    1  A    between atoms: C2_3  and  C3_4 
REMARK    2  A    between atoms: C2_3  and  C7_11 
REMARK       I    between atoms: C3_4  and  N2_6 
REMARK    3  A    between atoms: N2_6  and  C4_8 
ROOT
HETATM    1  N1  UNL     1      -0.030   3.056   0.496  1.00  0.00    -0.196 NA
HETATM    2  C1  UNL     1      -0.187   1.911   0.428  1.00  0.00     0.074 C 
HETATM    3  C2  UNL     1      -0.402   0.444   0.363  1.00  0.00     0.190 C 
ENDROOT
BRANCH   3   4
HETATM    4  C3  UNL     1       0.732  -0.109  -0.386  1.00  0.00     0.236 C 
HETATM    5  O1  UNL     1       0.552  -0.735  -1.445  1.00  0.00    -0.272 OA
HETATM    6  N2  UNL     1       2.040   0.067   0.093  1.00  0.00    -0.355 N 
ATOM      7  H2  UNL     1       2.165   0.583   0.964  1.00  0.00     0.162 HD
BRANCH   6   8
HETATM    8  C4  UNL     1       3.223  -0.438  -0.571  1.00  0.00     0.084 A 
HETATM    9  C5  UNL     1       4.260  -1.015   0.384  1.00  0.00     0.027 A 
HETATM   10  C6  UNL     1       4.539   0.236  -0.393  1.00  0.00     0.027 A 
ENDBRANCH   6   8
ENDBRANCH   3   4
BRANCH   3  11
HETATM   11  C7  UNL     1      -1.721   0.246  -0.330  1.00  0.00     0.039 C 
HETATM   12  C8  UNL     1      -2.866   0.896   0.406  1.00  0.00     0.035 C 
HETATM   13  C9  UNL     1      -4.053   0.029   0.050  1.00  0.00     0.232 C 
HETATM   14  N3  UNL     1      -3.537  -1.038  -0.790  1.00  0.00    -0.075 N 
HETATM   15  C10 UNL     1      -2.163  -1.217  -0.286  1.00  0.00     0.238 C 
ATOM     16  H32 UNL     1      -4.103  -1.887  -0.797  1.00  0.00     0.277 HD
ATOM     17  H31 UNL     1      -3.604  -0.862  -1.792  1.00  0.00     0.277 HD
ENDBRANCH   3  11
TORSDOF 3
