REMARK  9 active torsions:
REMARK  status: ('A' for Active; 'I' for Inactive)
REMARK    1  A    between atoms: C2_2  and  C4_4 
REMARK    2  A    between atoms: C4_4  and  C5_5 
REMARK    3  A    between atoms: C5_5  and  C6_6 
REMARK    4  A    between atoms: C5_5  and  C17_22 
REMARK       I    between atoms: C6_6  and  N1_8 
REMARK    5  A    between atoms: C10_12  and  C11_13 
REMARK    6  A    between atoms: C11_13  and  O3_15 
REMARK    7  A    between atoms: O3_15  and  C12_16 
REMARK    8  A    between atoms: C17_22  and  O5_23 
REMARK    9  A    between atoms: N2_25  and  O6_27 
ROOT
HETATM    1  C6  UNL     1      -2.109  -0.910  -0.529  1.00  0.00     0.238 C 
HETATM    2  O1  UNL     1      -2.948  -1.385  -1.382  1.00  0.00    -0.272 OA
HETATM    3  N1  UNL     1      -0.766  -0.965  -0.901  1.00  0.00    -0.287 N 
HETATM    4  C7  UNL     1      -0.454  -1.532  -2.241  1.00  0.00     0.135 C 
HETATM    5  C8  UNL     1       0.869  -0.911  -2.650  1.00  0.00     0.022 C 
HETATM    6  C9  UNL     1       1.932  -1.594  -1.787  1.00  0.00     0.026 C 
HETATM    7  C10 UNL     1       1.703  -1.139  -0.367  1.00  0.00     0.178 C 
HETATM    8  C16 UNL     1       0.359  -0.563  -0.142  1.00  0.00     0.240 C 
HETATM    9  O4  UNL     1       0.228   0.294   0.740  1.00  0.00    -0.272 OA
ENDROOT
BRANCH   1  10
HETATM   10  C5  UNL     1      -2.729  -0.386   0.699  1.00  0.00     0.155 C 
BRANCH  10  11
HETATM   11  C4  UNL     1      -3.076   1.052   0.628  1.00  0.00     0.026 C 
BRANCH  11  12
HETATM   12  C2  UNL     1      -4.035   1.465  -0.450  1.00  0.00    -0.021 C 
HETATM   13  C1  UNL     1      -4.184   2.990  -0.269  1.00  0.00     0.009 C 
HETATM   14  C3  UNL     1      -5.436   0.929  -0.279  1.00  0.00     0.009 C 
ENDBRANCH  11  12
ENDBRANCH  10  11
BRANCH  10  15
HETATM   15  C17 UNL     1      -3.816  -1.275   1.204  1.00  0.00     0.148 C 
HETATM   16  N2  UNL     1      -4.317  -2.222   0.498  1.00  0.00    -0.250 N 
ATOM     17  H2  UNL     1      -3.962  -2.378  -0.446  1.00  0.00     0.196 HD
BRANCH  15  18
HETATM   18  O5  UNL     1      -4.325  -1.095   2.481  1.00  0.00    -0.347 OA
ATOM     19  H5  UNL     1      -5.017  -1.661   2.802  1.00  0.00     0.219 HD
ENDBRANCH  15  18
BRANCH  16  20
HETATM   20  O6  UNL     1      -5.310  -3.026   0.973  1.00  0.00    -0.288 OA
ATOM     21  H6  UNL     1      -5.681  -3.727   0.450  1.00  0.00     0.244 HD
ENDBRANCH  16  20
ENDBRANCH  10  15
ENDBRANCH   1  10
BRANCH   7  22
HETATM   22  C11 UNL     1       2.775  -0.141  -0.019  1.00  0.00     0.272 C 
HETATM   23  O2  UNL     1       2.474   1.021   0.306  1.00  0.00    -0.264 OA
BRANCH  22  24
HETATM   24  O3  UNL     1       4.109  -0.476  -0.048  1.00  0.00    -0.311 OA
BRANCH  24  25
HETATM   25  C12 UNL     1       5.154   0.413   0.266  1.00  0.00     0.060 C 
HETATM   26  C13 UNL     1       6.450  -0.355   0.108  1.00  0.00     0.045 C 
HETATM   27  C14 UNL     1       5.217   1.594  -0.674  1.00  0.00     0.045 C 
HETATM   28  C15 UNL     1       5.097   0.933   1.671  1.00  0.00     0.045 C 
ENDBRANCH  24  25
ENDBRANCH  22  24
ENDBRANCH   7  22
TORSDOF 9
