REMARK  8 active torsions:
REMARK  status: ('A' for Active; 'I' for Inactive)
REMARK    1  A    between atoms: C2_2  and  C3_3 
REMARK    2  A    between atoms: C3_3  and  C4_4 
REMARK    3  A    between atoms: C4_4  and  C5_5 
REMARK    4  A    between atoms: C5_5  and  C6_6 
REMARK    5  A    between atoms: C7_7  and  C8_8 
REMARK    6  A    between atoms: N1_10  and  C10_11 
REMARK    7  A    between atoms: C12_13  and  O1_14 
REMARK    8  A    between atoms: C13_16  and  C14_17 
ROOT
HETATM    1  C8  UNL     1       1.907  -1.618  -0.402  1.00  0.00     0.101 A 
HETATM    2  C9  UNL     1       0.820  -0.822  -0.153  1.00  0.00     0.124 A 
HETATM    3  N1  UNL     1      -0.448  -1.166  -0.480  1.00  0.00    -0.281 N 
HETATM    4  C20 UNL     1      -0.604  -2.360  -1.080  1.00  0.00     0.331 A 
HETATM    5  O3  UNL     1      -1.772  -2.692  -1.389  1.00  0.00    -0.246 OA
HETATM    6  N2  UNL     1       0.452  -3.173  -1.342  1.00  0.00    -0.274 N 
ATOM      7  H2  UNL     1       0.285  -4.070  -1.799  1.00  0.00     0.173 HD
HETATM    8  C21 UNL     1       1.710  -2.830  -1.017  1.00  0.00     0.269 A 
HETATM    9  O4  UNL     1       2.710  -3.562  -1.246  1.00  0.00    -0.266 OA
ENDROOT
BRANCH   3  10
HETATM   10  C10 UNL     1      -1.496  -0.259  -0.171  1.00  0.00     0.235 C 
HETATM   11  C11 UNL     1      -1.861  -0.269   1.323  1.00  0.00     0.088 C 
HETATM   12  C12 UNL     1      -3.256   0.379   1.141  1.00  0.00     0.151 C 
HETATM   13  C13 UNL     1      -3.710  -0.463   0.013  1.00  0.00     0.157 C 
HETATM   14  O2  UNL     1      -2.657  -0.428  -0.879  1.00  0.00    -0.358 OA
BRANCH  12  15
HETATM   15  O1  UNL     1      -2.907   1.692   0.747  1.00  0.00    -0.393 OA
ATOM     16  H1  UNL     1      -3.763   2.089   0.635  1.00  0.00     0.210 HD
ENDBRANCH  12  15
BRANCH  13  17
HETATM   17  C14 UNL     1      -5.055  -0.209  -0.571  1.00  0.00     0.017 C 
HETATM   18  C15 UNL     1      -5.282   1.142  -1.127  1.00  0.00     0.007 C 
HETATM   19  C16 UNL     1      -6.107   2.084  -0.318  1.00  0.00     0.000 C 
HETATM   20  C17 UNL     1      -7.409   1.353   0.041  1.00  0.00     0.000 C 
HETATM   21  C18 UNL     1      -6.944   0.285   1.042  1.00  0.00     0.000 C 
HETATM   22  C19 UNL     1      -6.111  -0.728   0.360  1.00  0.00     0.007 C 
ENDBRANCH  13  17
ENDBRANCH   3  10
BRANCH   1  23
HETATM   23  C7  UNL     1       3.247  -1.234  -0.046  1.00  0.00    -0.060 C 
HETATM   24  C6  UNL     1       4.362  -0.899   0.266  1.00  0.00    -0.101 C 
BRANCH  24  25
HETATM   25  C5  UNL     1       5.728  -0.478   0.670  1.00  0.00     0.094 C 
BRANCH  25  26
HETATM   26  C4  UNL     1       6.544  -0.075  -0.512  1.00  0.00     0.012 C 
BRANCH  26  27
HETATM   27  C3  UNL     1       7.919   0.338  -0.069  1.00  0.00     0.000 C 
BRANCH  27  28
HETATM   28  C2  UNL     1       7.934   1.497   0.882  1.00  0.00    -0.005 C 
HETATM   29  C1  UNL     1       9.374   1.851   1.272  1.00  0.00     0.005 C 
ENDBRANCH  27  28
ENDBRANCH  26  27
ENDBRANCH  25  26
ENDBRANCH  24  25
ENDBRANCH   1  23
TORSDOF 8
