REMARK  1 active torsions:
REMARK  status: ('A' for Active; 'I' for Inactive)
REMARK    1  A    between atoms: O1_2  and  C2_3 
ROOT
HETATM    1  C2  UNL     1       2.190  -0.604   0.375  1.00  0.00     0.150 C 
HETATM    2  C3  UNL     1       2.312   0.721   1.009  1.00  0.00     0.034 C 
HETATM    3  C4  UNL     1       1.924   1.910   0.189  1.00  0.00     0.003 C 
HETATM    4  C5  UNL     1       0.695   2.623   0.624  1.00  0.00     0.005 C 
HETATM    5  C6  UNL     1      -0.603   2.228  -0.013  1.00  0.00    -0.004 C 
HETATM    6  C7  UNL     1      -0.624   2.409  -1.485  1.00  0.00     0.031 C 
HETATM    7  C8  UNL     1      -1.663   1.748  -2.244  1.00  0.00    -0.030 C 
HETATM    8  C9  UNL     1      -2.203   0.553  -2.182  1.00  0.00    -0.023 C 
HETATM    9  C10 UNL     1      -1.938  -0.565  -1.298  1.00  0.00     0.044 C 
HETATM   10  C11 UNL     1      -1.361  -1.811  -1.964  1.00  0.00     0.012 C 
HETATM   11  C12 UNL     1      -0.942  -2.552  -0.677  1.00  0.00     0.018 C 
HETATM   12  C13 UNL     1      -0.224  -1.473   0.148  1.00  0.00     0.037 C 
HETATM   13  C14 UNL     1      -0.360  -1.677   1.594  1.00  0.00     0.138 C 
HETATM   14  N1  UNL     1      -1.639  -1.376   2.174  1.00  0.00    -0.360 N 
ATOM     15  H1  UNL     1      -1.912  -1.990   2.942  1.00  0.00     0.162 HD
HETATM   16  C15 UNL     1      -2.592  -0.362   1.856  1.00  0.00     0.218 C 
HETATM   17  O2  UNL     1      -3.735  -0.503   2.360  1.00  0.00    -0.274 OA
HETATM   18  C16 UNL     1      -2.467   0.856   1.016  1.00  0.00     0.110 C 
HETATM   19  C17 UNL     1      -1.028   0.897   0.515  1.00  0.00     0.035 C 
HETATM   20  C18 UNL     1      -0.777  -0.231  -0.409  1.00  0.00     0.084 C 
HETATM   21  O3  UNL     1       0.362  -0.067  -1.149  1.00  0.00    -0.369 OA
HETATM   22  C19 UNL     1       1.066  -1.007  -0.437  1.00  0.00     0.164 C 
ENDROOT
BRANCH   1  23
HETATM   23  O1  UNL     1       3.383  -0.799  -0.376  1.00  0.00    -0.388 OA
HETATM   24  C1  UNL     1       4.195  -1.770   0.147  1.00  0.00     0.202 C 
ENDBRANCH   1  23
TORSDOF 1
