REMARK  4 active torsions:
REMARK  status: ('A' for Active; 'I' for Inactive)
REMARK    1  A    between atoms: N1_2  and  C3_4 
REMARK    2  A    between atoms: C3_4  and  C4_5 
REMARK       I    between atoms: N2_10  and  C9_11 
REMARK    3  A    between atoms: C9_11  and  C10_13 
REMARK    4  A    between atoms: C10_13  and  C11_14 
ROOT
HETATM    1  C11 UNL     1       1.241  -0.326  -0.674  1.00  0.00     0.007 C 
HETATM    2  C12 UNL     1       1.799  -1.113  -1.840  1.00  0.00     0.009 C 
HETATM    3  C13 UNL     1       2.722  -0.054  -2.462  1.00  0.00     0.039 C 
HETATM    4  C14 UNL     1       3.395   0.485  -1.248  1.00  0.00     0.073 C 
HETATM    5  C15 UNL     1       4.152   1.753  -1.347  1.00  0.00     0.076 C 
HETATM    6  C16 UNL     1       5.097   0.970  -0.486  1.00  0.00     0.163 C 
HETATM    7  C17 UNL     1       5.016   1.230   0.954  1.00  0.00     0.087 C 
HETATM    8  N3  UNL     1       3.934   0.719   1.682  1.00  0.00    -0.399 N 
ATOM      9  H3  UNL     1       3.768   1.011   2.645  1.00  0.00     0.158 HD
HETATM   10  C18 UNL     1       3.077  -0.213   1.048  1.00  0.00     0.131 C 
HETATM   11  C19 UNL     1       2.396   0.436  -0.114  1.00  0.00     0.007 C 
HETATM   12  C20 UNL     1       1.903   1.817   0.264  1.00  0.00     0.020 C 
HETATM   13  O2  UNL     1       4.579  -0.220  -0.927  1.00  0.00    -0.369 OA
ENDROOT
BRANCH   1  14
HETATM   14  C10 UNL     1       0.544  -1.213   0.320  1.00  0.00     0.108 C 
BRANCH  14  15
HETATM   15  C9  UNL     1      -0.566  -1.888  -0.392  1.00  0.00     0.220 C 
HETATM   16  N2  UNL     1      -1.910  -1.481  -0.399  1.00  0.00    -0.346 N 
HETATM   17  C4  UNL     1      -2.326  -0.315   0.318  1.00  0.00     0.115 C 
HETATM   18  C8  UNL     1      -2.883  -2.238  -1.132  1.00  0.00     0.126 C 
HETATM   19  C5  UNL     1      -2.963   0.619  -0.686  1.00  0.00     0.027 C 
HETATM   20  C6  UNL     1      -4.003  -0.019  -1.537  1.00  0.00     0.004 C 
HETATM   21  C7  UNL     1      -3.663  -1.359  -2.079  1.00  0.00     0.020 C 
HETATM   22  O1  UNL     1      -0.207  -2.935  -1.043  1.00  0.00    -0.273 OA
BRANCH  17  23
HETATM   23  C3  UNL     1      -3.271  -0.638   1.456  1.00  0.00     0.296 C 
BRANCH  23  24
HETATM   24  N1  UNL     1      -3.682   0.525   2.180  1.00  0.00     0.082 N 
HETATM   25  C1  UNL     1      -2.595   1.126   2.926  1.00  0.00     0.309 C 
HETATM   26  C2  UNL     1      -4.710   0.137   3.129  1.00  0.00     0.309 C 
ENDBRANCH  23  24
ENDBRANCH  17  23
ENDBRANCH  14  15
ENDBRANCH   1  14
TORSDOF 4
