REMARK  6 active torsions:
REMARK  status: ('A' for Active; 'I' for Inactive)
REMARK    1  A    between atoms: O1_1  and  C1_3 
REMARK    2  A    between atoms: C6_8  and  N1_9 
REMARK    3  A    between atoms: C7_11  and  C8_12 
REMARK    4  A    between atoms: C13_18  and  O2_19 
REMARK    5  A    between atoms: C13_18  and  C14_21 
REMARK    6  A    between atoms: C20_27  and  C21_28 
ROOT
HETATM    1  C8  UNL     1       1.393   2.045  -0.578  1.00  0.00    -0.007 A 
HETATM    2  C9  UNL     1       1.224   3.386  -0.814  1.00  0.00     0.063 A 
HETATM    3  S1  UNL     1      -0.460   3.530  -1.060  1.00  0.00    -0.104 SA
HETATM    4  C10 UNL     1      -0.914   1.909  -0.862  1.00  0.00     0.002 A 
HETATM    5  C11 UNL     1       0.262   1.281  -0.606  1.00  0.00    -0.029 A 
HETATM    6  C12 UNL     1      -0.097  -0.180  -0.425  1.00  0.00     0.084 C 
HETATM    7  C13 UNL     1      -1.508  -0.133   0.062  1.00  0.00     0.101 C 
HETATM    8  C20 UNL     1      -2.064   0.943  -0.861  1.00  0.00     0.105 C 
ENDROOT
BRANCH   1   9
HETATM    9  C7  UNL     1       2.758   1.504  -0.315  1.00  0.00     0.101 C 
HETATM   10  N1  UNL     1       2.967   0.256  -0.093  1.00  0.00    -0.363 N 
ATOM     11  H1  UNL     1       2.188  -0.403  -0.091  1.00  0.00     0.165 HD
BRANCH  10  12
HETATM   12  C6  UNL     1       4.275  -0.194   0.147  1.00  0.00     0.065 A 
HETATM   13  C1  UNL     1       4.583  -0.957   1.237  1.00  0.00     0.092 A 
HETATM   14  C2  UNL     1       5.870  -1.378   1.431  1.00  0.00     0.039 A 
HETATM   15  C3  UNL     1       6.840  -1.011   0.500  1.00  0.00     0.003 A 
HETATM   16  C4  UNL     1       6.563  -0.247  -0.603  1.00  0.00     0.002 A 
HETATM   17  C5  UNL     1       5.250   0.172  -0.784  1.00  0.00     0.032 A 
BRANCH  13  18
HETATM   18  O1  UNL     1       3.612  -1.304   2.137  1.00  0.00    -0.358 OA
ATOM     19  H1  UNL     1       2.718  -1.012   2.002  1.00  0.00     0.217 HD
ENDBRANCH  13  18
ENDBRANCH  10  12
ENDBRANCH   1   9
BRANCH   8  20
HETATM   20  C21 UNL     1      -3.284   1.523  -0.204  1.00  0.00    -0.005 A 
HETATM   21  C22 UNL     1      -4.243   2.324  -0.760  1.00  0.00     0.016 A 
HETATM   22  C23 UNL     1      -5.255   2.718   0.020  1.00  0.00     0.008 A 
HETATM   23  C24 UNL     1      -5.257   2.292   1.319  1.00  0.00     0.050 A 
HETATM   24  S2  UNL     1      -3.839   1.350   1.412  1.00  0.00    -0.106 SA
ENDBRANCH   8  20
BRANCH   7  25
HETATM   25  O2  UNL     1      -1.492   0.281   1.393  1.00  0.00    -0.384 OA
ATOM     26  H2  UNL     1      -2.390   0.311   1.703  1.00  0.00     0.211 HD
ENDBRANCH   7  25
BRANCH   7  27
HETATM   27  C14 UNL     1      -2.236  -1.409  -0.083  1.00  0.00    -0.023 A 
HETATM   28  C15 UNL     1      -2.728  -2.039   1.039  1.00  0.00     0.010 A 
HETATM   29  C16 UNL     1      -3.419  -3.242   0.903  1.00  0.00     0.001 A 
HETATM   30  C17 UNL     1      -3.630  -3.830  -0.329  1.00  0.00     0.000 A 
HETATM   31  C18 UNL     1      -3.135  -3.193  -1.438  1.00  0.00     0.001 A 
HETATM   32  C19 UNL     1      -2.454  -2.006  -1.302  1.00  0.00     0.010 A 
ENDBRANCH   7  27
TORSDOF 6
