REMARK  7 active torsions:
REMARK  status: ('A' for Active; 'I' for Inactive)
REMARK    1  A    between atoms: C2_2  and  C3_3 
REMARK    2  A    between atoms: C3_3  and  C4_4 
REMARK    3  A    between atoms: C4_4  and  C5_5 
REMARK    4  A    between atoms: C5_5  and  C6_6 
REMARK    5  A    between atoms: C13_13  and  N1_14 
REMARK       I    between atoms: N1_14  and  C14_16 
REMARK    6  A    between atoms: C14_16  and  O2_18 
REMARK    7  A    between atoms: O2_18  and  C15_19 
ROOT
HETATM    1  N1  UNL     1      -0.523   0.685  -0.896  1.00  0.00    -0.331 N 
ATOM      2  H1  UNL     1      -0.500   1.057  -1.846  1.00  0.00     0.165 HD
HETATM    3  C14 UNL     1       0.721   0.409  -0.241  1.00  0.00     0.361 C 
HETATM    4  O1  UNL     1       0.665  -0.048   0.924  1.00  0.00    -0.238 OA
ENDROOT
BRANCH   1   5
HETATM    5  C13 UNL     1      -1.791   0.465  -0.284  1.00  0.00     0.096 A 
HETATM    6  C5  UNL     1      -3.057   0.032  -0.781  1.00  0.00    -0.014 A 
HETATM    7  C12 UNL     1      -2.793   1.560  -0.643  1.00  0.00     0.038 A 
BRANCH   6   8
HETATM    8  C4  UNL     1      -3.637  -0.245  -2.098  1.00  0.00     0.012 C 
BRANCH   8   9
HETATM    9  C3  UNL     1      -2.992  -0.052  -3.385  1.00  0.00     0.000 C 
BRANCH   9  10
HETATM   10  C2  UNL     1      -1.825  -0.857  -3.792  1.00  0.00    -0.005 C 
HETATM   11  C1  UNL     1      -2.182  -2.357  -3.817  1.00  0.00     0.005 C 
ENDBRANCH   9  10
ENDBRANCH   8   9
ENDBRANCH   6   8
BRANCH   6  12
HETATM   12  C6  UNL     1      -4.085  -0.359   0.329  1.00  0.00    -0.004 C 
HETATM   13  C7  UNL     1      -4.412  -1.828   0.317  1.00  0.00     0.005 C 
HETATM   14  C8  UNL     1      -5.653  -1.988   1.210  1.00  0.00     0.000 C 
HETATM   15  C9  UNL     1      -5.205  -1.678   2.615  1.00  0.00     0.000 C 
HETATM   16  C10 UNL     1      -4.844  -0.216   2.628  1.00  0.00     0.000 C 
HETATM   17  C11 UNL     1      -3.658   0.059   1.692  1.00  0.00     0.005 C 
ENDBRANCH   6  12
ENDBRANCH   1   5
BRANCH   3  18
HETATM   18  O2  UNL     1       1.949   0.610  -0.795  1.00  0.00    -0.298 OA
BRANCH  18  19
HETATM   19  C15 UNL     1       3.195   0.371  -0.242  1.00  0.00     0.138 C 
HETATM   20  C16 UNL     1       4.008  -0.655  -1.005  1.00  0.00     0.059 C 
HETATM   21  C17 UNL     1       5.257  -0.920  -0.190  1.00  0.00     0.171 C 
HETATM   22  O3  UNL     1       5.958   0.216   0.112  1.00  0.00    -0.380 OA
HETATM   23  C18 UNL     1       5.240   1.203   0.759  1.00  0.00     0.063 C 
HETATM   24  C19 UNL     1       4.821   0.831   2.153  1.00  0.00     0.038 C 
HETATM   25  C22 UNL     1       6.190   2.377   0.955  1.00  0.00     0.038 C 
HETATM   26  C23 UNL     1       4.068   1.586  -0.113  1.00  0.00     0.070 C 
HETATM   27  C20 UNL     1       5.988   1.196   3.049  1.00  0.00     0.003 C 
HETATM   28  C21 UNL     1       6.681   2.341   2.366  1.00  0.00     0.003 C 
ENDBRANCH  18  19
ENDBRANCH   3  18
TORSDOF 7
