REMARK  1 active torsions:
REMARK  status: ('A' for Active; 'I' for Inactive)
REMARK       I    between atoms: C1_2  and  N1_3 
REMARK    1  A    between atoms: C1_2  and  C5_11 
ROOT
HETATM    1  O1  UNL     1       0.380  -1.884   0.871  1.00  0.00    -0.267 OA
HETATM    2  C1  UNL     1       0.656  -1.002   0.028  1.00  0.00     0.264 C 
HETATM    3  N1  UNL     1      -0.273  -0.513  -0.914  1.00  0.00    -0.303 N 
ATOM      4  H1  UNL     1       0.018  -0.504  -1.892  1.00  0.00     0.171 HD
HETATM    5  C2  UNL     1      -1.432  -0.085  -0.655  1.00  0.00     0.142 C 
HETATM    6  N2  UNL     1      -2.082   0.016   0.591  1.00  0.00    -0.370 N 
ATOM      7  H2  UNL     1      -1.578   0.070   1.476  1.00  0.00     0.161 HD
HETATM    8  C3  UNL     1      -3.505   0.036   0.509  1.00  0.00     0.132 C 
HETATM    9  C4  UNL     1      -3.915   0.971  -0.636  1.00  0.00     0.102 C 
HETATM   10  S1  UNL     1      -2.599   0.532  -1.852  1.00  0.00    -0.092 SA
ENDROOT
BRANCH   2  11
HETATM   11  C5  UNL     1       2.042  -0.470   0.055  1.00  0.00     0.075 A 
HETATM   12  C6  UNL     1       3.069  -0.820   0.889  1.00  0.00     0.045 A 
HETATM   13  C7  UNL     1       4.244  -0.188   0.714  1.00  0.00     0.036 A 
HETATM   14 BR1  UNL     1       5.806  -0.560   1.806  1.00  0.00    -0.049 Br
HETATM   15  C8  UNL     1       4.313   0.746  -0.279  1.00  0.00     0.069 A 
HETATM   16 BR2  UNL     1       5.833   1.822  -0.788  1.00  0.00    -0.042 Br
HETATM   17  S2  UNL     1       2.744   0.724  -0.943  1.00  0.00    -0.076 SA
ENDBRANCH   2  11
TORSDOF 1
