REMARK  10 active torsions:
REMARK  status: ('A' for Active; 'I' for Inactive)
REMARK    1  A    between atoms: C3_4  and  C4_5 
REMARK    2  A    between atoms: C4_5  and  N2_6 
REMARK    3  A    between atoms: N2_6  and  C5_7 
REMARK    4  A    between atoms: N2_6  and  C8_12 
REMARK    5  A    between atoms: C5_7  and  C6_8 
REMARK    6  A    between atoms: C6_8  and  C7_9 
REMARK    7  A    between atoms: C7_9  and  O1_10 
REMARK    8  A    between atoms: C8_12  and  C9_13 
REMARK    9  A    between atoms: C9_13  and  C10_14 
REMARK   10  A    between atoms: N3_20  and  N4_21 
ROOT
HETATM    1  N2  UNL     1       0.578  -0.798   0.120  1.00  0.00     0.090 N 
ENDROOT
BRANCH   1   2
HETATM    2  C4  UNL     1       1.372  -0.066  -0.766  1.00  0.00     0.301 C 
BRANCH   2   3
HETATM    3  C3  UNL     1       1.698   1.358  -0.460  1.00  0.00     0.172 C 
HETATM    4  C2  UNL     1       2.581   1.840  -1.624  1.00  0.00     0.170 C 
HETATM    5  N1  UNL     1       3.765   2.368  -1.003  1.00  0.00    -0.219 N 
HETATM    6  C1  UNL     1       4.913   2.840  -1.769  1.00  0.00     0.168 C 
HETATM    7  C16 UNL     1       3.607   2.341   0.406  1.00  0.00     0.690 C 
HETATM    8  N3  UNL     1       2.533   1.487   0.712  1.00  0.00    -0.123 N 
HETATM    9  N5  UNL     1       4.347   3.007   1.274  1.00  0.00    -0.233 N 
ATOM     10  H52 UNL     1       5.126   3.627   1.052  1.00  0.00     0.174 HD
ATOM     11  H51 UNL     1       4.233   2.988   2.287  1.00  0.00     0.174 HD
BRANCH   8  12
HETATM   12  N4  UNL     1       2.305   0.865   1.928  1.00  0.00    -0.328 N 
ATOM     13  H42 UNL     1       1.526   0.245   2.150  1.00  0.00     0.177 HD
ATOM     14  H41 UNL     1       2.894   0.956   2.755  1.00  0.00     0.177 HD
ENDBRANCH   8  12
ENDBRANCH   2   3
ENDBRANCH   1   2
BRANCH   1  15
HETATM   15  C5  UNL     1       0.780  -2.241  -0.218  1.00  0.00     0.274 C 
BRANCH  15  16
HETATM   16  C6  UNL     1       2.132  -2.728   0.166  1.00  0.00     0.056 C 
BRANCH  16  17
HETATM   17  C7  UNL     1       2.217  -4.208  -0.207  1.00  0.00     0.165 C 
BRANCH  17  18
HETATM   18  O1  UNL     1       1.230  -4.922   0.478  1.00  0.00    -0.401 OA
ATOM     19  H1  UNL     1       1.283  -5.842   0.246  1.00  0.00     0.209 HD
ENDBRANCH  17  18
ENDBRANCH  16  17
ENDBRANCH  15  16
ENDBRANCH   1  15
BRANCH   1  20
HETATM   20  C8  UNL     1      -0.845  -0.660   0.109  1.00  0.00     0.273 C 
BRANCH  20  21
HETATM   21  C9  UNL     1      -1.441   0.608   0.573  1.00  0.00     0.034 C 
BRANCH  21  22
HETATM   22  C10 UNL     1      -2.948   0.539   0.547  1.00  0.00    -0.013 C 
HETATM   23  C11 UNL     1      -3.541  -0.528   1.403  1.00  0.00     0.005 C 
HETATM   24  C12 UNL     1      -5.052  -0.297   1.409  1.00  0.00     0.000 C 
HETATM   25  C13 UNL     1      -5.467   0.805   0.488  1.00  0.00     0.000 C 
HETATM   26  C14 UNL     1      -4.879   0.717  -0.887  1.00  0.00     0.000 C 
HETATM   27  C15 UNL     1      -3.407   0.293  -0.870  1.00  0.00     0.005 C 
ENDBRANCH  21  22
ENDBRANCH  20  21
ENDBRANCH   1  20
TORSDOF 10
