REMARK  5 active torsions:
REMARK  status: ('A' for Active; 'I' for Inactive)
REMARK    1  A    between atoms: C2_5  and  N2_6 
REMARK    2  A    between atoms: N2_6  and  C3_8 
REMARK    3  A    between atoms: C3_8  and  C4_9 
REMARK    4  A    between atoms: C4_9  and  N3_10 
REMARK    5  A    between atoms: N3_10  and  C5_12 
ROOT
HETATM    1  O1  UNL     1       3.408  -1.557  -2.189  1.00  0.00    -0.267 OA
HETATM    2  C1  UNL     1       3.323  -0.749  -1.228  1.00  0.00     0.272 A 
HETATM    3  N1  UNL     1       2.141  -0.265  -0.818  1.00  0.00    -0.155 N 
ATOM      4  H1  UNL     1       1.281  -0.549  -1.288  1.00  0.00     0.187 HD
HETATM    5  C2  UNL     1       2.093   0.584   0.199  1.00  0.00     0.681 A 
HETATM    6  N4  UNL     1       3.218   0.989   0.850  1.00  0.00    -0.189 N 
ATOM      7  H4  UNL     1       3.139   1.645   1.627  1.00  0.00     0.184 HD
HETATM    8  C11 UNL     1       4.424   0.542   0.488  1.00  0.00     0.094 A 
HETATM    9  C12 UNL     1       4.464  -0.347  -0.577  1.00  0.00     0.062 A 
HETATM   10  C13 UNL     1       5.699  -0.842  -0.987  1.00  0.00     0.022 A 
HETATM   11  C14 UNL     1       6.833  -0.434  -0.324  1.00  0.00     0.033 A 
HETATM   12  C15 UNL     1       6.781   0.467   0.753  1.00  0.00     0.069 A 
HETATM   13  N5  UNL     1       7.861   0.887   1.423  1.00  0.00    -0.310 N 
ATOM     14  H5  UNL     1       8.836   0.633   1.265  1.00  0.00     0.176 HD
HETATM   15  S1  UNL     1       7.239   1.927   2.582  1.00  0.00     0.068 SA
HETATM   16  N6  UNL     1       5.614   1.801   2.185  1.00  0.00    -0.308 N 
ATOM     17  H6  UNL     1       4.822   2.267   2.627  1.00  0.00     0.176 HD
HETATM   18  C16 UNL     1       5.597   0.947   1.153  1.00  0.00     0.095 A 
ENDROOT
BRANCH   5  19
HETATM   19  N2  UNL     1       0.991   1.063   0.639  1.00  0.00    -0.221 N 
ATOM     20  H2  UNL     1       1.014   1.715   1.423  1.00  0.00     0.178 HD
BRANCH  19  21
HETATM   21  C3  UNL     1      -0.295   0.708   0.056  1.00  0.00     0.182 C 
BRANCH  21  22
HETATM   22  C4  UNL     1      -0.795  -0.581   0.643  1.00  0.00     0.076 C 
BRANCH  22  23
HETATM   23  N3  UNL     1      -1.994  -1.048   0.128  1.00  0.00    -0.396 N 
ATOM     24  H3  UNL     1      -1.954  -1.885  -0.453  1.00  0.00     0.159 HD
BRANCH  23  25
HETATM   25  C5  UNL     1      -3.244  -0.481   0.331  1.00  0.00     0.080 C 
HETATM   26  C6  UNL     1      -3.502   0.876  -0.204  1.00  0.00     0.025 C 
HETATM   27  C7  UNL     1      -4.926   1.048  -0.715  1.00  0.00     0.002 C 
HETATM   28  C8  UNL     1      -5.924   0.365   0.193  1.00  0.00     0.000 C 
HETATM   29  C9  UNL     1      -5.657  -1.125   0.281  1.00  0.00     0.002 C 
HETATM   30  C10 UNL     1      -4.285  -1.463  -0.264  1.00  0.00     0.025 C 
ENDBRANCH  23  25
ENDBRANCH  22  23
ENDBRANCH  21  22
ENDBRANCH  19  21
ENDBRANCH   5  19
TORSDOF 5
