REMARK  6 active torsions:
REMARK  status: ('A' for Active; 'I' for Inactive)
REMARK    1  A    between atoms: C2_2  and  C3_3 
REMARK    2  A    between atoms: C7_7  and  O1_8 
REMARK    3  A    between atoms: C10_12  and  O2_13 
REMARK    4  A    between atoms: C11_15  and  C12_16 
REMARK    5  A    between atoms: C12_16  and  N1_17 
REMARK    6  A    between atoms: N1_17  and  C13_20 
ROOT
HETATM    1  C3  UNL     1       3.958   0.725  -0.269  1.00  0.00     0.040 C 
HETATM    2  C4  UNL     1       3.698  -0.163  -1.465  1.00  0.00     0.029 C 
HETATM    3  C5  UNL     1       2.979  -1.330  -0.833  1.00  0.00     0.024 C 
HETATM    4  C6  UNL     1       3.513  -1.509   0.548  1.00  0.00     0.042 C 
HETATM    5  C7  UNL     1       3.994  -0.136   0.948  1.00  0.00     0.134 C 
HETATM    6  C8  UNL     1       1.518  -1.015  -0.728  1.00  0.00    -0.024 A 
HETATM    7  C9  UNL     1       0.717  -2.112  -0.938  1.00  0.00     0.047 A 
HETATM    8  C10 UNL     1      -0.654  -2.010  -0.881  1.00  0.00     0.074 A 
HETATM    9  C11 UNL     1      -1.291  -0.810  -0.612  1.00  0.00     0.003 A 
HETATM   10  C18 UNL     1      -0.486   0.286  -0.401  1.00  0.00     0.041 A 
HETATM   11  C19 UNL     1       0.904   0.192  -0.457  1.00  0.00     0.040 A 
HETATM   12  N2  UNL     1       1.558   1.428  -0.213  1.00  0.00    -0.349 N 
ATOM     13  H2  UNL     1       0.945   2.233  -0.086  1.00  0.00     0.166 HD
HETATM   14  C20 UNL     1       2.821   1.672  -0.130  1.00  0.00     0.092 C 
HETATM   15 CL1  UNL     1       3.209   3.363   0.191  1.00  0.00    -0.068 Cl
ENDROOT
BRANCH   9  16
HETATM   16  C12 UNL     1      -2.763  -0.750  -0.559  1.00  0.00     0.274 C 
BRANCH  16  17
HETATM   17  N1  UNL     1      -3.267   0.563  -0.270  1.00  0.00    -0.067 N 
ATOM     18  H12 UNL     1      -2.878   0.961   0.585  1.00  0.00     0.277 HD
ATOM     19  H11 UNL     1      -2.922   1.274  -0.915  1.00  0.00     0.277 HD
BRANCH  17  20
HETATM   20  C13 UNL     1      -4.713   0.472  -0.246  1.00  0.00     0.192 C 
HETATM   21  C14 UNL     1      -5.251  -0.421   0.821  1.00  0.00     0.039 C 
HETATM   22  C15 UNL     1      -6.454   0.225   1.422  1.00  0.00     0.081 C 
HETATM   23  C16 UNL     1      -6.621   1.527   0.718  1.00  0.00     0.245 C 
HETATM   24  F1  UNL     1      -7.644   1.481  -0.200  1.00  0.00    -0.206 F 
HETATM   25  F2  UNL     1      -6.812   2.519   1.661  1.00  0.00    -0.206 F 
HETATM   26  C17 UNL     1      -5.342   1.832  -0.035  1.00  0.00     0.112 C 
ENDBRANCH  17  20
ENDBRANCH  16  17
ENDBRANCH   9  16
BRANCH   8  27
HETATM   27  O2  UNL     1      -1.413  -3.146  -1.101  1.00  0.00    -0.360 OA
ATOM     28  H2  UNL     1      -2.360  -3.076  -1.062  1.00  0.00     0.217 HD
ENDBRANCH   8  27
BRANCH   1  29
HETATM   29  C2  UNL     1       5.199   1.569  -0.459  1.00  0.00     0.015 C 
HETATM   30  C1  UNL     1       6.450   0.785  -0.661  1.00  0.00     0.006 C 
ENDBRANCH   1  29
BRANCH   5  31
HETATM   31  O1  UNL     1       5.259  -0.259   1.519  1.00  0.00    -0.394 OA
ATOM     32  H1  UNL     1       5.282  -0.808   2.294  1.00  0.00     0.210 HD
ENDBRANCH   5  31
TORSDOF 6
