REMARK  8 active torsions:
REMARK  status: ('A' for Active; 'I' for Inactive)
REMARK    1  A    between atoms: C2_2  and  C3_3 
REMARK    2  A    between atoms: C3_3  and  C4_4 
REMARK    3  A    between atoms: C3_3  and  C15_29 
REMARK    4  A    between atoms: C6_8  and  C7_9 
REMARK    5  A    between atoms: C7_9  and  O1_10 
REMARK    6  A    between atoms: C8_14  and  N2_15 
REMARK    7  A    between atoms: N2_15  and  C9_17 
REMARK    8  A    between atoms: C12_20  and  N3_21 
ROOT
HETATM    1  C4  UNL     1      -1.016  -0.394   0.482  1.00  0.00     0.087 A 
HETATM    2  N1  UNL     1      -1.223  -0.406   1.808  1.00  0.00    -0.354 N 
ATOM      3  H1  UNL     1      -2.133  -0.722   2.143  1.00  0.00     0.166 HD
HETATM    4  C5  UNL     1      -0.319  -0.033   2.722  1.00  0.00     0.109 A 
HETATM    5  C6  UNL     1       0.924   0.402   2.315  1.00  0.00     0.102 A 
HETATM    6  C8  UNL     1       1.164   0.426   0.961  1.00  0.00     0.119 A 
HETATM    7  N4  UNL     1       0.200   0.032   0.088  1.00  0.00    -0.331 N 
ATOM      8  H4  UNL     1       0.406   0.060  -0.911  1.00  0.00     0.168 HD
ENDROOT
BRANCH   6   9
HETATM    9  N2  UNL     1       2.308   0.825   0.569  1.00  0.00    -0.371 N 
ATOM     10  H2  UNL     1       2.969   1.101   1.295  1.00  0.00     0.161 HD
BRANCH   9  11
HETATM   11  C9  UNL     1       2.763   0.927  -0.783  1.00  0.00     0.083 C 
HETATM   12  C10 UNL     1       3.946   1.865  -0.901  1.00  0.00     0.027 C 
HETATM   13  C11 UNL     1       4.870   1.432  -1.997  1.00  0.00     0.035 C 
HETATM   14  C12 UNL     1       5.540   0.119  -1.630  1.00  0.00     0.183 C 
HETATM   15  C13 UNL     1       4.540  -0.805  -0.972  1.00  0.00     0.035 C 
HETATM   16  C14 UNL     1       3.129  -0.403  -1.388  1.00  0.00     0.027 C 
BRANCH  14  17
HETATM   17  N3  UNL     1       6.578   0.393  -0.656  1.00  0.00    -0.075 N 
ATOM     18  H33 UNL     1       7.243   1.096  -0.978  1.00  0.00     0.274 HD
ATOM     19  H32 UNL     1       6.228   0.896   0.159  1.00  0.00     0.274 HD
ATOM     20  H31 UNL     1       7.028  -0.489  -0.410  1.00  0.00     0.274 HD
ENDBRANCH  14  17
ENDBRANCH   9  11
ENDBRANCH   6   9
BRANCH   5  21
HETATM   21  C7  UNL     1       1.941   0.822   3.318  1.00  0.00     0.387 C 
HETATM   22  F1  UNL     1       2.341   2.133   3.136  1.00  0.00    -0.170 F 
HETATM   23  F2  UNL     1       3.085   0.048   3.228  1.00  0.00    -0.170 F 
BRANCH  21  24
HETATM   24  O1  UNL     1       1.460   0.707   4.614  1.00  0.00    -0.332 OA
ATOM     25  H1  UNL     1       2.109   0.975   5.254  1.00  0.00     0.216 HD
ENDBRANCH  21  24
ENDBRANCH   5  21
BRANCH   1  26
HETATM   26  C3  UNL     1      -1.983  -0.802  -0.529  1.00  0.00     0.057 C 
BRANCH  26  27
HETATM   27  C2  UNL     1      -1.891  -2.274  -0.775  1.00  0.00     0.008 C 
HETATM   28  C1  UNL     1      -2.135  -3.169   0.399  1.00  0.00     0.006 C 
ENDBRANCH  26  27
BRANCH  26  29
HETATM   29  C15 UNL     1      -3.362  -0.300  -0.435  1.00  0.00    -0.003 C 
HETATM   30  C16 UNL     1      -3.450   1.197  -0.189  1.00  0.00     0.005 C 
HETATM   31  C17 UNL     1      -4.722   1.658  -0.911  1.00  0.00     0.000 C 
HETATM   32  C18 UNL     1      -5.815   0.619  -0.751  1.00  0.00     0.000 C 
HETATM   33  C19 UNL     1      -5.618  -0.211   0.496  1.00  0.00     0.000 C 
HETATM   34  C20 UNL     1      -4.292  -0.940   0.530  1.00  0.00     0.005 C 
ENDBRANCH  26  29
ENDBRANCH   1  26
TORSDOF 8
