REMARK  5 active torsions:
REMARK  status: ('A' for Active; 'I' for Inactive)
REMARK    1  A    between atoms: N1_2  and  C2_5 
REMARK    2  A    between atoms: C4_8  and  C5_9 
REMARK    3  A    between atoms: C5_9  and  N2_10 
REMARK    4  A    between atoms: C9_16  and  C10_17 
REMARK    5  A    between atoms: C11_22  and  C12_23 
ROOT
HETATM    1  C2  UNL     1       0.800  -0.909   2.478  1.00  0.00     0.249 C 
HETATM    2  C3  UNL     1       1.572  -0.000   1.616  1.00  0.00     0.211 C 
HETATM    3  O1  UNL     1       2.425  -0.618   0.652  1.00  0.00    -0.349 OA
HETATM    4  C4  UNL     1       2.047  -1.216  -0.603  1.00  0.00     0.100 C 
HETATM    5  C9  UNL     1       0.909  -1.862  -0.903  1.00  0.00     0.163 C 
HETATM    6  N4  UNL     1      -0.242  -2.135  -0.058  1.00  0.00    -0.214 N 
HETATM    7  N5  UNL     1      -1.330  -1.751  -0.856  1.00  0.00    -0.091 NA
HETATM    8  C11 UNL     1      -2.112  -1.036   0.234  1.00  0.00     0.349 C 
HETATM    9  N10 UNL     1      -1.219  -0.349   1.135  1.00  0.00    -0.035 N 
ATOM     10 1H10 UNL     1      -1.692   0.425   1.601  1.00  0.00     0.280 HD
ATOM     11 2H10 UNL     1      -0.512   0.176   0.621  1.00  0.00     0.280 HD
HETATM   12  C17 UNL     1      -0.601  -1.250   2.109  1.00  0.00     0.314 C 
HETATM   13  C18 UNL     1      -0.502  -2.548   1.262  1.00  0.00     0.273 C 
HETATM   14  O5  UNL     1      -0.655  -3.643   1.827  1.00  0.00    -0.269 OA
ENDROOT
BRANCH   8  15
HETATM   15  C12 UNL     1      -3.154  -0.227  -0.371  1.00  0.00     0.065 A 
HETATM   16  C13 UNL     1      -3.421   1.078  -0.043  1.00  0.00     0.079 A 
HETATM   17  C14 UNL     1      -4.432   1.800  -0.652  1.00  0.00     0.135 A 
HETATM   18  N6  UNL     1      -4.888   3.047  -0.523  1.00  0.00    -0.336 N 
HETATM   19  N8  UNL     1      -5.169   1.199  -1.593  1.00  0.00    -0.188 N 
HETATM   20  C15 UNL     1      -5.910   3.240  -1.375  1.00  0.00     0.199 A 
ATOM     21  H6  UNL     1      -4.519   3.746   0.122  1.00  0.00     0.168 HD
HETATM   22  N7  UNL     1      -6.058   2.074  -2.024  1.00  0.00    -0.284 N 
ATOM     23  H7  UNL     1      -6.756   1.891  -2.745  1.00  0.00     0.188 HD
HETATM   24  C16 UNL     1      -4.919  -0.100  -1.935  1.00  0.00     0.347 A 
HETATM   25  O4  UNL     1      -5.661  -0.583  -2.828  1.00  0.00    -0.245 OA
HETATM   26  N9  UNL     1      -3.939  -0.777  -1.333  1.00  0.00    -0.307 N 
ATOM     27  H9  UNL     1      -3.773  -1.746  -1.606  1.00  0.00     0.170 HD
ENDBRANCH   8  15
BRANCH   5  28
HETATM   28  C10 UNL     1       0.738  -2.365  -2.194  1.00  0.00     0.231 C 
HETATM   29  O2  UNL     1       1.434  -2.354  -3.239  1.00  0.00    -0.643 OA
HETATM   30  O3  UNL     1      -0.486  -3.075  -2.488  1.00  0.00    -0.643 OA
ENDBRANCH   5  28
BRANCH   1  31
HETATM   31  N1  UNL     1       0.738  -0.327   3.829  1.00  0.00    -0.070 N 
HETATM   32  C1  UNL     1       2.040  -0.201   4.428  1.00  0.00     0.267 C 
ATOM     33  H12 UNL     1       0.106  -0.856   4.430  1.00  0.00     0.277 HD
ATOM     34  H11 UNL     1       0.247   0.567   3.823  1.00  0.00     0.277 HD
ENDBRANCH   1  31
BRANCH   4  35
HETATM   35  C5  UNL     1       3.035  -1.081  -1.609  1.00  0.00     0.195 C 
BRANCH  35  36
HETATM   36  N2  UNL     1       3.273   0.389  -1.874  1.00  0.00    -0.352 N 
HETATM   37  C6  UNL     1       2.553   1.013  -2.823  1.00  0.00     0.142 A 
HETATM   38  S1  UNL     1       3.128   2.612  -2.770  1.00  0.00    -0.069 SA
HETATM   39  C7  UNL     1       4.276   2.422  -1.527  1.00  0.00     0.103 A 
HETATM   40  N3  UNL     1       5.172   3.391  -0.932  1.00  0.00    -0.093 NA
HETATM   41  C8  UNL     1       4.144   1.091  -1.215  1.00  0.00     0.125 A 
ENDBRANCH  35  36
ENDBRANCH   4  35
TORSDOF 5
