REMARK  9 active torsions:
REMARK  status: ('A' for Active; 'I' for Inactive)
REMARK    1  A    between atoms: C2_2  and  N1_3 
REMARK    2  A    between atoms: N1_3  and  C3_5 
REMARK    3  A    between atoms: C4_8  and  N3_9 
REMARK    4  A    between atoms: N3_9  and  C5_11 
REMARK    5  A    between atoms: C5_11  and  C6_12 
REMARK    6  A    between atoms: C6_12  and  N4_13 
REMARK    7  A    between atoms: C10_24  and  C11_25 
REMARK    8  A    between atoms: N8_29  and  C13_31 
REMARK    9  A    between atoms: C15_33  and  O2_34 
ROOT
HETATM    1  C3  UNL     1      -2.962  -0.772   0.287  1.00  0.00     0.680 A 
HETATM    2  N2  UNL     1      -3.805   0.240  -0.062  1.00  0.00    -0.176 N 
ATOM      3  H2  UNL     1      -4.811   0.084  -0.120  1.00  0.00     0.186 HD
HETATM    4  C4  UNL     1      -3.283   1.445  -0.327  1.00  0.00     0.135 A 
HETATM    5  C7  UNL     1      -1.923   1.600  -0.237  1.00  0.00     0.107 A 
HETATM    6  C8  UNL     1      -1.379   2.874  -0.416  1.00  0.00     0.278 A 
HETATM    7  O1  UNL     1      -2.127   3.828  -0.728  1.00  0.00    -0.265 OA
HETATM    8  N5  UNL     1      -0.064   3.044  -0.247  1.00  0.00    -0.261 N 
HETATM    9  C9  UNL     1       0.427   4.416  -0.448  1.00  0.00     0.181 C 
HETATM   10  N6  UNL     1       0.713   2.062   0.070  1.00  0.00    -0.292 N 
ATOM     11  H6  UNL     1       1.708   2.257   0.184  1.00  0.00     0.187 HD
HETATM   12  C10 UNL     1       0.276   0.750   0.267  1.00  0.00     0.107 A 
HETATM   13  C19 UNL     1      -1.040   0.577   0.111  1.00  0.00     0.099 A 
HETATM   14  N12 UNL     1      -1.634  -0.604   0.370  1.00  0.00    -0.188 N 
ATOM     15  H12 UNL     1      -1.053  -1.398   0.639  1.00  0.00     0.184 HD
ENDROOT
BRANCH  12  16
HETATM   16  C11 UNL     1       1.311  -0.263   0.316  1.00  0.00     0.124 A 
HETATM   17  N7  UNL     1       2.491   0.058   0.840  1.00  0.00    -0.185 N 
HETATM   18  C12 UNL     1       3.392  -0.972   0.813  1.00  0.00     0.683 A 
ATOM     19  H7  UNL     1       2.703   0.979   1.223  1.00  0.00     0.184 HD
HETATM   20  N8  UNL     1       4.635  -1.022   1.249  1.00  0.00    -0.196 N 
HETATM   21  N10 UNL     1       2.758  -2.083   0.197  1.00  0.00    -0.171 N 
ATOM     22  H8  UNL     1       5.168  -1.886   1.144  1.00  0.00     0.180 HD
HETATM   23  C16 UNL     1       3.362  -3.392  -0.038  1.00  0.00     0.177 C 
HETATM   24  C17 UNL     1       1.424  -1.641  -0.134  1.00  0.00     0.148 A 
HETATM   25  N11 UNL     1       0.587  -2.329  -0.795  1.00  0.00    -0.378 N 
HETATM   26  C18 UNL     1       0.653  -3.645  -1.244  1.00  0.00     0.147 C 
ATOM     27  H11 UNL     1      -0.274  -1.838  -1.036  1.00  0.00     0.160 HD
BRANCH  20  28
HETATM   28  C13 UNL     1       5.253   0.115   1.868  1.00  0.00     0.306 C 
HETATM   29  C14 UNL     1       6.732   0.262   1.694  1.00  0.00     0.116 C 
HETATM   30  C15 UNL     1       6.409   1.750   1.605  1.00  0.00     0.324 C 
HETATM   31  N9  UNL     1       5.079   1.377   1.181  1.00  0.00    -0.027 N 
ATOM     32  H92 UNL     1       4.823   1.400   0.194  1.00  0.00     0.282 HD
ATOM     33  H91 UNL     1       4.280   1.976   1.389  1.00  0.00     0.282 HD
BRANCH  30  34
HETATM   34  O2  UNL     1       6.492   2.321   2.872  1.00  0.00    -0.369 OA
ATOM     35  H2  UNL     1       6.291   3.248   2.817  1.00  0.00     0.212 HD
ENDBRANCH  30  34
ENDBRANCH  20  28
ENDBRANCH  12  16
BRANCH   4  36
HETATM   36  N3  UNL     1      -3.984   2.471  -0.664  1.00  0.00    -0.373 N 
ATOM     37  H3  UNL     1      -3.492   3.346  -0.845  1.00  0.00     0.161 HD
BRANCH  36  38
HETATM   38  C5  UNL     1      -5.404   2.463  -0.801  1.00  0.00     0.148 C 
BRANCH  38  39
HETATM   39  C6  UNL     1      -5.890   1.884  -2.123  1.00  0.00     0.249 C 
BRANCH  39  40
HETATM   40  N4  UNL     1      -5.342   2.682  -3.205  1.00  0.00    -0.078 N 
ATOM     41  H43 UNL     1      -5.559   3.674  -3.109  1.00  0.00     0.274 HD
ATOM     42  H42 UNL     1      -4.326   2.757  -3.160  1.00  0.00     0.274 HD
ATOM     43  H41 UNL     1      -5.668   2.294  -4.090  1.00  0.00     0.274 HD
ENDBRANCH  39  40
ENDBRANCH  38  39
ENDBRANCH  36  38
ENDBRANCH   4  36
BRANCH   1  44
HETATM   44  N1  UNL     1      -3.480  -1.913   0.538  1.00  0.00    -0.226 N 
ATOM     45  H1  UNL     1      -4.495  -1.982   0.459  1.00  0.00     0.177 HD
BRANCH  44  46
HETATM   46  C2  UNL     1      -2.785  -3.101   0.918  1.00  0.00     0.133 C 
HETATM   47  C1  UNL     1      -3.723  -4.205   1.360  1.00  0.00     0.027 C 
ENDBRANCH  44  46
ENDBRANCH   1  44
TORSDOF 9
