REMARK  4 active torsions:
REMARK  status: ('A' for Active; 'I' for Inactive)
REMARK    1  A    between atoms: C2_2  and  C3_3 
REMARK       I    between atoms: C3_3  and  N1_5 
REMARK    2  A    between atoms: C4_7  and  C5_8 
REMARK    3  A    between atoms: C5_8  and  C6_9 
REMARK    4  A    between atoms: C12_17  and  N4_18 
ROOT
HETATM    1  C3  UNL     1       2.438  -2.909  -0.062  1.00  0.00     0.258 C 
HETATM    2  O1  UNL     1       3.635  -2.725  -0.475  1.00  0.00    -0.267 OA
HETATM    3  N1  UNL     1       1.586  -1.823   0.232  1.00  0.00    -0.252 N 
HETATM    4  N2  UNL     1       0.258  -1.930   0.691  1.00  0.00    -0.130 NA
HETATM    5  C4  UNL     1      -0.357  -0.693   0.048  1.00  0.00     0.111 C 
HETATM    6  C9  UNL     1       0.696   0.270   0.646  1.00  0.00     0.073 C 
HETATM    7  C10 UNL     1       0.580   1.657   0.181  1.00  0.00     0.016 A 
HETATM    8  C11 UNL     1       0.921   1.910  -1.124  1.00  0.00     0.059 A 
HETATM    9  N3  UNL     1       0.662   3.159  -1.611  1.00  0.00    -0.192 N 
ATOM     10  H3  UNL     1       0.897   3.378  -2.579  1.00  0.00     0.184 HD
HETATM   11  C12 UNL     1       0.103   4.104  -0.838  1.00  0.00     0.677 A 
HETATM   12  N5  UNL     1      -0.221   3.857   0.440  1.00  0.00    -0.181 N 
ATOM     13  H5  UNL     1      -0.641   4.594   1.007  1.00  0.00     0.185 HD
HETATM   14  C13 UNL     1       0.003   2.647   0.980  1.00  0.00     0.128 A 
HETATM   15 CL1  UNL     1      -0.407   2.324   2.658  1.00  0.00    -0.063 Cl
HETATM   16  C14 UNL     1       1.764   0.986  -1.915  1.00  0.00     0.029 C 
HETATM   17  C15 UNL     1       2.221  -0.118  -1.299  1.00  0.00     0.003 C 
HETATM   18  C16 UNL     1       1.935  -0.430   0.112  1.00  0.00     0.141 C 
ENDROOT
BRANCH   1  19
HETATM   19  C2  UNL     1       1.992  -4.281   0.092  1.00  0.00     0.065 C 
HETATM   20  C1  UNL     1       2.771  -5.296  -0.176  1.00  0.00     0.017 C 
ENDBRANCH   1  19
BRANCH   5  21
HETATM   21  C5  UNL     1      -1.719  -0.574   0.581  1.00  0.00     0.028 C 
BRANCH  21  22
HETATM   22  C6  UNL     1      -2.587   0.516  -0.002  1.00  0.00    -0.013 A 
HETATM   23  C7  UNL     1      -3.954   0.722   0.504  1.00  0.00     0.005 A 
HETATM   24  C8  UNL     1      -3.781   0.016  -0.776  1.00  0.00     0.005 A 
ENDBRANCH  21  22
ENDBRANCH   5  21
BRANCH  11  25
HETATM   25  N4  UNL     1      -0.129   5.269  -1.323  1.00  0.00    -0.234 N 
ATOM     26  H42 UNL     1       0.117   5.457  -2.295  1.00  0.00     0.174 HD
ATOM     27  H41 UNL     1      -0.554   5.987  -0.736  1.00  0.00     0.174 HD
ENDBRANCH  11  25
TORSDOF 4
