REMARK  12 active torsions:
REMARK  status: ('A' for Active; 'I' for Inactive)
REMARK    1  A    between atoms: C2_2  and  C3_3 
REMARK    2  A    between atoms: C4_4  and  O1_5 
REMARK    3  A    between atoms: O1_5  and  C5_6 
REMARK    4  A    between atoms: C5_6  and  N1_8 
REMARK    5  A    between atoms: N2_11  and  C7_12 
REMARK    6  A    between atoms: C7_12  and  C8_13 
REMARK    7  A    between atoms: C8_13  and  N3_15 
REMARK    8  A    between atoms: N4_18  and  C12_19 
REMARK    9  A    between atoms: C12_19  and  C13_20 
REMARK   10  A    between atoms: C19_26  and  C20_27 
REMARK   11  A    between atoms: N5_39  and  C29_40 
REMARK   12  A    between atoms: C29_40  and  C30_41 
ROOT
HETATM    1  C3  UNL     1       3.808  -0.566  -0.437  1.00  0.00     0.141 C 
HETATM    2  C4  UNL     1       2.619  -0.565   0.537  1.00  0.00     0.258 C 
HETATM    3  N2  UNL     1       1.745   0.523   0.122  1.00  0.00    -0.313 N 
HETATM    4  C27 UNL     1       2.389   1.794   0.116  1.00  0.00     0.314 C 
HETATM    5  O3  UNL     1       1.736   2.863   0.165  1.00  0.00    -0.262 OA
HETATM    6  C28 UNL     1       3.832   1.782   0.051  1.00  0.00     0.316 C 
HETATM    7  O4  UNL     1       4.497   2.883   0.047  1.00  0.00    -0.262 OA
HETATM    8  N5  UNL     1       4.608   0.538  -0.014  1.00  0.00    -0.314 N 
ENDROOT
BRANCH   3   9
HETATM    9  C7  UNL     1       0.381   0.429  -0.275  1.00  0.00     0.154 C 
BRANCH   9  10
HETATM   10  C8  UNL     1      -0.637   0.647   0.789  1.00  0.00     0.101 C 
HETATM   11  C9  UNL     1      -0.580  -0.320   1.949  1.00  0.00     0.034 C 
BRANCH  10  12
HETATM   12  N3  UNL     1      -2.003   0.744   0.315  1.00  0.00    -0.340 N 
HETATM   13  C10 UNL     1      -2.708   1.987   0.504  1.00  0.00     0.170 C 
HETATM   14  C11 UNL     1      -4.088   2.040  -0.044  1.00  0.00     0.079 C 
HETATM   15  N4  UNL     1      -4.725   0.790  -0.005  1.00  0.00    -0.378 N 
HETATM   16  C19 UNL     1      -4.109  -0.307  -0.662  1.00  0.00     0.179 C 
HETATM   17  C26 UNL     1      -2.663  -0.324  -0.311  1.00  0.00     0.243 C 
HETATM   18  O2  UNL     1      -2.002  -1.355  -0.590  1.00  0.00    -0.271 OA
BRANCH  15  19
HETATM   19  C12 UNL     1      -6.127   0.735   0.175  1.00  0.00     0.127 C 
BRANCH  19  20
HETATM   20  C13 UNL     1      -6.561   1.172   1.542  1.00  0.00     0.003 C 
HETATM   21  C14 UNL     1      -5.958   0.317   2.636  1.00  0.00     0.006 C 
HETATM   22  C15 UNL     1      -6.874   0.175   3.818  1.00  0.00     0.000 C 
HETATM   23  C16 UNL     1      -8.120  -0.609   3.487  1.00  0.00     0.000 C 
HETATM   24  C17 UNL     1      -8.418  -0.379   2.008  1.00  0.00     0.000 C 
HETATM   25  C18 UNL     1      -8.067   1.057   1.693  1.00  0.00     0.006 C 
ENDBRANCH  19  20
ENDBRANCH  15  19
BRANCH  16  26
HETATM   26  C20 UNL     1      -4.403  -0.463  -2.112  1.00  0.00     0.018 C 
HETATM   27  C21 UNL     1      -3.995   0.694  -2.975  1.00  0.00     0.007 C 
HETATM   28  C22 UNL     1      -3.787   0.172  -4.382  1.00  0.00     0.000 C 
HETATM   29  C23 UNL     1      -4.734  -0.922  -4.756  1.00  0.00     0.000 C 
HETATM   30  C24 UNL     1      -4.454  -2.160  -3.936  1.00  0.00     0.000 C 
HETATM   31  C25 UNL     1      -3.728  -1.697  -2.687  1.00  0.00     0.007 C 
ENDBRANCH  16  26
ENDBRANCH  10  12
ENDBRANCH   9  10
ENDBRANCH   3   9
BRANCH   2  32
HETATM   32  O1  UNL     1       2.016  -1.712   0.876  1.00  0.00    -0.299 OA
BRANCH  32  33
HETATM   33  C5  UNL     1       2.398  -2.823   1.554  1.00  0.00     0.211 C 
HETATM   34  S1  UNL     1       2.039  -4.328   1.024  1.00  0.00    -0.033 SA
BRANCH  33  35
HETATM   35  N1  UNL     1       3.137  -2.671   2.780  1.00  0.00    -0.366 N 
HETATM   36  C6  UNL     1       3.543  -3.839   3.500  1.00  0.00     0.149 C 
ATOM     37  H1  UNL     1       3.368  -1.742   3.131  1.00  0.00     0.161 HD
ENDBRANCH  33  35
ENDBRANCH  32  33
ENDBRANCH   2  32
BRANCH   1  38
HETATM   38  C2  UNL     1       4.349  -1.905  -0.621  1.00  0.00     0.026 C 
HETATM   39  C1  UNL     1       5.482  -2.073  -1.580  1.00  0.00     0.007 C 
ENDBRANCH   1  38
BRANCH   8  40
HETATM   40  C29 UNL     1       5.943   0.631   0.477  1.00  0.00     0.072 C 
BRANCH  40  41
HETATM   41  C30 UNL     1       7.004   1.303  -0.263  1.00  0.00     0.024 C 
HETATM   42  C31 UNL     1       7.465   0.974  -1.601  1.00  0.00     0.010 C 
HETATM   43  C32 UNL     1       8.712   0.068  -1.557  1.00  0.00     0.001 C 
HETATM   44  C33 UNL     1       9.893   0.847  -1.018  1.00  0.00     0.000 C 
HETATM   45  C34 UNL     1       9.417   1.873   0.001  1.00  0.00     0.001 C 
HETATM   46  C35 UNL     1       8.246   1.268   0.708  1.00  0.00     0.010 C 
ENDBRANCH  40  41
ENDBRANCH   8  40
TORSDOF 12
