REMARK  3 active torsions:
REMARK  status: ('A' for Active; 'I' for Inactive)
REMARK       I    between atoms: N1_2  and  C2_4 
REMARK    1  A    between atoms: C2_4  and  C3_6 
REMARK    2  A    between atoms: C3_6  and  C4_7 
REMARK    3  A    between atoms: C6_10  and  O2_11 
ROOT
HETATM    1  C4  UNL     1      -0.465   0.132   1.226  1.00  0.00     0.027 C 
HETATM    2  C5  UNL     1      -1.732  -0.703   1.414  1.00  0.00     0.093 C 
HETATM    3 BR1  UNL     1      -2.561  -0.276   3.085  1.00  0.00    -0.088 Br
HETATM    4  C6  UNL     1      -2.613  -0.420   0.230  1.00  0.00     0.148 C 
HETATM    5  C7  UNL     1      -1.923   0.621  -0.591  1.00  0.00     0.102 C 
HETATM    6 BR2  UNL     1      -3.228   1.966  -1.097  1.00  0.00    -0.087 Br
HETATM    7  C8  UNL     1      -0.997   1.287   0.431  1.00  0.00     0.080 C 
HETATM    8 BR3  UNL     1      -2.173   2.296   1.621  1.00  0.00    -0.089 Br
ENDROOT
BRANCH   1   9
HETATM    9  C3  UNL     1       0.593  -0.666   0.508  1.00  0.00     0.109 C 
BRANCH   9  10
HETATM   10  C2  UNL     1       1.849   0.085   0.304  1.00  0.00     0.217 C 
HETATM   11  N1  UNL     1       2.945  -0.485  -0.381  1.00  0.00    -0.365 N 
HETATM   12  C1  UNL     1       4.161   0.264  -0.570  1.00  0.00     0.149 C 
ATOM     13  H1  UNL     1       2.875  -1.435  -0.745  1.00  0.00     0.161 HD
HETATM   14  O1  UNL     1       1.943   1.247   0.745  1.00  0.00    -0.274 OA
ENDBRANCH   9  10
ENDBRANCH   1   9
BRANCH   4  15
HETATM   15  O2  UNL     1      -2.726  -1.575  -0.575  1.00  0.00    -0.393 OA
ATOM     16  H2  UNL     1      -3.283  -1.396  -1.324  1.00  0.00     0.210 HD
ENDBRANCH   4  15
TORSDOF 3
