REMARK  8 active torsions:
REMARK  status: ('A' for Active; 'I' for Inactive)
REMARK    1  A    between atoms: C2_2  and  C3_3 
REMARK    2  A    between atoms: C3_3  and  C4_4 
REMARK    3  A    between atoms: C4_4  and  C5_5 
REMARK    4  A    between atoms: C10_10  and  C11_11 
REMARK    5  A    between atoms: C11_11  and  S1_12 
REMARK    6  A    between atoms: S1_12  and  N1_15 
REMARK    7  A    between atoms: N1_15  and  O3_16 
REMARK    8  A    between atoms: N1_15  and  O4_18 
ROOT
HETATM    1  C5  UNL     1      -0.913  -0.523   0.600  1.00  0.00     0.014 C 
HETATM    2  C6  UNL     1      -0.931  -1.307  -0.666  1.00  0.00     0.014 C 
HETATM    3  C7  UNL     1       0.008  -2.434  -0.200  1.00  0.00    -0.009 A 
HETATM    4  C8  UNL     1       1.433  -2.363  -0.504  1.00  0.00     0.010 A 
HETATM    5  C9  UNL     1       1.031  -1.709   0.732  1.00  0.00    -0.004 A 
HETATM    6  C10 UNL     1       0.518  -0.269   0.817  1.00  0.00     0.013 C 
ENDROOT
BRANCH   6   7
HETATM    7  C11 UNL     1       1.290   0.548  -0.119  1.00  0.00     0.167 C 
BRANCH   7   8
HETATM    8  S1  UNL     1       2.964   0.684   0.469  1.00  0.00     0.257 S 
HETATM    9  O1  UNL     1       3.587  -0.632   0.690  1.00  0.00    -0.207 OA
HETATM   10  O2  UNL     1       2.973   1.423   1.807  1.00  0.00    -0.207 OA
BRANCH   8  11
HETATM   11  N1  UNL     1       3.924   1.638  -0.606  1.00  0.00     0.049 NA
BRANCH  11  12
HETATM   12  O3  UNL     1       4.505   0.876  -1.561  1.00  0.00    -0.275 OA
ATOM     13  H3  UNL     1       5.033   1.400  -2.152  1.00  0.00     0.240 HD
ENDBRANCH  11  12
BRANCH  11  14
HETATM   14  O4  UNL     1       4.827   2.305   0.112  1.00  0.00    -0.275 OA
ATOM     15  H4  UNL     1       5.355   2.829  -0.479  1.00  0.00     0.240 HD
ENDBRANCH  11  14
ENDBRANCH   8  11
ENDBRANCH   7   8
ENDBRANCH   6   7
BRANCH   1  16
HETATM   16  C4  UNL     1      -1.926   0.500   0.795  1.00  0.00    -0.022 C 
BRANCH  16  17
HETATM   17  C3  UNL     1      -2.070   1.621  -0.100  1.00  0.00    -0.008 C 
BRANCH  17  18
HETATM   18  C2  UNL     1      -3.187   1.837  -0.767  1.00  0.00    -0.031 C 
HETATM   19  C1  UNL     1      -4.319   0.893  -0.584  1.00  0.00     0.036 C 
ENDBRANCH  17  18
ENDBRANCH  16  17
ENDBRANCH   1  16
TORSDOF 8
