REMARK  4 active torsions:
REMARK  status: ('A' for Active; 'I' for Inactive)
REMARK    1  A    between atoms: C4_4  and  C5_5 
REMARK    2  A    between atoms: C6_6  and  O1_7 
REMARK    3  A    between atoms: C11_17  and  C12_18 
REMARK    4  A    between atoms: C12_18  and  O3_20 
ROOT
HETATM    1  C5  UNL     1       0.999  -0.046  -0.434  1.00  0.00     0.061 C 
HETATM    2  C6  UNL     1       0.026   0.222  -1.593  1.00  0.00     0.136 C 
HETATM    3  C7  UNL     1      -0.866   0.928  -0.650  1.00  0.00     0.064 C 
HETATM    4  C8  UNL     1       0.301   1.068   0.297  1.00  0.00     0.105 C 
HETATM    5  N1  UNL     1      -0.008   0.850   1.669  1.00  0.00    -0.337 N 
ATOM      6  H1  UNL     1       0.678   0.464   2.318  1.00  0.00     0.164 HD
HETATM    7  C9  UNL     1      -1.321   1.197   2.090  1.00  0.00     0.318 C 
HETATM    8  O2  UNL     1      -1.585   1.540   3.275  1.00  0.00    -0.247 OA
HETATM    9  N2  UNL     1      -2.357   1.146   1.115  1.00  0.00    -0.331 N 
HETATM   10  C10 UNL     1      -3.609   1.803   1.412  1.00  0.00     0.155 C 
HETATM   11  C11 UNL     1      -2.114   0.435  -0.140  1.00  0.00     0.125 C 
ENDROOT
BRANCH   1  12
HETATM   12  C4  UNL     1       2.404   0.320  -0.760  1.00  0.00    -0.016 C 
HETATM   13  C2  UNL     1       3.435  -0.345  -0.335  1.00  0.00    -0.091 C 
HETATM   14  C1  UNL     1       3.251  -1.560   0.538  1.00  0.00     0.042 C 
HETATM   15  C3  UNL     1       4.824   0.059  -0.686  1.00  0.00     0.042 C 
ENDBRANCH   1  12
BRANCH   2  16
HETATM   16  O1  UNL     1       0.676   1.033  -2.554  1.00  0.00    -0.394 OA
ATOM     17  H1  UNL     1       0.075   1.199  -3.270  1.00  0.00     0.210 HD
ENDBRANCH   2  16
BRANCH  11  18
HETATM   18  C12 UNL     1      -2.429  -0.964   0.151  1.00  0.00     0.137 C 
HETATM   19  C13 UNL     1      -2.569  -1.934  -0.954  1.00  0.00     0.041 C 
BRANCH  18  20
HETATM   20  O3  UNL     1      -1.675  -1.573   1.159  1.00  0.00    -0.394 OA
ATOM     21  H3  UNL     1      -1.880  -2.481   1.348  1.00  0.00     0.210 HD
ENDBRANCH  18  20
ENDBRANCH  11  18
TORSDOF 4
