REMARK  10 active torsions:
REMARK  status: ('A' for Active; 'I' for Inactive)
REMARK    1  A    between atoms: C2_2  and  O1_4 
REMARK    2  A    between atoms: C2_2  and  C4_6 
REMARK    3  A    between atoms: C5_7  and  C6_8 
REMARK    4  A    between atoms: N1_10  and  C8_11 
REMARK    5  A    between atoms: C8_11  and  C9_12 
REMARK    6  A    between atoms: C9_12  and  O2_13 
REMARK    7  A    between atoms: C9_12  and  C10_15 
REMARK    8  A    between atoms: C10_15  and  N2_16 
REMARK    9  A    between atoms: C11_17  and  N3_18 
REMARK   10  A    between atoms: C13_24  and  N5_25 
ROOT
HETATM    1  N2  UNL     1      -2.774   0.131   0.117  1.00  0.00    -0.164 N 
HETATM    2  C11 UNL     1      -3.051   0.675   1.307  1.00  0.00     0.680 A 
HETATM    3  N4  UNL     1      -4.311   0.314   1.612  1.00  0.00    -0.184 N 
ATOM      4  H4  UNL     1      -4.803   0.580   2.465  1.00  0.00     0.184 HD
HETATM    5  C12 UNL     1      -4.831  -0.450   0.629  1.00  0.00     0.137 A 
HETATM    6  C13 UNL     1      -6.031  -1.085   0.396  1.00  0.00     0.131 A 
HETATM    7  N6  UNL     1      -6.265  -1.802  -0.719  1.00  0.00    -0.337 N 
ATOM      8  H6  UNL     1      -7.163  -2.262  -0.868  1.00  0.00     0.168 HD
HETATM    9  C14 UNL     1      -5.285  -1.894  -1.628  1.00  0.00     0.183 A 
HETATM   10  N7  UNL     1      -4.112  -1.292  -1.432  1.00  0.00    -0.336 N 
ATOM     11  H7  UNL     1      -3.390  -1.385  -2.146  1.00  0.00     0.168 HD
HETATM   12  C15 UNL     1      -3.838  -0.563  -0.327  1.00  0.00     0.155 A 
ENDROOT
BRANCH   1  13
HETATM   13  C10 UNL     1      -1.519   0.264  -0.596  1.00  0.00     0.182 C 
BRANCH  13  14
HETATM   14  C9  UNL     1      -1.531   1.472  -1.509  1.00  0.00     0.155 C 
BRANCH  14  15
HETATM   15  C8  UNL     1      -0.244   1.631  -2.258  1.00  0.00     0.162 C 
BRANCH  15  16
HETATM   16  N1  UNL     1       0.913   1.757  -1.424  1.00  0.00    -0.348 N 
HETATM   17  C7  UNL     1       1.667   0.730  -0.987  1.00  0.00     0.130 A 
HETATM   18  C6  UNL     1       2.702   1.205  -0.207  1.00  0.00     0.103 A 
HETATM   19  N8  UNL     1       2.559   2.543  -0.182  1.00  0.00    -0.344 N 
HETATM   20  C16 UNL     1       1.481   2.887  -0.914  1.00  0.00     0.183 A 
ATOM     21  H8  UNL     1       3.170   3.193   0.312  1.00  0.00     0.167 HD
BRANCH  18  22
HETATM   22  C5  UNL     1       3.721   0.404   0.440  1.00  0.00    -0.044 C 
HETATM   23  C4  UNL     1       4.565  -0.278   0.965  1.00  0.00    -0.062 C 
BRANCH  23  24
HETATM   24  C2  UNL     1       5.587  -1.136   1.605  1.00  0.00     0.114 C 
HETATM   25  C1  UNL     1       5.466  -2.565   1.070  1.00  0.00     0.060 C 
HETATM   26  C3  UNL     1       6.924  -0.543   1.256  1.00  0.00     0.060 C 
BRANCH  24  27
HETATM   27  O1  UNL     1       5.356  -1.195   2.970  1.00  0.00    -0.378 OA
ATOM     28  H1  UNL     1       5.431  -0.308   3.302  1.00  0.00     0.211 HD
ENDBRANCH  24  27
ENDBRANCH  23  24
ENDBRANCH  18  22
ENDBRANCH  15  16
ENDBRANCH  14  15
BRANCH  14  29
HETATM   29  O2  UNL     1      -2.562   1.362  -2.440  1.00  0.00    -0.392 OA
ATOM     30  H2  UNL     1      -3.378   1.261  -1.965  1.00  0.00     0.210 HD
ENDBRANCH  14  29
ENDBRANCH  13  14
ENDBRANCH   1  13
BRANCH   2  31
HETATM   31  N3  UNL     1      -2.311   1.414   2.076  1.00  0.00    -0.234 N 
ATOM     32  H32 UNL     1      -1.356   1.688   1.845  1.00  0.00     0.174 HD
ATOM     33  H31 UNL     1      -2.522   1.829   2.984  1.00  0.00     0.174 HD
ENDBRANCH   2  31
BRANCH   6  34
HETATM   34  N5  UNL     1      -6.968  -0.996   1.265  1.00  0.00    -0.383 N 
ATOM     35  H52 UNL     1      -6.791  -0.453   2.110  1.00  0.00     0.157 HD
ATOM     36  H51 UNL     1      -7.857  -1.466   1.092  1.00  0.00     0.157 HD
ENDBRANCH   6  34
TORSDOF 10
