REMARK  4 active torsions:
REMARK  status: ('A' for Active; 'I' for Inactive)
REMARK    1  A    between atoms: N1_1  and  C1_4 
REMARK    2  A    between atoms: C4_9  and  C5_10 
REMARK       I    between atoms: C5_10  and  N3_12 
REMARK    3  A    between atoms: N3_12  and  N4_13 
REMARK    4  A    between atoms: N5_19  and  O2_20 
ROOT
HETATM    1  C1  UNL     1      -3.596   0.383  -0.291  1.00  0.00     0.693 A 
HETATM    2  N2  UNL     1      -2.393   0.976  -0.474  1.00  0.00    -0.188 N 
ATOM      3  H2  UNL     1      -2.366   1.878  -0.950  1.00  0.00     0.184 HD
HETATM    4  C2  UNL     1      -1.230   0.438  -0.061  1.00  0.00     0.081 A 
HETATM    5  C3  UNL     1      -0.009   1.052  -0.252  1.00  0.00     0.051 A 
HETATM    6  C4  UNL     1       1.173   0.489   0.175  1.00  0.00     0.050 A 
HETATM    7  C6  UNL     1       1.163  -0.731   0.820  1.00  0.00     0.021 A 
HETATM    8  C7  UNL     1      -0.061  -1.351   1.016  1.00  0.00     0.037 A 
HETATM    9  C8  UNL     1      -1.244  -0.779   0.584  1.00  0.00     0.109 A 
HETATM   10  N5  UNL     1      -2.448  -1.364   0.764  1.00  0.00    -0.147 N 
HETATM   11  N6  UNL     1      -3.588  -0.803   0.341  1.00  0.00    -0.105 N 
ATOM     12  H6  UNL     1      -4.471  -1.287   0.502  1.00  0.00     0.208 HD
ENDROOT
BRANCH   6  13
HETATM   13  C5  UNL     1       2.465   1.233  -0.047  1.00  0.00     0.345 C 
HETATM   14  O1  UNL     1       2.361   2.451   0.274  1.00  0.00    -0.249 OA
HETATM   15  N3  UNL     1       3.506   0.508  -0.542  1.00  0.00    -0.288 NA
BRANCH  15  16
HETATM   16  N4  UNL     1       4.514  -0.193  -1.021  1.00  0.00    -0.276 N 
ATOM     17  H42 UNL     1       3.754   0.376  -0.648  1.00  0.00     0.191 HD
ATOM     18  H41 UNL     1       5.294  -0.736  -1.392  1.00  0.00     0.191 HD
ENDBRANCH  15  16
ENDBRANCH   6  13
BRANCH   1  19
HETATM   19  N1  UNL     1      -4.703   0.928  -0.706  1.00  0.00    -0.233 N 
ATOM     20  H12 UNL     1      -4.709   1.828  -1.186  1.00  0.00     0.174 HD
ATOM     21  H11 UNL     1      -5.609   0.481  -0.568  1.00  0.00     0.174 HD
ENDBRANCH   1  19
BRANCH  10  22
HETATM   22  O2  UNL     1      -2.469  -2.573   1.403  1.00  0.00    -0.267 OA
ATOM     23  H2  UNL     1      -3.316  -2.984   1.530  1.00  0.00     0.247 HD
ENDBRANCH  10  22
TORSDOF 4
