REMARK  7 active torsions:
REMARK  status: ('A' for Active; 'I' for Inactive)
REMARK    1  A    between atoms: C2_2  and  C3_3 
REMARK    2  A    between atoms: C3_3  and  C4_4 
REMARK    3  A    between atoms: C4_4  and  N1_5 
REMARK    4  A    between atoms: C4_4  and  C13_21 
REMARK    5  A    between atoms: N1_5  and  C5_7 
REMARK    6  A    between atoms: C5_7  and  C6_8 
REMARK    7  A    between atoms: C10_12  and  C11_13 
ROOT
HETATM    1  C11 UNL     1       4.589   0.001  -0.412  1.00  0.00     0.152 C 
HETATM    2  N2  UNL     1       4.436  -0.250  -1.843  1.00  0.00    -0.080 NA
HETATM    3  N3  UNL     1       5.754   0.211  -0.063  1.00  0.00    -0.280 N 
ATOM      4  H3  UNL     1       6.401   0.166  -0.850  1.00  0.00     0.179 HD
HETATM    5  C12 UNL     1       6.379   0.481   1.079  1.00  0.00     0.183 C 
HETATM    6  N4  UNL     1       6.961   0.719   2.068  1.00  0.00    -0.172 NA
ENDROOT
BRANCH   1   7
HETATM    7  C10 UNL     1       3.342  -0.041   0.328  1.00  0.00     0.074 A 
HETATM    8  C9  UNL     1       3.203   0.170   1.676  1.00  0.00     0.033 A 
HETATM    9  C8  UNL     1       1.966   0.121   2.328  1.00  0.00     0.004 A 
HETATM   10  C7  UNL     1       0.865  -0.150   1.577  1.00  0.00     0.027 A 
HETATM   11  C6  UNL     1       0.991  -0.361   0.235  1.00  0.00     0.027 A 
HETATM   12  N5  UNL     1       2.178  -0.305  -0.341  1.00  0.00    -0.355 N 
ATOM     13  H5  UNL     1       2.230  -0.469  -1.346  1.00  0.00     0.166 HD
BRANCH  11  14
HETATM   14  C5  UNL     1      -0.264  -0.650  -0.547  1.00  0.00     0.172 C 
BRANCH  14  15
HETATM   15  N1  UNL     1      -1.392  -0.195   0.192  1.00  0.00    -0.404 N 
ATOM     16  H1  UNL     1      -1.289   0.254   1.102  1.00  0.00     0.154 HD
BRANCH  15  17
HETATM   17  C4  UNL     1      -2.655  -0.394  -0.393  1.00  0.00     0.170 C 
BRANCH  17  18
HETATM   18  C3  UNL     1      -3.737   0.511   0.113  1.00  0.00     0.060 C 
BRANCH  18  19
HETATM   19  C2  UNL     1      -3.525   1.950  -0.129  1.00  0.00    -0.034 C 
HETATM   20  C1  UNL     1      -2.580   2.459  -0.875  1.00  0.00     0.007 C 
ENDBRANCH  18  19
ENDBRANCH  17  18
BRANCH  17  21
HETATM   21  C13 UNL     1      -3.131  -1.815  -0.188  1.00  0.00     0.253 C 
HETATM   22  N6  UNL     1      -4.388  -2.194  -0.708  1.00  0.00    -0.060 NA
HETATM   23  O1  UNL     1      -2.382  -2.599   0.439  1.00  0.00    -0.275 OA
ENDBRANCH  17  21
ENDBRANCH  15  17
ENDBRANCH  14  15
ENDBRANCH  11  14
ENDBRANCH   1   7
TORSDOF 7
