REMARK  13 active torsions:
REMARK  status: ('A' for Active; 'I' for Inactive)
REMARK    1  A    between atoms: C2_2  and  C3_3 
REMARK    2  A    between atoms: C3_3  and  C4_4 
REMARK    3  A    between atoms: C4_4  and  C5_5 
REMARK    4  A    between atoms: C5_5  and  O2_7 
REMARK    5  A    between atoms: O2_7  and  C6_8 
REMARK    6  A    between atoms: C6_8  and  C7_9 
REMARK    7  A    between atoms: C7_9  and  O4_11 
REMARK    8  A    between atoms: O4_11  and  C8_12 
REMARK    9  A    between atoms: C9_13  and  O5_14 
REMARK   10  A    between atoms: C10_16  and  O6_17 
REMARK   11  A    between atoms: O6_17  and  C11_18 
REMARK   12  A    between atoms: C17_25  and  C19_27 
REMARK   13  A    between atoms: C27_36  and  O9_37 
ROOT
HETATM    1  C8  UNL     1       0.848  -1.363   0.031  1.00  0.00     0.192 C 
HETATM    2  C9  UNL     1       0.254  -2.698   0.253  1.00  0.00     0.180 C 
HETATM    3  C10 UNL     1      -1.230  -2.609   0.291  1.00  0.00     0.167 C 
HETATM    4  C13 UNL     1      -1.733  -1.288   0.853  1.00  0.00     0.025 C 
HETATM    5  C14 UNL     1      -3.212  -1.386   0.905  1.00  0.00     0.008 C 
HETATM    6  C15 UNL     1      -3.904  -0.091   1.232  1.00  0.00     0.007 C 
HETATM    7  C16 UNL     1      -3.272   1.151   0.679  1.00  0.00     0.010 C 
HETATM    8  C17 UNL     1      -4.291   2.152   0.285  1.00  0.00     0.021 C 
HETATM    9  C18 UNL     1      -3.753   3.605   0.429  1.00  0.00     0.024 C 
HETATM   10  C21 UNL     1      -4.750   2.009  -1.151  1.00  0.00     0.017 C 
HETATM   11  C22 UNL     1      -4.374   0.726  -1.797  1.00  0.00     0.002 C 
HETATM   12  C23 UNL     1      -2.934   0.326  -1.684  1.00  0.00     0.010 C 
HETATM   13  C24 UNL     1      -2.272   0.823  -0.437  1.00  0.00    -0.033 C 
HETATM   14  C25 UNL     1      -1.573   2.108  -0.817  1.00  0.00     0.016 C 
HETATM   15  C26 UNL     1      -1.219  -0.075   0.149  1.00  0.00     0.032 C 
HETATM   16  C27 UNL     1      -0.128  -0.471  -0.761  1.00  0.00     0.155 C 
ENDROOT
BRANCH   1  17
HETATM   17  O4  UNL     1       2.026  -1.557  -0.769  1.00  0.00    -0.309 OA
BRANCH  17  18
HETATM   18  C7  UNL     1       3.277  -1.144  -0.391  1.00  0.00     0.283 C 
HETATM   19  O3  UNL     1       3.398  -0.569   0.721  1.00  0.00    -0.263 OA
BRANCH  18  20
HETATM   20  C6  UNL     1       4.488  -1.345  -1.243  1.00  0.00     0.289 C 
BRANCH  20  21
HETATM   21  O2  UNL     1       5.629  -0.821  -0.627  1.00  0.00    -0.312 OA
BRANCH  21  22
HETATM   22  C5  UNL     1       6.850  -0.846  -1.255  1.00  0.00     0.259 C 
HETATM   23  O1  UNL     1       7.026  -1.334  -2.410  1.00  0.00    -0.265 OA
BRANCH  22  24
HETATM   24  C4  UNL     1       8.081  -0.276  -0.590  1.00  0.00     0.111 C 
BRANCH  24  25
HETATM   25  C3  UNL     1       7.928   1.233  -0.613  1.00  0.00     0.009 C 
BRANCH  25  26
HETATM   26  C2  UNL     1       9.126   1.898   0.032  1.00  0.00    -0.004 C 
HETATM   27  C1  UNL     1       8.964   3.410   0.017  1.00  0.00     0.005 C 
ENDBRANCH  25  26
ENDBRANCH  24  25
ENDBRANCH  22  24
ENDBRANCH  21  22
ENDBRANCH  20  21
ENDBRANCH  18  20
ENDBRANCH  17  18
ENDBRANCH   1  17
BRANCH   2  28
HETATM   28  O5  UNL     1       0.794  -3.263   1.411  1.00  0.00    -0.390 OA
ATOM     29  H5  UNL     1       0.412  -4.121   1.554  1.00  0.00     0.210 HD
ENDBRANCH   2  28
BRANCH  16  30
HETATM   30  O9  UNL     1      -0.468  -1.182  -1.881  1.00  0.00    -0.392 OA
ATOM     31  H9  UNL     1      -1.070  -0.632  -2.369  1.00  0.00     0.210 HD
ENDBRANCH  16  30
BRANCH   3  32
HETATM   32  O6  UNL     1      -1.646  -3.595   1.258  1.00  0.00    -0.313 OA
BRANCH  32  33
HETATM   33  C11 UNL     1      -2.482  -4.633   0.918  1.00  0.00     0.255 C 
HETATM   34  C12 UNL     1      -2.881  -5.618   1.939  1.00  0.00     0.126 C 
HETATM   35  O7  UNL     1      -2.873  -4.687  -0.288  1.00  0.00    -0.266 OA
ENDBRANCH  32  33
ENDBRANCH   3  32
BRANCH   8  36
HETATM   36  C19 UNL     1      -5.432   2.200   1.213  1.00  0.00     0.131 C 
HETATM   37  C20 UNL     1      -6.635   3.057   0.880  1.00  0.00     0.091 C 
HETATM   38  O8  UNL     1      -5.482   1.604   2.236  1.00  0.00    -0.298 OA
ENDBRANCH   8  36
TORSDOF 13
