REMARK  3 active torsions:
REMARK  status: ('A' for Active; 'I' for Inactive)
REMARK    1  A    between atoms: O1_2  and  C2_3 
REMARK    2  A    between atoms: C2_3  and  C3_5 
REMARK    3  A    between atoms: C8_21  and  N6_22 
REMARK       I    between atoms: N6_22  and  C9_24 
ROOT
HETATM    1  C3  UNL     1      -1.461   0.136  -0.292  1.00  0.00     0.086 C 
HETATM    2  C4  UNL     1      -1.697   1.396   0.015  1.00  0.00     0.025 C 
HETATM    3  C5  UNL     1      -3.055   1.765   0.281  1.00  0.00     0.069 C 
HETATM    4  N1  UNL     1      -0.683   2.477   0.092  1.00  0.00    -0.339 N 
ATOM      5  H1  UNL     1      -0.869   3.229   0.756  1.00  0.00     0.168 HD
HETATM    6  C6  UNL     1       0.424   2.569  -0.600  1.00  0.00     0.164 C 
HETATM    7  N2  UNL     1       1.083   1.827  -1.590  1.00  0.00    -0.345 N 
ATOM      8  H2  UNL     1       0.917   2.005  -2.581  1.00  0.00     0.163 HD
HETATM    9  C7  UNL     1       2.025   0.780  -1.151  1.00  0.00     0.229 C 
HETATM   10  N3  UNL     1       3.116   1.296  -0.432  1.00  0.00    -0.296 N 
ATOM     11  H3  UNL     1       3.928   0.711  -0.627  1.00  0.00     0.184 HD
HETATM   12  N4  UNL     1       3.466   2.189   0.347  1.00  0.00    -0.239 N 
ATOM     13  H4  UNL     1       4.447   2.167   0.627  1.00  0.00     0.208 HD
HETATM   14  N5  UNL     1       2.713   3.216   0.894  1.00  0.00    -0.253 N 
ATOM     15  H5  UNL     1       3.091   3.625   1.748  1.00  0.00     0.197 HD
HETATM   16  S1  UNL     1       1.145   3.943   0.310  1.00  0.00     0.040 SA
HETATM   17  C8  UNL     1       1.269  -0.182  -0.281  1.00  0.00     0.178 C 
HETATM   18  C11 UNL     1      -0.116  -0.477  -0.589  1.00  0.00     0.048 C 
HETATM   19  N7  UNL     1      -0.288  -1.538  -1.284  1.00  0.00    -0.400 N 
ATOM     20  H71 UNL     1       0.622  -1.953  -1.485  1.00  0.00     0.156 HD
ATOM     21  H72 UNL     1      -1.263  -1.746  -1.501  1.00  0.00     0.156 HD
ENDROOT
BRANCH  17  22
HETATM   22  N6  UNL     1       2.062  -1.382  -0.006  1.00  0.00    -0.348 N 
HETATM   23  C9  UNL     1       2.543  -1.712   1.290  1.00  0.00     0.214 C 
HETATM   24  C10 UNL     1       3.345  -2.928   1.559  1.00  0.00     0.117 C 
HETATM   25  O3  UNL     1       2.265  -0.924   2.230  1.00  0.00    -0.274 OA
ATOM     26  H6  UNL     1       2.279  -2.010  -0.780  1.00  0.00     0.163 HD
ENDBRANCH  17  22
BRANCH   1  27
HETATM   27  C2  UNL     1      -2.563  -0.772  -0.343  1.00  0.00     0.296 C 
HETATM   28  O2  UNL     1      -2.256  -1.981  -0.652  1.00  0.00    -0.259 OA
BRANCH  27  29
HETATM   29  O1  UNL     1      -3.901  -0.569  -0.114  1.00  0.00    -0.322 OA
HETATM   30  C1  UNL     1      -4.862  -1.611  -0.214  1.00  0.00     0.213 C 
ENDBRANCH  27  29
ENDBRANCH   1  27
TORSDOF 3
