REMARK  18 active torsions:
REMARK  status: ('A' for Active; 'I' for Inactive)
REMARK    1  A    between atoms: O1_2  and  C2_3 
REMARK    2  A    between atoms: C2_3  and  O2_4 
REMARK    3  A    between atoms: C2_3  and  C3_6 
REMARK    4  A    between atoms: C3_6  and  N1_7 
REMARK    5  A    between atoms: C3_6  and  C6_15 
REMARK    6  A    between atoms: N1_7  and  N2_9 
REMARK       I    between atoms: N2_9  and  C4_11 
REMARK    7  A    between atoms: C4_11  and  C5_13 
REMARK    8  A    between atoms: C7_16  and  O4_17 
REMARK    9  A    between atoms: C8_20  and  O6_21 
REMARK   10  A    between atoms: O6_21  and  C9_22 
REMARK   11  A    between atoms: C9_22  and  O7_23 
REMARK   12  A    between atoms: C9_22  and  C10_25 
REMARK   13  A    between atoms: C10_25  and  O8_28 
REMARK   14  A    between atoms: C13_30  and  C14_31 
REMARK   15  A    between atoms: C15_32  and  C16_33 
REMARK   16  A    between atoms: C16_33  and  O10_35 
REMARK   17  A    between atoms: O10_35  and  C17_36 
REMARK   18  A    between atoms: C17_36  and  C18_37 
ROOT
HETATM    1  C6  UNL     1      -2.205   1.534  -1.650  1.00  0.00     0.070 A 
HETATM    2  C7  UNL     1      -2.431   1.007  -2.949  1.00  0.00     0.199 A 
HETATM    3  O5  UNL     1      -1.963  -0.189  -3.005  1.00  0.00    -0.263 OA
HETATM    4  C8  UNL     1      -1.434  -0.567  -1.889  1.00  0.00     0.201 A 
HETATM    5  C13 UNL     1      -1.560   0.497  -0.989  1.00  0.00     0.040 A 
ENDROOT
BRANCH   1   6
HETATM    6  C3  UNL     1      -2.620   2.858  -1.245  1.00  0.00     0.122 C 
BRANCH   6   7
HETATM    7  C2  UNL     1      -2.439   3.570  -0.055  1.00  0.00     0.207 C 
BRANCH   7   8
HETATM    8  O1  UNL     1      -1.816   3.182   1.076  1.00  0.00    -0.334 OA
HETATM    9  C1  UNL     1      -1.632   3.891   2.260  1.00  0.00     0.212 C 
ENDBRANCH   7   8
BRANCH   7  10
HETATM   10  O2  UNL     1      -2.907   4.801   0.072  1.00  0.00    -0.339 OA
ATOM     11  H2  UNL     1      -3.346   5.074  -0.725  1.00  0.00     0.220 HD
ENDBRANCH   7  10
ENDBRANCH   6   7
BRANCH   6  12
HETATM   12  N1  UNL     1      -3.257   3.512  -2.205  1.00  0.00    -0.293 N 
ATOM     13  H1  UNL     1      -3.400   3.015  -3.084  1.00  0.00     0.187 HD
BRANCH  12  14
HETATM   14  N2  UNL     1      -3.741   4.789  -2.131  1.00  0.00    -0.269 N 
HETATM   15  C4  UNL     1      -3.108   5.899  -2.775  1.00  0.00     0.249 C 
HETATM   16  O3  UNL     1      -2.065   5.690  -3.435  1.00  0.00    -0.271 OA
ATOM     17  H2  UNL     1      -4.591   4.958  -1.593  1.00  0.00     0.190 HD
BRANCH  15  18
HETATM   18  C5  UNL     1      -3.680   7.243  -2.656  1.00  0.00     0.219 C 
HETATM   19 CL1  UNL     1      -4.813   7.606  -3.991  1.00  0.00    -0.121 Cl
ENDBRANCH  15  18
ENDBRANCH  12  14
ENDBRANCH   6  12
ENDBRANCH   1   6
BRANCH   2  20
HETATM   20  O4  UNL     1      -3.065   1.703  -3.983  1.00  0.00    -0.340 OA
ATOM     21  H4  UNL     1      -3.216   1.350  -4.852  1.00  0.00     0.220 HD
ENDBRANCH   2  20
BRANCH   5  22
HETATM   22  C14 UNL     1      -1.244   0.405   0.408  1.00  0.00     0.023 C 
HETATM   23  C15 UNL     1      -0.128   0.153   0.997  1.00  0.00     0.083 C 
BRANCH  23  24
HETATM   24  C16 UNL     1       1.164  -0.099   0.420  1.00  0.00     0.282 C 
HETATM   25  O9  UNL     1       1.488  -0.086  -0.781  1.00  0.00    -0.260 OA
BRANCH  24  26
HETATM   26  O10 UNL     1       2.241  -0.407   1.297  1.00  0.00    -0.318 OA
BRANCH  26  27
HETATM   27  C17 UNL     1       3.512  -0.655   0.748  1.00  0.00     0.183 C 
BRANCH  27  28
HETATM   28  C18 UNL     1       4.480  -0.957   1.867  1.00  0.00     0.010 C 
HETATM   29  C19 UNL     1       5.877  -1.229   1.316  1.00  0.00     0.007 C 
HETATM   30  C20 UNL     1       6.467  -2.317   2.160  1.00  0.00     0.000 C 
HETATM   31  C21 UNL     1       5.471  -2.574   3.255  1.00  0.00     0.000 C 
HETATM   32  C22 UNL     1       4.139  -2.241   2.592  1.00  0.00     0.007 C 
ENDBRANCH  27  28
ENDBRANCH  26  27
ENDBRANCH  24  26
ENDBRANCH  23  24
ENDBRANCH   5  22
BRANCH   4  33
HETATM   33  O6  UNL     1      -0.855  -1.834  -1.659  1.00  0.00    -0.295 OA
BRANCH  33  34
HETATM   34  C9  UNL     1      -1.739  -2.789  -1.102  1.00  0.00     0.299 C 
BRANCH  34  35
HETATM   35  O7  UNL     1      -2.339  -3.376  -2.289  1.00  0.00    -0.368 OA
ATOM     36  H7  UNL     1      -2.932  -4.017  -1.915  1.00  0.00     0.212 HD
ENDBRANCH  34  35
BRANCH  34  37
HETATM   37  C10 UNL     1      -1.111  -3.937  -0.406  1.00  0.00     0.100 C 
HETATM   38  C11 UNL     1      -0.378  -3.642   0.851  1.00  0.00     0.051 C 
HETATM   39  C12 UNL     1      -2.263  -4.881  -0.017  1.00  0.00     0.051 C 
BRANCH  37  40
HETATM   40  O8  UNL     1      -0.288  -4.618  -1.308  1.00  0.00    -0.386 OA
ATOM     41  H8  UNL     1       0.115  -5.354  -0.862  1.00  0.00     0.210 HD
ENDBRANCH  37  40
ENDBRANCH  34  37
ENDBRANCH  33  34
ENDBRANCH   4  33
TORSDOF 18
