REMARK  7 active torsions:
REMARK  status: ('A' for Active; 'I' for Inactive)
REMARK       I    between atoms: C1_2  and  N1_3 
REMARK    1  A    between atoms: C1_2  and  C9_20 
REMARK    2  A    between atoms: N1_3  and  N2_5 
REMARK    3  A    between atoms: N2_5  and  C2_7 
REMARK    4  A    between atoms: C2_7  and  N3_9 
REMARK    5  A    between atoms: N3_9  and  N4_11 
REMARK    6  A    between atoms: N4_11  and  C3_13 
REMARK    7  A    between atoms: C3_13  and  C4_15 
ROOT
HETATM    1  N2  UNL     1       0.386   0.328   0.971  1.00  0.00    -0.272 N 
ATOM      2  H2  UNL     1       0.503  -0.245   1.806  1.00  0.00     0.189 HD
ENDROOT
BRANCH   1   3
HETATM    3  N1  UNL     1      -0.736   0.179   0.163  1.00  0.00    -0.266 N 
HETATM    4  C1  UNL     1      -2.020   0.374   0.726  1.00  0.00     0.269 C 
HETATM    5  O1  UNL     1      -2.096   0.676   1.943  1.00  0.00    -0.269 OA
ATOM      6  H1  UNL     1      -0.635  -0.067  -0.822  1.00  0.00     0.190 HD
BRANCH   4   7
HETATM    7  C9  UNL     1      -3.256   0.227  -0.093  1.00  0.00     0.318 C 
HETATM    8  C10 UNL     1      -3.312  -1.142  -0.730  1.00  0.00     0.050 C 
HETATM    9  C11 UNL     1      -4.784  -1.495  -0.903  1.00  0.00    -0.007 C 
HETATM   10  C12 UNL     1      -5.327  -1.794   0.485  1.00  0.00     0.035 C 
HETATM   11  C15 UNL     1      -5.480  -0.240  -1.387  1.00  0.00     0.056 C 
HETATM   12  C13 UNL     1      -4.926  -0.663   1.403  1.00  0.00     0.276 C 
HETATM   13  N5  UNL     1      -4.446   0.468   0.660  1.00  0.00     0.120 N 
HETATM   14  C14 UNL     1      -5.501   0.815  -0.304  1.00  0.00     0.319 C 
HETATM   15 CL1  UNL     1      -5.205   2.436  -0.956  1.00  0.00    -0.092 Cl
ENDBRANCH   4   7
ENDBRANCH   1   3
BRANCH   1  16
HETATM   16  C2  UNL     1       1.364   1.290   0.614  1.00  0.00     0.205 C 
HETATM   17  S1  UNL     1       1.135   2.196  -0.727  1.00  0.00    -0.038 SA
BRANCH  16  18
HETATM   18  N3  UNL     1       2.505   1.437   1.440  1.00  0.00    -0.274 N 
ATOM     19  H3  UNL     1       2.616   0.863   2.276  1.00  0.00     0.189 HD
BRANCH  18  20
HETATM   20  N4  UNL     1       3.471   2.375   1.095  1.00  0.00    -0.291 N 
ATOM     21  H4  UNL     1       3.427   3.318   1.481  1.00  0.00     0.187 HD
BRANCH  20  22
HETATM   22  C3  UNL     1       4.512   2.021   0.211  1.00  0.00     0.096 C 
HETATM   23  S2  UNL     1       5.601   3.201  -0.140  1.00  0.00    -0.064 SA
BRANCH  22  24
HETATM   24  C4  UNL     1       4.602   0.675  -0.352  1.00  0.00     0.048 C 
HETATM   25  C5  UNL     1       4.920  -0.333   0.689  1.00  0.00     0.011 C 
HETATM   26  C6  UNL     1       5.436  -1.522  -0.135  1.00  0.00     0.001 C 
HETATM   27  C7  UNL     1       5.900  -0.957  -1.437  1.00  0.00     0.001 C 
HETATM   28  C8  UNL     1       5.751   0.545  -1.337  1.00  0.00     0.011 C 
ENDBRANCH  22  24
ENDBRANCH  20  22
ENDBRANCH  18  20
ENDBRANCH  16  18
ENDBRANCH   1  16
TORSDOF 7
