REMARK  3 active torsions:
REMARK  status: ('A' for Active; 'I' for Inactive)
REMARK    1  A    between atoms: C2_2  and  C4_4 
REMARK    2  A    between atoms: C5_5  and  O1_6 
REMARK    3  A    between atoms: C8_12  and  O4_14 
ROOT
HETATM    1  C4  UNL     1      -1.956  -1.704  -1.033  1.00  0.00     0.103 C 
HETATM    2  C5  UNL     1      -1.545  -0.488  -1.865  1.00  0.00     0.271 C 
HETATM    3  O2  UNL     1      -1.274   0.626  -1.179  1.00  0.00    -0.324 OA
HETATM    4  C6  UNL     1       0.043   0.899  -0.851  1.00  0.00     0.186 C 
HETATM    5  C7  UNL     1       0.805   1.144  -2.087  1.00  0.00     0.080 C 
HETATM    6  O3  UNL     1      -0.041   2.088  -0.110  1.00  0.00    -0.293 OA
HETATM    7  C8  UNL     1      -1.156   2.183   0.674  1.00  0.00     0.307 C 
HETATM    8  C9  UNL     1      -0.933   3.413   1.574  1.00  0.00     0.118 C 
HETATM    9  O5  UNL     1      -1.638   1.126   1.311  1.00  0.00    -0.169 OA
HETATM   10  O6  UNL     1      -1.175   0.019   1.474  1.00  0.00    -0.191 OA
HETATM   11  C10 UNL     1      -0.550  -0.805   0.666  1.00  0.00     0.242 A 
HETATM   12  O7  UNL     1      -0.591  -2.098   1.122  1.00  0.00    -0.338 OA
HETATM   13  C11 UNL     1      -0.802  -1.925  -0.160  1.00  0.00     0.204 A 
HETATM   14  C12 UNL     1       0.657  -0.089   0.120  1.00  0.00     0.120 C 
HETATM   15  C13 UNL     1       1.710  -0.960  -0.460  1.00  0.00     0.194 C 
HETATM   16  O8  UNL     1       2.993  -0.370  -0.350  1.00  0.00    -0.355 OA
HETATM   17  C14 UNL     1       3.420  -0.273   0.948  1.00  0.00     0.156 C 
HETATM   18  C15 UNL     1       4.157  -1.570   1.305  1.00  0.00     0.078 C 
HETATM   19  C16 UNL     1       4.388   0.866   1.149  1.00  0.00     0.078 C 
HETATM   20  O9  UNL     1       2.375  -0.149   1.821  1.00  0.00    -0.355 OA
HETATM   21  C17 UNL     1       1.305   0.598   1.326  1.00  0.00     0.194 C 
ENDROOT
BRANCH   2  22
HETATM   22  O1  UNL     1      -2.415  -0.266  -2.936  1.00  0.00    -0.370 OA
ATOM     23  H1  UNL     1      -2.160   0.489  -3.453  1.00  0.00     0.212 HD
ENDBRANCH   2  22
BRANCH   7  24
HETATM   24  O4  UNL     1      -2.181   2.629  -0.210  1.00  0.00    -0.342 OA
ATOM     25  H4  UNL     1      -2.956   2.695   0.335  1.00  0.00     0.215 HD
ENDBRANCH   7  24
BRANCH   1  26
HETATM   26  C2  UNL     1      -3.290  -1.688  -0.491  1.00  0.00    -0.082 C 
HETATM   27  C1  UNL     1      -4.083  -0.654  -0.589  1.00  0.00     0.014 C 
HETATM   28  C3  UNL     1      -3.781  -2.903   0.203  1.00  0.00     0.043 C 
ENDBRANCH   1  26
TORSDOF 3
