REMARK  6 active torsions:
REMARK  status: ('A' for Active; 'I' for Inactive)
REMARK    1  A    between atoms: C2_2  and  C3_3 
REMARK    2  A    between atoms: C3_3  and  C4_4 
REMARK    3  A    between atoms: C4_4  and  O1_5 
REMARK    4  A    between atoms: O1_5  and  C5_6 
REMARK    5  A    between atoms: C9_11  and  O2_12 
REMARK    6  A    between atoms: C19_26  and  O4_27 
ROOT
HETATM    1  C5  UNL     1       1.487  -0.554   0.001  1.00  0.00     0.217 C 
HETATM    2  S1  UNL     1       0.187  -1.307   1.079  1.00  0.00    -0.092 SA
HETATM    3  C6  UNL     1      -1.362  -0.837   0.278  1.00  0.00     0.046 C 
HETATM    4  C7  UNL     1      -2.558  -1.449   0.793  1.00  0.00     0.025 A 
HETATM    5  C8  UNL     1      -3.410  -2.174  -0.012  1.00  0.00     0.055 A 
HETATM    6  C9  UNL     1      -4.473  -2.923   0.471  1.00  0.00     0.105 A 
HETATM    7  C10 UNL     1      -4.725  -2.968   1.838  1.00  0.00     0.152 A 
HETATM    8  F1  UNL     1      -5.765  -3.690   2.336  1.00  0.00    -0.203 F 
HETATM    9  C11 UNL     1      -3.866  -2.236   2.684  1.00  0.00     0.088 A 
HETATM   10  C12 UNL     1      -2.821  -1.501   2.183  1.00  0.00     0.131 A 
HETATM   11  F2  UNL     1      -2.034  -0.755   3.012  1.00  0.00    -0.205 F 
HETATM   12  C13 UNL     1      -1.331   0.600  -0.071  1.00  0.00     0.071 C 
HETATM   13  O3  UNL     1      -2.546   1.251  -0.194  1.00  0.00    -0.349 OA
HETATM   14  C14 UNL     1      -2.224   2.621  -0.052  1.00  0.00     0.124 C 
HETATM   15  C15 UNL     1      -3.326   3.439   0.505  1.00  0.00     0.040 C 
HETATM   16  C16 UNL     1      -1.668   3.036  -1.365  1.00  0.00     0.033 C 
HETATM   17  C17 UNL     1      -0.426   2.285  -1.682  1.00  0.00     0.016 C 
HETATM   18  C18 UNL     1      -0.319   0.884  -1.112  1.00  0.00     0.076 C 
HETATM   19  C19 UNL     1       1.069   0.757  -0.533  1.00  0.00     0.167 C 
ENDROOT
BRANCH   1  20
HETATM   20  O1  UNL     1       1.982  -1.461  -0.928  1.00  0.00    -0.373 OA
BRANCH  20  21
HETATM   21  C4  UNL     1       3.285  -1.822  -0.614  1.00  0.00     0.169 C 
BRANCH  21  22
HETATM   22  C3  UNL     1       4.232  -0.670  -0.569  1.00  0.00     0.026 C 
BRANCH  22  23
HETATM   23  C2  UNL     1       5.655  -1.131  -0.222  1.00  0.00    -0.002 C 
HETATM   24  C1  UNL     1       6.561   0.079  -0.122  1.00  0.00     0.005 C 
ENDBRANCH  22  23
ENDBRANCH  21  22
ENDBRANCH  20  21
ENDBRANCH   1  20
BRANCH  19  25
HETATM   25  O4  UNL     1       1.342   1.749   0.440  1.00  0.00    -0.391 OA
ATOM     26  H4  UNL     1       1.073   2.593   0.096  1.00  0.00     0.210 HD
ENDBRANCH  19  25
BRANCH   6  27
HETATM   27  O2  UNL     1      -5.297  -3.637  -0.400  1.00  0.00    -0.358 OA
ATOM     28  H2  UNL     1      -6.025  -4.150  -0.069  1.00  0.00     0.217 HD
ENDBRANCH   6  27
TORSDOF 6
