REMARK  3 active torsions:
REMARK  status: ('A' for Active; 'I' for Inactive)
REMARK       I    between atoms: C1_2  and  N3_16 
REMARK       I    between atoms: N2_3  and  C2_5 
REMARK    1  A    between atoms: C2_5  and  C3_7 
REMARK    2  A    between atoms: C4_8  and  C5_9 
REMARK    3  A    between atoms: N3_16  and  C11_18 
ROOT
HETATM    1  N1  UNL     1       1.904   0.720  -1.430  1.00  0.00    -0.063 NA
HETATM    2  C1  UNL     1       1.758  -0.509  -0.718  1.00  0.00     0.191 C 
HETATM    3  N2  UNL     1       0.577  -0.991  -0.593  1.00  0.00    -0.298 N 
ATOM      4  H2  UNL     1       0.452  -1.868  -0.087  1.00  0.00     0.171 HD
HETATM    5  C2  UNL     1      -0.559  -0.345  -1.135  1.00  0.00     0.247 C 
HETATM    6  O1  UNL     1      -0.420   0.294  -2.213  1.00  0.00    -0.268 OA
HETATM    7  N3  UNL     1       2.914  -1.135  -0.185  1.00  0.00    -0.359 N 
ATOM      8  H3  UNL     1       3.145  -2.092  -0.450  1.00  0.00     0.162 HD
ENDROOT
BRANCH   5   9
HETATM    9  C3  UNL     1      -1.868  -0.392  -0.496  1.00  0.00     0.075 C 
HETATM   10  C4  UNL     1      -2.897   0.213  -1.019  1.00  0.00     0.017 C 
BRANCH  10  11
HETATM   11  C5  UNL     1      -4.227   0.204  -0.433  1.00  0.00    -0.036 A 
HETATM   12  C6  UNL     1      -5.257   0.895  -1.091  1.00  0.00     0.014 A 
HETATM   13  C7  UNL     1      -6.515   0.892  -0.546  1.00  0.00     0.043 A 
HETATM   14  C8  UNL     1      -6.829   0.243   0.624  1.00  0.00     0.116 A 
HETATM   15  F1  UNL     1      -8.096   0.260   1.141  1.00  0.00    -0.206 F 
HETATM   16  C9  UNL     1      -5.815  -0.429   1.259  1.00  0.00     0.043 A 
HETATM   17  C10 UNL     1      -4.527  -0.444   0.729  1.00  0.00     0.014 A 
ENDBRANCH  10  11
ENDBRANCH   5   9
BRANCH   7  18
HETATM   18  C11 UNL     1       3.765  -0.412   0.736  1.00  0.00     0.091 C 
HETATM   19  C12 UNL     1       4.940  -1.249   1.188  1.00  0.00     0.052 C 
HETATM   20  C13 UNL     1       5.927  -0.186   1.601  1.00  0.00    -0.029 C 
HETATM   21  C14 UNL     1       5.644   0.941   0.959  1.00  0.00    -0.029 C 
HETATM   22  C15 UNL     1       4.466   0.758   0.069  1.00  0.00     0.052 C 
ENDBRANCH   7  18
TORSDOF 3
