REMARK  6 active torsions:
REMARK  status: ('A' for Active; 'I' for Inactive)
REMARK    1  A    between atoms: C3_3  and  O1_4 
REMARK    2  A    between atoms: O1_4  and  C4_5 
REMARK    3  A    between atoms: C7_9  and  O2_10 
REMARK    4  A    between atoms: C7_9  and  C8_12 
REMARK    5  A    between atoms: C9_13  and  C10_14 
REMARK    6  A    between atoms: C18_23  and  O3_24 
ROOT
HETATM    1  C1  UNL     1      -4.527   0.594  -0.835  1.00  0.00     0.019 C 
HETATM    2  C2  UNL     1      -3.222   0.465  -0.779  1.00  0.00    -0.031 C 
HETATM    3  C3  UNL     1      -2.172   1.230  -0.051  1.00  0.00     0.158 C 
HETATM    4  C5  UNL     1      -1.137   0.159   0.354  1.00  0.00     0.035 C 
HETATM    5  C6  UNL     1       0.190   0.633  -0.084  1.00  0.00     0.060 C 
HETATM    6  C7  UNL     1       1.271   0.124   0.867  1.00  0.00     0.124 C 
HETATM    7  C12 UNL     1       0.958  -1.349   1.117  1.00  0.00     0.030 C 
HETATM    8  C13 UNL     1       2.219  -1.946   1.747  1.00  0.00     0.014 C 
HETATM    9  C14 UNL     1       0.722  -1.966  -0.238  1.00  0.00     0.025 C 
HETATM   10  C15 UNL     1      -0.708  -2.154  -0.588  1.00  0.00     0.070 C 
HETATM   11 BR2  UNL     1      -1.231  -3.905   0.124  1.00  0.00    -0.090 Br
HETATM   12  C16 UNL     1      -1.645  -1.093  -0.223  1.00  0.00     0.005 C 
HETATM   13  C17 UNL     1      -2.786  -1.578   0.688  1.00  0.00     0.020 C 
HETATM   14  C18 UNL     1      -2.375  -0.585  -1.481  1.00  0.00     0.158 C 
ENDROOT
BRANCH   6  15
HETATM   15  O2  UNL     1       1.193   0.822   2.054  1.00  0.00    -0.377 OA
ATOM     16  H2  UNL     1       1.865   0.505   2.646  1.00  0.00     0.211 HD
ENDBRANCH   6  15
BRANCH   6  17
HETATM   17  C8  UNL     1       2.552   0.210   0.212  1.00  0.00    -0.068 C 
HETATM   18  C9  UNL     1       3.617   0.289  -0.313  1.00  0.00    -0.104 C 
BRANCH  18  19
HETATM   19  C10 UNL     1       4.948   0.400  -0.944  1.00  0.00     0.089 C 
HETATM   20  C11 UNL     1       5.449   1.836  -0.753  1.00  0.00     0.018 C 
ENDBRANCH  18  19
ENDBRANCH   6  17
BRANCH   3  21
HETATM   21  O1  UNL     1      -2.618   1.937   1.028  1.00  0.00    -0.371 OA
BRANCH  21  22
HETATM   22  C4  UNL     1      -2.330   3.292   0.900  1.00  0.00     0.253 C 
HETATM   23 BR1  UNL     1      -3.147   4.033  -0.683  1.00  0.00    -0.068 Br
ENDBRANCH  21  22
ENDBRANCH   3  21
BRANCH  14  24
HETATM   24  O3  UNL     1      -3.144  -1.558  -2.061  1.00  0.00    -0.390 OA
ATOM     25  H3  UNL     1      -2.615  -2.214  -2.500  1.00  0.00     0.210 HD
ENDBRANCH  14  24
TORSDOF 6
