REMARK  4 active torsions:
REMARK  status: ('A' for Active; 'I' for Inactive)
REMARK    1  A    between atoms: C2_2  and  C3_3 
REMARK    2  A    between atoms: C3_3  and  C4_4 
REMARK    3  A    between atoms: C19_26  and  O2_27 
REMARK    4  A    between atoms: C23_32  and  O3_33 
ROOT
HETATM    1  C4  UNL     1       4.328   0.251   0.586  1.00  0.00     0.086 C 
HETATM    2  C5  UNL     1       4.525  -1.151   0.035  1.00  0.00     0.026 C 
HETATM    3  C6  UNL     1       3.431  -1.701  -0.797  1.00  0.00     0.008 C 
HETATM    4  C7  UNL     1       2.591  -2.602   0.075  1.00  0.00     0.079 C 
HETATM    5  C8  UNL     1       1.765  -3.616  -0.590  1.00  0.00     0.245 C 
HETATM    6  F1  UNL     1       2.287  -3.813  -1.877  1.00  0.00    -0.206 F 
HETATM    7  F2  UNL     1       1.863  -4.865   0.022  1.00  0.00    -0.206 F 
HETATM    8  C9  UNL     1       0.339  -3.176  -0.725  1.00  0.00     0.099 C 
HETATM    9  C10 UNL     1      -0.334  -2.660   0.490  1.00  0.00     0.134 C 
HETATM   10  N1  UNL     1      -1.143  -1.477   0.282  1.00  0.00    -0.360 N 
HETATM   11  C11 UNL     1      -2.377  -1.696  -0.274  1.00  0.00     0.064 C 
HETATM   12  C12 UNL     1      -2.472  -1.435  -1.784  1.00  0.00     0.046 C 
HETATM   13  C13 UNL     1      -3.793  -0.781  -2.139  1.00  0.00     0.025 C 
HETATM   14  C14 UNL     1      -3.633   0.709  -2.355  1.00  0.00     0.123 C 
HETATM   15  N2  UNL     1      -4.678   1.381  -1.608  1.00  0.00    -0.359 N 
ATOM     16  H2  UNL     1      -5.525   1.686  -2.088  1.00  0.00     0.162 HD
HETATM   17  C15 UNL     1      -4.536   1.619  -0.218  1.00  0.00     0.240 C 
HETATM   18  O1  UNL     1      -5.567   1.529   0.495  1.00  0.00    -0.271 OA
HETATM   19  C16 UNL     1      -3.235   1.967   0.413  1.00  0.00     0.174 C 
HETATM   20  C17 UNL     1      -3.430   3.385   0.992  1.00  0.00     0.042 C 
HETATM   21  N3  UNL     1      -2.853   1.077   1.486  1.00  0.00    -0.352 N 
HETATM   22  C18 UNL     1      -3.946   0.830   2.454  1.00  0.00     0.152 C 
HETATM   23  C19 UNL     1      -1.630   0.444   1.739  1.00  0.00     0.161 C 
HETATM   24  C20 UNL     1      -0.706  -0.277   0.876  1.00  0.00     0.062 C 
HETATM   25  C21 UNL     1       0.057   0.504  -0.139  1.00  0.00     0.069 C 
HETATM   26  C22 UNL     1       1.032   1.505   0.302  1.00  0.00     0.089 C 
HETATM   27  C23 UNL     1       2.017   1.162   1.330  1.00  0.00     0.111 C 
HETATM   28  N4  UNL     1       3.121   0.343   1.323  1.00  0.00    -0.370 N 
ATOM     29  H4  UNL     1       3.054  -0.388   2.032  1.00  0.00     0.161 HD
ENDROOT
BRANCH   1  30
HETATM   30  C3  UNL     1       4.666   1.254  -0.433  1.00  0.00     0.051 C 
BRANCH  30  31
HETATM   31  C2  UNL     1       4.550   2.651   0.029  1.00  0.00    -0.035 C 
HETATM   32  C1  UNL     1       5.616   3.438   0.002  1.00  0.00     0.007 C 
ENDBRANCH  30  31
ENDBRANCH   1  30
BRANCH  27  33
HETATM   33  O3  UNL     1       1.781   1.762   2.465  1.00  0.00    -0.350 OA
ATOM     34  H3  UNL     1       2.420   1.539   3.132  1.00  0.00     0.219 HD
ENDBRANCH  27  33
BRANCH  23  35
HETATM   35  O2  UNL     1      -1.306   0.548   3.002  1.00  0.00    -0.345 OA
ATOM     36  H2  UNL     1      -0.476   0.119   3.174  1.00  0.00     0.219 HD
ENDBRANCH  23  35
TORSDOF 4
