REMARK  0 active torsions:
REMARK  status: ('A' for Active; 'I' for Inactive)
ROOT
HETATM    1  F1  UNL     1       1.799   1.437   1.238  1.00  0.00    -0.238 F 
HETATM    2  C1  UNL     1       0.995   1.002   0.216  1.00  0.00     0.274 C 
HETATM    3  C2  UNL     1       1.511  -0.221  -0.440  1.00  0.00     0.113 C 
HETATM    4  S1  UNL     1       3.061  -0.506  -0.830  1.00  0.00    -0.062 SA
HETATM    5  N1  UNL     1       0.448  -1.127  -0.684  1.00  0.00    -0.348 N 
ATOM      6  H1  UNL     1       0.519  -2.101  -0.980  1.00  0.00     0.163 HD
HETATM    7  C3  UNL     1      -0.780  -0.361  -0.419  1.00  0.00     0.207 C 
HETATM    8  S2  UNL     1      -2.152  -1.458  -0.048  1.00  0.00    -0.042 SA
HETATM    9 CL1  UNL     1      -1.056   0.660  -1.822  1.00  0.00    -0.079 Cl
HETATM   10  C4  UNL     1      -0.334   0.461   0.763  1.00  0.00     0.199 C 
HETATM   11 CL2  UNL     1      -1.447   1.745   1.177  1.00  0.00    -0.093 Cl
HETATM   12 CL3  UNL     1       0.056  -0.603   2.119  1.00  0.00    -0.093 Cl
ENDROOT
TORSDOF 0
