REMARK  4 active torsions:
REMARK  status: ('A' for Active; 'I' for Inactive)
REMARK       I    between atoms: C1_2  and  N1_3 
REMARK    1  A    between atoms: C1_2  and  C2_9 
REMARK    2  A    between atoms: N1_3  and  S1_5 
REMARK    3  A    between atoms: C3_15  and  N4_16 
REMARK    4  A    between atoms: N4_16  and  C4_18 
ROOT
HETATM    1  C2  UNL     1      -1.246  -1.223  -0.394  1.00  0.00     0.404 C 
HETATM    2  N2  UNL     1      -0.648  -1.900   0.705  1.00  0.00    -0.238 N 
ATOM      3  H2  UNL     1      -0.950  -2.842   0.955  1.00  0.00     0.193 HD
HETATM    4  O5  UNL     1       0.281  -1.313   1.384  1.00  0.00    -0.161 OA
HETATM    5  N3  UNL     1       0.689  -0.117   1.075  1.00  0.00    -0.229 N 
ATOM      6  H3  UNL     1       1.093   0.486   1.791  1.00  0.00     0.194 HD
HETATM    7  C3  UNL     1       0.570   0.347  -0.262  1.00  0.00     0.415 C 
HETATM    8  N6  UNL     1      -0.279  -0.454  -1.107  1.00  0.00    -0.003 N 
ATOM      9  H61 UNL     1      -0.732   0.126  -1.813  1.00  0.00     0.285 HD
ATOM     10  H62 UNL     1       0.281  -1.055  -1.712  1.00  0.00     0.285 HD
ENDROOT
BRANCH   1  11
HETATM   11  C1  UNL     1      -2.399  -0.388   0.106  1.00  0.00     0.285 C 
HETATM   12  O1  UNL     1      -2.327   0.158   1.232  1.00  0.00    -0.268 OA
HETATM   13  N1  UNL     1      -3.566  -0.220  -0.683  1.00  0.00    -0.232 N 
ATOM     14  H1  UNL     1      -3.636  -0.656  -1.602  1.00  0.00     0.184 HD
BRANCH  13  15
HETATM   15  S1  UNL     1      -4.870   0.736  -0.063  1.00  0.00     0.211 S 
HETATM   16  O2  UNL     1      -4.926   0.495   1.410  1.00  0.00    -0.578 OA
HETATM   17  O3  UNL     1      -6.136   0.262  -0.757  1.00  0.00    -0.578 OA
HETATM   18  O4  UNL     1      -4.546   2.336  -0.346  1.00  0.00    -0.578 OA
ENDBRANCH  13  15
ENDBRANCH   1  11
BRANCH   7  19
HETATM   19  N4  UNL     1       1.825   0.618  -0.910  1.00  0.00    -0.325 N 
ATOM     20  H4  UNL     1       1.812   1.017  -1.848  1.00  0.00     0.165 HD
BRANCH  19  21
HETATM   21  C4  UNL     1       2.962   0.380  -0.361  1.00  0.00     0.147 A 
HETATM   22  N5  UNL     1       4.169   0.600  -0.879  1.00  0.00    -0.346 N 
HETATM   23  C5  UNL     1       5.224   0.290  -0.169  1.00  0.00     0.097 A 
ATOM     24  H5  UNL     1       4.269   1.002  -1.811  1.00  0.00     0.167 HD
HETATM   25  C6  UNL     1       5.030  -0.244   1.067  1.00  0.00     0.070 A 
HETATM   26  S2  UNL     1       3.324  -0.281   1.169  1.00  0.00    -0.065 SA
ENDBRANCH  19  21
ENDBRANCH   7  19
TORSDOF 4
