REMARK  7 active torsions:
REMARK  status: ('A' for Active; 'I' for Inactive)
REMARK    1  A    between atoms: O1_2  and  C2_3 
REMARK    2  A    between atoms: C6_8  and  O3_9 
REMARK    3  A    between atoms: C6_8  and  C7_11 
REMARK    4  A    between atoms: C7_11  and  C8_12 
REMARK    5  A    between atoms: C9_15  and  O5_17 
REMARK    6  A    between atoms: C11_19  and  O6_20 
REMARK    7  A    between atoms: C12_22  and  O7_23 
ROOT
HETATM    1  C2  UNL     1      -1.814   1.238   0.420  1.00  0.00     0.294 C 
HETATM    2  O2  UNL     1      -0.585   1.335  -0.182  1.00  0.00    -0.319 OA
HETATM    3  C3  UNL     1      -0.052   0.196  -0.683  1.00  0.00     0.203 C 
HETATM    4  C4  UNL     1       1.128   0.594  -1.583  1.00  0.00     0.077 C 
HETATM    5  C5  UNL     1       2.334   0.581  -0.658  1.00  0.00     0.074 C 
HETATM    6  C6  UNL     1       1.790  -0.058   0.569  1.00  0.00     0.166 C 
HETATM    7  O4  UNL     1       0.558  -0.616   0.241  1.00  0.00    -0.316 OA
HETATM    8  C9  UNL     1      -1.008  -0.564  -1.570  1.00  0.00     0.139 C 
HETATM    9  C10 UNL     1      -0.426  -1.826  -2.099  1.00  0.00     0.054 C 
HETATM   10  C11 UNL     1      -2.236  -0.890  -0.750  1.00  0.00     0.191 C 
HETATM   11  C12 UNL     1      -2.832   0.465  -0.374  1.00  0.00     0.205 C 
ENDROOT
BRANCH   8  12
HETATM   12  O5  UNL     1      -1.400   0.274  -2.600  1.00  0.00    -0.382 OA
ATOM     13  H5  UNL     1      -2.002  -0.204  -3.158  1.00  0.00     0.210 HD
ENDBRANCH   8  12
BRANCH   1  14
HETATM   14  O1  UNL     1      -1.776   0.687   1.693  1.00  0.00    -0.363 OA
HETATM   15  C1  UNL     1      -2.239   1.594   2.657  1.00  0.00     0.204 C 
ENDBRANCH   1  14
BRANCH   6  16
HETATM   16  O3  UNL     1       1.618   0.860   1.608  1.00  0.00    -0.365 OA
ATOM     17  H3  UNL     1       1.270   0.452   2.392  1.00  0.00     0.213 HD
ENDBRANCH   6  16
BRANCH   6  18
HETATM   18  C7  UNL     1       2.655  -1.171   1.104  1.00  0.00     0.079 C 
BRANCH  18  19
HETATM   19  C8  UNL     1       4.033  -0.719   1.471  1.00  0.00     0.091 C 
HETATM   20  S1  UNL     1       4.087   0.544   2.729  1.00  0.00    -0.097 SA
ENDBRANCH  18  19
ENDBRANCH   6  18
BRANCH  10  21
HETATM   21  O6  UNL     1      -3.111  -1.672  -1.456  1.00  0.00    -0.390 OA
ATOM     22  H6  UNL     1      -3.882  -1.877  -0.941  1.00  0.00     0.210 HD
ENDBRANCH  10  21
BRANCH  11  23
HETATM   23  O7  UNL     1      -3.923   0.220   0.435  1.00  0.00    -0.388 OA
ATOM     24  H7  UNL     1      -4.566  -0.268  -0.066  1.00  0.00     0.210 HD
ENDBRANCH  11  23
TORSDOF 7
