REMARK  4 active torsions:
REMARK  status: ('A' for Active; 'I' for Inactive)
REMARK    1  A    between atoms: C1_4  and  N2_5 
REMARK    2  A    between atoms: C1_4  and  C2_10 
REMARK    3  A    between atoms: N2_5  and  N3_7 
REMARK    4  A    between atoms: C2_10  and  N4_11 
ROOT
HETATM    1  N1  UNL     1       1.438   0.948  -0.732  1.00  0.00    -0.386 N 
ATOM      2  H11 UNL     1       0.864   1.212  -1.533  1.00  0.00     0.157 HD
ATOM      3  H12 UNL     1       2.345   1.373  -0.538  1.00  0.00     0.157 HD
HETATM    4  C1  UNL     1       0.931   0.042   0.001  1.00  0.00     0.125 C 
ENDROOT
BRANCH   4   5
HETATM    5  N2  UNL     1       1.740  -0.330   1.130  1.00  0.00    -0.294 N 
ATOM      6  H2  UNL     1       1.872  -1.311   1.376  1.00  0.00     0.187 HD
BRANCH   5   7
HETATM    7  N3  UNL     1       2.333   0.668   1.873  1.00  0.00    -0.344 N 
ATOM      8  H32 UNL     1       2.191   1.644   1.614  1.00  0.00     0.176 HD
ATOM      9  H31 UNL     1       2.907   0.404   2.674  1.00  0.00     0.176 HD
ENDBRANCH   5   7
ENDBRANCH   4   5
BRANCH   4  10
HETATM   10  C2  UNL     1      -0.359  -0.563  -0.275  1.00  0.00     0.182 C 
HETATM   11  C3  UNL     1      -1.520  -0.049   0.548  1.00  0.00     0.047 C 
HETATM   12  C4  UNL     1      -1.646   1.051  -0.523  1.00  0.00     0.006 C 
HETATM   13  C5  UNL     1      -1.072  -0.005  -1.471  1.00  0.00     0.047 C 
BRANCH  10  14
HETATM   14  N4  UNL     1      -0.269  -2.001  -0.409  1.00  0.00    -0.063 N 
ATOM     15  H43 UNL     1       0.421  -2.264  -1.113  1.00  0.00     0.275 HD
ATOM     16  H42 UNL     1       0.169  -2.422   0.411  1.00  0.00     0.275 HD
ATOM     17  H41 UNL     1      -1.176  -2.426  -0.603  1.00  0.00     0.275 HD
ENDBRANCH  10  14
ENDBRANCH   4  10
TORSDOF 4
