REMARK  7 active torsions:
REMARK  status: ('A' for Active; 'I' for Inactive)
REMARK    1  A    between atoms: C3_3  and  C4_4 
REMARK    2  A    between atoms: C13_13  and  O1_14 
REMARK    3  A    between atoms: C13_13  and  C14_16 
REMARK    4  A    between atoms: C14_16  and  C15_17 
REMARK    5  A    between atoms: C14_16  and  C17_20 
REMARK    6  A    between atoms: C15_17  and  O2_18 
REMARK    7  A    between atoms: C17_20  and  O4_22 
ROOT
HETATM    1  C1  UNL     1       5.949   0.022  -1.835  1.00  0.00     0.112 C 
HETATM    2  C2  UNL     1       4.757  -0.165  -0.980  1.00  0.00    -0.111 C 
HETATM    3  C3  UNL     1       3.802  -0.333  -0.277  1.00  0.00    -0.101 C 
ENDROOT
BRANCH   3   4
HETATM    4  C4  UNL     1       2.665  -0.554   0.578  1.00  0.00     0.073 C 
HETATM    5  C5  UNL     1       1.588  -1.392  -0.067  1.00  0.00     0.002 C 
HETATM    6  C6  UNL     1       0.588  -1.703   1.047  1.00  0.00     0.014 C 
HETATM    7  C12 UNL     1       0.922  -0.623  -1.156  1.00  0.00     0.014 C 
HETATM    8  C7  UNL     1      -0.102  -0.471   1.502  1.00  0.00     0.026 C 
HETATM    9  C8  UNL     1       1.047   0.362   2.144  1.00  0.00     0.014 C 
HETATM   10  C13 UNL     1      -0.703   0.430   0.501  1.00  0.00     0.096 C 
HETATM   11  C9  UNL     1       2.010   0.741   1.043  1.00  0.00     0.002 C 
HETATM   12  C10 UNL     1       1.381   1.479  -0.103  1.00  0.00     0.014 C 
HETATM   13  C11 UNL     1       0.226   0.620  -0.659  1.00  0.00     0.026 C 
BRANCH  10  14
HETATM   14  O1  UNL     1      -0.666   1.725   1.154  1.00  0.00    -0.384 OA
ATOM     15  H1  UNL     1      -1.053   2.305   0.509  1.00  0.00     0.211 HD
ENDBRANCH  10  14
BRANCH  10  16
HETATM   16  C14 UNL     1      -2.137   0.338   0.198  1.00  0.00     0.053 C 
BRANCH  16  17
HETATM   17  C15 UNL     1      -2.755  -0.875  -0.331  1.00  0.00     0.210 C 
BRANCH  17  18
HETATM   18  O2  UNL     1      -2.671  -1.993   0.477  1.00  0.00    -0.391 OA
HETATM   19  C16 UNL     1      -3.261  -3.109  -0.052  1.00  0.00     0.201 C 
ENDBRANCH  17  18
ENDBRANCH  16  17
BRANCH  16  20
HETATM   20  C17 UNL     1      -2.628   1.595  -0.472  1.00  0.00     0.290 C 
HETATM   21  O3  UNL     1      -1.900   2.593  -0.678  1.00  0.00    -0.260 OA
BRANCH  20  22
HETATM   22  O4  UNL     1      -3.946   1.695  -0.898  1.00  0.00    -0.323 OA
HETATM   23  C18 UNL     1      -4.447   2.859  -1.531  1.00  0.00     0.213 C 
ENDBRANCH  20  22
ENDBRANCH  16  20
ENDBRANCH  10  16
ENDBRANCH   3   4
TORSDOF 7
