REMARK  17 active torsions:
REMARK  status: ('A' for Active; 'I' for Inactive)
REMARK    1  A    between atoms: N2_3  and  S1_5 
REMARK    2  A    between atoms: S1_5  and  N3_7 
REMARK    3  A    between atoms: S1_5  and  N13_49 
REMARK    4  A    between atoms: N3_7  and  C2_9 
REMARK    5  A    between atoms: C2_9  and  C3_10 
REMARK    6  A    between atoms: C3_10  and  O2_11 
REMARK    7  A    between atoms: O2_11  and  C4_12 
REMARK    8  A    between atoms: C6_14  and  C7_15 
REMARK    9  A    between atoms: C7_15  and  O3_16 
REMARK   10  A    between atoms: C8_18  and  N4_19 
REMARK       I    between atoms: N4_19  and  C9_21 
REMARK   11  A    between atoms: C9_21  and  C10_23 
REMARK   12  A    between atoms: N5_25  and  C12_26 
REMARK   13  A    between atoms: C14_31  and  N8_32 
REMARK   14  A    between atoms: C15_37  and  N10_38 
REMARK   15  A    between atoms: C16_44  and  C17_45 
REMARK   16  A    between atoms: C17_45  and  O5_46 
REMARK   17  A    between atoms: N13_49  and  N14_51 
ROOT
HETATM    1  N1  UNL     1       4.785   4.715  -1.691  1.00  0.00    -0.171 NA
HETATM    2  C1  UNL     1       5.280   3.667  -1.706  1.00  0.00     0.192 C 
HETATM    3  N2  UNL     1       5.892   2.418  -1.733  1.00  0.00    -0.220 N 
ATOM      4  H2  UNL     1       5.797   1.817  -2.552  1.00  0.00     0.191 HD
ENDROOT
BRANCH   3   5
HETATM    5  S1  UNL     1       6.731   1.939  -0.492  1.00  0.00     0.221 S 
HETATM    6  O1  UNL     1       6.487   2.945   0.613  1.00  0.00    -0.204 OA
BRANCH   5   7
HETATM    7  N3  UNL     1       6.285   0.367   0.005  1.00  0.00    -0.316 N 
ATOM      8  H3  UNL     1       6.929  -0.292   0.441  1.00  0.00     0.172 HD
BRANCH   7   9
HETATM    9  C2  UNL     1       4.890   0.072  -0.261  1.00  0.00     0.158 C 
BRANCH   9  10
HETATM   10  C3  UNL     1       4.578  -1.334   0.207  1.00  0.00     0.191 C 
BRANCH  10  11
HETATM   11  O2  UNL     1       3.280  -1.724   0.004  1.00  0.00    -0.360 OA
BRANCH  11  12
HETATM   12  C4  UNL     1       2.315  -0.979   0.627  1.00  0.00     0.260 C 
HETATM   13  C5  UNL     1       1.337  -0.467  -0.393  1.00  0.00     0.069 C 
HETATM   14  C6  UNL     1       0.272  -1.451  -0.747  1.00  0.00     0.039 C 
HETATM   15  C8  UNL     1      -0.601  -1.642   0.504  1.00  0.00     0.122 C 
HETATM   16  C16 UNL     1       0.274  -1.317   1.677  1.00  0.00     0.171 C 
HETATM   17  O6  UNL     1       1.576  -1.791   1.514  1.00  0.00    -0.352 OA
BRANCH  14  18
HETATM   18  C7  UNL     1       0.819  -2.780  -1.211  1.00  0.00     0.171 C 
BRANCH  18  19
HETATM   19  O3  UNL     1       1.610  -2.612  -2.343  1.00  0.00    -0.400 OA
ATOM     20  H3  UNL     1       1.954  -3.448  -2.635  1.00  0.00     0.209 HD
ENDBRANCH  18  19
ENDBRANCH  14  18
BRANCH  15  21
HETATM   21  N4  UNL     1      -1.626  -0.607   0.412  1.00  0.00    -0.348 N 
HETATM   22  C9  UNL     1      -2.977  -1.022   0.313  1.00  0.00     0.271 C 
HETATM   23  O4  UNL     1      -3.292  -2.230   0.302  1.00  0.00    -0.266 OA
ATOM     24  H4  UNL     1      -1.378   0.382   0.419  1.00  0.00     0.163 HD
BRANCH  22  25
HETATM   25  C10 UNL     1      -4.000   0.012   0.223  1.00  0.00     0.131 A 
HETATM   26  C11 UNL     1      -5.353  -0.209   0.120  1.00  0.00     0.151 A 
HETATM   27  N5  UNL     1      -5.990   0.976   0.059  1.00  0.00    -0.242 N 
HETATM   28  N11 UNL     1      -5.057   1.913   0.123  1.00  0.00    -0.015 NA
HETATM   29  N12 UNL     1      -3.848   1.346   0.222  1.00  0.00    -0.277 N 
ATOM     30  H12 UNL     1      -2.960   1.844   0.286  1.00  0.00     0.184 HD
BRANCH  27  31
HETATM   31  C12 UNL     1      -7.394   1.186  -0.052  1.00  0.00     0.139 A 
HETATM   32  C13 UNL     1      -8.243   0.955   1.018  1.00  0.00     0.164 A 
HETATM   33  N6  UNL     1      -7.714   0.500   2.257  1.00  0.00    -0.080 NA
HETATM   34  N7  UNL     1      -9.548   1.167   0.859  1.00  0.00    -0.177 N 
HETATM   35  C14 UNL     1     -10.065   1.603  -0.319  1.00  0.00     0.678 A 
ATOM     36  H7  UNL     1     -10.177   0.997   1.644  1.00  0.00     0.185 HD
HETATM   37  N9  UNL     1      -9.264   1.839  -1.387  1.00  0.00    -0.175 N 
HETATM   38  C15 UNL     1      -7.948   1.629  -1.239  1.00  0.00     0.146 A 
ATOM     39  H9  UNL     1      -9.649   2.165  -2.273  1.00  0.00     0.186 HD
BRANCH  35  40
HETATM   40  N8  UNL     1     -11.321   1.797  -0.436  1.00  0.00    -0.234 N 
ATOM     41  H82 UNL     1     -11.924   1.619   0.368  1.00  0.00     0.174 HD
ATOM     42  H81 UNL     1     -11.709   2.124  -1.321  1.00  0.00     0.174 HD
ENDBRANCH  35  40
BRANCH  38  43
HETATM   43  N10 UNL     1      -7.170   1.846  -2.238  1.00  0.00    -0.383 N 
ATOM     44 2H10 UNL     1      -6.169   1.686  -2.125  1.00  0.00     0.157 HD
ATOM     45 1H10 UNL     1      -7.579   2.173  -3.114  1.00  0.00     0.157 HD
ENDBRANCH  38  43
ENDBRANCH  27  31
ENDBRANCH  22  25
ENDBRANCH  15  21
BRANCH  16  46
HETATM   46  C17 UNL     1      -0.279  -2.043   2.901  1.00  0.00     0.198 C 
BRANCH  46  47
HETATM   47  O5  UNL     1      -1.579  -1.646   3.168  1.00  0.00    -0.398 OA
ATOM     48  H5  UNL     1      -1.923  -2.098   3.930  1.00  0.00     0.209 HD
ENDBRANCH  46  47
ENDBRANCH  16  46
ENDBRANCH  11  12
ENDBRANCH  10  11
ENDBRANCH   9  10
ENDBRANCH   7   9
ENDBRANCH   5   7
BRANCH   5  49
HETATM   49  N13 UNL     1       8.413   1.964  -0.823  1.00  0.00    -0.218 N 
ATOM     50  H13 UNL     1       8.811   2.712  -1.391  1.00  0.00     0.200 HD
BRANCH  49  51
HETATM   51  N14 UNL     1       9.229   0.968  -0.318  1.00  0.00    -0.235 N 
HETATM   52  C18 UNL     1       9.849   0.989   0.856  1.00  0.00     0.224 A 
HETATM   53  N15 UNL     1      10.534  -0.183   0.934  1.00  0.00    -0.293 N 
HETATM   54  N16 UNL     1      10.349  -0.900  -0.144  1.00  0.00    -0.293 N 
ATOM     55  H15 UNL     1      11.113  -0.464   1.725  1.00  0.00     0.187 HD
HETATM   56  C19 UNL     1       9.527  -0.189  -0.947  1.00  0.00     0.224 A 
ATOM     57  H16 UNL     1      10.748  -1.818  -0.341  1.00  0.00     0.187 HD
ENDBRANCH  49  51
ENDBRANCH   5  49
ENDBRANCH   3   5
TORSDOF 17
