REMARK  6 active torsions:
REMARK  status: ('A' for Active; 'I' for Inactive)
REMARK    1  A    between atoms: C2_2  and  C3_3 
REMARK    2  A    between atoms: C3_3  and  C4_4 
REMARK    3  A    between atoms: C3_3  and  N1_6 
REMARK    4  A    between atoms: N1_6  and  C5_7 
REMARK    5  A    between atoms: N1_6  and  C9_11 
REMARK    6  A    between atoms: C5_7  and  C6_8 
ROOT
HETATM    1  N1  UNL     1      -0.494   0.169  -0.222  1.00  0.00    -0.383 N 
ENDROOT
BRANCH   1   2
HETATM    2  C3  UNL     1      -1.190  -0.928   0.312  1.00  0.00     0.093 C 
BRANCH   2   3
HETATM    3  C2  UNL     1      -1.954  -1.719  -0.717  1.00  0.00     0.021 C 
HETATM    4  C1  UNL     1      -2.345  -3.105  -0.381  1.00  0.00     0.007 C 
ENDBRANCH   2   3
BRANCH   2   5
HETATM    5  C4  UNL     1      -2.005  -0.780   1.526  1.00  0.00     0.111 C 
HETATM    6  S1  UNL     1      -2.430  -2.327   2.351  1.00  0.00    -0.096 SA
ENDBRANCH   2   5
ENDBRANCH   1   2
BRANCH   1   7
HETATM    7  C5  UNL     1      -1.107   1.239  -0.856  1.00  0.00     0.064 C 
BRANCH   7   8
HETATM    8  C6  UNL     1      -1.923   2.209  -0.066  1.00  0.00     0.024 A 
HETATM    9  C7  UNL     1      -2.518   3.312  -0.968  1.00  0.00     0.010 A 
HETATM   10  C8  UNL     1      -3.360   2.433  -0.145  1.00  0.00     0.010 A 
ENDBRANCH   7   8
ENDBRANCH   1   7
BRANCH   1  11
HETATM   11  C9  UNL     1       0.905   0.215  -0.151  1.00  0.00     0.084 C 
HETATM   12  C10 UNL     1       1.490   0.247   1.239  1.00  0.00     0.025 C 
HETATM   13  C11 UNL     1       2.867   0.921   1.138  1.00  0.00     0.002 C 
HETATM   14  C12 UNL     1       3.871  -0.164   0.874  1.00  0.00     0.000 C 
HETATM   15  C13 UNL     1       4.108  -0.368  -0.578  1.00  0.00     0.000 C 
HETATM   16  C14 UNL     1       2.944  -0.195  -1.483  1.00  0.00     0.002 C 
HETATM   17  C15 UNL     1       1.652  -0.817  -0.992  1.00  0.00     0.025 C 
ENDBRANCH   1  11
TORSDOF 6
