REMARK  6 active torsions:
REMARK  status: ('A' for Active; 'I' for Inactive)
REMARK    1  A    between atoms: C2_3  and  C3_4 
REMARK    2  A    between atoms: C3_4  and  C4_5 
REMARK    3  A    between atoms: C4_5  and  C5_6 
REMARK    4  A    between atoms: C5_6  and  C6_7 
REMARK    5  A    between atoms: C8_9  and  N2_10 
REMARK    6  A    between atoms: N2_10  and  C9_13 
ROOT
HETATM    1  N1  UNL     1       6.123   2.874   0.128  1.00  0.00    -0.197 NA
HETATM    2  C1  UNL     1       6.061   1.797  -0.295  1.00  0.00     0.059 C 
HETATM    3  C2  UNL     1       6.006   0.439  -0.837  1.00  0.00     0.124 C 
ENDROOT
BRANCH   3   4
HETATM    4  C3  UNL     1       5.071  -0.444  -0.070  1.00  0.00     0.014 C 
BRANCH   4   5
HETATM    5  C4  UNL     1       3.641   0.042  -0.054  1.00  0.00     0.001 C 
BRANCH   5   6
HETATM    6  C5  UNL     1       2.867  -0.976   0.790  1.00  0.00     0.005 C 
BRANCH   6   7
HETATM    7  C6  UNL     1       1.426  -0.612   0.899  1.00  0.00    -0.011 C 
HETATM    8  C7  UNL     1       0.644  -0.534  -0.410  1.00  0.00     0.037 C 
HETATM    9  C8  UNL     1      -0.496  -1.259   0.306  1.00  0.00     0.187 C 
HETATM   10  C16 UNL     1       0.568  -1.808   1.265  1.00  0.00     0.037 C 
BRANCH   9  11
HETATM   11  N2  UNL     1      -1.436  -0.396   0.947  1.00  0.00    -0.066 N 
ATOM     12  H22 UNL     1      -2.086  -0.926   1.527  1.00  0.00     0.278 HD
ATOM     13  H21 UNL     1      -0.988   0.162   1.673  1.00  0.00     0.278 HD
BRANCH  11  14
HETATM   14  C9  UNL     1      -2.130   0.429   0.021  1.00  0.00     0.190 C 
HETATM   15  C10 UNL     1      -3.008  -0.370  -0.940  1.00  0.00     0.038 C 
HETATM   16  C11 UNL     1      -4.409  -0.345  -0.380  1.00  0.00    -0.012 C 
HETATM   17  C12 UNL     1      -5.067   0.944  -0.843  1.00  0.00     0.005 C 
HETATM   18  C15 UNL     1      -4.140   0.075   1.074  1.00  0.00     0.011 C 
HETATM   19  C13 UNL     1      -4.000   1.938  -0.353  1.00  0.00     0.007 C 
HETATM   20  C14 UNL     1      -3.218   1.253   0.710  1.00  0.00     0.017 C 
ENDBRANCH  11  14
ENDBRANCH   9  11
ENDBRANCH   6   7
ENDBRANCH   5   6
ENDBRANCH   4   5
ENDBRANCH   3   4
TORSDOF 6
