REMARK  14 active torsions:
REMARK  status: ('A' for Active; 'I' for Inactive)
REMARK    1  A    between atoms: C2_2  and  C3_3 
REMARK    2  A    between atoms: C3_3  and  C4_4 
REMARK    3  A    between atoms: C4_4  and  N1_5 
REMARK    4  A    between atoms: C4_4  and  C27_38 
REMARK       I    between atoms: N1_5  and  C5_7 
REMARK    5  A    between atoms: C5_7  and  C6_9 
REMARK    6  A    between atoms: N2_13  and  C10_14 
REMARK    7  A    between atoms: C10_14  and  C11_15 
REMARK    8  A    between atoms: C10_14  and  C15_22 
REMARK    9  A    between atoms: C11_15  and  C12_16 
REMARK   10  A    between atoms: C12_16  and  S1_17 
REMARK   11  A    between atoms: S1_17  and  C13_20 
REMARK       I    between atoms: C15_22  and  N3_24 
REMARK   12  A    between atoms: C23_32  and  C24_33 
REMARK   13  A    between atoms: C27_38  and  O7_39 
REMARK   14  A    between atoms: C27_38  and  C28_41 
ROOT
HETATM    1  C10 UNL     1       0.875   1.214   0.202  1.00  0.00     0.315 C 
ENDROOT
BRANCH   1   2
HETATM    2  N2  UNL     1      -0.200   0.751   1.099  1.00  0.00     0.103 N 
HETATM    3  C9  UNL     1       0.236  -0.519   1.622  1.00  0.00     0.273 C 
HETATM    4  C8  UNL     1      -0.833  -1.586   1.498  1.00  0.00     0.031 C 
HETATM    5  C7  UNL     1      -1.096  -1.718   0.018  1.00  0.00     0.017 C 
HETATM    6  C6  UNL     1      -1.686  -0.429  -0.471  1.00  0.00     0.106 C 
HETATM    7  C26 UNL     1      -1.469   0.710   0.476  1.00  0.00     0.287 C 
BRANCH   6   8
HETATM    8  C5  UNL     1      -3.110  -0.643  -0.795  1.00  0.00     0.224 C 
HETATM    9  N1  UNL     1      -4.092  -1.019   0.125  1.00  0.00    -0.353 N 
ATOM     10  H1  UNL     1      -3.815  -1.159   1.097  1.00  0.00     0.163 HD
HETATM   11  O1  UNL     1      -3.486  -0.477  -1.997  1.00  0.00    -0.273 OA
BRANCH   9  12
HETATM   12  C4  UNL     1      -5.513  -1.225  -0.236  1.00  0.00     0.123 C 
BRANCH  12  13
HETATM   13  C3  UNL     1      -6.468  -0.415   0.539  1.00  0.00     0.028 C 
BRANCH  13  14
HETATM   14  C2  UNL     1      -7.861  -0.501   0.015  1.00  0.00    -0.002 C 
HETATM   15  C1  UNL     1      -8.859   0.258   0.849  1.00  0.00     0.005 C 
ENDBRANCH  13  14
ENDBRANCH  12  13
BRANCH  12  16
HETATM   16  C27 UNL     1      -5.726  -2.701   0.018  1.00  0.00     0.241 C 
BRANCH  16  17
HETATM   17  O7  UNL     1      -4.795  -3.391  -0.625  1.00  0.00    -0.383 OA
ATOM     18  H7  UNL     1      -4.929  -4.318  -0.465  1.00  0.00     0.210 HD
ENDBRANCH  16  17
BRANCH  16  19
HETATM   19  C28 UNL     1      -6.640  -3.433   0.753  1.00  0.00     0.205 C 
HETATM   20  O8  UNL     1      -7.498  -3.045   1.557  1.00  0.00    -0.646 OA
HETATM   21  O9  UNL     1      -6.634  -4.855   0.598  1.00  0.00    -0.646 OA
ENDBRANCH  16  19
ENDBRANCH  12  16
ENDBRANCH   9  12
ENDBRANCH   6   8
ENDBRANCH   1   2
BRANCH   1  22
HETATM   22  C11 UNL     1       0.598   2.742   0.111  1.00  0.00     0.060 C 
BRANCH  22  23
HETATM   23  C12 UNL     1       1.585   3.456  -0.729  1.00  0.00     0.143 C 
BRANCH  23  24
HETATM   24  S1  UNL     1       1.290   5.184  -0.760  1.00  0.00     0.144 S 
HETATM   25  O2  UNL     1       1.541   5.781   0.636  1.00  0.00    -0.228 OA
HETATM   26  O3  UNL     1       2.364   5.874  -1.615  1.00  0.00    -0.228 OA
BRANCH  24  27
HETATM   27  C13 UNL     1      -0.251   5.709  -1.386  1.00  0.00     0.136 C 
HETATM   28  C14 UNL     1      -1.393   5.210  -0.554  1.00  0.00     0.021 C 
ENDBRANCH  24  27
ENDBRANCH  23  24
ENDBRANCH  22  23
ENDBRANCH   1  22
BRANCH   1  29
HETATM   29  C15 UNL     1       2.197   0.988   0.799  1.00  0.00     0.253 C 
HETATM   30  O4  UNL     1       2.242   1.079   2.079  1.00  0.00    -0.271 OA
HETATM   31  N3  UNL     1       3.408   0.686   0.148  1.00  0.00    -0.349 N 
HETATM   32  C16 UNL     1       3.582   0.487  -1.269  1.00  0.00     0.126 C 
HETATM   33  C25 UNL     1       4.632   0.556   0.936  1.00  0.00     0.141 C 
HETATM   34  C17 UNL     1       4.944  -0.169  -1.495  1.00  0.00     0.030 C 
HETATM   35  C18 UNL     1       5.046  -1.377  -0.598  1.00  0.00    -0.024 C 
HETATM   36  C19 UNL     1       3.795  -2.223  -0.809  1.00  0.00     0.010 C 
HETATM   37  C22 UNL     1       6.190  -2.264  -1.023  1.00  0.00     0.010 C 
HETATM   38  C23 UNL     1       5.091  -0.911   0.814  1.00  0.00     0.113 C 
HETATM   39  C20 UNL     1       4.242  -3.654  -0.585  1.00  0.00     0.001 C 
HETATM   40  C21 UNL     1       5.732  -3.685  -0.840  1.00  0.00     0.001 C 
BRANCH  38  41
HETATM   41  C24 UNL     1       6.389  -1.069   1.496  1.00  0.00     0.179 C 
HETATM   42  O5  UNL     1       6.502  -1.868   2.462  1.00  0.00    -0.648 OA
HETATM   43  O6  UNL     1       7.503  -0.337   1.079  1.00  0.00    -0.648 OA
ENDBRANCH  38  41
ENDBRANCH   1  29
TORSDOF 14
