REMARK  12 active torsions:
REMARK  status: ('A' for Active; 'I' for Inactive)
REMARK    1  A    between atoms: N1_2  and  C2_5 
REMARK    2  A    between atoms: C2_5  and  C3_6 
REMARK       I    between atoms: C3_6  and  N2_8 
REMARK       I    between atoms: N2_8  and  C4_10 
REMARK    3  A    between atoms: C4_10  and  C5_12 
REMARK    4  A    between atoms: C5_12  and  C6_13 
REMARK    5  A    between atoms: C5_12  and  C12_21 
REMARK    6  A    between atoms: C6_13  and  C7_14 
REMARK       I    between atoms: C12_21  and  N4_23 
REMARK    7  A    between atoms: C16_27  and  C17_28 
REMARK       I    between atoms: C17_28  and  N5_30 
REMARK    8  A    between atoms: N5_30  and  C18_32 
REMARK    9  A    between atoms: C18_32  and  C19_33 
REMARK   10  A    between atoms: C18_32  and  C23_37 
REMARK   11  A    between atoms: C19_33  and  C20_34 
REMARK   12  A    between atoms: C23_37  and  C24_39 
ROOT
HETATM    1  C12 UNL     1      -1.089  -0.125   0.854  1.00  0.00     0.233 C 
HETATM    2  O3  UNL     1      -1.324  -0.622  -0.262  1.00  0.00    -0.272 OA
HETATM    3  N4  UNL     1       0.045  -0.502   1.587  1.00  0.00    -0.337 N 
HETATM    4  C13 UNL     1       0.516  -0.118   2.874  1.00  0.00     0.132 C 
HETATM    5  C14 UNL     1       1.459  -1.184   3.331  1.00  0.00     0.019 A 
HETATM    6  C15 UNL     1       1.593  -2.201   2.209  1.00  0.00     0.032 A 
HETATM    7  C16 UNL     1       1.053  -1.449   1.058  1.00  0.00     0.184 C 
HETATM    8  C25 UNL     1       0.903  -2.543   3.447  1.00  0.00    -0.036 A 
HETATM    9  C26 UNL     1       1.681  -3.450   4.414  1.00  0.00     0.016 C 
HETATM   10  C27 UNL     1      -0.581  -2.753   3.545  1.00  0.00     0.016 C 
ENDROOT
BRANCH   1  11
HETATM   11  C5  UNL     1      -2.114   0.909   1.339  1.00  0.00     0.170 C 
BRANCH  11  12
HETATM   12  C4  UNL     1      -3.363   0.712   0.601  1.00  0.00     0.237 C 
HETATM   13  N2  UNL     1      -3.861  -0.625   0.355  1.00  0.00    -0.295 N 
HETATM   14  C3  UNL     1      -5.039  -0.874  -0.372  1.00  0.00     0.260 C 
ATOM     15  H2  UNL     1      -3.336  -1.418   0.724  1.00  0.00     0.171 HD
HETATM   16  O1  UNL     1      -5.705   0.080  -0.827  1.00  0.00    -0.270 OA
HETATM   17  O2  UNL     1      -4.082   1.631   0.142  1.00  0.00    -0.272 OA
BRANCH  14  18
HETATM   18  C2  UNL     1      -5.493  -2.269  -0.603  1.00  0.00     0.205 A 
HETATM   19  C28 UNL     1      -4.462  -3.222  -1.050  1.00  0.00     0.052 A 
HETATM   20  C29 UNL     1      -5.036  -3.317   0.359  1.00  0.00     0.052 A 
BRANCH  18  21
HETATM   21  N1  UNL     1      -6.868  -2.416  -1.027  1.00  0.00    -0.061 N 
HETATM   22  C1  UNL     1      -7.306  -3.773  -1.143  1.00  0.00     0.268 C 
ATOM     23  H12 UNL     1      -7.027  -1.914  -1.901  1.00  0.00     0.278 HD
ATOM     24  H11 UNL     1      -7.489  -1.893  -0.410  1.00  0.00     0.278 HD
ENDBRANCH  18  21
ENDBRANCH  14  18
ENDBRANCH  11  12
BRANCH  11  25
HETATM   25  C6  UNL     1      -1.469   2.238   1.309  1.00  0.00     0.030 C 
BRANCH  25  26
HETATM   26  C7  UNL     1      -0.910   2.810   0.087  1.00  0.00     0.004 C 
HETATM   27  C8  UNL     1      -1.739   3.067  -1.104  1.00  0.00     0.008 C 
HETATM   28  C9  UNL     1      -0.931   3.882  -2.154  1.00  0.00     0.020 C 
HETATM   29  C10 UNL     1      -0.855   5.290  -1.590  1.00  0.00     0.113 C 
HETATM   30  N3  UNL     1      -0.980   5.252  -0.158  1.00  0.00    -0.421 N 
HETATM   31  C11 UNL     1      -0.282   4.175   0.478  1.00  0.00     0.118 C 
ATOM     32  H3  UNL     1      -1.524   5.939   0.364  1.00  0.00     0.153 HD
ENDBRANCH  25  26
ENDBRANCH  11  25
ENDBRANCH   1  11
BRANCH   7  33
HETATM   33  C17 UNL     1       2.167  -0.603   0.507  1.00  0.00     0.241 C 
HETATM   34  O4  UNL     1       2.386   0.573   0.878  1.00  0.00    -0.271 OA
HETATM   35  N5  UNL     1       3.039  -1.131  -0.501  1.00  0.00    -0.347 N 
ATOM     36  H5  UNL     1       2.883  -2.082  -0.835  1.00  0.00     0.163 HD
BRANCH  35  37
HETATM   37  C18 UNL     1       4.141  -0.362  -1.068  1.00  0.00     0.164 C 
BRANCH  37  38
HETATM   38  C19 UNL     1       3.600   0.541  -2.176  1.00  0.00     0.038 C 
BRANCH  38  39
HETATM   39  C20 UNL     1       4.633   1.361  -2.861  1.00  0.00    -0.012 A 
HETATM   40  C21 UNL     1       4.011   2.285  -3.932  1.00  0.00     0.005 A 
HETATM   41  C22 UNL     1       4.737   2.835  -2.740  1.00  0.00     0.005 A 
ENDBRANCH  38  39
ENDBRANCH  37  38
BRANCH  37  42
HETATM   42  C23 UNL     1       5.300  -1.145  -1.447  1.00  0.00     0.236 C 
HETATM   43  O5  UNL     1       5.167  -2.336  -1.885  1.00  0.00    -0.285 OA
BRANCH  42  44
HETATM   44  C24 UNL     1       6.649  -0.648  -1.356  1.00  0.00     0.302 C 
HETATM   45  N6  UNL     1       7.788  -1.396  -1.777  1.00  0.00    -0.054 NA
HETATM   46  O6  UNL     1       6.853   0.512  -0.879  1.00  0.00    -0.268 OA
ENDBRANCH  42  44
ENDBRANCH  37  42
ENDBRANCH  35  37
ENDBRANCH   7  33
TORSDOF 12
