REMARK  5 active torsions:
REMARK  status: ('A' for Active; 'I' for Inactive)
REMARK    1  A    between atoms: C2_2  and  O1_5 
REMARK    2  A    between atoms: O1_5  and  C5_6 
REMARK       I    between atoms: C5_6  and  N1_8 
REMARK    3  A    between atoms: N3_12  and  C7_13 
REMARK    4  A    between atoms: C8_19  and  N6_20 
REMARK    5  A    between atoms: C9_23  and  N7_24 
ROOT
HETATM    1  C5  UNL     1      -1.546   0.664  -0.042  1.00  0.00     0.391 C 
HETATM    2  O2  UNL     1      -1.572   1.882  -0.237  1.00  0.00    -0.236 OA
HETATM    3  N1  UNL     1      -0.321  -0.085  -0.099  1.00  0.00    -0.130 N 
HETATM    4  N2  UNL     1       0.891   0.359  -0.348  1.00  0.00    -0.114 N 
ATOM      5  H2  UNL     1       1.132   1.331  -0.542  1.00  0.00     0.206 HD
HETATM    6  C6  UNL     1       1.768  -0.664  -0.309  1.00  0.00     0.746 A 
HETATM    7  N3  UNL     1       3.072  -1.035  -0.439  1.00  0.00     0.048 N 
HETATM    8  C9  UNL     1       3.191  -2.372  -0.238  1.00  0.00     0.714 A 
HETATM    9  N8  UNL     1       1.950  -2.810   0.015  1.00  0.00    -0.106 N 
ATOM     10  H8  UNL     1       1.698  -3.779   0.210  1.00  0.00     0.207 HD
HETATM   11  N9  UNL     1       1.100  -1.797  -0.026  1.00  0.00    -0.013 N 
HETATM   12  C10 UNL     1      -0.189  -1.412   0.099  1.00  0.00     0.387 A 
HETATM   13  O4  UNL     1      -1.153  -2.177   0.365  1.00  0.00    -0.242 OA
ENDROOT
BRANCH   7  14
HETATM   14  C7  UNL     1       4.134  -0.159  -0.737  1.00  0.00     0.214 A 
HETATM   15  N4  UNL     1       4.483   0.306  -1.941  1.00  0.00    -0.220 N 
HETATM   16  O3  UNL     1       5.525   1.097  -1.807  1.00  0.00    -0.153 OA
ATOM     17  H4  UNL     1       4.017   0.083  -2.821  1.00  0.00     0.198 HD
HETATM   18  N5  UNL     1       5.886   1.177  -0.557  1.00  0.00    -0.222 N 
HETATM   19  C8  UNL     1       5.022   0.390   0.154  1.00  0.00     0.169 A 
ATOM     20  H5  UNL     1       6.663   1.721  -0.182  1.00  0.00     0.198 HD
BRANCH  19  21
HETATM   21  N6  UNL     1       5.067   0.223   1.413  1.00  0.00    -0.381 N 
ATOM     22  H62 UNL     1       4.423  -0.364   1.943  1.00  0.00     0.157 HD
ATOM     23  H61 UNL     1       5.727   0.631   2.075  1.00  0.00     0.157 HD
ENDBRANCH  19  21
ENDBRANCH   7  14
BRANCH   8  24
HETATM   24  N7  UNL     1       4.292  -3.078  -0.283  1.00  0.00    -0.232 N 
ATOM     25  H72 UNL     1       5.237  -2.745  -0.476  1.00  0.00     0.174 HD
ATOM     26  H71 UNL     1       4.381  -4.083  -0.132  1.00  0.00     0.174 HD
ENDBRANCH   8  24
BRANCH   1  27
HETATM   27  O1  UNL     1      -2.741   0.022   0.237  1.00  0.00    -0.292 OA
BRANCH  27  28
HETATM   28  C2  UNL     1      -3.929   0.750   0.292  1.00  0.00     0.061 C 
HETATM   29  C1  UNL     1      -4.261   1.450  -1.001  1.00  0.00     0.046 C 
HETATM   30  C3  UNL     1      -5.048  -0.249   0.619  1.00  0.00     0.046 C 
HETATM   31  C4  UNL     1      -3.951   1.778   1.395  1.00  0.00     0.046 C 
ENDBRANCH  27  28
ENDBRANCH   1  27
TORSDOF 5
