REMARK  4 active torsions:
REMARK  status: ('A' for Active; 'I' for Inactive)
REMARK    1  A    between atoms: N1_2  and  C2_4 
REMARK    2  A    between atoms: C5_9  and  C6_10 
REMARK    3  A    between atoms: C7_11  and  C8_12 
REMARK    4  A    between atoms: C13_21  and  C14_22 
ROOT
HETATM    1  C8  UNL     1      -0.241  -0.154  -1.659  1.00  0.00     0.024 A 
HETATM    2  C9  UNL     1      -0.561  -0.457  -2.955  1.00  0.00     0.069 A 
HETATM    3  C10 UNL     1      -1.838  -0.807  -3.356  1.00  0.00     0.106 A 
HETATM    4  N3  UNL     1      -2.062  -1.074  -4.569  1.00  0.00    -0.385 N 
ATOM      5  H31 UNL     1      -3.003  -1.332  -4.865  1.00  0.00     0.157 HD
ATOM      6  H32 UNL     1      -1.322  -1.039  -5.270  1.00  0.00     0.157 HD
HETATM    7  N4  UNL     1      -2.807  -0.853  -2.438  1.00  0.00    -0.309 N 
HETATM    8  C11 UNL     1      -4.087  -1.188  -2.750  1.00  0.00     0.100 A 
HETATM    9  C12 UNL     1      -5.077  -1.231  -1.788  1.00  0.00     0.030 A 
HETATM   10  C13 UNL     1      -4.839  -0.941  -0.465  1.00  0.00    -0.020 A 
HETATM   11  C18 UNL     1      -3.544  -0.602  -0.152  1.00  0.00     0.042 A 
HETATM   12  C19 UNL     1      -2.571  -0.568  -1.138  1.00  0.00     0.042 A 
HETATM   13  C20 UNL     1      -1.274  -0.216  -0.751  1.00  0.00     0.050 A 
ENDROOT
BRANCH   1  14
HETATM   14  C7  UNL     1       1.068   0.213  -1.200  1.00  0.00    -0.060 C 
HETATM   15  C6  UNL     1       2.177   0.528  -0.834  1.00  0.00    -0.043 C 
BRANCH  15  16
HETATM   16  C5  UNL     1       3.503   0.909  -0.380  1.00  0.00     0.088 A 
HETATM   17  N2  UNL     1       4.428   0.117   0.192  1.00  0.00    -0.348 N 
HETATM   18  C4  UNL     1       5.545   0.819   0.482  1.00  0.00     0.048 A 
ATOM     19  H2  UNL     1       4.303  -0.878   0.381  1.00  0.00     0.167 HD
HETATM   20  C3  UNL     1       6.767   0.515   1.059  1.00  0.00     0.078 A 
HETATM   21  C22 UNL     1       5.357   2.129   0.089  1.00  0.00     0.009 A 
HETATM   22  C2  UNL     1       7.764   1.453   1.243  1.00  0.00     0.102 A 
HETATM   23  N7  UNL     1       7.550   2.738   0.845  1.00  0.00    -0.352 N 
HETATM   24  C23 UNL     1       6.377   3.037   0.290  1.00  0.00     0.103 A 
ATOM     25  H7  UNL     1       8.268   3.451   0.969  1.00  0.00     0.166 HD
HETATM   26  C21 UNL     1       4.083   2.159  -0.443  1.00  0.00     0.054 A 
BRANCH  22  27
HETATM   27  N1  UNL     1       8.882   1.113   1.785  1.00  0.00    -0.381 N 
HETATM   28  C1  UNL     1       9.175  -0.218   2.225  1.00  0.00     0.147 C 
ATOM     29  H1  UNL     1       9.597   1.830   1.907  1.00  0.00     0.160 HD
ENDBRANCH  22  27
ENDBRANCH  15  16
ENDBRANCH   1  14
BRANCH  10  30
HETATM   30  C14 UNL     1      -5.868  -0.979   0.565  1.00  0.00     0.008 A 
HETATM   31  C15 UNL     1      -5.657  -1.295   1.869  1.00  0.00     0.120 A 
HETATM   32  N5  UNL     1      -6.827  -1.225   2.508  1.00  0.00    -0.310 N 
HETATM   33  N6  UNL     1      -7.758  -0.877   1.651  1.00  0.00    -0.307 N 
ATOM     34  H5  UNL     1      -6.973  -1.411   3.500  1.00  0.00     0.186 HD
HETATM   35  C16 UNL     1      -9.176  -0.691   1.953  1.00  0.00     0.177 C 
HETATM   36  C17 UNL     1      -7.221  -0.712   0.431  1.00  0.00     0.123 A 
ENDBRANCH  10  30
TORSDOF 4
