REMARK  8 active torsions:
REMARK  status: ('A' for Active; 'I' for Inactive)
REMARK    1  A    between atoms: C3_4  and  N2_5 
REMARK    2  A    between atoms: C4_7  and  C5_8 
REMARK    3  A    between atoms: C10_17  and  S1_18 
REMARK    4  A    between atoms: S1_18  and  S2_19 
REMARK    5  A    between atoms: S2_19  and  C11_20 
REMARK    6  A    between atoms: C11_20  and  C12_21 
REMARK    7  A    between atoms: C12_21  and  C13_22 
REMARK    8  A    between atoms: C13_22  and  C14_23 
ROOT
HETATM    1  N1  UNL     1       6.480   3.527   1.774  1.00  0.00    -0.191 NA
HETATM    2  C1  UNL     1       5.355   3.257   1.668  1.00  0.00     0.109 C 
HETATM    3  C2  UNL     1       3.964   2.907   1.538  1.00  0.00     0.156 A 
HETATM    4  C3  UNL     1       3.541   1.659   1.129  1.00  0.00     0.133 A 
HETATM    5  N4  UNL     1       2.218   1.393   1.027  1.00  0.00    -0.321 N 
ATOM      6  H4  UNL     1       1.931   0.463   0.723  1.00  0.00     0.169 HD
HETATM    7  C10 UNL     1       1.266   2.298   1.308  1.00  0.00     0.159 A 
HETATM    8  N5  UNL     1       1.684   3.524   1.710  1.00  0.00    -0.302 N 
ATOM      9  H5  UNL     1       0.986   4.234   1.931  1.00  0.00     0.171 HD
HETATM   10  C20 UNL     1       2.987   3.836   1.827  1.00  0.00     0.272 A 
HETATM   11  O1  UNL     1       3.365   4.991   2.205  1.00  0.00    -0.266 OA
ENDROOT
BRANCH   4  12
HETATM   12  N2  UNL     1       4.539   0.709   0.834  1.00  0.00    -0.350 N 
HETATM   13  C4  UNL     1       4.374  -0.554   0.788  1.00  0.00     0.102 C 
ATOM     14  H2  UNL     1       5.476   1.063   0.640  1.00  0.00     0.166 HD
BRANCH  13  15
HETATM   15  C5  UNL     1       5.487  -1.432   0.471  1.00  0.00    -0.005 A 
HETATM   16  C6  UNL     1       6.741  -0.894   0.218  1.00  0.00     0.015 A 
HETATM   17  C7  UNL     1       7.833  -1.670  -0.087  1.00  0.00     0.018 A 
HETATM   18  C8  UNL     1       7.648  -3.038  -0.138  1.00  0.00     0.087 A 
HETATM   19  N3  UNL     1       6.424  -3.564   0.108  1.00  0.00    -0.374 N 
HETATM   20  C9  UNL     1       5.358  -2.794   0.407  1.00  0.00     0.100 A 
ATOM     21  H3  UNL     1       6.305  -4.576   0.066  1.00  0.00     0.164 HD
ENDBRANCH  13  15
ENDBRANCH   4  12
BRANCH   7  22
HETATM   22  S1  UNL     1      -0.486   1.959   1.177  1.00  0.00    -0.021 SA
BRANCH  22  23
HETATM   23  S2  UNL     1      -1.077   2.469  -0.803  1.00  0.00    -0.089 SA
BRANCH  23  24
HETATM   24  C11 UNL     1      -0.877   0.956  -1.812  1.00  0.00     0.086 C 
BRANCH  24  25
HETATM   25  C12 UNL     1      -1.919  -0.032  -1.265  1.00  0.00     0.011 C 
BRANCH  25  26
HETATM   26  C13 UNL     1      -3.307   0.549  -1.411  1.00  0.00     0.007 C 
BRANCH  26  27
HETATM   27  C14 UNL     1      -4.303  -0.446  -0.867  1.00  0.00     0.004 C 
HETATM   28  C15 UNL     1      -5.726   0.083  -0.985  1.00  0.00     0.006 C 
HETATM   29  C16 UNL     1      -6.646  -1.081  -0.630  1.00  0.00     0.000 C 
HETATM   30  C17 UNL     1      -6.486  -1.457   0.834  1.00  0.00     0.002 C 
HETATM   31  C18 UNL     1      -5.315  -0.733   1.415  1.00  0.00     0.020 C 
HETATM   32  C19 UNL     1      -4.070  -0.790   0.567  1.00  0.00     0.086 C 
HETATM   33 CL1  UNL     1      -3.411  -2.450   0.712  1.00  0.00    -0.125 Cl
ENDBRANCH  26  27
ENDBRANCH  25  26
ENDBRANCH  24  25
ENDBRANCH  23  24
ENDBRANCH  22  23
ENDBRANCH   7  22
TORSDOF 8
