REMARK  2 active torsions:
REMARK  status: ('A' for Active; 'I' for Inactive)
REMARK       I    between atoms: C2_4  and  N2_5 
REMARK       I    between atoms: C2_4  and  N4_9 
REMARK    1  A    between atoms: N4_9  and  N5_11 
REMARK    2  A    between atoms: N5_11  and  C4_12 
ROOT
HETATM    1  C1  UNL     1      -1.794  -1.955  -0.079  1.00  0.00     0.165 C 
HETATM    2  N1  UNL     1      -0.544  -1.298  -0.477  1.00  0.00    -0.228 N 
ATOM      3  H1  UNL     1       0.253  -1.854  -0.788  1.00  0.00     0.177 HD
HETATM    4  C2  UNL     1      -0.458   0.045  -0.428  1.00  0.00     0.711 C 
HETATM    5  N2  UNL     1      -1.591   0.780  -0.025  1.00  0.00    -0.124 N 
ATOM      6  H2  UNL     1      -2.486   0.294   0.040  1.00  0.00     0.197 HD
HETATM    7  C3  UNL     1      -1.550   2.148   0.291  1.00  0.00     0.196 C 
HETATM    8  N3  UNL     1      -1.486   3.314   0.512  1.00  0.00    -0.171 NA
HETATM    9  N4  UNL     1       0.781   0.603  -0.766  1.00  0.00    -0.062 N 
ATOM     10  H4  UNL     1       0.695   1.277  -1.527  1.00  0.00     0.221 HD
ENDROOT
BRANCH   9  11
HETATM   11  N5  UNL     1       2.007   0.488  -0.366  1.00  0.00    -0.282 NA
BRANCH  11  12
HETATM   12  C4  UNL     1       3.272   0.362   0.051  1.00  0.00     0.467 C 
HETATM   13  O1  UNL     1       3.951  -0.471   0.670  1.00  0.00    -0.266 OA
ENDBRANCH  11  12
ENDBRANCH   9  11
TORSDOF 2
