REMARK  5 active torsions:
REMARK  status: ('A' for Active; 'I' for Inactive)
REMARK    1  A    between atoms: C3_4  and  O1_5 
REMARK    2  A    between atoms: O1_5  and  C4_6 
REMARK    3  A    between atoms: C7_9  and  N2_10 
REMARK    4  A    between atoms: C11_18  and  C12_19 
REMARK    5  A    between atoms: C12_19  and  C13_21 
ROOT
HETATM    1  N1  UNL     1       1.941  -4.311  -2.891  1.00  0.00    -0.191 NA
HETATM    2  C1  UNL     1       1.419  -3.520  -2.228  1.00  0.00     0.108 C 
HETATM    3  C2  UNL     1       0.759  -2.558  -1.395  1.00  0.00     0.154 A 
HETATM    4  C3  UNL     1       1.476  -1.525  -0.843  1.00  0.00     0.216 A 
HETATM    5  O4  UNL     1       0.842  -0.672  -0.086  1.00  0.00    -0.298 OA
HETATM    6  C10 UNL     1      -0.440  -0.784   0.149  1.00  0.00     0.164 A 
HETATM    7  C11 UNL     1      -1.236  -1.800  -0.373  1.00  0.00     0.089 A 
HETATM    8  C19 UNL     1      -0.610  -2.724  -1.176  1.00  0.00     0.213 A 
HETATM    9  O6  UNL     1      -1.260  -3.657  -1.670  1.00  0.00    -0.286 OA
ENDROOT
BRANCH   4  10
HETATM   10  O1  UNL     1       2.839  -1.422  -1.111  1.00  0.00    -0.285 OA
BRANCH  10  11
HETATM   11  C4  UNL     1       3.620  -0.418  -0.551  1.00  0.00     0.100 A 
HETATM   12  C5  UNL     1       4.252   0.567  -1.275  1.00  0.00     0.041 A 
HETATM   13  C6  UNL     1       5.021   1.544  -0.647  1.00  0.00     0.039 A 
HETATM   14  C7  UNL     1       5.188   1.573   0.725  1.00  0.00     0.104 A 
HETATM   15  C8  UNL     1       4.553   0.583   1.446  1.00  0.00     0.062 A 
HETATM   16  C9  UNL     1       3.791  -0.386   0.830  1.00  0.00     0.070 A 
HETATM   17 CL1  UNL     1       3.041  -1.624   1.816  1.00  0.00    -0.081 Cl
BRANCH  14  18
HETATM   18  N2  UNL     1       5.976   2.577   1.341  1.00  0.00    -0.116 N 
HETATM   19  O2  UNL     1       6.554   3.483   0.755  1.00  0.00    -0.532 OA
HETATM   20  O3  UNL     1       6.104   2.530   2.709  1.00  0.00    -0.532 OA
ENDBRANCH  14  18
ENDBRANCH  10  11
ENDBRANCH   4  10
BRANCH   7  21
HETATM   21  C12 UNL     1      -2.666  -1.869  -0.055  1.00  0.00     0.198 C 
HETATM   22  O5  UNL     1      -3.154  -3.018   0.086  1.00  0.00    -0.286 OA
BRANCH  21  23
HETATM   23  C13 UNL     1      -3.495  -0.678   0.096  1.00  0.00     0.015 A 
HETATM   24  C14 UNL     1      -3.176   0.518  -0.506  1.00  0.00     0.017 A 
HETATM   25  C15 UNL     1      -3.966   1.660  -0.336  1.00  0.00     0.027 A 
HETATM   26  C16 UNL     1      -5.097   1.629   0.443  1.00  0.00     0.046 A 
HETATM   27  N3  UNL     1      -5.917   2.795   0.623  1.00  0.00    -0.102 NA
HETATM   28  C17 UNL     1      -5.436   0.437   1.056  1.00  0.00     0.027 A 
HETATM   29  C18 UNL     1      -4.642  -0.678   0.875  1.00  0.00     0.017 A 
ENDBRANCH  21  23
ENDBRANCH   7  21
TORSDOF 5
