REMARK  6 active torsions:
REMARK  status: ('A' for Active; 'I' for Inactive)
REMARK    1  A    between atoms: C4_7  and  C5_8 
REMARK    2  A    between atoms: C12_17  and  N2_18 
REMARK       I    between atoms: N2_18  and  C13_20 
REMARK    3  A    between atoms: C13_20  and  C14_22 
REMARK    4  A    between atoms: C14_22  and  N3_23 
REMARK    5  A    between atoms: C15_28  and  C16_29 
REMARK    6  A    between atoms: C19_32  and  N6_33 
ROOT
HETATM    1  N2  UNL     1       0.006   0.928   0.493  1.00  0.00    -0.322 N 
ATOM      2  H2  UNL     1       0.749   0.622  -0.135  1.00  0.00     0.169 HD
HETATM    3  C13 UNL     1       0.035   2.234   1.044  1.00  0.00     0.243 C 
HETATM    4  O1  UNL     1      -0.864   2.656   1.826  1.00  0.00    -0.271 OA
ENDROOT
BRANCH   1   5
HETATM    5  C12 UNL     1      -1.060   0.047   0.818  1.00  0.00     0.085 A 
HETATM    6  C1  UNL     1      -0.931  -0.779   1.913  1.00  0.00     0.116 A 
HETATM    7  N1  UNL     1       0.266  -0.715   2.674  1.00  0.00    -0.097 NA
HETATM    8  C2  UNL     1      -1.961  -1.637   2.236  1.00  0.00     0.182 A 
HETATM    9  F1  UNL     1      -1.835  -2.457   3.322  1.00  0.00    -0.201 F 
HETATM   10  C3  UNL     1      -3.095  -1.640   1.445  1.00  0.00     0.169 A 
HETATM   11  F2  UNL     1      -4.111  -2.480   1.756  1.00  0.00    -0.202 F 
HETATM   12  C4  UNL     1      -3.245  -0.820   0.342  1.00  0.00     0.043 A 
HETATM   13  C11 UNL     1      -2.209   0.036   0.027  1.00  0.00     0.077 A 
HETATM   14 CL1  UNL     1      -2.377   1.084  -1.367  1.00  0.00    -0.081 Cl
BRANCH  12  15
HETATM   15  C5  UNL     1      -4.471  -0.867  -0.460  1.00  0.00     0.018 A 
HETATM   16  C6  UNL     1      -5.541  -0.043  -0.147  1.00  0.00     0.015 A 
HETATM   17  C7  UNL     1      -6.707  -0.064  -0.883  1.00  0.00     0.001 A 
HETATM   18  C8  UNL     1      -6.845  -0.912  -1.961  1.00  0.00     0.003 A 
HETATM   19  C9  UNL     1      -5.793  -1.741  -2.291  1.00  0.00     0.043 A 
HETATM   20  C10 UNL     1      -4.627  -1.708  -1.541  1.00  0.00     0.127 A 
HETATM   21  F3  UNL     1      -3.594  -2.519  -1.862  1.00  0.00    -0.205 F 
ENDBRANCH  12  15
ENDBRANCH   1   5
BRANCH   3  22
HETATM   22  C14 UNL     1       1.134   3.164   0.720  1.00  0.00     0.274 C 
BRANCH  22  23
HETATM   23  N3  UNL     1       2.055   2.500  -0.174  1.00  0.00    -0.209 N 
HETATM   24  N4  UNL     1       2.078   2.445  -1.493  1.00  0.00    -0.224 N 
HETATM   25  N5  UNL     1       3.090   1.737  -1.933  1.00  0.00    -0.266 N 
ATOM     26  H4  UNL     1       1.392   2.898  -2.096  1.00  0.00     0.210 HD
HETATM   27  C15 UNL     1       3.759   1.310  -0.854  1.00  0.00     0.172 A 
ATOM     28  H5  UNL     1       3.323   1.548  -2.908  1.00  0.00     0.190 HD
HETATM   29  N7  UNL     1       3.109   1.788   0.218  1.00  0.00    -0.264 N 
ATOM     30  H7  UNL     1       3.382   1.630   1.188  1.00  0.00     0.190 HD
BRANCH  27  31
HETATM   31  C16 UNL     1       4.973   0.476  -0.836  1.00  0.00     0.124 A 
HETATM   32  C17 UNL     1       5.622  -0.004  -1.933  1.00  0.00     0.046 A 
HETATM   33  C18 UNL     1       6.689  -0.722  -1.441  1.00  0.00     0.066 A 
HETATM   34  C19 UNL     1       6.647  -0.649  -0.052  1.00  0.00     0.215 A 
HETATM   35  O4  UNL     1       5.598   0.080   0.235  1.00  0.00    -0.285 OA
BRANCH  34  36
HETATM   36  N6  UNL     1       7.552  -1.242   0.871  1.00  0.00    -0.090 N 
HETATM   37  O2  UNL     1       8.510  -1.913   0.469  1.00  0.00    -0.530 OA
HETATM   38  O3  UNL     1       7.373  -1.077   2.214  1.00  0.00    -0.530 OA
ENDBRANCH  34  36
ENDBRANCH  27  31
ENDBRANCH  22  23
ENDBRANCH   3  22
TORSDOF 6
