REMARK  7 active torsions:
REMARK  status: ('A' for Active; 'I' for Inactive)
REMARK    1  A    between atoms: N1_1  and  C1_4 
REMARK    2  A    between atoms: C2_10  and  N4_11 
REMARK    3  A    between atoms: C3_15  and  C4_16 
REMARK       I    between atoms: C4_16  and  N7_18 
REMARK    4  A    between atoms: N7_18  and  N8_20 
REMARK    5  A    between atoms: C6_25  and  C7_26 
REMARK    6  A    between atoms: C7_26  and  S1_27 
REMARK    7  A    between atoms: S1_27  and  C8_28 
ROOT
HETATM    1  N4  UNL     1      -1.562   1.294  -1.087  1.00  0.00    -0.220 N 
HETATM    2  N5  UNL     1      -2.809   1.125  -1.531  1.00  0.00    -0.013 NA
HETATM    3  N6  UNL     1      -3.354   0.107  -0.870  1.00  0.00    -0.277 N 
ATOM      4  H6  UNL     1      -4.299  -0.252  -1.003  1.00  0.00     0.184 HD
HETATM    5  C3  UNL     1      -2.433  -0.377   0.019  1.00  0.00     0.141 A 
HETATM    6  C6  UNL     1      -1.315   0.370  -0.151  1.00  0.00     0.077 A 
ENDROOT
BRANCH   1   7
HETATM    7  C2  UNL     1      -0.755   2.481  -1.234  1.00  0.00     0.193 A 
HETATM    8  C1  UNL     1      -1.428   3.720  -1.027  1.00  0.00     0.169 A 
HETATM    9  N2  UNL     1      -0.473   4.694  -1.110  1.00  0.00    -0.222 N 
HETATM   10  O1  UNL     1       0.643   4.101  -1.343  1.00  0.00    -0.153 OA
ATOM     11  H2  UNL     1      -0.618   5.698  -1.007  1.00  0.00     0.198 HD
HETATM   12  N3  UNL     1       0.488   2.804  -1.414  1.00  0.00    -0.221 N 
ATOM     13  H3  UNL     1       1.241   2.138  -1.587  1.00  0.00     0.198 HD
BRANCH   8  14
HETATM   14  N1  UNL     1      -2.656   3.987  -0.796  1.00  0.00    -0.381 N 
ATOM     15  H12 UNL     1      -3.138   4.874  -0.648  1.00  0.00     0.157 HD
ATOM     16  H11 UNL     1      -3.369   3.260  -0.734  1.00  0.00     0.157 HD
ENDBRANCH   8  14
ENDBRANCH   1   7
BRANCH   6  17
HETATM   17  C7  UNL     1       0.039   0.184   0.534  1.00  0.00     0.141 C 
BRANCH  17  18
HETATM   18  S1  UNL     1       1.230  -0.079  -0.788  1.00  0.00    -0.122 SA
BRANCH  18  19
HETATM   19  C8  UNL     1       2.851  -0.515  -0.318  1.00  0.00     0.022 A 
HETATM   20  C9  UNL     1       3.427  -0.255   0.913  1.00  0.00     0.022 A 
HETATM   21  C10 UNL     1       4.711  -0.628   1.183  1.00  0.00     0.025 A 
HETATM   22  C11 UNL     1       5.516  -1.287   0.277  1.00  0.00     0.035 A 
HETATM   23 CL3  UNL     1       7.180  -1.706   0.646  1.00  0.00    -0.084 Cl
HETATM   24  C12 UNL     1       4.976  -1.578  -0.955  1.00  0.00     0.049 A 
HETATM   25  C13 UNL     1       3.655  -1.197  -1.255  1.00  0.00     0.052 A 
HETATM   26 CL4  UNL     1       2.989  -1.583  -2.796  1.00  0.00    -0.083 Cl
ENDBRANCH  18  19
ENDBRANCH  17  18
ENDBRANCH   6  17
BRANCH   5  27
HETATM   27  C4  UNL     1      -2.746  -1.419   0.944  1.00  0.00     0.289 C 
HETATM   28  O2  UNL     1      -2.849  -1.115   2.195  1.00  0.00    -0.264 OA
HETATM   29  N7  UNL     1      -2.985  -2.764   0.535  1.00  0.00    -0.263 N 
ATOM     30  H7  UNL     1      -2.865  -3.037  -0.440  1.00  0.00     0.190 HD
BRANCH  29  31
HETATM   31  N8  UNL     1      -3.398  -3.732   1.520  1.00  0.00    -0.277 N 
HETATM   32  C5  UNL     1      -4.688  -3.676   1.762  1.00  0.00     0.190 C 
HETATM   33 CL1  UNL     1      -5.330  -4.784   2.971  1.00  0.00    -0.050 Cl
HETATM   34 CL2  UNL     1      -5.740  -2.582   0.936  1.00  0.00    -0.050 Cl
ATOM     35  H8  UNL     1      -2.762  -4.385   1.977  1.00  0.00     0.189 HD
ENDBRANCH  29  31
ENDBRANCH   5  27
TORSDOF 7
