REMARK  3 active torsions:
REMARK  status: ('A' for Active; 'I' for Inactive)
REMARK    1  A    between atoms: O1_2  and  C2_3 
REMARK    2  A    between atoms: C2_3  and  O2_4 
REMARK    3  A    between atoms: C9_12  and  N1_13 
ROOT
HETATM    1  C2  UNL     1       1.150   0.015   0.502  1.00  0.00     0.165 C 
HETATM    2  C4  UNL     1       0.924  -0.729  -0.727  1.00  0.00     0.074 C 
HETATM    3  C5  UNL     1      -0.361  -1.352  -1.051  1.00  0.00     0.001 C 
HETATM    4  C6  UNL     1      -1.259  -1.991  -0.105  1.00  0.00     0.049 C 
HETATM    5  C7  UNL     1      -2.239  -0.824  -0.254  1.00  0.00     0.110 C 
HETATM    6  F1  UNL     1      -3.537  -1.153  -0.461  1.00  0.00    -0.242 F 
HETATM    7  C8  UNL     1      -1.997   0.221   0.807  1.00  0.00     0.082 C 
HETATM    8  C9  UNL     1      -1.070   1.216   0.194  1.00  0.00     0.132 C 
HETATM    9  C10 UNL     1      -1.123   1.047  -1.294  1.00  0.00     0.047 C 
HETATM   10  C11 UNL     1      -1.456  -0.399  -1.454  1.00  0.00     0.032 C 
HETATM   11  C12 UNL     1       0.308   1.241   0.721  1.00  0.00     0.107 C 
ENDROOT
BRANCH   1  12
HETATM   12  O1  UNL     1       2.462   0.456   0.561  1.00  0.00    -0.360 OA
HETATM   13  C1  UNL     1       2.933   1.280  -0.388  1.00  0.00     0.205 C 
ENDBRANCH   1  12
BRANCH   1  14
HETATM   14  O2  UNL     1       1.072  -0.814   1.655  1.00  0.00    -0.360 OA
HETATM   15  C3  UNL     1       1.966  -1.852   1.645  1.00  0.00     0.205 C 
ENDBRANCH   1  14
BRANCH   8  16
HETATM   16  N1  UNL     1      -1.641   2.544   0.481  1.00  0.00    -0.070 N 
ATOM     17  H13 UNL     1      -2.607   2.645   0.170  1.00  0.00     0.275 HD
ATOM     18  H12 UNL     1      -1.811   2.706   1.474  1.00  0.00     0.275 HD
ATOM     19  H11 UNL     1      -1.007   3.224   0.062  1.00  0.00     0.275 HD
ENDBRANCH   8  16
TORSDOF 3
