REMARK  4 active torsions:
REMARK  status: ('A' for Active; 'I' for Inactive)
REMARK    1  A    between atoms: C2_2  and  O2_4 
REMARK    2  A    between atoms: O2_4  and  N1_5 
REMARK    3  A    between atoms: N1_5  and  C3_7 
REMARK    4  A    between atoms: N2_9  and  C4_11 
ROOT
HETATM    1  C3  UNL     1       1.210  -0.807  -0.176  1.00  0.00     0.195 C 
HETATM    2 CL1  UNL     1       1.451  -0.887   1.539  1.00  0.00    -0.043 Cl
HETATM    3  N2  UNL     1       0.034  -0.714  -0.645  1.00  0.00    -0.361 N 
ATOM      4  H2  UNL     1      -0.049  -0.671  -1.661  1.00  0.00     0.162 HD
ENDROOT
BRANCH   1   5
HETATM    5  N1  UNL     1       2.326  -0.846  -1.027  1.00  0.00    -0.232 N 
ATOM      6  H1  UNL     1       2.168  -0.748  -2.030  1.00  0.00     0.197 HD
BRANCH   5   7
HETATM    7  O2  UNL     1       3.621  -1.009  -0.589  1.00  0.00    -0.198 OA
BRANCH   7   8
HETATM    8  C2  UNL     1       4.453   0.092  -0.398  1.00  0.00     0.277 C 
HETATM    9  C1  UNL     1       5.859  -0.045   0.075  1.00  0.00     0.128 C 
HETATM   10  O1  UNL     1       3.935   1.225  -0.655  1.00  0.00    -0.264 OA
ENDBRANCH   7   8
ENDBRANCH   5   7
ENDBRANCH   1   5
BRANCH   3  11
HETATM   11  C4  UNL     1      -1.184  -0.663   0.096  1.00  0.00     0.084 C 
HETATM   12  C5  UNL     1      -1.358   0.680   0.789  1.00  0.00     0.025 C 
HETATM   13  C6  UNL     1      -2.760   0.740   1.383  1.00  0.00     0.002 C 
HETATM   14  C7  UNL     1      -3.804   0.791   0.293  1.00  0.00     0.000 C 
HETATM   15  C8  UNL     1      -3.178   0.383  -1.015  1.00  0.00     0.002 C 
HETATM   16  C9  UNL     1      -2.334  -0.865  -0.882  1.00  0.00     0.025 C 
ENDBRANCH   3  11
TORSDOF 4
