REMARK  2 active torsions:
REMARK  status: ('A' for Active; 'I' for Inactive)
REMARK    1  A    between atoms: N2_3  and  N3_5 
REMARK    2  A    between atoms: C2_7  and  C3_8 
ROOT
HETATM    1  C3  UNL     1      -0.663   0.033  -0.168  1.00  0.00     0.335 C 
HETATM    2  N4  UNL     1      -1.788   0.507  -0.950  1.00  0.00    -0.037 N 
ATOM      3  H41 UNL     1      -2.054  -0.109  -1.718  1.00  0.00     0.281 HD
ATOM      4  H42 UNL     1      -1.583   1.322  -1.528  1.00  0.00     0.281 HD
HETATM    5  C4  UNL     1      -2.825   0.719   0.026  1.00  0.00     0.364 C 
HETATM    6  N5  UNL     1      -2.480   0.009   1.216  1.00  0.00    -0.119 NA
HETATM    7  N6  UNL     1      -1.218  -0.528   1.047  1.00  0.00    -0.108 NA
ENDROOT
BRANCH   1   8
HETATM    8  C2  UNL     1       0.078  -1.015  -0.882  1.00  0.00     0.131 C 
HETATM    9  N3  UNL     1       1.314  -1.220  -0.609  1.00  0.00    -0.312 N 
ATOM     10  H3  UNL     1       1.837  -1.945  -1.099  1.00  0.00     0.185 HD
BRANCH   9  11
HETATM   11  N2  UNL     1       1.934  -0.440   0.366  1.00  0.00    -0.299 N 
HETATM   12  C1  UNL     1       3.185  -0.162   0.226  1.00  0.00     0.206 C 
HETATM   13  N1  UNL     1       3.814   0.630   1.216  1.00  0.00    -0.095 NA
ATOM     14  H2  UNL     1       1.410  -0.097   1.171  1.00  0.00     0.187 HD
ENDBRANCH   9  11
ENDBRANCH   1   8
TORSDOF 2
