REMARK  2 active torsions:
REMARK  status: ('A' for Active; 'I' for Inactive)
REMARK    1  A    between atoms: C3_8  and  C4_9 
REMARK    2  A    between atoms: C8_14  and  C9_15 
ROOT
HETATM    1  N1  UNL     1       0.051   4.636  -0.189  1.00  0.00    -0.234 N 
ATOM      2  H11 UNL     1       0.931   4.885   0.263  1.00  0.00     0.174 HD
ATOM      3  H12 UNL     1      -0.508   5.414  -0.538  1.00  0.00     0.174 HD
HETATM    4  C1  UNL     1      -0.320   3.484  -0.312  1.00  0.00     0.676 A 
HETATM    5  N2  UNL     1      -1.506   3.148  -0.921  1.00  0.00    -0.201 N 
ATOM      6  H2  UNL     1      -2.098   3.895  -1.284  1.00  0.00     0.183 HD
HETATM    7  C2  UNL     1      -1.911   1.895  -1.055  1.00  0.00     0.122 A 
HETATM    8  C3  UNL     1      -1.110   0.855  -0.560  1.00  0.00     0.042 A 
HETATM    9  C8  UNL     1       0.069   1.148   0.048  1.00  0.00     0.076 A 
HETATM   10  N3  UNL     1       0.436   2.432   0.160  1.00  0.00    -0.190 N 
ATOM     11  H3  UNL     1       1.322   2.642   0.619  1.00  0.00     0.184 HD
ENDROOT
BRANCH   9  12
HETATM   12  C9  UNL     1       0.904   0.076   0.559  1.00  0.00     0.031 A 
HETATM   13  C10 UNL     1       2.100  -0.153  -0.134  1.00  0.00     0.017 A 
HETATM   14  C11 UNL     1       2.996  -1.108   0.214  1.00  0.00     0.001 A 
HETATM   15  C12 UNL     1       2.706  -1.898   1.316  1.00  0.00     0.003 A 
HETATM   16  C13 UNL     1       1.521  -1.680   2.012  1.00  0.00     0.043 A 
HETATM   17  C14 UNL     1       0.621  -0.698   1.638  1.00  0.00     0.128 A 
HETATM   18  F1  UNL     1      -0.517  -0.480   2.325  1.00  0.00    -0.205 F 
ENDBRANCH   9  12
BRANCH   8  19
HETATM   19  C4  UNL     1      -1.551  -0.511  -0.709  1.00  0.00     0.088 A 
HETATM   20  C5  UNL     1      -1.008  -1.602  -1.322  1.00  0.00     0.040 A 
HETATM   21  C6  UNL     1      -1.891  -2.649  -1.138  1.00  0.00     0.027 A 
HETATM   22  C7  UNL     1      -2.945  -2.149  -0.414  1.00  0.00     0.142 A 
HETATM   23  O1  UNL     1      -2.718  -0.904  -0.180  1.00  0.00    -0.322 OA
ENDBRANCH   8  19
TORSDOF 2
