REMARK  11 active torsions:
REMARK  status: ('A' for Active; 'I' for Inactive)
REMARK    1  A    between atoms: N1_1  and  C1_4 
REMARK    2  A    between atoms: C3_9  and  N4_10 
REMARK    3  A    between atoms: N4_10  and  C4_12 
REMARK    4  A    between atoms: C6_21  and  C7_22 
REMARK    5  A    between atoms: C7_22  and  C8_23 
REMARK    6  A    between atoms: C8_23  and  C9_24 
REMARK    7  A    between atoms: C9_24  and  C10_25 
REMARK    8  A    between atoms: C10_25  and  N9_26 
REMARK    9  A    between atoms: N9_26  and  C11_28 
REMARK   10  A    between atoms: C11_28  and  C12_29 
REMARK   11  A    between atoms: C12_29  and  N10_30 
ROOT
HETATM    1  C1  UNL     1      -0.135  -0.737  -2.271  1.00  0.00     0.123 A 
HETATM    2  N2  UNL     1       0.381   0.319  -2.947  1.00  0.00    -0.327 N 
ATOM      3  H2  UNL     1      -0.039   0.619  -3.827  1.00  0.00     0.168 HD
HETATM    4  C2  UNL     1       1.444   0.966  -2.455  1.00  0.00     0.162 A 
HETATM    5  N3  UNL     1       1.993   2.086  -3.170  1.00  0.00    -0.079 NA
HETATM    6  C3  UNL     1       2.000   0.543  -1.258  1.00  0.00     0.150 A 
HETATM    7  N8  UNL     1       1.472  -0.500  -0.609  1.00  0.00    -0.340 N 
ATOM      8  H8  UNL     1       1.889  -0.801   0.272  1.00  0.00     0.167 HD
HETATM    9  C6  UNL     1       0.404  -1.162  -1.090  1.00  0.00     0.054 A 
ENDROOT
BRANCH   9  10
HETATM   10  C7  UNL     1      -0.148  -2.279  -0.324  1.00  0.00     0.061 C 
BRANCH  10  11
HETATM   11  C8  UNL     1      -1.359  -1.911   0.496  1.00  0.00     0.008 C 
BRANCH  11  12
HETATM   12  C9  UNL     1      -0.979  -0.830   1.480  1.00  0.00     0.020 C 
BRANCH  12  13
HETATM   13  C10 UNL     1      -2.131  -0.404   2.341  1.00  0.00     0.113 C 
BRANCH  13  14
HETATM   14  N9  UNL     1      -3.200   0.109   1.552  1.00  0.00    -0.420 N 
ATOM     15  H9  UNL     1      -4.090  -0.382   1.468  1.00  0.00     0.153 HD
BRANCH  14  16
HETATM   16  C11 UNL     1      -2.957   1.345   0.887  1.00  0.00     0.141 C 
BRANCH  16  17
HETATM   17  C12 UNL     1      -4.236   1.686   0.111  1.00  0.00     0.248 C 
BRANCH  17  18
HETATM   18  N10 UNL     1      -4.500   0.636  -0.829  1.00  0.00    -0.078 N 
ATOM     19 3H10 UNL     1      -3.707   0.456  -1.445  1.00  0.00     0.274 HD
ATOM     20 2H10 UNL     1      -4.546  -0.281  -0.386  1.00  0.00     0.274 HD
ATOM     21 1H10 UNL     1      -5.350   0.863  -1.345  1.00  0.00     0.274 HD
ENDBRANCH  17  18
ENDBRANCH  16  17
ENDBRANCH  14  16
ENDBRANCH  13  14
ENDBRANCH  12  13
ENDBRANCH  11  12
ENDBRANCH  10  11
ENDBRANCH   9  10
BRANCH   1  22
HETATM   22  N1  UNL     1      -1.137  -1.338  -2.776  1.00  0.00    -0.384 N 
ATOM     23  H12 UNL     1      -1.539  -1.021  -3.658  1.00  0.00     0.157 HD
ATOM     24  H11 UNL     1      -1.525  -2.132  -2.267  1.00  0.00     0.157 HD
ENDBRANCH   1  22
BRANCH   6  25
HETATM   25  N4  UNL     1       3.117   1.213  -0.729  1.00  0.00    -0.311 N 
ATOM     26  H4  UNL     1       3.520   2.010  -1.222  1.00  0.00     0.170 HD
BRANCH  25  27
HETATM   27  C4  UNL     1       3.684   0.767   0.509  1.00  0.00     0.194 C 
HETATM   28  N5  UNL     1       3.416   1.220   1.690  1.00  0.00    -0.346 N 
HETATM   29  C5  UNL     1       4.213   0.481   2.632  1.00  0.00     0.259 C 
ATOM     30  H5  UNL     1       2.758   1.967   1.913  1.00  0.00     0.163 HD
HETATM   31  N6  UNL     1       5.298  -0.031   1.821  1.00  0.00    -0.119 NA
HETATM   32  N7  UNL     1       4.653  -0.268   0.604  1.00  0.00    -0.274 N 
ATOM     33  H7  UNL     1       4.836  -1.016  -0.065  1.00  0.00     0.185 HD
ENDBRANCH  25  27
ENDBRANCH   6  25
TORSDOF 11
