REMARK  12 active torsions:
REMARK  status: ('A' for Active; 'I' for Inactive)
REMARK    1  A    between atoms: N1_1  and  C1_4 
REMARK    2  A    between atoms: C2_7  and  N3_8 
REMARK    3  A    between atoms: N3_8  and  C3_10 
REMARK    4  A    between atoms: C3_10  and  C4_11 
REMARK    5  A    between atoms: C4_11  and  N4_12 
REMARK    6  A    between atoms: N4_12  and  C5_15 
REMARK    7  A    between atoms: C5_15  and  C6_16 
REMARK    8  A    between atoms: C6_16  and  O1_17 
REMARK    9  A    between atoms: C7_21  and  N6_22 
REMARK   10  A    between atoms: C8_29  and  N10_30 
REMARK   11  A    between atoms: C9_33  and  C10_34 
REMARK   12  A    between atoms: C10_34  and  N11_35 
ROOT
HETATM    1  C1  UNL     1      -1.314   1.124   1.122  1.00  0.00     0.126 A 
HETATM    2  N2  UNL     1      -0.258   0.736   0.379  1.00  0.00    -0.176 N 
ATOM      3  H2  UNL     1       0.648   1.185   0.515  1.00  0.00     0.186 HD
HETATM    4  C2  UNL     1      -0.388  -0.234  -0.536  1.00  0.00     0.681 A 
HETATM    5  N5  UNL     1      -1.568  -0.797  -0.715  1.00  0.00    -0.173 N 
ATOM      6  H5  UNL     1      -1.648  -1.529  -1.421  1.00  0.00     0.186 HD
HETATM    7  C7  UNL     1      -2.703  -0.453  -0.002  1.00  0.00     0.173 A 
HETATM    8  C9  UNL     1      -2.567   0.506   0.925  1.00  0.00     0.058 A 
ENDROOT
BRANCH   4   9
HETATM    9  N3  UNL     1       0.728  -0.693  -1.236  1.00  0.00    -0.224 N 
ATOM     10  H3  UNL     1       0.649  -1.444  -1.921  1.00  0.00     0.177 HD
BRANCH   9  11
HETATM   11  C3  UNL     1       2.012  -0.062  -0.954  1.00  0.00     0.165 C 
BRANCH  11  12
HETATM   12  C4  UNL     1       3.111  -0.701  -1.754  1.00  0.00     0.252 C 
BRANCH  12  13
HETATM   13  N4  UNL     1       4.388  -0.113  -1.313  1.00  0.00    -0.072 N 
ATOM     14  H42 UNL     1       5.170  -0.316  -1.936  1.00  0.00     0.277 HD
ATOM     15  H41 UNL     1       4.425   0.902  -1.402  1.00  0.00     0.277 HD
BRANCH  13  16
HETATM   16  C5  UNL     1       4.585  -0.592   0.055  1.00  0.00     0.258 C 
BRANCH  16  17
HETATM   17  C6  UNL     1       6.010  -0.283   0.465  1.00  0.00     0.191 C 
BRANCH  17  18
HETATM   18  O1  UNL     1       6.253   1.066   0.409  1.00  0.00    -0.399 OA
ATOM     19  H1  UNL     1       7.147   1.260   0.666  1.00  0.00     0.209 HD
ENDBRANCH  17  18
ENDBRANCH  16  17
ENDBRANCH  13  16
ENDBRANCH  12  13
ENDBRANCH  11  12
ENDBRANCH   9  11
ENDBRANCH   4   9
BRANCH   1  20
HETATM   20  N1  UNL     1      -1.110   2.018   2.016  1.00  0.00    -0.384 N 
ATOM     21  H12 UNL     1      -0.204   2.465   2.158  1.00  0.00     0.157 HD
ATOM     22  H11 UNL     1      -1.909   2.312   2.578  1.00  0.00     0.157 HD
ENDBRANCH   1  20
BRANCH   7  23
HETATM   23  N6  UNL     1      -3.936  -1.057  -0.327  1.00  0.00    -0.052 N 
HETATM   24  N7  UNL     1      -4.833  -1.687   0.379  1.00  0.00    -0.205 N 
HETATM   25  N8  UNL     1      -5.812  -2.072  -0.444  1.00  0.00    -0.213 N 
ATOM     26  H7  UNL     1      -4.794  -1.856   1.384  1.00  0.00     0.211 HD
HETATM   27  N9  UNL     1      -5.523  -1.679  -1.660  1.00  0.00    -0.115 N 
ATOM     28  H8  UNL     1      -6.648  -2.588  -0.170  1.00  0.00     0.210 HD
HETATM   29  C8  UNL     1      -4.357  -1.038  -1.635  1.00  0.00     0.716 A 
ATOM     30  H9  UNL     1      -6.097  -1.838  -2.488  1.00  0.00     0.207 HD
BRANCH  29  31
HETATM   31  N10 UNL     1      -3.740  -0.510  -2.657  1.00  0.00    -0.231 N 
ATOM     32 2H10 UNL     1      -2.846  -0.019  -2.638  1.00  0.00     0.174 HD
ATOM     33 1H10 UNL     1      -4.052  -0.496  -3.628  1.00  0.00     0.174 HD
ENDBRANCH  29  31
ENDBRANCH   7  23
BRANCH   8  34
HETATM   34  C10 UNL     1      -3.629   1.017   1.799  1.00  0.00     0.276 C 
BRANCH  34  35
HETATM   35  N11 UNL     1      -3.732   0.008   2.899  1.00  0.00    -0.075 N 
ATOM     36 3H11 UNL     1      -3.885  -0.947   2.574  1.00  0.00     0.274 HD
ATOM     37 2H11 UNL     1      -2.851  -0.174   3.379  1.00  0.00     0.274 HD
ATOM     38 1H11 UNL     1      -4.470   0.363   3.507  1.00  0.00     0.274 HD
ENDBRANCH  34  35
ENDBRANCH   8  34
TORSDOF 12
