REMARK  4 active torsions:
REMARK  status: ('A' for Active; 'I' for Inactive)
REMARK    1  A    between atoms: C8_8  and  N1_9 
REMARK       I    between atoms: N1_9  and  C10_11 
REMARK    2  A    between atoms: C10_11  and  C11_13 
REMARK    3  A    between atoms: N2_15  and  C13_16 
REMARK    4  A    between atoms: C15_18  and  C16_19 
ROOT
HETATM    1  C11 UNL     1       0.316  -1.939  -1.106  1.00  0.00     0.131 C 
HETATM    2  C12 UNL     1       1.536  -1.005  -1.085  1.00  0.00     0.141 C 
HETATM    3  N2  UNL     1       2.609  -1.736  -0.477  1.00  0.00    -0.363 N 
HETATM    4  C19 UNL     1       2.199  -3.120  -0.366  1.00  0.00     0.162 C 
HETATM    5  C20 UNL     1       0.715  -2.910  -0.019  1.00  0.00     0.202 C 
HETATM    6  F1  UNL     1       0.045  -4.099  -0.075  1.00  0.00    -0.247 F 
ENDROOT
BRANCH   1   7
HETATM    7  C10 UNL     1      -0.861  -1.145  -0.788  1.00  0.00     0.228 C 
HETATM    8  N1  UNL     1      -2.220  -1.515  -0.919  1.00  0.00    -0.351 N 
HETATM    9  C9  UNL     1      -2.516  -2.821  -1.465  1.00  0.00     0.153 C 
HETATM   10  O1  UNL     1      -0.678   0.039  -0.328  1.00  0.00    -0.273 OA
BRANCH   8  11
HETATM   11  C8  UNL     1      -3.322  -0.653  -0.551  1.00  0.00     0.090 C 
HETATM   12  C7  UNL     1      -3.300  -0.335   0.934  1.00  0.00     0.026 C 
HETATM   13  C6  UNL     1      -4.699  -0.404   1.474  1.00  0.00     0.002 C 
HETATM   14  C5  UNL     1      -4.874   0.761   2.423  1.00  0.00     0.000 C 
HETATM   15  C4  UNL     1      -4.515   2.075   1.782  1.00  0.00     0.004 C 
HETATM   16  C3  UNL     1      -4.891   2.142   0.334  1.00  0.00     0.033 C 
HETATM   17  C2  UNL     1      -3.805   1.804  -0.594  1.00  0.00    -0.087 C 
HETATM   18  C1  UNL     1      -2.984   2.819  -0.805  1.00  0.00     0.014 C 
HETATM   19  C21 UNL     1      -3.373   0.614  -1.370  1.00  0.00     0.058 C 
ENDBRANCH   8  11
ENDBRANCH   1   7
BRANCH   3  20
HETATM   20  C13 UNL     1       3.845  -1.197  -0.061  1.00  0.00     0.119 A 
HETATM   21  C14 UNL     1       4.223   0.127  -0.178  1.00  0.00     0.076 A 
HETATM   22  C15 UNL     1       5.490   0.273   0.336  1.00  0.00     0.033 A 
HETATM   23  N3  UNL     1       5.858  -0.950   0.752  1.00  0.00    -0.303 N 
HETATM   24  N4  UNL     1       4.891  -1.818   0.520  1.00  0.00    -0.285 N 
ATOM     25  H3  UNL     1       6.754  -1.175   1.184  1.00  0.00     0.186 HD
ATOM     26  H4  UNL     1       4.930  -2.812   0.747  1.00  0.00     0.188 HD
BRANCH  22  27
HETATM   27  C16 UNL     1       6.294   1.543   0.412  1.00  0.00     0.029 C 
HETATM   28  C17 UNL     1       5.442   2.554   1.138  1.00  0.00     0.016 C 
HETATM   29  C18 UNL     1       6.426   2.035  -1.034  1.00  0.00     0.016 C 
ENDBRANCH  22  27
ENDBRANCH   3  20
TORSDOF 4
