REMARK  12 active torsions:
REMARK  status: ('A' for Active; 'I' for Inactive)
REMARK    1  A    between atoms: C2_2  and  C3_4 
REMARK    2  A    between atoms: C2_2  and  C30_44 
REMARK    3  A    between atoms: C3_4  and  N1_5 
REMARK    4  A    between atoms: C6_8  and  N2_9 
REMARK    5  A    between atoms: C6_8  and  C14_19 
REMARK       I    between atoms: N2_9  and  C7_11 
REMARK    6  A    between atoms: C7_11  and  C8_13 
REMARK    7  A    between atoms: C14_19  and  O2_20 
REMARK    8  A    between atoms: C14_19  and  N3_22 
REMARK    9  A    between atoms: N4_25  and  C17_26 
REMARK   10  A    between atoms: C17_26  and  O3_27 
REMARK   11  A    between atoms: C17_26  and  C18_29 
REMARK   12  A    between atoms: C21_32  and  N5_33 
ROOT
HETATM    1  C14 UNL     1      -0.775  -1.546  -0.127  1.00  0.00     0.144 C 
ENDROOT
BRANCH   1   2
HETATM    2  C6  UNL     1      -2.031  -0.795  -0.138  1.00  0.00     0.125 C 
HETATM    3  C5  UNL     1      -2.487  -0.627  -1.586  1.00  0.00     0.072 C 
HETATM    4  C4  UNL     1      -2.890   0.790  -1.729  1.00  0.00     0.275 C 
HETATM    5  N1  UNL     1      -3.044   1.337  -0.375  1.00  0.00     0.095 N 
HETATM    6  C29 UNL     1      -2.054   0.575   0.397  1.00  0.00     0.312 C 
BRANCH   5   7
HETATM    7  C3  UNL     1      -2.784   2.733  -0.477  1.00  0.00     0.324 C 
BRANCH   7   8
HETATM    8  C2  UNL     1      -3.116   3.555   0.709  1.00  0.00     0.222 C 
HETATM    9  C1  UNL     1      -2.373   3.209   1.942  1.00  0.00     0.063 C 
HETATM   10  F1  UNL     1      -4.508   3.417   0.914  1.00  0.00    -0.232 F 
BRANCH   8  11
HETATM   11  C30 UNL     1      -2.946   5.052   0.417  1.00  0.00     0.424 C 
HETATM   12  F2  UNL     1      -3.617   5.419  -0.716  1.00  0.00    -0.167 F 
HETATM   13  F3  UNL     1      -1.594   5.336   0.244  1.00  0.00    -0.167 F 
HETATM   14  F4  UNL     1      -3.478   5.740   1.483  1.00  0.00    -0.167 F 
ENDBRANCH   8  11
ENDBRANCH   7   8
ENDBRANCH   5   7
BRANCH   2  15
HETATM   15  N2  UNL     1      -3.037  -1.666   0.460  1.00  0.00    -0.342 N 
HETATM   16  C7  UNL     1      -4.410  -1.530   0.560  1.00  0.00     0.222 C 
HETATM   17  O1  UNL     1      -5.044  -0.570   0.112  1.00  0.00    -0.273 OA
ATOM     18  H2  UNL     1      -2.665  -2.520   0.875  1.00  0.00     0.163 HD
BRANCH  16  19
HETATM   19  C8  UNL     1      -5.269  -2.570   1.243  1.00  0.00     0.078 C 
HETATM   20  C9  UNL     1      -5.223  -3.887   0.553  1.00  0.00     0.014 C 
HETATM   21  C10 UNL     1      -6.631  -4.390   0.236  1.00  0.00     0.001 C 
HETATM   22  C11 UNL     1      -7.324  -3.253  -0.516  1.00  0.00     0.000 C 
HETATM   23  C12 UNL     1      -7.612  -2.134   0.427  1.00  0.00     0.001 C 
HETATM   24  C13 UNL     1      -6.615  -2.034   1.560  1.00  0.00     0.014 C 
ENDBRANCH  16  19
ENDBRANCH   2  15
ENDBRANCH   1   2
BRANCH   1  25
HETATM   25  O2  UNL     1      -0.984  -2.860  -0.045  1.00  0.00    -0.347 OA
ATOM     26  H2  UNL     1      -0.169  -3.348  -0.038  1.00  0.00     0.219 HD
ENDBRANCH   1  25
BRANCH   1  27
HETATM   27  N3  UNL     1       0.558  -1.235  -0.181  1.00  0.00    -0.360 N 
HETATM   28  C15 UNL     1       1.573  -2.349  -0.240  1.00  0.00     0.144 C 
HETATM   29  C16 UNL     1       2.439  -2.036  -1.437  1.00  0.00     0.145 C 
HETATM   30  N4  UNL     1       3.323  -0.934  -0.911  1.00  0.00    -0.358 N 
HETATM   31  C27 UNL     1       2.675   0.096  -0.164  1.00  0.00     0.145 C 
HETATM   32  C28 UNL     1       1.150   0.049  -0.163  1.00  0.00     0.144 C 
BRANCH  30  33
HETATM   33  C17 UNL     1       4.674  -1.067  -1.246  1.00  0.00     0.148 C 
BRANCH  33  34
HETATM   34  O3  UNL     1       4.953  -2.102  -2.005  1.00  0.00    -0.346 OA
ATOM     35  H3  UNL     1       5.871  -2.192  -2.233  1.00  0.00     0.219 HD
ENDBRANCH  33  34
BRANCH  33  36
HETATM   36  C18 UNL     1       5.791  -0.242  -0.881  1.00  0.00     0.015 A 
HETATM   37  C19 UNL     1       5.775   0.816   0.001  1.00  0.00     0.018 A 
HETATM   38  C20 UNL     1       6.949   1.547   0.252  1.00  0.00     0.032 A 
HETATM   39  C21 UNL     1       8.132   1.237  -0.364  1.00  0.00     0.056 A 
HETATM   40  C25 UNL     1       8.160   0.183  -1.246  1.00  0.00     0.032 A 
HETATM   41  C26 UNL     1       7.023  -0.540  -1.502  1.00  0.00     0.018 A 
BRANCH  39  42
HETATM   42  N5  UNL     1       9.321   1.954  -0.106  1.00  0.00    -0.268 N 
HETATM   43  C22 UNL     1       9.482   3.271  -0.085  1.00  0.00     0.118 A 
HETATM   44  C23 UNL     1      10.802   3.554   0.211  1.00  0.00     0.038 A 
HETATM   45  C24 UNL     1      11.418   2.326   0.366  1.00  0.00     0.109 A 
HETATM   46  N6  UNL     1      10.495   1.371   0.167  1.00  0.00    -0.305 N 
ATOM     47  H6  UNL     1      10.661   0.366   0.216  1.00  0.00     0.186 HD
ENDBRANCH  39  42
ENDBRANCH  33  36
ENDBRANCH  30  33
ENDBRANCH   1  27
TORSDOF 12
