REMARK  7 active torsions:
REMARK  status: ('A' for Active; 'I' for Inactive)
REMARK    1  A    between atoms: O1_2  and  C2_3 
REMARK    2  A    between atoms: C2_3  and  C3_4 
REMARK    3  A    between atoms: C5_6  and  C6_7 
REMARK       I    between atoms: C6_7  and  N1_9 
REMARK    4  A    between atoms: N1_9  and  C7_11 
REMARK       I    between atoms: N3_16  and  C11_17 
REMARK    5  A    between atoms: C11_17  and  C12_19 
REMARK       I    between atoms: N4_24  and  C17_25 
REMARK       I    between atoms: C17_25  and  N5_27 
REMARK    6  A    between atoms: C22_34  and  C23_35 
REMARK    7  A    between atoms: C26_38  and  C27_39 
ROOT
HETATM    1  C7  UNL     1       5.446  -2.598  -2.188  1.00  0.00     0.122 A 
HETATM    2  C8  UNL     1       6.252  -1.379  -2.327  1.00  0.00     0.091 C 
HETATM    3  N2  UNL     1       6.898  -0.422  -2.446  1.00  0.00    -0.195 NA
HETATM    4  C9  UNL     1       6.069  -3.922  -2.510  1.00  0.00     0.050 A 
HETATM    5  C10 UNL     1       5.111  -3.326  -3.468  1.00  0.00     0.050 A 
ENDROOT
BRANCH   1   6
HETATM    6  N1  UNL     1       4.486  -2.533  -1.121  1.00  0.00    -0.337 N 
HETATM    7  C6  UNL     1       3.483  -1.550  -1.115  1.00  0.00     0.242 C 
HETATM    8  O2  UNL     1       3.436  -0.727  -2.059  1.00  0.00    -0.271 OA
ATOM      9  H1  UNL     1       4.534  -3.209  -0.359  1.00  0.00     0.164 HD
BRANCH   7  10
HETATM   10  C5  UNL     1       2.487  -1.490   0.002  1.00  0.00     0.179 C 
HETATM   11  C4  UNL     1       3.262  -1.128   1.242  1.00  0.00     0.043 C 
HETATM   12  C3  UNL     1       3.199   0.384   1.242  1.00  0.00     0.030 C 
HETATM   13  C29 UNL     1       1.746   0.598   0.837  1.00  0.00     0.133 C 
HETATM   14  N3  UNL     1       1.559  -0.400  -0.228  1.00  0.00    -0.338 N 
HETATM   15  C11 UNL     1       0.625  -0.260  -1.278  1.00  0.00     0.227 C 
HETATM   16  O3  UNL     1       0.589  -1.199  -2.145  1.00  0.00    -0.273 OA
BRANCH  12  17
HETATM   17  C2  UNL     1       3.495   0.960   2.603  1.00  0.00     0.173 C 
BRANCH  17  18
HETATM   18  O1  UNL     1       2.563   0.484   3.515  1.00  0.00    -0.396 OA
HETATM   19  C1  UNL     1       2.891   1.053   4.753  1.00  0.00     0.201 C 
ENDBRANCH  17  18
ENDBRANCH  12  17
BRANCH  15  20
HETATM   20  C12 UNL     1      -0.301   0.907  -1.422  1.00  0.00     0.109 C 
HETATM   21  C13 UNL     1      -1.050   0.777  -2.741  1.00  0.00     0.047 C 
HETATM   22  C14 UNL     1      -2.404   0.228  -2.366  1.00  0.00     0.031 C 
HETATM   23  C15 UNL     1      -3.494   1.175  -2.747  1.00  0.00     0.038 C 
HETATM   24  C16 UNL     1      -2.603  -1.017  -3.228  1.00  0.00     0.038 C 
HETATM   25  N4  UNL     1      -2.362  -0.090  -0.945  1.00  0.00    -0.314 N 
HETATM   26  C17 UNL     1      -3.121  -1.078  -0.316  1.00  0.00     0.322 C 
HETATM   27  C22 UNL     1      -1.384   0.859  -0.378  1.00  0.00     0.152 C 
HETATM   28  O4  UNL     1      -3.949  -1.701  -1.095  1.00  0.00    -0.247 OA
HETATM   29  N5  UNL     1      -3.130  -1.502   1.016  1.00  0.00    -0.328 N 
HETATM   30  C18 UNL     1      -2.337  -1.057   2.144  1.00  0.00     0.133 C 
HETATM   31  C21 UNL     1      -4.042  -2.569   1.503  1.00  0.00     0.206 C 
HETATM   32  C19 UNL     1      -2.802  -1.900   3.333  1.00  0.00     0.101 C 
HETATM   33  C20 UNL     1      -3.190  -3.187   2.593  1.00  0.00     0.261 C 
HETATM   34  F1  UNL     1      -2.042  -3.743   2.103  1.00  0.00    -0.204 F 
HETATM   35  F2  UNL     1      -3.898  -4.033   3.404  1.00  0.00    -0.204 F 
BRANCH  27  36
HETATM   36  C23 UNL     1      -2.037   2.168  -0.115  1.00  0.00     0.033 A 
HETATM   37  C24 UNL     1      -1.425   3.372  -0.346  1.00  0.00     0.028 A 
HETATM   38  C25 UNL     1      -2.128   4.549  -0.077  1.00  0.00     0.016 A 
HETATM   39  C26 UNL     1      -3.413   4.501   0.412  1.00  0.00     0.021 A 
HETATM   40  C28 UNL     1      -3.947   3.264   0.613  1.00  0.00     0.100 A 
HETATM   41  N6  UNL     1      -3.315   2.115   0.371  1.00  0.00    -0.367 N 
ATOM     42  H6  UNL     1      -3.772   1.220   0.544  1.00  0.00     0.165 HD
BRANCH  39  43
HETATM   43  C27 UNL     1      -4.173   5.735   0.702  1.00  0.00     0.388 C 
HETATM   44  F3  UNL     1      -5.336   5.826  -0.029  1.00  0.00    -0.209 F 
HETATM   45  F4  UNL     1      -4.513   5.835   2.037  1.00  0.00    -0.209 F 
ENDBRANCH  39  43
ENDBRANCH  27  36
ENDBRANCH  15  20
ENDBRANCH   7  10
ENDBRANCH   1   6
TORSDOF 7
