REMARK  8 active torsions:
REMARK  status: ('A' for Active; 'I' for Inactive)
REMARK       I    between atoms: C2_2  and  N1_4 
REMARK    1  A    between atoms: C5_7  and  N2_8 
REMARK       I    between atoms: N2_8  and  C6_10 
REMARK    2  A    between atoms: C6_10  and  C7_12 
REMARK    3  A    between atoms: C7_12  and  C8_13 
REMARK    4  A    between atoms: C8_13  and  C9_14 
REMARK    5  A    between atoms: C12_17  and  O3_18 
REMARK    6  A    between atoms: O3_18  and  C13_19 
REMARK    7  A    between atoms: N3_26  and  S1_27 
REMARK    8  A    between atoms: S1_27  and  C17_30 
ROOT
HETATM    1  C8  UNL     1      -0.877   0.612  -0.448  1.00  0.00     0.025 C 
HETATM    2  C16 UNL     1      -2.209   0.407   0.247  1.00  0.00     0.123 C 
HETATM    3  N3  UNL     1      -2.644  -0.965   0.148  1.00  0.00    -0.209 NA
HETATM    4  C22 UNL     1      -2.664  -1.475  -1.178  1.00  0.00     0.109 C 
HETATM    5  C23 UNL     1      -1.365  -1.275  -1.905  1.00  0.00     0.037 C 
HETATM    6  C24 UNL     1      -1.044   0.204  -1.878  1.00  0.00     0.098 C 
HETATM    7 CL1  UNL     1      -2.545   1.008  -2.470  1.00  0.00    -0.124 Cl
ENDROOT
BRANCH   1   8
HETATM    8  C7  UNL     1       0.122  -0.227   0.321  1.00  0.00     0.120 C 
BRANCH   8   9
HETATM    9  C6  UNL     1       1.505  -0.117  -0.165  1.00  0.00     0.219 C 
HETATM   10  N2  UNL     1       2.535  -0.765   0.557  1.00  0.00    -0.356 N 
ATOM     11  H2  UNL     1       2.302  -1.285   1.403  1.00  0.00     0.162 HD
HETATM   12  O2  UNL     1       1.796   0.528  -1.191  1.00  0.00    -0.274 OA
BRANCH  10  13
HETATM   13  C5  UNL     1       3.934  -0.703   0.110  1.00  0.00     0.087 C 
HETATM   14  C4  UNL     1       4.466  -2.097  -0.033  1.00  0.00     0.045 C 
HETATM   15  C3  UNL     1       5.937  -2.177  -0.271  1.00  0.00     0.127 C 
HETATM   16  N1  UNL     1       6.648  -1.142   0.460  1.00  0.00    -0.352 N 
HETATM   17  C2  UNL     1       7.966  -0.799   0.103  1.00  0.00     0.215 C 
HETATM   18  C26 UNL     1       5.931  -0.514   1.545  1.00  0.00     0.127 C 
HETATM   19  C1  UNL     1       8.734   0.256   0.803  1.00  0.00     0.117 C 
HETATM   20  O1  UNL     1       8.522  -1.413  -0.855  1.00  0.00    -0.274 OA
HETATM   21  C25 UNL     1       4.749   0.210   0.961  1.00  0.00     0.045 C 
ENDBRANCH  10  13
ENDBRANCH   8   9
ENDBRANCH   1   8
BRANCH   1  22
HETATM   22  C9  UNL     1      -0.492   2.027  -0.324  1.00  0.00    -0.046 A 
HETATM   23  C10 UNL     1      -0.355   2.622   0.940  1.00  0.00     0.011 A 
HETATM   24  C11 UNL     1       0.011   3.927   1.118  1.00  0.00     0.037 A 
HETATM   25  C12 UNL     1       0.265   4.729   0.041  1.00  0.00     0.078 A 
HETATM   26  C14 UNL     1       0.147   4.206  -1.207  1.00  0.00     0.037 A 
HETATM   27  C15 UNL     1      -0.229   2.866  -1.381  1.00  0.00     0.011 A 
BRANCH  25  28
HETATM   28  O3  UNL     1       0.633   6.046   0.261  1.00  0.00    -0.255 OA
BRANCH  28  29
HETATM   29  C13 UNL     1      -0.359   7.032   0.344  1.00  0.00     0.530 C 
HETATM   30  F1  UNL     1      -1.245   6.758   1.395  1.00  0.00    -0.144 F 
HETATM   31  F2  UNL     1       0.251   8.256   0.628  1.00  0.00    -0.144 F 
HETATM   32  F3  UNL     1      -1.029   7.073  -0.861  1.00  0.00    -0.144 F 
ENDBRANCH  28  29
ENDBRANCH  25  28
ENDBRANCH   1  22
BRANCH   3  33
HETATM   33  S1  UNL     1      -4.059  -1.170   1.027  1.00  0.00     0.215 S 
HETATM   34  O4  UNL     1      -3.807  -2.176   2.118  1.00  0.00    -0.211 OA
HETATM   35  O5  UNL     1      -4.377   0.128   1.761  1.00  0.00    -0.211 OA
BRANCH  33  36
HETATM   36  C17 UNL     1      -5.507  -1.554   0.091  1.00  0.00     0.128 C 
HETATM   37  C18 UNL     1      -5.448  -2.895  -0.602  1.00  0.00     0.047 C 
HETATM   38  C19 UNL     1      -6.884  -3.430  -0.699  1.00  0.00     0.168 C 
HETATM   39  O6  UNL     1      -7.379  -3.820   0.518  1.00  0.00    -0.391 OA
HETATM   40  C20 UNL     1      -6.740  -3.102   1.532  1.00  0.00     0.168 C 
HETATM   41  C21 UNL     1      -6.656  -1.651   1.080  1.00  0.00     0.047 C 
ENDBRANCH  33  36
ENDBRANCH   3  33
TORSDOF 8
