REMARK  10 active torsions:
REMARK  status: ('A' for Active; 'I' for Inactive)
REMARK    1  A    between atoms: C2_2  and  C4_4 
REMARK    2  A    between atoms: C4_4  and  O1_5 
REMARK    3  A    between atoms: O1_5  and  C5_6 
REMARK       I    between atoms: C5_6  and  N1_8 
REMARK    4  A    between atoms: C7_10  and  N2_11 
REMARK    5  A    between atoms: C16_22  and  N4_23 
REMARK    6  A    between atoms: N4_23  and  C17_25 
REMARK    7  A    between atoms: N5_32  and  C23_33 
REMARK    8  A    between atoms: C23_33  and  O4_34 
REMARK    9  A    between atoms: C23_33  and  C24_36 
REMARK   10  A    between atoms: C24_36  and  C25_37 
ROOT
HETATM    1  C4  UNL     1      -1.651   0.273   0.229  1.00  0.00     0.153 C 
HETATM    2  C15 UNL     1      -1.801   1.526  -0.712  1.00  0.00     0.088 C 
HETATM    3  C16 UNL     1      -3.130   1.345  -1.335  1.00  0.00     0.099 C 
HETATM    4  C22 UNL     1      -3.800   0.380  -0.449  1.00  0.00     0.152 C 
HETATM    5  N5  UNL     1      -2.628  -0.606  -0.258  1.00  0.00    -0.330 N 
ENDROOT
BRANCH   1   6
HETATM    6  C2  UNL     1      -1.790   0.858   1.603  1.00  0.00     0.034 C 
HETATM    7  C1  UNL     1      -1.460  -0.035   2.748  1.00  0.00     0.014 C 
HETATM    8  C3  UNL     1      -0.693   1.970   1.662  1.00  0.00     0.014 C 
ENDBRANCH   1   6
BRANCH   1   9
HETATM    9  O1  UNL     1      -0.289  -0.101   0.143  1.00  0.00    -0.271 OA
BRANCH   9  10
HETATM   10  C5  UNL     1       0.357  -0.608  -0.940  1.00  0.00     0.365 C 
HETATM   11  O2  UNL     1      -0.270  -0.770  -1.986  1.00  0.00    -0.238 OA
HETATM   12  N1  UNL     1       1.743  -0.971  -0.935  1.00  0.00    -0.324 N 
HETATM   13  C6  UNL     1       2.710  -1.516  -1.849  1.00  0.00     0.165 C 
HETATM   14  C14 UNL     1       2.751  -0.909   0.089  1.00  0.00     0.165 C 
HETATM   15  C7  UNL     1       3.683  -1.683  -0.749  1.00  0.00     0.259 C 
BRANCH  15  16
HETATM   16  N2  UNL     1       5.006  -1.134  -0.945  1.00  0.00     0.103 N 
HETATM   17  C8  UNL     1       5.014   0.304  -1.123  1.00  0.00     0.293 C 
HETATM   18  C9  UNL     1       6.372   0.718  -1.643  1.00  0.00     0.152 C 
HETATM   19  N3  UNL     1       7.433  -0.062  -0.993  1.00  0.00    -0.384 N 
HETATM   20  C10 UNL     1       8.784  -0.053  -1.518  1.00  0.00     0.149 C 
HETATM   21  C11 UNL     1       7.089  -0.806   0.160  1.00  0.00     0.062 C 
HETATM   22  C12 UNL     1       7.916  -0.835   1.203  1.00  0.00     0.214 C 
HETATM   23  C13 UNL     1       5.801  -1.547   0.178  1.00  0.00     0.332 C 
HETATM   24  F1  UNL     1       9.087  -0.179   1.221  1.00  0.00    -0.217 F 
ENDBRANCH  15  16
ENDBRANCH   9  10
ENDBRANCH   1   9
BRANCH   5  25
HETATM   25  C23 UNL     1      -2.911  -1.911  -0.570  1.00  0.00     0.134 C 
BRANCH  25  26
HETATM   26  O4  UNL     1      -4.061  -2.105  -1.253  1.00  0.00    -0.349 OA
ATOM     27  H4  UNL     1      -4.257  -3.009  -1.469  1.00  0.00     0.219 HD
ENDBRANCH  25  26
BRANCH  25  28
HETATM   28  C24 UNL     1      -2.284  -3.236  -0.370  1.00  0.00     0.132 A 
HETATM   29  C28 UNL     1      -2.071  -3.975  -1.654  1.00  0.00     0.266 A 
HETATM   30  F2  UNL     1      -0.953  -4.630  -2.004  1.00  0.00    -0.241 F 
HETATM   31  C29 UNL     1      -3.075  -4.495  -0.731  1.00  0.00     0.293 A 
HETATM   32  F3  UNL     1      -4.429  -4.355  -0.965  1.00  0.00    -0.202 F 
HETATM   33  F4  UNL     1      -2.774  -5.692  -0.139  1.00  0.00    -0.202 F 
BRANCH  28  34
HETATM   34  C25 UNL     1      -1.447  -3.441   0.838  1.00  0.00     0.003 C 
HETATM   35  C26 UNL     1      -0.747  -4.740   1.030  1.00  0.00     0.011 C 
HETATM   36  C27 UNL     1      -2.523  -3.425   2.032  1.00  0.00     0.011 C 
ENDBRANCH  28  34
ENDBRANCH  25  28
ENDBRANCH   5  25
BRANCH   3  37
HETATM   37  N4  UNL     1      -3.821   2.454  -1.787  1.00  0.00    -0.411 N 
ATOM     38  H4  UNL     1      -4.004   2.479  -2.790  1.00  0.00     0.154 HD
BRANCH  37  39
HETATM   39  C17 UNL     1      -4.294   3.523  -1.076  1.00  0.00     0.081 C 
HETATM   40  C18 UNL     1      -5.331   3.300  -0.010  1.00  0.00     0.051 C 
HETATM   41  C19 UNL     1      -5.785   4.697   0.439  1.00  0.00     0.169 C 
HETATM   42  O3  UNL     1      -5.384   5.687  -0.443  1.00  0.00    -0.391 OA
HETATM   43  C20 UNL     1      -3.983   5.877  -0.431  1.00  0.00     0.169 C 
HETATM   44  C21 UNL     1      -3.292   4.509  -0.503  1.00  0.00     0.051 C 
ENDBRANCH  37  39
ENDBRANCH   3  37
TORSDOF 10
