REMARK  10 active torsions:
REMARK  status: ('A' for Active; 'I' for Inactive)
REMARK    1  A    between atoms: N1_4  and  C4_5 
REMARK    2  A    between atoms: C4_5  and  C5_6 
REMARK    3  A    between atoms: C8_9  and  O1_10 
REMARK    4  A    between atoms: O1_10  and  C9_11 
REMARK    5  A    between atoms: C12_17  and  C13_18 
REMARK       I    between atoms: C13_18  and  N2_20 
REMARK    6  A    between atoms: C17_25  and  C18_26 
REMARK       I    between atoms: C18_26  and  N3_28 
REMARK    7  A    between atoms: N3_28  and  C19_30 
REMARK    8  A    between atoms: N4_35  and  C24_36 
REMARK    9  A    between atoms: C24_36  and  O4_37 
REMARK   10  A    between atoms: C24_36  and  C25_39 
ROOT
HETATM    1  C1  UNL     1      -3.566  -0.368  -1.502  1.00  0.00     0.034 C 
HETATM    2  C2  UNL     1      -2.342   0.039  -0.800  1.00  0.00     0.099 C 
HETATM    3  C3  UNL     1      -2.631   0.760   0.521  1.00  0.00     0.143 C 
HETATM    4  N1  UNL     1      -1.494   1.439   0.927  1.00  0.00    -0.393 N 
HETATM    5  C12 UNL     1      -0.195   1.003   0.649  1.00  0.00     0.190 C 
HETATM    6  C23 UNL     1      -0.052  -0.257  -0.133  1.00  0.00     0.160 C 
HETATM    7  N4  UNL     1      -1.353  -0.912  -0.453  1.00  0.00    -0.357 N 
ENDROOT
BRANCH   5   8
HETATM    8  C13 UNL     1       0.633   0.828   1.904  1.00  0.00     0.244 C 
HETATM    9  O2  UNL     1       0.018   0.773   3.017  1.00  0.00    -0.271 OA
HETATM   10  N2  UNL     1       2.046   0.727   1.898  1.00  0.00    -0.334 N 
HETATM   11  C14 UNL     1       2.822   0.548   3.112  1.00  0.00     0.164 C 
HETATM   12  C17 UNL     1       3.000   0.808   0.825  1.00  0.00     0.182 C 
HETATM   13  C15 UNL     1       4.172   1.165   2.795  1.00  0.00     0.190 C 
HETATM   14  F4  UNL     1       4.468   2.107   3.732  1.00  0.00    -0.248 F 
HETATM   15  C16 UNL     1       3.995   1.805   1.416  1.00  0.00     0.074 C 
BRANCH  12  16
HETATM   16  C18 UNL     1       3.607  -0.477   0.550  1.00  0.00     0.241 C 
HETATM   17  O3  UNL     1       3.256  -1.517   1.140  1.00  0.00    -0.271 OA
HETATM   18  N3  UNL     1       4.640  -0.587  -0.419  1.00  0.00    -0.351 N 
ATOM     19  H3  UNL     1       4.938   0.256  -0.910  1.00  0.00     0.163 HD
BRANCH  18  20
HETATM   20  C19 UNL     1       5.292  -1.843  -0.744  1.00  0.00     0.022 C 
HETATM   21  C20 UNL     1       5.961  -2.472   0.449  1.00  0.00     0.037 C 
HETATM   22  C21 UNL     1       4.350  -2.841  -1.377  1.00  0.00     0.037 C 
HETATM   23  C22 UNL     1       6.408  -1.582  -1.766  1.00  0.00     0.037 C 
ENDBRANCH  18  20
ENDBRANCH  12  16
ENDBRANCH   5   8
BRANCH   4  24
HETATM   24  C4  UNL     1      -1.611   2.594   1.733  1.00  0.00     0.156 C 
BRANCH  24  25
HETATM   25  C5  UNL     1      -2.377   3.669   1.053  1.00  0.00    -0.041 A 
HETATM   26  C6  UNL     1      -2.412   3.817  -0.296  1.00  0.00     0.011 A 
HETATM   27  C7  UNL     1      -3.134   4.820  -0.919  1.00  0.00     0.037 A 
HETATM   28  C8  UNL     1      -3.864   5.733  -0.180  1.00  0.00     0.078 A 
HETATM   29  C10 UNL     1      -3.839   5.595   1.208  1.00  0.00     0.037 A 
HETATM   30  C11 UNL     1      -3.114   4.590   1.807  1.00  0.00     0.011 A 
BRANCH  28  31
HETATM   31  O1  UNL     1      -4.587   6.735  -0.782  1.00  0.00    -0.255 OA
BRANCH  31  32
HETATM   32  C9  UNL     1      -5.933   6.627  -1.186  1.00  0.00     0.530 C 
HETATM   33  F1  UNL     1      -6.326   7.828  -1.753  1.00  0.00    -0.144 F 
HETATM   34  F2  UNL     1      -6.141   5.639  -2.130  1.00  0.00    -0.144 F 
HETATM   35  F3  UNL     1      -6.777   6.407  -0.098  1.00  0.00    -0.144 F 
ENDBRANCH  31  32
ENDBRANCH  28  31
ENDBRANCH  24  25
ENDBRANCH   4  24
BRANCH   7  36
HETATM   36  C24 UNL     1      -1.395  -2.300  -0.365  1.00  0.00     0.118 C 
BRANCH  36  37
HETATM   37  O4  UNL     1      -0.284  -2.853   0.026  1.00  0.00    -0.349 OA
ATOM     38  H4  UNL     1      -0.313  -3.801   0.086  1.00  0.00     0.219 HD
ENDBRANCH  36  37
BRANCH  36  39
HETATM   39  C25 UNL     1      -2.460  -3.256  -0.634  1.00  0.00     0.064 C 
HETATM   40  C26 UNL     1      -2.248  -4.557   0.185  1.00  0.00     0.039 C 
HETATM   41  C27 UNL     1      -1.375  -5.524  -0.556  1.00  0.00     0.168 C 
HETATM   42  O5  UNL     1      -2.033  -6.055  -1.665  1.00  0.00    -0.391 OA
HETATM   43  C28 UNL     1      -2.899  -5.123  -2.233  1.00  0.00     0.168 C 
HETATM   44  C29 UNL     1      -2.271  -3.751  -2.082  1.00  0.00     0.039 C 
ENDBRANCH  36  39
ENDBRANCH   7  36
TORSDOF 10
