REMARK  4 active torsions:
REMARK  status: ('A' for Active; 'I' for Inactive)
REMARK    1  A    between atoms: C1_2  and  C2_3 
REMARK       I    between atoms: C1_2  and  N1_10 
REMARK    2  A    between atoms: C2_3  and  C3_4 
REMARK    3  A    between atoms: N1_10  and  C8_11 
REMARK    4  A    between atoms: C8_11  and  C9_12 
ROOT
HETATM    1  O1  UNL     1       0.048  -2.092  -0.413  1.00  0.00    -0.258 OA
HETATM    2  C1  UNL     1       0.274  -1.061   0.291  1.00  0.00     0.286 C 
HETATM    3  N1  UNL     1       1.457  -0.393   0.501  1.00  0.00    -0.415 NA
ENDROOT
BRANCH   2   4
HETATM    4  C2  UNL     1      -0.935  -0.449   1.016  1.00  0.00     0.123 C 
BRANCH   4   5
HETATM    5  C3  UNL     1      -2.195  -1.038   0.424  1.00  0.00    -0.002 C 
HETATM    6  C4  UNL     1      -3.423  -0.494   1.086  1.00  0.00     0.008 C 
HETATM    7  C5  UNL     1      -4.120   0.383   0.085  1.00  0.00     0.037 C 
HETATM    8  C6  UNL     1      -3.083   0.659  -0.975  1.00  0.00     0.170 C 
HETATM    9  F1  UNL     1      -2.416   1.812  -0.580  1.00  0.00    -0.249 F 
HETATM   10  C7  UNL     1      -2.240  -0.562  -1.033  1.00  0.00     0.042 C 
ENDBRANCH   4   5
ENDBRANCH   2   4
BRANCH   3  11
HETATM   11  C8  UNL     1       2.611   0.259   0.706  1.00  0.00     0.226 C 
BRANCH  11  12
HETATM   12  C9  UNL     1       3.224   0.782  -0.599  1.00  0.00     0.016 A 
HETATM   13  C10 UNL     1       4.506   1.528  -0.538  1.00  0.00     0.007 A 
HETATM   14  C11 UNL     1       4.538   0.115  -0.955  1.00  0.00     0.007 A 
ENDBRANCH  11  12
ENDBRANCH   3  11
TORSDOF 4
