REMARK  4 active torsions:
REMARK  status: ('A' for Active; 'I' for Inactive)
REMARK    1  A    between atoms: C2_2  and  N1_3 
REMARK    2  A    between atoms: N1_3  and  C4_5 
REMARK    3  A    between atoms: C7_8  and  N2_9 
REMARK       I    between atoms: N2_9  and  C8_11 
REMARK    4  A    between atoms: C10_17  and  N5_18 
ROOT
HETATM    1  C4  UNL     1      -0.903  -0.111   0.021  1.00  0.00     0.056 A 
HETATM    2  C5  UNL     1      -0.492   0.602   1.161  1.00  0.00     0.034 A 
HETATM    3  C6  UNL     1       0.820   0.678   1.549  1.00  0.00     0.032 A 
HETATM    4  C7  UNL     1       1.792   0.058   0.837  1.00  0.00     0.036 A 
HETATM    5  C9  UNL     1       1.411  -0.649  -0.287  1.00  0.00     0.061 A 
HETATM    6  C10 UNL     1       0.096  -0.735  -0.690  1.00  0.00     0.056 A 
ENDROOT
BRANCH   4   7
HETATM    7  N2  UNL     1       3.151   0.153   1.233  1.00  0.00    -0.331 N 
HETATM    8  C8  UNL     1       3.654   0.908   2.298  1.00  0.00     0.186 C 
HETATM    9  N3  UNL     1       3.420   2.180   2.449  1.00  0.00    -0.373 N 
HETATM   10  N4  UNL     1       4.464   0.277   3.266  1.00  0.00    -0.064 NA
ATOM     11  H32 UNL     1       2.835   2.636   1.749  1.00  0.00     0.158 HD
ATOM     12  H31 UNL     1       3.787   2.730   3.225  1.00  0.00     0.158 HD
ATOM     13  H2  UNL     1       3.828  -0.381   0.688  1.00  0.00     0.168 HD
ENDBRANCH   4   7
BRANCH   6  14
HETATM   14  N5  UNL     1      -0.208  -1.488  -1.847  1.00  0.00    -0.392 N 
HETATM   15  C11 UNL     1       0.846  -2.143  -2.608  1.00  0.00     0.146 C 
ATOM     16  H5  UNL     1      -1.177  -1.573  -2.152  1.00  0.00     0.159 HD
ENDBRANCH   6  14
BRANCH   1  17
HETATM   17  N1  UNL     1      -2.276  -0.140  -0.350  1.00  0.00    -0.384 N 
HETATM   18  C3  UNL     1      -3.288  -0.756   0.448  1.00  0.00     0.149 C 
BRANCH  17  19
HETATM   19  C2  UNL     1      -2.644   0.491  -1.595  1.00  0.00     0.118 C 
HETATM   20  C1  UNL     1      -3.467   1.729  -1.414  1.00  0.00     0.026 C 
ENDBRANCH  17  19
ENDBRANCH   1  17
TORSDOF 4
