REMARK  5 active torsions:
REMARK  status: ('A' for Active; 'I' for Inactive)
REMARK    1  A    between atoms: O1_2  and  C2_3 
REMARK    2  A    between atoms: C6_7  and  N1_8 
REMARK    3  A    between atoms: N1_8  and  C7_10 
REMARK    4  A    between atoms: C7_10  and  C8_11 
REMARK       I    between atoms: C8_11  and  N2_13 
REMARK    5  A    between atoms: N2_13  and  C9_15 
ROOT
HETATM    1  C7  UNL     1       0.871  -1.079   0.911  1.00  0.00     0.223 C 
ENDROOT
BRANCH   1   2
HETATM    2  N1  UNL     1      -0.064  -0.271   0.216  1.00  0.00    -0.381 N 
ATOM      3  H1  UNL     1       0.251   0.558  -0.287  1.00  0.00     0.160 HD
BRANCH   2   4
HETATM    4  C6  UNL     1      -1.451  -0.623   0.223  1.00  0.00     0.030 A 
HETATM    5  C5  UNL     1      -1.897  -1.747   0.902  1.00  0.00     0.029 A 
HETATM    6  C4  UNL     1      -3.237  -2.098   0.916  1.00  0.00     0.005 A 
HETATM    7  C3  UNL     1      -4.163  -1.336   0.254  1.00  0.00     0.037 A 
HETATM    8  C2  UNL     1      -3.744  -0.223  -0.422  1.00  0.00     0.070 A 
HETATM    9  C11 UNL     1      -2.398   0.123  -0.432  1.00  0.00     0.065 A 
BRANCH   8  10
HETATM   10  O1  UNL     1      -4.666   0.569  -1.103  1.00  0.00    -0.356 OA
HETATM   11  C1  UNL     1      -4.279   1.720  -1.810  1.00  0.00     0.210 C 
ENDBRANCH   8  10
ENDBRANCH   2   4
ENDBRANCH   1   2
BRANCH   1  12
HETATM   12  C8  UNL     1       2.272  -0.661   0.862  1.00  0.00     0.240 C 
HETATM   13  O2  UNL     1       3.162  -1.360   1.476  1.00  0.00    -0.271 OA
HETATM   14  N2  UNL     1       2.787   0.473   0.187  1.00  0.00    -0.309 N 
ATOM     15  H2  UNL     1       2.141   1.075  -0.323  1.00  0.00     0.170 HD
BRANCH  14  16
HETATM   16  C9  UNL     1       4.174   0.805   0.193  1.00  0.00     0.139 A 
HETATM   17  C10 UNL     1       4.957   1.800  -0.344  1.00  0.00     0.157 A 
HETATM   18  N3  UNL     1       6.080   1.273   0.193  1.00  0.00    -0.307 N 
HETATM   19  N4  UNL     1       5.313   0.315   0.709  1.00  0.00    -0.284 N 
ATOM     20  H3  UNL     1       7.073   1.506   0.200  1.00  0.00     0.186 HD
ATOM     21  H4  UNL     1       5.517  -0.499   1.288  1.00  0.00     0.188 HD
ENDBRANCH  14  16
ENDBRANCH   1  12
TORSDOF 5
