REMARK  14 active torsions:
REMARK  status: ('A' for Active; 'I' for Inactive)
REMARK    1  A    between atoms: C5_7  and  C6_8 
REMARK    2  A    between atoms: C6_8  and  N2_9 
REMARK    3  A    between atoms: C6_8  and  N3_13 
REMARK    4  A    between atoms: N3_13  and  C7_15 
REMARK    5  A    between atoms: C7_15  and  C8_16 
REMARK    6  A    between atoms: C8_16  and  C9_17 
REMARK    7  A    between atoms: C9_17  and  C10_18 
REMARK    8  A    between atoms: C10_18  and  N4_19 
REMARK       I    between atoms: C11_21  and  N6_23 
REMARK    9  A    between atoms: N6_23  and  C12_25 
REMARK   10  A    between atoms: C12_25  and  C13_26 
REMARK   11  A    between atoms: C13_26  and  C14_27 
REMARK   12  A    between atoms: C14_27  and  C15_28 
REMARK   13  A    between atoms: C17_31  and  C18_32 
REMARK   14  A    between atoms: C19_33  and  C20_34 
ROOT
HETATM    1  C6  UNL     1      -0.714   0.329  -0.830  1.00  0.00     0.313 C 
ENDROOT
BRANCH   1   2
HETATM    2  C5  UNL     1      -2.127   0.074  -1.308  1.00  0.00    -0.007 C 
HETATM    3  C3  UNL     1      -2.447   0.701  -2.415  1.00  0.00     0.011 C 
HETATM    4  N1  UNL     1      -3.721   0.565  -2.990  1.00  0.00    -0.366 N 
HETATM    5  C4  UNL     1      -1.416   1.577  -3.114  1.00  0.00     0.068 C 
HETATM    6  C2  UNL     1      -4.603  -0.179  -2.457  1.00  0.00    -0.001 C 
ATOM      7  H1  UNL     1      -3.942   1.071  -3.848  1.00  0.00     0.165 HD
HETATM    8  C1  UNL     1      -5.981  -0.336  -3.050  1.00  0.00     0.064 C 
HETATM    9  C17 UNL     1      -4.351  -1.004  -1.255  1.00  0.00     0.114 C 
HETATM   10  C16 UNL     1      -3.045  -0.785  -0.581  1.00  0.00     0.063 C 
BRANCH   9  11
HETATM   11  C18 UNL     1      -5.511  -0.811  -0.346  1.00  0.00    -0.095 C 
HETATM   12  C19 UNL     1      -6.472  -0.661   0.362  1.00  0.00    -0.097 C 
BRANCH  12  13
HETATM   13  C20 UNL     1      -7.662  -0.484   1.194  1.00  0.00     0.013 C 
HETATM   14  C21 UNL     1      -8.366  -1.813   1.436  1.00  0.00     0.028 C 
HETATM   15  C22 UNL     1      -8.702   0.400   0.495  1.00  0.00     0.028 C 
HETATM   16  C23 UNL     1      -7.305   0.131   2.510  1.00  0.00     0.028 C 
ENDBRANCH  12  13
ENDBRANCH   9  11
ENDBRANCH   1   2
BRANCH   1  17
HETATM   17  N2  UNL     1      -0.828   0.482   0.648  1.00  0.00    -0.054 N 
ATOM     18  H23 UNL     1      -1.497   1.194   0.939  1.00  0.00     0.277 HD
ATOM     19  H22 UNL     1      -1.285  -0.304   1.111  1.00  0.00     0.277 HD
ATOM     20  H21 UNL     1       0.124   0.654   0.970  1.00  0.00     0.277 HD
ENDBRANCH   1  17
BRANCH   1  21
HETATM   21  N3  UNL     1       0.156  -0.719  -1.083  1.00  0.00    -0.372 N 
ATOM     22  H3  UNL     1       0.341  -0.965  -2.055  1.00  0.00     0.161 HD
BRANCH  21  23
HETATM   23  C7  UNL     1       0.797  -1.461  -0.080  1.00  0.00     0.058 C 
BRANCH  23  24
HETATM   24  C8  UNL     1       1.880  -0.717   0.648  1.00  0.00     0.046 C 
BRANCH  24  25
HETATM   25  C9  UNL     1       2.510  -1.612   1.687  1.00  0.00     0.025 C 
BRANCH  25  26
HETATM   26  C10 UNL     1       3.635  -0.840   2.407  1.00  0.00     0.122 C 
BRANCH  26  27
HETATM   27  N4  UNL     1       4.611  -0.422   1.440  1.00  0.00    -0.365 N 
HETATM   28  C11 UNL     1       5.626   0.263   1.778  1.00  0.00     0.183 C 
HETATM   29  N5  UNL     1       5.846   0.648   3.129  1.00  0.00    -0.064 NA
HETATM   30  N6  UNL     1       6.546   0.649   0.735  1.00  0.00    -0.365 N 
ATOM     31  H6  UNL     1       6.321   1.424   0.111  1.00  0.00     0.162 HD
ATOM     32  H4  UNL     1       4.487  -0.681   0.461  1.00  0.00     0.162 HD
BRANCH  30  33
HETATM   33  C12 UNL     1       7.786  -0.071   0.583  1.00  0.00     0.122 C 
BRANCH  33  34
HETATM   34  C13 UNL     1       8.582   0.459  -0.585  1.00  0.00     0.020 C 
BRANCH  34  35
HETATM   35  C14 UNL     1       8.925   1.912  -0.447  1.00  0.00     0.012 C 
BRANCH  35  36
HETATM   36  C15 UNL     1       9.726   2.326  -1.675  1.00  0.00     0.085 C 
HETATM   37 BR1  UNL     1      10.213   4.202  -1.597  1.00  0.00    -0.097 Br
ENDBRANCH  35  36
ENDBRANCH  34  35
ENDBRANCH  33  34
ENDBRANCH  30  33
ENDBRANCH  26  27
ENDBRANCH  25  26
ENDBRANCH  24  25
ENDBRANCH  23  24
ENDBRANCH  21  23
ENDBRANCH   1  21
TORSDOF 14
