REMARK  6 active torsions:
REMARK  status: ('A' for Active; 'I' for Inactive)
REMARK    1  A    between atoms: C16_17  and  C17_18 
REMARK    2  A    between atoms: C17_18  and  C18_19 
REMARK    3  A    between atoms: C18_19  and  C19_20 
REMARK    4  A    between atoms: C20_21  and  O2_22 
REMARK    5  A    between atoms: C21_25  and  O4_26 
REMARK    6  A    between atoms: C22_28  and  O5_29 
ROOT
HETATM    1  C1  UNL     1      -4.097   0.735   1.080  1.00  0.00     0.015 C 
HETATM    2  C2  UNL     1      -3.335   0.629  -0.208  1.00  0.00    -0.043 C 
HETATM    3  C3  UNL     1      -4.429   0.411  -1.280  1.00  0.00     0.015 C 
HETATM    4  C4  UNL     1      -2.819   2.013  -0.527  1.00  0.00     0.009 C 
HETATM    5  C5  UNL     1      -1.446   1.853  -1.097  1.00  0.00     0.002 C 
HETATM    6  C6  UNL     1      -0.649   1.178   0.030  1.00  0.00     0.010 C 
HETATM    7  C7  UNL     1      -0.965  -0.248   0.197  1.00  0.00    -0.028 C 
HETATM    8  C8  UNL     1      -1.118  -0.509   1.704  1.00  0.00     0.016 C 
HETATM    9  C9  UNL     1      -0.158  -1.276  -0.477  1.00  0.00     0.060 C 
HETATM   10  C10 UNL     1      -0.647  -2.587   0.128  1.00  0.00    -0.007 C 
HETATM   11  C11 UNL     1      -1.929  -2.815   0.300  1.00  0.00    -0.015 C 
HETATM   12  C12 UNL     1      -2.961  -1.789  -0.093  1.00  0.00     0.034 C 
HETATM   13  C13 UNL     1      -2.385  -0.455  -0.377  1.00  0.00     0.006 C 
HETATM   14  C14 UNL     1       0.500  -3.417   0.458  1.00  0.00     0.160 C 
HETATM   15  O1  UNL     1       0.503  -4.652   0.591  1.00  0.00    -0.292 OA
HETATM   16  C15 UNL     1       1.659  -2.500   0.603  1.00  0.00     0.118 C 
HETATM   17  C16 UNL     1       1.248  -1.464  -0.469  1.00  0.00    -0.063 C 
ENDROOT
BRANCH  17  18
HETATM   18  C17 UNL     1       2.233  -0.415  -0.587  1.00  0.00     0.005 C 
BRANCH  18  19
HETATM   19  C18 UNL     1       3.318  -0.398   0.150  1.00  0.00     0.020 C 
BRANCH  19  20
HETATM   20  C19 UNL     1       4.367   0.602   0.114  1.00  0.00     0.060 A 
HETATM   21  C20 UNL     1       5.508   0.621   0.889  1.00  0.00     0.199 A 
HETATM   22  O3  UNL     1       6.228   1.687   0.575  1.00  0.00    -0.261 OA
HETATM   23  C21 UNL     1       5.652   2.384  -0.356  1.00  0.00     0.220 A 
HETATM   24  C22 UNL     1       4.466   1.720  -0.670  1.00  0.00     0.139 A 
BRANCH  21  25
HETATM   25  O2  UNL     1       5.850  -0.326   1.848  1.00  0.00    -0.340 OA
ATOM     26  H2  UNL     1       6.636  -0.313   2.382  1.00  0.00     0.220 HD
ENDBRANCH  21  25
BRANCH  23  27
HETATM   27  O4  UNL     1       6.139   3.545  -0.904  1.00  0.00    -0.339 OA
ATOM     28  H4  UNL     1       5.717   4.055  -1.585  1.00  0.00     0.220 HD
ENDBRANCH  23  27
BRANCH  24  29
HETATM   29  O5  UNL     1       3.591   2.171  -1.619  1.00  0.00    -0.355 OA
ATOM     30  H5  UNL     1       3.660   2.947  -2.163  1.00  0.00     0.218 HD
ENDBRANCH  24  29
ENDBRANCH  19  20
ENDBRANCH  18  19
ENDBRANCH  17  18
TORSDOF 6
