REMARK  5 active torsions:
REMARK  status: ('A' for Active; 'I' for Inactive)
REMARK    1  A    between atoms: C2_2  and  N1_3 
REMARK    2  A    between atoms: C5_9  and  C6_10 
REMARK    3  A    between atoms: C5_9  and  C7_15 
REMARK    4  A    between atoms: C6_10  and  N2_11 
REMARK    5  A    between atoms: C8_16  and  N3_17 
ROOT
HETATM    1  C1  UNL     1      -3.417   1.287  -0.638  1.00  0.00     0.046 C 
HETATM    2  C2  UNL     1      -2.498   0.099  -0.530  1.00  0.00     0.120 C 
HETATM    3  C3  UNL     1      -2.313  -0.335   0.919  1.00  0.00     0.039 C 
HETATM    4  C4  UNL     1      -1.159  -1.263   0.983  1.00  0.00     0.018 C 
HETATM    5  C5  UNL     1       0.222  -0.539   0.854  1.00  0.00     0.002 C 
HETATM    6  C12 UNL     1      -0.189   0.729   0.138  1.00  0.00     0.018 C 
HETATM    7  C13 UNL     1      -1.133   0.479  -1.031  1.00  0.00     0.039 C 
ENDROOT
BRANCH   5   8
HETATM    8  C6  UNL     1       0.661  -0.184   2.225  1.00  0.00     0.243 C 
BRANCH   8   9
HETATM    9  N2  UNL     1      -0.166   0.669   2.983  1.00  0.00    -0.078 N 
ATOM     10  H23 UNL     1      -0.338   1.524   2.455  1.00  0.00     0.274 HD
ATOM     11  H22 UNL     1      -1.106   0.274   3.024  1.00  0.00     0.274 HD
ATOM     12  H21 UNL     1       0.136   0.913   3.926  1.00  0.00     0.274 HD
ENDBRANCH   8   9
ENDBRANCH   5   8
BRANCH   5  13
HETATM   13  C7  UNL     1       1.072  -1.376   0.037  1.00  0.00     0.002 C 
HETATM   14  C8  UNL     1       2.450  -1.222  -0.336  1.00  0.00     0.094 C 
BRANCH  14  15
HETATM   15  N3  UNL     1       2.930  -0.069  -1.051  1.00  0.00    -0.328 N 
HETATM   16  C9  UNL     1       3.492   1.060  -0.584  1.00  0.00     0.114 A 
HETATM   17  C10 UNL     1       3.788   1.885  -1.629  1.00  0.00     0.106 A 
HETATM   18  N4  UNL     1       3.411   1.273  -2.758  1.00  0.00    -0.360 N 
HETATM   19  C11 UNL     1       2.892   0.093  -2.412  1.00  0.00     0.187 A 
ATOM     20  H4  UNL     1       3.503   1.640  -3.705  1.00  0.00     0.166 HD
ENDBRANCH  14  15
ENDBRANCH   5  13
BRANCH   2  21
HETATM   21  N1  UNL     1      -3.090  -0.995  -1.239  1.00  0.00    -0.071 N 
ATOM     22  H13 UNL     1      -4.037  -1.202  -0.922  1.00  0.00     0.275 HD
ATOM     23  H12 UNL     1      -3.316  -0.760  -2.206  1.00  0.00     0.275 HD
ATOM     24  H11 UNL     1      -2.468  -1.800  -1.166  1.00  0.00     0.275 HD
ENDBRANCH   2  21
TORSDOF 5
