REMARK  9 active torsions:
REMARK  status: ('A' for Active; 'I' for Inactive)
REMARK    1  A    between atoms: C2_2  and  C4_4 
REMARK    2  A    between atoms: C4_4  and  N1_5 
REMARK    3  A    between atoms: C4_4  and  C22_31 
REMARK       I    between atoms: N1_5  and  C5_7 
REMARK    4  A    between atoms: C5_7  and  C6_9 
REMARK    5  A    between atoms: C6_9  and  N2_10 
REMARK    6  A    between atoms: C6_9  and  C19_28 
REMARK       I    between atoms: N2_10  and  C7_12 
REMARK    7  A    between atoms: C7_12  and  C8_14 
REMARK    8  A    between atoms: C8_14  and  C9_15 
REMARK    9  A    between atoms: C13_19  and  O3_20 
ROOT
HETATM    1  N2  UNL     1       0.723  -0.017  -0.078  1.00  0.00    -0.326 N 
ATOM      2  H2  UNL     1       0.842  -0.012   0.935  1.00  0.00     0.168 HD
HETATM    3  C7  UNL     1      -0.510   0.480  -0.585  1.00  0.00     0.222 C 
HETATM    4  O2  UNL     1      -0.639   0.469  -1.839  1.00  0.00    -0.273 OA
ENDROOT
BRANCH   1   5
HETATM    5  C6  UNL     1       1.814  -0.524  -0.859  1.00  0.00     0.083 C 
BRANCH   5   6
HETATM    6  C5  UNL     1       3.020   0.296  -0.766  1.00  0.00     0.265 C 
HETATM    7  N1  UNL     1       4.364  -0.105  -0.928  1.00  0.00    -0.341 N 
ATOM      8  H1  UNL     1       4.556  -1.085  -1.135  1.00  0.00     0.163 HD
HETATM    9  O1  UNL     1       2.885   1.554  -0.501  1.00  0.00    -0.266 OA
BRANCH   7  10
HETATM   10  C4  UNL     1       5.484   0.809  -0.815  1.00  0.00     0.189 C 
BRANCH  10  11
HETATM   11  C2  UNL     1       6.247   0.588   0.489  1.00  0.00     0.011 C 
HETATM   12  C1  UNL     1       5.331   0.820   1.675  1.00  0.00     0.012 C 
HETATM   13  C3  UNL     1       6.853  -0.778   0.579  1.00  0.00     0.012 C 
ENDBRANCH  10  11
BRANCH  10  14
HETATM   14  C22 UNL     1       6.439   0.700  -1.910  1.00  0.00     0.197 C 
HETATM   15  O5  UNL     1       6.302  -0.093  -2.861  1.00  0.00    -0.646 OA
HETATM   16  O6  UNL     1       7.570   1.522  -1.900  1.00  0.00    -0.646 OA
ENDBRANCH  10  14
ENDBRANCH   7  10
ENDBRANCH   5   6
BRANCH   5  17
HETATM   17  C19 UNL     1       1.986  -2.003  -0.830  1.00  0.00     0.033 C 
HETATM   18  C20 UNL     1       2.657  -2.561   0.368  1.00  0.00     0.016 C 
HETATM   19  C21 UNL     1       2.657  -2.478  -2.087  1.00  0.00     0.016 C 
ENDBRANCH   5  17
ENDBRANCH   1   5
BRANCH   3  20
HETATM   20  C8  UNL     1      -1.573   0.976   0.337  1.00  0.00     0.110 C 
BRANCH  20  21
HETATM   21  C9  UNL     1      -2.811   1.367  -0.345  1.00  0.00     0.026 C 
HETATM   22  C10 UNL     1      -3.489   0.229  -1.139  1.00  0.00     0.045 C 
HETATM   23  C11 UNL     1      -4.799   0.284  -0.539  1.00  0.00     0.064 C 
HETATM   24  C12 UNL     1      -6.074  -0.086  -1.166  1.00  0.00     0.069 C 
HETATM   25  O4  UNL     1      -4.968   1.684  -0.397  1.00  0.00    -0.374 OA
HETATM   26  C18 UNL     1      -4.783  -0.515   0.730  1.00  0.00     0.043 C 
HETATM   27  C13 UNL     1      -7.132   0.173  -0.097  1.00  0.00     0.121 C 
HETATM   28  C14 UNL     1      -6.699   0.812   1.173  1.00  0.00     0.036 C 
HETATM   29  C15 UNL     1      -5.382   0.462   1.740  1.00  0.00    -0.007 C 
HETATM   30  C16 UNL     1      -4.309   1.542   1.749  1.00  0.00     0.037 C 
HETATM   31  C17 UNL     1      -3.868   2.010   0.431  1.00  0.00     0.127 C 
BRANCH  27  32
HETATM   32  O3  UNL     1      -7.927  -0.976   0.120  1.00  0.00    -0.395 OA
ATOM     33  H3  UNL     1      -8.586  -0.815   0.785  1.00  0.00     0.210 HD
ENDBRANCH  27  32
ENDBRANCH  20  21
ENDBRANCH   3  20
TORSDOF 9
