REMARK  17 active torsions:
REMARK  status: ('A' for Active; 'I' for Inactive)
REMARK    1  A    between atoms: C2_2  and  C3_3 
REMARK    2  A    between atoms: C3_3  and  C4_4 
REMARK    3  A    between atoms: C4_4  and  O1_5 
REMARK    4  A    between atoms: O1_5  and  C5_6 
REMARK    5  A    between atoms: C7_8  and  N1_9 
REMARK    6  A    between atoms: N1_9  and  C8_11 
REMARK    7  A    between atoms: C8_11  and  C9_12 
REMARK    8  A    between atoms: C9_12  and  C10_13 
REMARK    9  A    between atoms: C10_13  and  N2_14 
REMARK   10  A    between atoms: C12_21  and  N6_22 
REMARK   11  A    between atoms: N6_22  and  C13_24 
REMARK   12  A    between atoms: C13_24  and  C14_28 
REMARK   13  A    between atoms: C14_28  and  N8_29 
REMARK   14  A    between atoms: C14_28  and  C15_33 
REMARK   15  A    between atoms: C15_33  and  C16_34 
REMARK   16  A    between atoms: C16_34  and  C17_35 
REMARK   17  A    between atoms: C17_35  and  N9_36 
ROOT
HETATM    1  C5  UNL     1       0.117   2.624  -0.075  1.00  0.00     0.161 A 
HETATM    2  C6  UNL     1      -0.986   1.804  -0.177  1.00  0.00     0.105 A 
HETATM    3  C7  UNL     1      -0.803   0.444  -0.299  1.00  0.00     0.120 A 
HETATM    4  N5  UNL     1       0.459  -0.018  -0.313  1.00  0.00    -0.177 N 
ATOM      5  H5  UNL     1       0.596  -1.025  -0.404  1.00  0.00     0.186 HD
HETATM    6  C12 UNL     1       1.553   0.758  -0.215  1.00  0.00     0.687 A 
HETATM    7  N10 UNL     1       1.342   2.091  -0.096  1.00  0.00    -0.170 N 
ATOM      8  H10 UNL     1       2.148   2.711  -0.020  1.00  0.00     0.186 HD
ENDROOT
BRANCH   6   9
HETATM    9  N6  UNL     1       2.753   0.354  -0.224  1.00  0.00    -0.179 N 
ATOM     10  H6  UNL     1       3.485   1.059  -0.140  1.00  0.00     0.185 HD
BRANCH   9  11
HETATM   11  C13 UNL     1       3.162  -0.998  -0.341  1.00  0.00     0.121 C 
HETATM   12  N7  UNL     1       3.485  -1.383  -1.525  1.00  0.00    -0.387 N 
ATOM     13  H72 UNL     1       3.456  -0.720  -2.300  1.00  0.00     0.157 HD
ATOM     14  H71 UNL     1       3.779  -2.356  -1.609  1.00  0.00     0.157 HD
BRANCH  11  15
HETATM   15  C14 UNL     1       3.204  -1.948   0.769  1.00  0.00     0.250 C 
BRANCH  15  16
HETATM   16  N8  UNL     1       3.854  -1.365   1.950  1.00  0.00    -0.068 N 
ATOM     17  H83 UNL     1       4.784  -1.009   1.727  1.00  0.00     0.275 HD
ATOM     18  H82 UNL     1       3.412  -0.488   2.225  1.00  0.00     0.275 HD
ATOM     19  H81 UNL     1       3.883  -2.028   2.725  1.00  0.00     0.275 HD
ENDBRANCH  15  16
BRANCH  15  20
HETATM   20  C15 UNL     1       3.993  -3.197   0.473  1.00  0.00     0.042 C 
BRANCH  20  21
HETATM   21  C16 UNL     1       5.429  -2.910   0.182  1.00  0.00     0.030 C 
BRANCH  21  22
HETATM   22  C17 UNL     1       6.203  -4.205  -0.113  1.00  0.00     0.230 C 
BRANCH  22  23
HETATM   23  N9  UNL     1       7.574  -3.804  -0.379  1.00  0.00    -0.079 N 
ATOM     24  H93 UNL     1       7.657  -3.104  -1.117  1.00  0.00     0.274 HD
ATOM     25  H92 UNL     1       7.986  -3.246   0.369  1.00  0.00     0.274 HD
ATOM     26  H91 UNL     1       8.088  -4.663  -0.575  1.00  0.00     0.274 HD
ENDBRANCH  22  23
ENDBRANCH  21  22
ENDBRANCH  20  21
ENDBRANCH  15  20
ENDBRANCH  11  15
ENDBRANCH   9  11
ENDBRANCH   6   9
BRANCH   3  27
HETATM   27  N1  UNL     1      -1.820  -0.325  -0.395  1.00  0.00    -0.376 N 
ATOM     28  H1  UNL     1      -2.765   0.060  -0.382  1.00  0.00     0.161 HD
BRANCH  27  29
HETATM   29  C8  UNL     1      -1.607  -1.752  -0.523  1.00  0.00     0.123 C 
BRANCH  29  30
HETATM   30  C9  UNL     1      -3.011  -2.378  -0.600  1.00  0.00     0.039 C 
BRANCH  30  31
HETATM   31  C10 UNL     1      -3.695  -2.005   0.674  1.00  0.00     0.123 C 
BRANCH  31  32
HETATM   32  N2  UNL     1      -5.020  -2.468   0.844  1.00  0.00    -0.367 N 
HETATM   33  C11 UNL     1      -5.758  -3.192   0.136  1.00  0.00     0.196 C 
HETATM   34  N3  UNL     1      -5.359  -3.743  -1.103  1.00  0.00    -0.067 NA
HETATM   35  N4  UNL     1      -7.075  -3.488   0.588  1.00  0.00    -0.067 NA
ATOM     36  H2  UNL     1      -5.459  -2.152   1.709  1.00  0.00     0.161 HD
ENDBRANCH  31  32
ENDBRANCH  30  31
ENDBRANCH  29  30
ENDBRANCH  27  29
ENDBRANCH   3  27
BRANCH   1  37
HETATM   37  O1  UNL     1      -0.052   3.993   0.049  1.00  0.00    -0.335 OA
BRANCH  37  38
HETATM   38  C4  UNL     1      -1.341   4.588   0.074  1.00  0.00     0.177 C 
BRANCH  38  39
HETATM   39  C3  UNL     1      -1.260   6.083   0.215  1.00  0.00     0.026 C 
BRANCH  39  40
HETATM   40  C2  UNL     1      -2.709   6.593   0.229  1.00  0.00    -0.002 C 
HETATM   41  C1  UNL     1      -2.646   8.092   0.370  1.00  0.00     0.005 C 
ENDBRANCH  39  40
ENDBRANCH  38  39
ENDBRANCH  37  38
ENDBRANCH   1  37
TORSDOF 17
