REMARK  14 active torsions:
REMARK  status: ('A' for Active; 'I' for Inactive)
REMARK       I    between atoms: C1_4  and  N3_6 
REMARK    1  A    between atoms: N3_6  and  C2_7 
REMARK    2  A    between atoms: N3_6  and  C12_28 
REMARK    3  A    between atoms: C2_7  and  C3_8 
REMARK    4  A    between atoms: C3_8  and  C4_9 
REMARK    5  A    between atoms: C4_9  and  C5_10 
REMARK    6  A    between atoms: C5_10  and  C6_11 
REMARK    7  A    between atoms: C6_11  and  N4_12 
REMARK    8  A    between atoms: N4_12  and  C7_14 
REMARK    9  A    between atoms: C12_28  and  C13_29 
REMARK       I    between atoms: C13_29  and  N9_31 
REMARK   10  A    between atoms: N9_31  and  C14_33 
REMARK   11  A    between atoms: C14_33  and  C15_34 
REMARK   12  A    between atoms: C15_34  and  C16_35 
REMARK   13  A    between atoms: C16_35  and  C17_36 
REMARK   14  A    between atoms: C17_36  and  N10_37 
ROOT
HETATM    1  C2  UNL     1       0.166  -0.067   0.982  1.00  0.00     0.126 C 
ENDROOT
BRANCH   1   2
HETATM    2  N3  UNL     1       1.038   0.161  -0.132  1.00  0.00    -0.347 N 
HETATM    3  C1  UNL     1       1.299  -0.838  -1.089  1.00  0.00     0.184 C 
HETATM    4  N1  UNL     1       1.165  -0.477  -2.347  1.00  0.00    -0.374 N 
HETATM    5  N2  UNL     1       1.697  -2.167  -0.818  1.00  0.00    -0.064 NA
ATOM      6  H12 UNL     1       1.354  -1.201  -3.040  1.00  0.00     0.158 HD
ATOM      7  H11 UNL     1       0.878   0.482  -2.543  1.00  0.00     0.158 HD
BRANCH   2   8
HETATM    8  C12 UNL     1       1.683   1.445  -0.281  1.00  0.00     0.228 C 
BRANCH   8   9
HETATM    9  C13 UNL     1       3.118   1.504  -0.061  1.00  0.00     0.235 C 
HETATM   10  O2  UNL     1       3.642   2.672  -0.230  1.00  0.00    -0.272 OA
HETATM   11  N9  UNL     1       4.013   0.498   0.303  1.00  0.00    -0.360 N 
ATOM     12  H9  UNL     1       3.668  -0.450   0.457  1.00  0.00     0.162 HD
BRANCH  11  13
HETATM   13  C14 UNL     1       5.448   0.784   0.468  1.00  0.00     0.122 C 
BRANCH  13  14
HETATM   14  C15 UNL     1       6.197  -0.441   0.849  1.00  0.00     0.021 C 
BRANCH  14  15
HETATM   15  C16 UNL     1       7.652  -0.312   1.104  1.00  0.00     0.029 C 
BRANCH  15  16
HETATM   16  C17 UNL     1       8.495   0.169  -0.012  1.00  0.00     0.229 C 
BRANCH  16  17
HETATM   17  N10 UNL     1       8.226   1.495  -0.487  1.00  0.00    -0.079 N 
ATOM     18 3H10 UNL     1       7.241   1.577  -0.740  1.00  0.00     0.274 HD
ATOM     19 2H10 UNL     1       8.274   2.155   0.289  1.00  0.00     0.274 HD
ATOM     20 1H10 UNL     1       8.807   1.827  -1.257  1.00  0.00     0.274 HD
ENDBRANCH  16  17
ENDBRANCH  15  16
ENDBRANCH  14  15
ENDBRANCH  13  14
ENDBRANCH  11  13
ENDBRANCH   8   9
ENDBRANCH   2   8
ENDBRANCH   1   2
BRANCH   1  21
HETATM   21  C3  UNL     1      -0.615  -1.319   1.035  1.00  0.00     0.020 C 
BRANCH  21  22
HETATM   22  C4  UNL     1      -1.594  -1.555  -0.059  1.00  0.00     0.003 C 
BRANCH  22  23
HETATM   23  C5  UNL     1      -2.642  -0.462  -0.151  1.00  0.00     0.020 C 
BRANCH  23  24
HETATM   24  C6  UNL     1      -3.586  -0.782  -1.299  1.00  0.00     0.138 C 
BRANCH  24  25
HETATM   25  N4  UNL     1      -4.606   0.190  -1.490  1.00  0.00    -0.226 N 
ATOM     26  H4  UNL     1      -4.424   0.927  -2.171  1.00  0.00     0.177 HD
BRANCH  25  27
HETATM   27  C7  UNL     1      -5.727   0.222  -0.886  1.00  0.00     0.682 A 
HETATM   28  N5  UNL     1      -6.044  -0.702   0.020  1.00  0.00    -0.154 N 
HETATM   29  C8  UNL     1      -7.238  -0.685   0.673  1.00  0.00     0.290 A 
ATOM     30  H5  UNL     1      -5.374  -1.442   0.230  1.00  0.00     0.187 HD
HETATM   31  O1  UNL     1      -7.528  -1.556   1.523  1.00  0.00    -0.265 OA
HETATM   32  C9  UNL     1      -8.115   0.337   0.358  1.00  0.00     0.147 A 
HETATM   33  N6  UNL     1      -9.357   0.597   0.846  1.00  0.00    -0.345 N 
HETATM   34  C11 UNL     1      -7.798   1.292  -0.571  1.00  0.00     0.154 A 
HETATM   35  C10 UNL     1      -9.776   1.711   0.203  1.00  0.00     0.182 A 
ATOM     36  H6  UNL     1      -9.867   0.063   1.550  1.00  0.00     0.167 HD
HETATM   37  N7  UNL     1      -8.823   2.128  -0.658  1.00  0.00    -0.336 N 
ATOM     38  H7  UNL     1      -8.882   2.943  -1.268  1.00  0.00     0.168 HD
HETATM   39  N8  UNL     1      -6.589   1.209  -1.181  1.00  0.00    -0.174 N 
ATOM     40  H8  UNL     1      -6.330   1.909  -1.876  1.00  0.00     0.186 HD
ENDBRANCH  25  27
ENDBRANCH  24  25
ENDBRANCH  23  24
ENDBRANCH  22  23
ENDBRANCH  21  22
ENDBRANCH   1  21
TORSDOF 14
