REMARK  22 active torsions:
REMARK  status: ('A' for Active; 'I' for Inactive)
REMARK    1  A    between atoms: N1_13  and  C13_14 
REMARK    2  A    between atoms: C13_14  and  C14_15 
REMARK    3  A    between atoms: C14_15  and  C15_16 
REMARK    4  A    between atoms: C15_16  and  C16_17 
REMARK    5  A    between atoms: C16_17  and  C17_18 
REMARK    6  A    between atoms: C17_18  and  C18_19 
REMARK    7  A    between atoms: C18_19  and  N2_20 
REMARK    8  A    between atoms: N2_20  and  C19_22 
REMARK    9  A    between atoms: C19_22  and  C20_23 
REMARK   10  A    between atoms: C20_23  and  C21_24 
REMARK   11  A    between atoms: C21_24  and  N3_25 
REMARK   12  A    between atoms: C24_28  and  N4_29 
REMARK       I    between atoms: N4_29  and  C25_31 
REMARK   13  A    between atoms: C25_31  and  C26_33 
REMARK   14  A    between atoms: C26_33  and  N5_34 
REMARK   15  A    between atoms: C26_33  and  C27_38 
REMARK   16  A    between atoms: C27_38  and  C28_39 
REMARK   17  A    between atoms: C28_39  and  C29_40 
REMARK   18  A    between atoms: C29_40  and  C30_41 
REMARK   19  A    between atoms: C30_41  and  N6_42 
REMARK   20  A    between atoms: C34_50  and  O2_51 
REMARK   21  A    between atoms: C35_53  and  O3_54 
REMARK   22  A    between atoms: C36_56  and  O4_57 
ROOT
HETATM    1  C18 UNL     1      -0.789   0.269   1.795  1.00  0.00     0.060 C 
ENDROOT
BRANCH   1   2
HETATM    2  C17 UNL     1      -0.735  -0.717   0.716  1.00  0.00     0.044 C 
BRANCH   2   3
HETATM    3  C16 UNL     1      -2.000  -1.191   0.155  1.00  0.00     0.005 C 
BRANCH   3   4
HETATM    4  C15 UNL     1      -2.933  -0.375  -0.623  1.00  0.00     0.005 C 
BRANCH   4   5
HETATM    5  C14 UNL     1      -3.484   0.827   0.045  1.00  0.00     0.044 C 
BRANCH   5   6
HETATM    6  C13 UNL     1      -4.533   1.570  -0.778  1.00  0.00     0.064 C 
BRANCH   6   7
HETATM    7  N1  UNL     1      -5.698   0.874  -1.125  1.00  0.00    -0.360 N 
HETATM    8  C12 UNL     1      -6.595   0.505  -0.126  1.00  0.00     0.033 C 
HETATM    9  C2  UNL     1      -7.497  -0.653  -0.395  1.00  0.00     0.028 C 
HETATM   10  C11 UNL     1      -7.317   1.546   0.625  1.00  0.00    -0.006 A 
HETATM   11  C1  UNL     1      -6.849  -1.984   0.008  1.00  0.00     0.025 C 
HETATM   12  C3  UNL     1      -8.871  -0.542   0.210  1.00  0.00     0.018 C 
HETATM   13  C36 UNL     1      -7.774  -0.837  -1.900  1.00  0.00     0.163 C 
HETATM   14  C4  UNL     1      -8.992  -0.845   1.660  1.00  0.00     0.006 C 
HETATM   15  C5  UNL     1      -8.145   0.046   2.538  1.00  0.00     0.039 C 
HETATM   16  C6  UNL     1      -8.007   1.370   1.832  1.00  0.00    -0.046 A 
HETATM   17  C7  UNL     1      -8.640   2.400   2.475  1.00  0.00     0.008 A 
HETATM   18  C8  UNL     1      -8.634   3.672   1.964  1.00  0.00     0.001 A 
HETATM   19  C9  UNL     1      -7.966   3.873   0.781  1.00  0.00     0.001 A 
HETATM   20  C10 UNL     1      -7.322   2.811   0.135  1.00  0.00     0.014 A 
HETATM   21  C35 UNL     1      -6.577  -1.291  -2.663  1.00  0.00     0.178 C 
HETATM   22  C34 UNL     1      -6.012  -0.087  -3.377  1.00  0.00     0.167 C 
HETATM   23  C33 UNL     1      -6.152   1.087  -2.443  1.00  0.00     0.162 C 
BRANCH  13  24
HETATM   24  O4  UNL     1      -8.664  -1.946  -1.929  1.00  0.00    -0.392 OA
ATOM     25  H4  UNL     1      -8.835  -2.059  -2.857  1.00  0.00     0.210 HD
ENDBRANCH  13  24
BRANCH  21  26
HETATM   26  O3  UNL     1      -6.900  -2.243  -3.642  1.00  0.00    -0.390 OA
ATOM     27  H3  UNL     1      -7.256  -3.001  -3.193  1.00  0.00     0.210 HD
ENDBRANCH  21  26
BRANCH  22  28
HETATM   28  O2  UNL     1      -4.695  -0.292  -3.765  1.00  0.00    -0.391 OA
ATOM     29  H2  UNL     1      -4.607  -1.032  -4.354  1.00  0.00     0.210 HD
ENDBRANCH  22  28
ENDBRANCH   6   7
ENDBRANCH   5   6
ENDBRANCH   4   5
ENDBRANCH   3   4
ENDBRANCH   2   3
ENDBRANCH   1   2
BRANCH   1  30
HETATM   30  N2  UNL     1       0.391   0.736   2.392  1.00  0.00    -0.382 N 
ATOM     31  H2  UNL     1       0.573   0.426   3.347  1.00  0.00     0.163 HD
BRANCH  30  32
HETATM   32  C19 UNL     1       1.326   1.566   1.826  1.00  0.00     0.062 C 
BRANCH  32  33
HETATM   33  C20 UNL     1       2.173   1.009   0.716  1.00  0.00     0.074 C 
BRANCH  33  34
HETATM   34  C21 UNL     1       2.946  -0.195   1.116  1.00  0.00     0.277 C 
BRANCH  34  35
HETATM   35  N3  UNL     1       3.767  -0.738   0.027  1.00  0.00     0.091 N 
HETATM   36  C22 UNL     1       4.423  -1.930   0.572  1.00  0.00     0.274 C 
HETATM   37  C23 UNL     1       5.250  -2.668  -0.430  1.00  0.00     0.058 C 
HETATM   38  C24 UNL     1       6.251  -1.684  -1.061  1.00  0.00     0.121 C 
HETATM   39  C31 UNL     1       5.541  -0.469  -1.561  1.00  0.00     0.221 C 
HETATM   40  F1  UNL     1       6.351   0.483  -2.085  1.00  0.00    -0.245 F 
HETATM   41  C32 UNL     1       4.818   0.173  -0.375  1.00  0.00     0.311 C 
BRANCH  38  42
HETATM   42  N4  UNL     1       7.334  -1.446  -0.179  1.00  0.00    -0.352 N 
HETATM   43  C25 UNL     1       8.680  -1.812  -0.315  1.00  0.00     0.248 C 
HETATM   44  O1  UNL     1       9.047  -2.441  -1.339  1.00  0.00    -0.271 OA
ATOM     45  H4  UNL     1       7.102  -0.937   0.674  1.00  0.00     0.163 HD
BRANCH  43  46
HETATM   46  C26 UNL     1       9.725  -1.501   0.693  1.00  0.00     0.274 C 
BRANCH  46  47
HETATM   47  N5  UNL     1       9.194  -0.713   1.799  1.00  0.00    -0.067 N 
ATOM     48  H53 UNL     1       8.737   0.135   1.465  1.00  0.00     0.275 HD
ATOM     49  H52 UNL     1       8.389  -1.170   2.228  1.00  0.00     0.275 HD
ATOM     50  H51 UNL     1       9.912  -0.499   2.491  1.00  0.00     0.275 HD
ENDBRANCH  46  47
BRANCH  46  51
HETATM   51  C27 UNL     1      10.890  -0.781   0.097  1.00  0.00     0.042 C 
BRANCH  51  52
HETATM   52  C28 UNL     1      10.563   0.526  -0.541  1.00  0.00     0.004 C 
BRANCH  52  53
HETATM   53  C29 UNL     1      11.778   1.184  -1.126  1.00  0.00     0.027 C 
BRANCH  53  54
HETATM   54  C30 UNL     1      12.790   1.454  -0.037  1.00  0.00     0.229 C 
BRANCH  54  55
HETATM   55  N6  UNL     1      13.975   2.113  -0.626  1.00  0.00    -0.079 N 
ATOM     56  H63 UNL     1      14.371   1.578  -1.399  1.00  0.00     0.274 HD
ATOM     57  H62 UNL     1      13.731   2.956  -1.145  1.00  0.00     0.274 HD
ATOM     58  H61 UNL     1      14.658   2.295   0.109  1.00  0.00     0.274 HD
ENDBRANCH  54  55
ENDBRANCH  53  54
ENDBRANCH  52  53
ENDBRANCH  51  52
ENDBRANCH  46  51
ENDBRANCH  43  46
ENDBRANCH  38  42
ENDBRANCH  34  35
ENDBRANCH  33  34
ENDBRANCH  32  33
ENDBRANCH  30  32
ENDBRANCH   1  30
TORSDOF 22
