REMARK  24 active torsions:
REMARK  status: ('A' for Active; 'I' for Inactive)
REMARK    1  A    between atoms: C2_2  and  C3_3 
REMARK    2  A    between atoms: C3_3  and  C4_4 
REMARK    3  A    between atoms: C4_4  and  C5_5 
REMARK       I    between atoms: C5_5  and  N1_7 
REMARK    4  A    between atoms: N1_7  and  C6_8 
REMARK    5  A    between atoms: C6_8  and  C7_9 
REMARK    6  A    between atoms: C6_8  and  C14_17 
REMARK    7  A    between atoms: C7_9  and  C8_10 
REMARK    8  A    between atoms: C8_10  and  C9_11 
REMARK    9  A    between atoms: C9_11  and  C10_12 
REMARK   10  A    between atoms: C10_12  and  C11_13 
REMARK   11  A    between atoms: C11_13  and  C12_14 
REMARK   12  A    between atoms: C12_14  and  O2_15 
REMARK   13  A    between atoms: C14_17  and  C15_19 
REMARK   14  A    between atoms: C15_19  and  C16_20 
REMARK   15  A    between atoms: C16_20  and  O4_21 
REMARK   16  A    between atoms: C16_20  and  C17_23 
REMARK   17  A    between atoms: C17_23  and  C18_24 
REMARK   18  A    between atoms: C18_24  and  C19_25 
REMARK   19  A    between atoms: C19_25  and  C20_26 
REMARK   20  A    between atoms: C22_29  and  O5_30 
REMARK   21  A    between atoms: C25_34  and  O6_35 
REMARK   22  A    between atoms: C26_37  and  O7_38 
REMARK   23  A    between atoms: C27_40  and  O8_41 
REMARK   24  A    between atoms: C28_43  and  O9_44 
ROOT
HETATM    1  C15 UNL     1      -1.519  -0.448  -0.138  1.00  0.00     0.084 C 
HETATM    2  C22 UNL     1      -1.979  -1.824  -0.406  1.00  0.00     0.138 C 
HETATM    3  C23 UNL     1      -2.899  -2.132  -1.515  1.00  0.00     0.041 C 
HETATM    4  C24 UNL     1      -3.089  -1.156  -2.599  1.00  0.00     0.031 C 
HETATM    5  C25 UNL     1      -4.313  -1.503  -3.397  1.00  0.00     0.154 C 
HETATM    6  C26 UNL     1      -5.607  -0.953  -2.953  1.00  0.00     0.178 C 
HETATM    7  C27 UNL     1      -5.409   0.479  -2.565  1.00  0.00     0.178 C 
HETATM    8  C28 UNL     1      -4.337   0.513  -1.463  1.00  0.00     0.159 C 
HETATM    9  C29 UNL     1      -3.065   0.215  -2.035  1.00  0.00     0.004 C 
HETATM   10  C30 UNL     1      -2.667   1.416  -2.785  1.00  0.00     0.018 C 
HETATM   11  C31 UNL     1      -1.842   1.746  -1.492  1.00  0.00    -0.007 C 
HETATM   12  C32 UNL     1      -0.845   2.711  -1.978  1.00  0.00     0.011 C 
HETATM   13  C33 UNL     1      -1.681   0.307  -1.420  1.00  0.00    -0.011 C 
HETATM   14  C34 UNL     1      -0.635  -0.182  -2.378  1.00  0.00     0.018 C 
ENDROOT
BRANCH   1  15
HETATM   15  C14 UNL     1      -0.157  -0.580   0.451  1.00  0.00     0.176 C 
HETATM   16  O3  UNL     1       0.049  -1.363   1.351  1.00  0.00    -0.293 OA
BRANCH  15  17
HETATM   17  C6  UNL     1       1.090   0.109   0.194  1.00  0.00     0.237 C 
BRANCH  17  18
HETATM   18  N1  UNL     1       1.747   0.831   1.165  1.00  0.00    -0.402 NA
HETATM   19  C5  UNL     1       2.400   1.538   2.155  1.00  0.00     0.287 C 
HETATM   20  O1  UNL     1       2.581   1.399   3.334  1.00  0.00    -0.258 OA
BRANCH  19  21
HETATM   21  C4  UNL     1       2.964   2.774   1.328  1.00  0.00     0.119 C 
BRANCH  21  22
HETATM   22  C3  UNL     1       3.316   3.880   2.223  1.00  0.00     0.010 C 
BRANCH  22  23
HETATM   23  C2  UNL     1       3.663   5.061   1.276  1.00  0.00    -0.004 C 
HETATM   24  C1  UNL     1       4.036   6.281   2.060  1.00  0.00     0.005 C 
ENDBRANCH  22  23
ENDBRANCH  21  22
ENDBRANCH  19  21
ENDBRANCH  17  18
BRANCH  17  25
HETATM   25  C7  UNL     1       2.046  -0.970  -0.291  1.00  0.00     0.047 C 
BRANCH  25  26
HETATM   26  C8  UNL     1       3.266  -0.389  -0.988  1.00  0.00     0.004 C 
BRANCH  26  27
HETATM   27  C9  UNL     1       4.098  -1.628  -1.352  1.00  0.00     0.000 C 
BRANCH  27  28
HETATM   28  C10 UNL     1       5.393  -1.281  -2.025  1.00  0.00     0.002 C 
BRANCH  28  29
HETATM   29  C11 UNL     1       6.235  -2.539  -2.231  1.00  0.00     0.026 C 
BRANCH  29  30
HETATM   30  C12 UNL     1       6.601  -3.189  -0.922  1.00  0.00     0.167 C 
BRANCH  30  31
HETATM   31  O2  UNL     1       7.354  -4.356  -1.093  1.00  0.00    -0.396 OA
HETATM   32  C13 UNL     1       7.687  -4.905   0.137  1.00  0.00     0.201 C 
ENDBRANCH  30  31
ENDBRANCH  29  30
ENDBRANCH  28  29
ENDBRANCH  27  28
ENDBRANCH  26  27
ENDBRANCH  25  26
ENDBRANCH  17  25
ENDBRANCH  15  17
ENDBRANCH   1  15
BRANCH   1  33
HETATM   33  C16 UNL     1      -2.138   0.364   0.985  1.00  0.00     0.137 C 
BRANCH  33  34
HETATM   34  O4  UNL     1      -1.256   1.489   1.110  1.00  0.00    -0.394 OA
ATOM     35  H4  UNL     1      -1.643   1.997   1.813  1.00  0.00     0.210 HD
ENDBRANCH  33  34
BRANCH  33  36
HETATM   36  C17 UNL     1      -2.310  -0.212   2.308  1.00  0.00     0.033 C 
BRANCH  36  37
HETATM   37  C18 UNL     1      -3.021   0.725   3.322  1.00  0.00     0.004 C 
BRANCH  37  38
HETATM   38  C19 UNL     1      -3.256  -0.075   4.603  1.00  0.00     0.020 C 
BRANCH  38  39
HETATM   39  C20 UNL     1      -2.038  -0.668   5.178  1.00  0.00     0.078 C 
HETATM   40  C21 UNL     1      -2.443  -1.464   6.432  1.00  0.00     0.026 C 
HETATM   41 CL1  UNL     1      -0.889   0.580   5.661  1.00  0.00    -0.125 Cl
ENDBRANCH  38  39
ENDBRANCH  37  38
ENDBRANCH  36  37
ENDBRANCH  33  36
ENDBRANCH   1  33
BRANCH   2  42
HETATM   42  O5  UNL     1      -2.272  -2.644   0.681  1.00  0.00    -0.394 OA
ATOM     43  H5  UNL     1      -2.568  -3.530   0.508  1.00  0.00     0.210 HD
ENDBRANCH   2  42
BRANCH   8  44
HETATM   44  O9  UNL     1      -4.989  -0.363  -0.593  1.00  0.00    -0.392 OA
ATOM     45  H9  UNL     1      -4.327  -0.342   0.088  1.00  0.00     0.210 HD
ENDBRANCH   8  44
BRANCH   5  46
HETATM   46  O6  UNL     1      -4.131  -1.161  -4.765  1.00  0.00    -0.393 OA
ATOM     47  H6  UNL     1      -4.905  -1.381  -5.270  1.00  0.00     0.210 HD
ENDBRANCH   5  46
BRANCH   7  48
HETATM   48  O8  UNL     1      -5.215   1.236  -3.660  1.00  0.00    -0.390 OA
ATOM     49  H8  UNL     1      -5.089   2.145  -3.414  1.00  0.00     0.210 HD
ENDBRANCH   7  48
BRANCH   6  50
HETATM   50  O7  UNL     1      -6.305  -1.693  -2.053  1.00  0.00    -0.390 OA
ATOM     51  H7  UNL     1      -7.139  -1.339  -1.767  1.00  0.00     0.210 HD
ENDBRANCH   6  50
TORSDOF 24
