REMARK  11 active torsions:
REMARK  status: ('A' for Active; 'I' for Inactive)
REMARK    1  A    between atoms: N1_1  and  C1_4 
REMARK    2  A    between atoms: N4_13  and  C6_14 
REMARK    3  A    between atoms: C6_14  and  O1_15 
REMARK    4  A    between atoms: C6_14  and  C7_17 
REMARK    5  A    between atoms: C7_17  and  C8_18 
REMARK    6  A    between atoms: C8_18  and  N5_19 
REMARK    7  A    between atoms: N5_19  and  C9_20 
REMARK    8  A    between atoms: N5_19  and  C18_31 
REMARK    9  A    between atoms: C9_20  and  C10_21 
REMARK       I    between atoms: C10_21  and  N6_23 
REMARK   10  A    between atoms: N6_23  and  C11_24 
REMARK   11  A    between atoms: C18_31  and  C19_32 
ROOT
HETATM    1  C8  UNL     1       0.622  -0.498  -0.234  1.00  0.00     0.304 C 
ENDROOT
BRANCH   1   2
HETATM    2  C7  UNL     1       1.947  -0.600  -0.843  1.00  0.00     0.059 C 
BRANCH   2   3
HETATM    3  C6  UNL     1       3.214  -0.269  -0.216  1.00  0.00     0.140 C 
BRANCH   3   4
HETATM    4  N4  UNL     1       3.711   1.020  -0.037  1.00  0.00    -0.332 N 
HETATM    5  C5  UNL     1       5.146   1.051  -0.497  1.00  0.00     0.175 C 
HETATM    6  C4  UNL     1       5.542   2.429  -0.372  1.00  0.00     0.032 A 
HETATM    7  C1  UNL     1       6.579   3.147  -0.878  1.00  0.00     0.110 A 
HETATM    8  C3  UNL     1       4.573   3.115   0.377  1.00  0.00     0.060 A 
HETATM    9  N2  UNL     1       6.669   4.482  -0.676  1.00  0.00    -0.338 N 
HETATM   10  C2  UNL     1       5.732   5.151   0.038  1.00  0.00     0.182 A 
ATOM     11  H2  UNL     1       7.458   4.995  -1.069  1.00  0.00     0.168 HD
HETATM   12  N3  UNL     1       4.706   4.418   0.531  1.00  0.00    -0.351 N 
ATOM     13  H3  UNL     1       3.984   4.909   1.059  1.00  0.00     0.166 HD
HETATM   14  C23 UNL     1       3.652   1.999   0.863  1.00  0.00     0.123 C 
BRANCH   7  15
HETATM   15  N1  UNL     1       7.604   2.568  -1.466  1.00  0.00    -0.385 N 
ATOM     16  H12 UNL     1       8.382   3.107  -1.846  1.00  0.00     0.157 HD
ATOM     17  H11 UNL     1       7.536   1.562  -1.618  1.00  0.00     0.157 HD
ENDBRANCH   7  15
ENDBRANCH   3   4
BRANCH   3  18
HETATM   18  O1  UNL     1       4.225  -1.252  -0.364  1.00  0.00    -0.346 OA
ATOM     19  H1  UNL     1       3.886  -2.131  -0.486  1.00  0.00     0.219 HD
ENDBRANCH   3  18
ENDBRANCH   2   3
ENDBRANCH   1   2
BRANCH   1  20
HETATM   20  N5  UNL     1       0.240  -1.483   0.760  1.00  0.00     0.104 N 
BRANCH  20  21
HETATM   21  C9  UNL     1      -1.231  -1.664   0.539  1.00  0.00     0.390 C 
BRANCH  21  22
HETATM   22  C10 UNL     1      -1.844  -0.363   0.936  1.00  0.00     0.315 C 
HETATM   23  O2  UNL     1      -1.331   0.414   1.686  1.00  0.00    -0.256 OA
HETATM   24  N6  UNL     1      -3.069  -0.118   0.309  1.00  0.00    -0.408 NA
BRANCH  24  25
HETATM   25  C11 UNL     1      -4.237   0.140  -0.271  1.00  0.00     0.167 C 
HETATM   26  C12 UNL     1      -3.826   1.680  -0.853  1.00  0.00     0.039 C 
HETATM   27  C13 UNL     1      -4.905   2.048  -1.723  1.00  0.00     0.003 C 
HETATM   28  C14 UNL     1      -6.047   2.748  -0.982  1.00  0.00     0.000 C 
HETATM   29  C15 UNL     1      -5.734   2.903   0.496  1.00  0.00     0.000 C 
HETATM   30  C16 UNL     1      -5.488   1.636   1.232  1.00  0.00     0.003 C 
HETATM   31  C17 UNL     1      -5.486   0.386   0.399  1.00  0.00     0.039 C 
ENDBRANCH  24  25
ENDBRANCH  21  22
ENDBRANCH  20  21
BRANCH  20  32
HETATM   32  C18 UNL     1       0.784  -2.682   0.931  1.00  0.00     0.305 C 
BRANCH  32  33
HETATM   33  C19 UNL     1       0.585  -3.896   0.128  1.00  0.00     0.149 C 
HETATM   34  C20 UNL     1      -0.723  -4.616   0.234  1.00  0.00     0.036 C 
HETATM   35  C21 UNL     1      -0.430  -5.792  -0.728  1.00  0.00     0.029 C 
HETATM   36  C22 UNL     1       0.705  -5.249  -1.533  1.00  0.00     0.168 C 
HETATM   37  O3  UNL     1       0.846  -3.879  -1.203  1.00  0.00    -0.384 OA
ENDBRANCH  32  33
ENDBRANCH  20  32
ENDBRANCH   1  20
TORSDOF 11
