REMARK  10 active torsions:
REMARK  status: ('A' for Active; 'I' for Inactive)
REMARK    1  A    between atoms: O1_1  and  C1_3 
REMARK    2  A    between atoms: C1_3  and  C2_4 
REMARK    3  A    between atoms: C2_4  and  C3_5 
REMARK    4  A    between atoms: N1_13  and  C11_14 
REMARK    5  A    between atoms: C11_14  and  C12_15 
REMARK    6  A    between atoms: C12_15  and  O2_16 
REMARK    7  A    between atoms: C12_15  and  C13_18 
REMARK    8  A    between atoms: C12_15  and  C20_26 
REMARK    9  A    between atoms: C13_18  and  O3_19 
REMARK   10  A    between atoms: O3_19  and  C14_20 
ROOT
HETATM    1  C12 UNL     1      -1.807  -0.590   0.252  1.00  0.00     0.133 C 
ENDROOT
BRANCH   1   2
HETATM    2  C11 UNL     1      -0.741   0.077  -0.530  1.00  0.00     0.317 C 
BRANCH   2   3
HETATM    3  N1  UNL     1       0.498  -0.549  -0.706  1.00  0.00     0.094 N 
HETATM    4  C10 UNL     1       1.338   0.317  -1.528  1.00  0.00     0.275 C 
HETATM    5  C9  UNL     1       2.241   0.949  -0.469  1.00  0.00     0.070 C 
HETATM    6  C1  UNL     1       2.564  -0.206   0.400  1.00  0.00     0.089 C 
HETATM    7  C26 UNL     1       1.263  -1.009   0.371  1.00  0.00     0.310 C 
BRANCH   6   8
HETATM    8  O1  UNL     1       2.847   0.172   1.725  1.00  0.00    -0.388 OA
ATOM      9  H1  UNL     1       2.141   0.716   2.053  1.00  0.00     0.210 HD
ENDBRANCH   6   8
BRANCH   6  10
HETATM   10  C2  UNL     1       3.683  -1.069  -0.120  1.00  0.00     0.078 C 
BRANCH  10  11
HETATM   11  C3  UNL     1       5.001  -0.427  -0.120  1.00  0.00    -0.055 A 
HETATM   12  C4  UNL     1       5.853  -0.464   0.976  1.00  0.00     0.007 A 
HETATM   13  C5  UNL     1       7.089   0.136   0.972  1.00  0.00     0.001 A 
HETATM   14  C6  UNL     1       7.504   0.808  -0.180  1.00  0.00     0.000 A 
HETATM   15  C7  UNL     1       6.687   0.867  -1.290  1.00  0.00     0.001 A 
HETATM   16  C8  UNL     1       5.456   0.250  -1.240  1.00  0.00     0.007 A 
ENDBRANCH  10  11
ENDBRANCH   6  10
ENDBRANCH   2   3
ENDBRANCH   1   2
BRANCH   1  17
HETATM   17  O2  UNL     1      -1.435  -0.773   1.582  1.00  0.00    -0.381 OA
ATOM     18  H2  UNL     1      -2.119  -1.201   2.084  1.00  0.00     0.211 HD
ENDBRANCH   1  17
BRANCH   1  19
HETATM   19  C13 UNL     1      -3.070   0.227   0.189  1.00  0.00     0.220 C 
BRANCH  19  20
HETATM   20  O3  UNL     1      -2.920   1.503   0.775  1.00  0.00    -0.348 OA
BRANCH  20  21
HETATM   21  C14 UNL     1      -4.056   2.321   0.769  1.00  0.00     0.068 A 
HETATM   22  C15 UNL     1      -4.021   3.587   1.311  1.00  0.00     0.037 A 
HETATM   23  C16 UNL     1      -5.125   4.411   1.319  1.00  0.00     0.003 A 
HETATM   24  C17 UNL     1      -6.305   3.971   0.774  1.00  0.00     0.000 A 
HETATM   25  C18 UNL     1      -6.381   2.716   0.224  1.00  0.00     0.003 A 
HETATM   26  C19 UNL     1      -5.266   1.919   0.230  1.00  0.00     0.037 A 
ENDBRANCH  20  21
ENDBRANCH  19  20
ENDBRANCH   1  19
BRANCH   1  27
HETATM   27  C20 UNL     1      -2.125  -1.962  -0.294  1.00  0.00    -0.020 A 
HETATM   28  C21 UNL     1      -1.683  -3.087   0.380  1.00  0.00     0.010 A 
HETATM   29  C22 UNL     1      -1.936  -4.368  -0.061  1.00  0.00     0.001 A 
HETATM   30  C23 UNL     1      -2.660  -4.558  -1.222  1.00  0.00     0.000 A 
HETATM   31  C24 UNL     1      -3.111  -3.461  -1.910  1.00  0.00     0.001 A 
HETATM   32  C25 UNL     1      -2.843  -2.167  -1.447  1.00  0.00     0.010 A 
ENDBRANCH   1  27
TORSDOF 10
