REMARK  8 active torsions:
REMARK  status: ('A' for Active; 'I' for Inactive)
REMARK    1  A    between atoms: C2_2  and  C3_3 
REMARK    2  A    between atoms: C12_12  and  O1_13 
REMARK    3  A    between atoms: C14_16  and  C15_17 
REMARK    4  A    between atoms: C15_17  and  O2_19 
REMARK    5  A    between atoms: O2_19  and  C17_20 
REMARK    6  A    between atoms: C17_20  and  C18_21 
REMARK    7  A    between atoms: C18_21  and  C19_22 
REMARK    8  A    between atoms: C19_22  and  C20_23 
ROOT
HETATM    1  C3  UNL     1      -5.215   0.767   0.181  1.00  0.00     0.013 C 
HETATM    2  C4  UNL     1      -4.170   1.675   0.835  1.00  0.00     0.019 C 
HETATM    3  C5  UNL     1      -3.226   1.301  -0.263  1.00  0.00    -0.035 C 
HETATM    4  C6  UNL     1      -3.137   2.392  -1.328  1.00  0.00     0.016 C 
HETATM    5  C7  UNL     1      -4.147   0.214  -0.735  1.00  0.00     0.002 C 
HETATM    6  C8  UNL     1      -3.458  -1.046  -0.191  1.00  0.00     0.012 C 
HETATM    7  C9  UNL     1      -2.027  -0.713  -0.498  1.00  0.00    -0.001 C 
HETATM    8  C10 UNL     1      -1.929   0.689   0.119  1.00  0.00     0.001 C 
HETATM    9  C11 UNL     1      -1.700   0.564   1.604  1.00  0.00     0.038 C 
HETATM   10  C12 UNL     1      -0.253   0.073   1.756  1.00  0.00     0.123 C 
HETATM   11  C13 UNL     1       0.156  -0.797   0.609  1.00  0.00     0.029 C 
HETATM   12  C14 UNL     1       1.146  -1.851   0.912  1.00  0.00     0.021 C 
HETATM   13  C22 UNL     1       0.933  -2.894  -0.192  1.00  0.00     0.008 C 
HETATM   14  C23 UNL     1      -0.267  -2.427  -0.984  1.00  0.00     0.010 C 
HETATM   15  C24 UNL     1      -1.020  -1.633   0.084  1.00  0.00    -0.034 C 
HETATM   16  C25 UNL     1      -1.529  -2.608   1.082  1.00  0.00     0.016 C 
ENDROOT
BRANCH  12  17
HETATM   17  C15 UNL     1       2.591  -1.447   0.824  1.00  0.00     0.121 C 
HETATM   18  C16 UNL     1       3.410  -2.663   1.170  1.00  0.00     0.040 C 
BRANCH  17  19
HETATM   19  O2  UNL     1       2.870  -0.338   1.536  1.00  0.00    -0.386 OA
BRANCH  19  20
HETATM   20  C17 UNL     1       3.349   0.744   0.866  1.00  0.00     0.168 C 
BRANCH  20  21
HETATM   21  C18 UNL     1       4.657   0.497   0.141  1.00  0.00     0.026 C 
BRANCH  21  22
HETATM   22  C19 UNL     1       5.127   1.746  -0.578  1.00  0.00     0.002 C 
BRANCH  22  23
HETATM   23  C20 UNL     1       6.432   1.431  -1.277  1.00  0.00    -0.004 C 
HETATM   24  C21 UNL     1       6.948   2.650  -2.014  1.00  0.00     0.005 C 
ENDBRANCH  22  23
ENDBRANCH  21  22
ENDBRANCH  20  21
ENDBRANCH  19  20
ENDBRANCH  17  19
ENDBRANCH  12  17
BRANCH  10  25
HETATM   25  O1  UNL     1      -0.012  -0.464   3.002  1.00  0.00    -0.395 OA
ATOM     26  H1  UNL     1       0.883  -0.768   3.096  1.00  0.00     0.210 HD
ENDBRANCH  10  25
BRANCH   1  27
HETATM   27  C2  UNL     1      -6.208   1.531  -0.616  1.00  0.00    -0.032 C 
HETATM   28  C1  UNL     1      -7.465   1.154  -0.609  1.00  0.00     0.007 C 
ENDBRANCH   1  27
TORSDOF 8
