REMARK  3 active torsions:
REMARK  status: ('A' for Active; 'I' for Inactive)
REMARK    1  A    between atoms: C2_2  and  C4_4 
REMARK    2  A    between atoms: C10_12  and  O2_13 
REMARK    3  A    between atoms: C16_20  and  O3_21 
ROOT
HETATM    1  C4  UNL     1      -1.154  -0.910   0.487  1.00  0.00     0.162 C 
HETATM    2  O1  UNL     1      -0.055  -1.752   0.766  1.00  0.00    -0.340 OA
HETATM    3  C5  UNL     1       1.250  -1.294   0.763  1.00  0.00     0.081 A 
HETATM    4  C6  UNL     1       2.211  -2.099   1.338  1.00  0.00     0.060 A 
HETATM    5  C7  UNL     1       3.534  -1.694   1.364  1.00  0.00     0.050 A 
HETATM    6  C8  UNL     1       4.565  -2.516   1.960  1.00  0.00     0.099 C 
HETATM    7  N1  UNL     1       5.395  -3.162   2.452  1.00  0.00    -0.191 NA
HETATM    8  C9  UNL     1       3.848  -0.490   0.810  1.00  0.00     0.059 A 
HETATM    9  C10 UNL     1       2.866   0.308   0.235  1.00  0.00     0.076 A 
HETATM   10  C11 UNL     1       1.542  -0.075   0.197  1.00  0.00     0.017 A 
HETATM   11  C12 UNL     1       0.484   0.770  -0.415  1.00  0.00    -0.005 C 
HETATM   12  C13 UNL     1       1.024   1.164  -1.800  1.00  0.00     0.021 C 
HETATM   13  C14 UNL     1       0.385   2.036   0.375  1.00  0.00     0.017 C 
HETATM   14  C15 UNL     1      -0.905   2.786   0.204  1.00  0.00     0.033 C 
HETATM   15  C16 UNL     1      -2.122   1.899   0.240  1.00  0.00     0.118 C 
HETATM   16  C17 UNL     1      -1.961   0.936  -0.885  1.00  0.00     0.040 C 
HETATM   17  C18 UNL     1      -0.788   0.048  -0.629  1.00  0.00     0.035 C 
ENDROOT
BRANCH   9  18
HETATM   18  O2  UNL     1       3.257   1.504  -0.302  1.00  0.00    -0.360 OA
ATOM     19  H2  UNL     1       2.586   2.049  -0.695  1.00  0.00     0.217 HD
ENDBRANCH   9  18
BRANCH   1  20
HETATM   20  C2  UNL     1      -2.252  -1.805  -0.009  1.00  0.00    -0.064 C 
HETATM   21  C1  UNL     1      -3.409  -1.798   0.634  1.00  0.00     0.016 C 
HETATM   22  C3  UNL     1      -2.079  -2.687  -1.186  1.00  0.00     0.045 C 
ENDBRANCH   1  20
BRANCH  15  23
HETATM   23  O3  UNL     1      -3.235   2.734   0.086  1.00  0.00    -0.396 OA
ATOM     24  H3  UNL     1      -4.003   2.175   0.109  1.00  0.00     0.210 HD
ENDBRANCH  15  23
TORSDOF 3
