REMARK  7 active torsions:
REMARK  status: ('A' for Active; 'I' for Inactive)
REMARK    1  A    between atoms: C2_2  and  C3_3 
REMARK    2  A    between atoms: C5_7  and  C6_8 
REMARK    3  A    between atoms: C6_8  and  C7_9 
REMARK    4  A    between atoms: C7_9  and  N2_10 
REMARK    5  A    between atoms: C8_13  and  N4_14 
REMARK    6  A    between atoms: C9_19  and  C10_20 
REMARK    7  A    between atoms: N7_23  and  N8_25 
ROOT
HETATM    1  C10 UNL     1      -3.003   1.351  -0.017  1.00  0.00     0.176 C 
HETATM    2  C11 UNL     1      -1.845   2.094   0.355  1.00  0.00     0.123 C 
HETATM    3  N6  UNL     1      -0.903   2.736   0.649  1.00  0.00    -0.190 NA
HETATM    4  N7  UNL     1      -4.071   2.058  -0.313  1.00  0.00    -0.274 N 
ATOM      5  H7  UNL     1      -4.936   1.596  -0.593  1.00  0.00     0.189 HD
ENDROOT
BRANCH   1   6
HETATM    6  C9  UNL     1      -3.086  -0.108  -0.099  1.00  0.00     0.177 A 
HETATM    7  N2  UNL     1      -2.161  -1.028   0.160  1.00  0.00    -0.259 N 
HETATM    8  N3  UNL     1      -2.714  -2.221  -0.066  1.00  0.00    -0.129 N 
HETATM    9  C8  UNL     1      -3.979  -2.043  -0.464  1.00  0.00     0.692 A 
ATOM     10  H3  UNL     1      -2.248  -3.122   0.046  1.00  0.00     0.206 HD
HETATM   11  N5  UNL     1      -4.239  -0.726  -0.493  1.00  0.00    -0.171 N 
ATOM     12  H5  UNL     1      -5.117  -0.279  -0.755  1.00  0.00     0.186 HD
BRANCH   7  13
HETATM   13  C7  UNL     1      -0.815  -0.864   0.597  1.00  0.00     0.159 C 
BRANCH  13  14
HETATM   14  C6  UNL     1       0.186  -0.758  -0.535  1.00  0.00     0.098 C 
BRANCH  14  15
HETATM   15  C5  UNL     1       1.569  -0.580   0.004  1.00  0.00     0.082 A 
HETATM   16  N1  UNL     1       1.865  -0.524   1.313  1.00  0.00    -0.354 N 
HETATM   17  C4  UNL     1       3.209  -0.357   1.407  1.00  0.00     0.114 A 
ATOM     18  H1  UNL     1       1.206  -0.594   2.088  1.00  0.00     0.166 HD
HETATM   19  C3  UNL     1       3.751  -0.310   0.135  1.00  0.00     0.025 A 
HETATM   20  N10 UNL     1       2.706  -0.451  -0.699  1.00  0.00    -0.348 N 
ATOM     21  H10 UNL     1       2.768  -0.459  -1.717  1.00  0.00     0.167 HD
BRANCH  19  22
HETATM   22  C2  UNL     1       5.179  -0.139  -0.235  1.00  0.00     0.054 C 
HETATM   23  C1  UNL     1       5.461   1.336  -0.374  1.00  0.00     0.011 C 
ENDBRANCH  19  22
ENDBRANCH  14  15
ENDBRANCH  13  14
ENDBRANCH   7  13
BRANCH   9  24
HETATM   24  N4  UNL     1      -4.837  -2.984  -0.777  1.00  0.00    -0.233 N 
ATOM     25  H42 UNL     1      -4.639  -3.984  -0.755  1.00  0.00     0.174 HD
ATOM     26  H41 UNL     1      -5.801  -2.848  -1.080  1.00  0.00     0.174 HD
ENDBRANCH   9  24
ENDBRANCH   1   6
BRANCH   4  27
HETATM   27  N8  UNL     1      -4.003   3.435  -0.239  1.00  0.00    -0.248 N 
HETATM   28  N9  UNL     1      -4.491   4.053   0.768  1.00  0.00    -0.331 N 
ATOM     29  H92 UNL     1      -4.930   3.511   1.512  1.00  0.00     0.178 HD
ATOM     30  H91 UNL     1      -4.441   5.070   0.823  1.00  0.00     0.178 HD
ATOM     31  H8  UNL     1      -3.561   3.962  -0.992  1.00  0.00     0.207 HD
ENDBRANCH   4  27
TORSDOF 7
