REMARK  7 active torsions:
REMARK  status: ('A' for Active; 'I' for Inactive)
REMARK    1  A    between atoms: C2_3  and  C3_4 
REMARK    2  A    between atoms: C3_4  and  C4_5 
REMARK    3  A    between atoms: C4_5  and  C5_6 
REMARK    4  A    between atoms: C5_6  and  C6_7 
REMARK    5  A    between atoms: C6_7  and  N2_8 
REMARK       I    between atoms: C7_10  and  N3_11 
REMARK       I    between atoms: C7_10  and  N4_15 
REMARK    6  A    between atoms: N3_11  and  O1_13 
REMARK    7  A    between atoms: C11_23  and  N7_24 
ROOT
HETATM    1  C3  UNL     1       1.526   0.177   0.701  1.00  0.00     0.059 C 
ENDROOT
BRANCH   1   2
HETATM    2  C2  UNL     1       2.532  -0.343  -0.251  1.00  0.00     0.049 A 
HETATM    3  N1  UNL     1       3.919  -0.028  -0.008  1.00  0.00    -0.169 N 
HETATM    4  C1  UNL     1       4.163   0.681   1.024  1.00  0.00     0.146 C 
HETATM    5  C11 UNL     1       4.972  -0.470  -0.852  1.00  0.00     0.701 A 
HETATM    6  N6  UNL     1       4.531  -1.283  -2.008  1.00  0.00    -0.132 N 
HETATM    7  N5  UNL     1       3.200  -1.558  -2.200  1.00  0.00    -0.296 N 
ATOM      8  H6  UNL     1       5.222  -1.642  -2.667  1.00  0.00     0.205 HD
HETATM    9  C10 UNL     1       2.215  -1.072  -1.300  1.00  0.00     0.133 A 
ATOM     10  H5  UNL     1       2.914  -2.120  -3.002  1.00  0.00     0.186 HD
BRANCH   5  11
HETATM   11  N7  UNL     1       6.182  -0.273  -0.757  1.00  0.00    -0.210 N 
HETATM   12  C12 UNL     1       7.145   0.329  -0.009  1.00  0.00     0.137 C 
ATOM     13  H7  UNL     1       6.639  -0.741  -1.540  1.00  0.00     0.182 HD
ENDBRANCH   5  11
ENDBRANCH   1   2
BRANCH   1  14
HETATM   14  C4  UNL     1       0.124  -0.229   0.324  1.00  0.00     0.008 C 
BRANCH  14  15
HETATM   15  C5  UNL     1      -0.827   0.345   1.351  1.00  0.00     0.020 C 
BRANCH  15  16
HETATM   16  C6  UNL     1      -2.256  -0.003   1.065  1.00  0.00     0.138 C 
BRANCH  16  17
HETATM   17  N2  UNL     1      -2.705   0.489  -0.220  1.00  0.00    -0.225 N 
HETATM   18  C7  UNL     1      -3.948   0.690  -0.499  1.00  0.00     0.695 C 
HETATM   19  N3  UNL     1      -4.233   1.177  -1.809  1.00  0.00    -0.099 N 
HETATM   20  N4  UNL     1      -5.004   0.455   0.409  1.00  0.00    -0.225 N 
ATOM     21  H3  UNL     1      -4.701   2.069  -1.971  1.00  0.00     0.213 HD
HETATM   22  C8  UNL     1      -5.806  -0.748   0.269  1.00  0.00     0.168 C 
HETATM   23  C9  UNL     1      -5.337   1.354   1.483  1.00  0.00     0.168 C 
ATOM     24  H2  UNL     1      -2.007   0.686  -0.937  1.00  0.00     0.177 HD
BRANCH  19  25
HETATM   25  O1  UNL     1      -3.832   0.359  -2.835  1.00  0.00    -0.276 OA
ATOM     26  H1  UNL     1      -4.022   0.683  -3.708  1.00  0.00     0.245 HD
ENDBRANCH  19  25
ENDBRANCH  16  17
ENDBRANCH  15  16
ENDBRANCH  14  15
ENDBRANCH   1  14
TORSDOF 7
