REMARK  9 active torsions:
REMARK  status: ('A' for Active; 'I' for Inactive)
REMARK    1  A    between atoms: C3_5  and  O1_6 
REMARK    2  A    between atoms: O1_6  and  C4_7 
REMARK       I    between atoms: N2_10  and  C7_11 
REMARK    3  A    between atoms: C7_11  and  O3_13 
REMARK    4  A    between atoms: O3_13  and  C8_14 
REMARK    5  A    between atoms: C15_23  and  N3_24 
REMARK    6  A    between atoms: N3_24  and  C16_25 
REMARK    7  A    between atoms: C22_31  and  C23_32 
REMARK    8  A    between atoms: C23_32  and  O5_34 
REMARK    9  A    between atoms: N4_36  and  O6_37 
ROOT
HETATM    1  C1  UNL     1      -0.908   3.347   1.357  1.00  0.00     0.092 C 
HETATM    2  C2  UNL     1      -1.050   1.867   1.084  1.00  0.00     0.111 A 
HETATM    3  N1  UNL     1       0.011   1.157   0.706  1.00  0.00    -0.322 N 
ATOM      4  H1  UNL     1       0.917   1.614   0.602  1.00  0.00     0.169 HD
HETATM    5  C3  UNL     1      -0.107  -0.150   0.463  1.00  0.00     0.189 A 
HETATM    6  C14 UNL     1      -1.320  -0.758   0.603  1.00  0.00     0.227 A 
HETATM    7  F1  UNL     1      -1.507  -2.078   0.372  1.00  0.00    -0.196 F 
HETATM    8  C15 UNL     1      -2.470  -0.039   1.002  1.00  0.00     0.244 A 
HETATM    9  N4  UNL     1      -2.253   1.295   1.229  1.00  0.00    -0.181 N 
ENDROOT
BRANCH   5  10
HETATM   10  O1  UNL     1       0.987  -0.928   0.065  1.00  0.00    -0.328 OA
BRANCH  10  11
HETATM   11  C4  UNL     1       2.288  -0.409  -0.118  1.00  0.00     0.133 C 
HETATM   12  C5  UNL     1       3.255  -0.917   0.908  1.00  0.00     0.052 C 
HETATM   13  C6  UNL     1       4.678  -0.617   0.640  1.00  0.00     0.130 C 
HETATM   14  N2  UNL     1       5.018  -0.060  -0.620  1.00  0.00    -0.328 N 
HETATM   15  C7  UNL     1       6.384   0.200  -0.907  1.00  0.00     0.363 C 
HETATM   16  C12 UNL     1       4.042   0.258  -1.630  1.00  0.00     0.130 C 
HETATM   17  O2  UNL     1       6.718   0.699  -2.032  1.00  0.00    -0.238 OA
HETATM   18  C13 UNL     1       2.841  -0.675  -1.477  1.00  0.00     0.052 C 
BRANCH  15  19
HETATM   19  O3  UNL     1       7.418  -0.060  -0.022  1.00  0.00    -0.296 OA
BRANCH  19  20
HETATM   20  C8  UNL     1       8.747   0.229  -0.389  1.00  0.00     0.159 C 
HETATM   21  C9  UNL     1       9.615  -1.012  -0.396  1.00  0.00     0.061 C 
HETATM   22  C10 UNL     1      10.921  -0.500   0.105  1.00  0.00     0.170 C 
HETATM   23  O4  UNL     1      10.783   0.764   0.599  1.00  0.00    -0.389 OA
HETATM   24  C11 UNL     1       9.448   1.111   0.587  1.00  0.00     0.200 C 
ENDBRANCH  19  20
ENDBRANCH  15  19
ENDBRANCH  10  11
ENDBRANCH   5  10
BRANCH   8  25
HETATM   25  N3  UNL     1      -3.555  -0.527   1.146  1.00  0.00    -0.420 NA
BRANCH  25  26
HETATM   26  C16 UNL     1      -4.799  -0.969   1.334  1.00  0.00     0.170 C 
HETATM   27  C17 UNL     1      -5.299  -2.023   0.313  1.00  0.00     0.045 C 
HETATM   28  C18 UNL     1      -6.754  -1.690   0.052  1.00  0.00    -0.005 C 
HETATM   29  C19 UNL     1      -7.099  -1.012   1.361  1.00  0.00     0.013 C 
HETATM   30  C22 UNL     1      -6.758  -0.544  -0.909  1.00  0.00     0.018 C 
HETATM   31  C20 UNL     1      -5.952   0.020   1.294  1.00  0.00     0.022 C 
HETATM   32  C21 UNL     1      -6.140   0.549  -0.085  1.00  0.00     0.015 C 
BRANCH  30  33
HETATM   33  C23 UNL     1      -8.065  -0.256  -1.527  1.00  0.00     0.118 C 
HETATM   34  C24 UNL     1      -8.046   0.906  -2.493  1.00  0.00     0.040 C 
BRANCH  33  35
HETATM   35  O5  UNL     1      -9.131  -0.060  -0.680  1.00  0.00    -0.396 OA
ATOM     36  H5  UNL     1      -9.973   0.126  -1.078  1.00  0.00     0.210 HD
ENDBRANCH  33  35
ENDBRANCH  30  33
ENDBRANCH  25  26
ENDBRANCH   8  25
BRANCH   9  37
HETATM   37  O6  UNL     1      -3.346   2.043   1.630  1.00  0.00    -0.279 OA
ATOM     38  H6  UNL     1      -4.199   1.637   1.733  1.00  0.00     0.245 HD
ENDBRANCH   9  37
TORSDOF 9
