REMARK  5 active torsions:
REMARK  status: ('A' for Active; 'I' for Inactive)
REMARK    1  A    between atoms: C1_2  and  C2_3 
REMARK    2  A    between atoms: C1_2  and  C8_17 
REMARK    3  A    between atoms: C4_5  and  N1_6 
REMARK    4  A    between atoms: C6_10  and  N2_11 
REMARK    5  A    between atoms: C7_14  and  O6_15 
ROOT
HETATM    1  C2  UNL     1      -0.652  -0.666  -0.295  1.00  0.00     0.048 A 
HETATM    2  C3  UNL     1      -0.827   0.586   0.215  1.00  0.00     0.054 A 
HETATM    3  C4  UNL     1      -2.071   1.155   0.510  1.00  0.00     0.106 A 
HETATM    4  C5  UNL     1      -3.163   0.368   0.256  1.00  0.00     0.075 A 
HETATM    5  C6  UNL     1      -3.076  -0.930  -0.267  1.00  0.00     0.139 A 
HETATM    6  C7  UNL     1      -1.826  -1.417  -0.530  1.00  0.00     0.112 A 
ENDROOT
BRANCH   1   7
HETATM    7  C1  UNL     1       0.654  -1.247  -0.596  1.00  0.00     0.166 C 
HETATM    8  O1  UNL     1       0.641  -2.444  -1.069  1.00  0.00    -0.292 OA
BRANCH   7   9
HETATM    9  C8  UNL     1       1.955  -0.636  -0.425  1.00  0.00     0.061 C 
HETATM   10  C9  UNL     1       2.218   0.617  -1.186  1.00  0.00     0.012 C 
HETATM   11  C10 UNL     1       3.049   1.493  -0.246  1.00  0.00     0.001 C 
HETATM   12  C11 UNL     1       3.617   0.496   0.776  1.00  0.00     0.001 C 
HETATM   13  C12 UNL     1       2.400  -0.392   0.989  1.00  0.00     0.012 C 
ENDBRANCH   7   9
ENDBRANCH   1   7
BRANCH   6  14
HETATM   14  O6  UNL     1      -1.625  -2.672  -1.045  1.00  0.00    -0.357 OA
ATOM     15  H6  UNL     1      -2.414  -3.177  -1.203  1.00  0.00     0.217 HD
ENDBRANCH   6  14
BRANCH   3  16
HETATM   16  N1  UNL     1      -2.174   2.465   1.038  1.00  0.00    -0.116 N 
HETATM   17  O2  UNL     1      -1.145   3.118   1.242  1.00  0.00    -0.532 OA
HETATM   18  O3  UNL     1      -3.388   2.995   1.315  1.00  0.00    -0.532 OA
ENDBRANCH   3  16
BRANCH   5  19
HETATM   19  N2  UNL     1      -4.274  -1.639  -0.489  1.00  0.00    -0.113 N 
HETATM   20  O4  UNL     1      -5.297  -0.928  -0.752  1.00  0.00    -0.532 OA
HETATM   21  O5  UNL     1      -4.471  -2.979  -0.460  1.00  0.00    -0.532 OA
ENDBRANCH   5  19
TORSDOF 5
