REMARK  3 active torsions:
REMARK  status: ('A' for Active; 'I' for Inactive)
REMARK    1  A    between atoms: N2_9  and  C5_10 
REMARK    2  A    between atoms: C5_10  and  C6_11 
REMARK    3  A    between atoms: C6_11  and  C7_12 
ROOT
HETATM    1  F1  UNL     1      -4.856   0.692  -0.017  1.00  0.00    -0.204 F 
HETATM    2  C1  UNL     1      -3.537   0.364   0.060  1.00  0.00     0.140 A 
HETATM    3  C2  UNL     1      -3.110  -0.946  -0.002  1.00  0.00     0.075 A 
HETATM    4  C3  UNL     1      -1.788  -1.257   0.077  1.00  0.00     0.064 A 
HETATM    5  N1  UNL     1      -1.046  -2.398   0.051  1.00  0.00    -0.331 N 
ATOM      6  H1  UNL     1      -1.415  -3.344  -0.046  1.00  0.00     0.168 HD
HETATM    7  C4  UNL     1       0.254  -2.072   0.174  1.00  0.00     0.179 A 
HETATM    8  S1  UNL     1       1.538  -3.080   0.199  1.00  0.00    -0.040 SA
HETATM    9  N2  UNL     1       0.369  -0.736   0.280  1.00  0.00    -0.322 N 
HETATM   10  C8  UNL     1      -0.873  -0.222   0.222  1.00  0.00     0.065 A 
HETATM   11  C9  UNL     1      -1.294   1.099   0.286  1.00  0.00     0.059 A 
HETATM   12  C10 UNL     1      -2.635   1.410   0.205  1.00  0.00     0.074 A 
HETATM   13 CL2  UNL     1      -3.161   3.073   0.286  1.00  0.00    -0.081 Cl
ENDROOT
BRANCH   9  14
HETATM   14  C5  UNL     1       1.582   0.023   0.428  1.00  0.00     0.133 C 
BRANCH  14  15
HETATM   15  C6  UNL     1       2.178   0.430  -0.914  1.00  0.00     0.035 C 
BRANCH  15  16
HETATM   16  C7  UNL     1       3.451   1.221  -0.581  1.00  0.00     0.116 C 
HETATM   17 CL1  UNL     1       3.051   2.651   0.396  1.00  0.00    -0.130 Cl
ENDBRANCH  15  16
ENDBRANCH  14  15
ENDBRANCH   9  14
TORSDOF 3
