REMARK  7 active torsions:
REMARK  status: ('A' for Active; 'I' for Inactive)
REMARK    1  A    between atoms: C3_3  and  N1_4 
REMARK       I    between atoms: N1_4  and  C4_6 
REMARK       I    between atoms: C4_6  and  N2_8 
REMARK    2  A    between atoms: C5_9  and  C6_10 
REMARK    3  A    between atoms: N3_15  and  C9_16 
REMARK    4  A    between atoms: C9_16  and  C10_17 
REMARK    5  A    between atoms: C9_16  and  C14_21 
REMARK    6  A    between atoms: C10_17  and  C11_18 
REMARK    7  A    between atoms: C11_18  and  C12_19 
REMARK       I    between atoms: C14_21  and  N4_23 
ROOT
HETATM    1  C1  UNL     1       2.626   3.299   3.214  1.00  0.00     0.014 C 
HETATM    2  C2  UNL     1       2.920   2.485   2.382  1.00  0.00    -0.098 C 
HETATM    3  C3  UNL     1       3.280   1.492   1.390  1.00  0.00     0.218 C 
ENDROOT
BRANCH   3   4
HETATM    4  N1  UNL     1       2.119   1.042   0.612  1.00  0.00    -0.331 N 
HETATM    5  C4  UNL     1       2.258   0.084  -0.398  1.00  0.00     0.339 C 
HETATM    6  O1  UNL     1       3.451  -0.351  -0.575  1.00  0.00    -0.245 OA
HETATM    7  N2  UNL     1       1.224  -0.430  -1.213  1.00  0.00    -0.219 N 
HETATM    8  C5  UNL     1       1.337  -1.450  -2.280  1.00  0.00     0.230 C 
HETATM    9  N3  UNL     1      -0.150  -0.305  -1.422  1.00  0.00    -0.238 N 
HETATM   10  C8  UNL     1      -0.018  -1.082  -2.608  1.00  0.00     0.268 C 
HETATM   11  O2  UNL     1      -0.784  -1.345  -3.570  1.00  0.00    -0.269 OA
ATOM     12  H1  UNL     1       1.198   1.433   0.811  1.00  0.00     0.165 HD
BRANCH   8  13
HETATM   13  C6  UNL     1       1.551  -2.808  -1.783  1.00  0.00     0.017 C 
HETATM   14  C7  UNL     1       0.631  -3.742  -1.935  1.00  0.00     0.054 C 
HETATM   15 BR1  UNL     1       0.842  -5.530  -1.313  1.00  0.00    -0.064 Br
ENDBRANCH   8  13
BRANCH   9  16
HETATM   16  C9  UNL     1      -1.272   0.299  -0.769  1.00  0.00     0.203 C 
BRANCH  16  17
HETATM   17  C10 UNL     1      -1.493  -0.117   0.651  1.00  0.00     0.037 C 
BRANCH  17  18
HETATM   18  C11 UNL     1      -1.718  -1.613   0.702  1.00  0.00     0.002 C 
BRANCH  18  19
HETATM   19  C12 UNL     1      -1.948  -2.104   2.109  1.00  0.00    -0.004 C 
HETATM   20  C13 UNL     1      -3.159  -1.460   2.747  1.00  0.00     0.005 C 
ENDBRANCH  18  19
ENDBRANCH  17  18
ENDBRANCH  16  17
BRANCH  16  21
HETATM   21  C14 UNL     1      -1.279   1.799  -0.876  1.00  0.00     0.242 C 
HETATM   22  O3  UNL     1      -2.182   2.403  -0.253  1.00  0.00    -0.271 OA
HETATM   23  N4  UNL     1      -0.355   2.548  -1.619  1.00  0.00    -0.364 N 
HETATM   24  C15 UNL     1      -0.438   3.976  -1.666  1.00  0.00     0.149 C 
ATOM     25  H4  UNL     1       0.385   2.069  -2.132  1.00  0.00     0.161 HD
ENDBRANCH  16  21
ENDBRANCH   9  16
ENDBRANCH   3   4
TORSDOF 7
