REMARK  6 active torsions:
REMARK  status: ('A' for Active; 'I' for Inactive)
REMARK    1  A    between atoms: C3_3  and  N1_4 
REMARK    2  A    between atoms: C6_7  and  C7_8 
REMARK    3  A    between atoms: C7_8  and  C8_9 
REMARK    4  A    between atoms: C7_8  and  N2_12 
REMARK    5  A    between atoms: C8_9  and  O1_10 
REMARK    6  A    between atoms: C14_20  and  N3_21 
ROOT
HETATM    1  C1  UNL     1      -0.171  -3.370  -0.555  1.00  0.00     0.054 C 
HETATM    2  C2  UNL     1      -1.174  -2.269  -0.428  1.00  0.00     0.010 A 
HETATM    3  C3  UNL     1      -0.832  -0.948  -0.234  1.00  0.00     0.068 A 
HETATM    4  C13 UNL     1      -1.892  -0.052  -0.049  1.00  0.00     0.105 A 
HETATM    5 CL1  UNL     1      -1.564   1.634   0.155  1.00  0.00    -0.078 Cl
HETATM    6  C14 UNL     1      -3.220  -0.443  -0.055  1.00  0.00     0.130 A 
HETATM    7  N5  UNL     1      -3.471  -1.742  -0.251  1.00  0.00    -0.327 N 
ATOM      8  H5  UNL     1      -4.444  -2.049  -0.260  1.00  0.00     0.169 HD
HETATM    9  C20 UNL     1      -2.520  -2.656  -0.435  1.00  0.00     0.108 A 
HETATM   10  N6  UNL     1      -2.804  -3.915  -0.624  1.00  0.00    -0.385 N 
ATOM     11  H61 UNL     1      -3.784  -4.197  -0.629  1.00  0.00     0.157 HD
ATOM     12  H62 UNL     1      -2.076  -4.615  -0.765  1.00  0.00     0.157 HD
ENDROOT
BRANCH   3  13
HETATM   13  N1  UNL     1       0.507  -0.476  -0.323  1.00  0.00    -0.348 N 
HETATM   14  C4  UNL     1       0.938   0.677   0.487  1.00  0.00     0.126 C 
HETATM   15  C5  UNL     1       2.413   0.329   0.883  1.00  0.00     0.027 C 
HETATM   16  C6  UNL     1       3.284   0.610  -0.318  1.00  0.00     0.016 C 
HETATM   17  C11 UNL     1       2.513   0.181  -1.514  1.00  0.00     0.066 C 
HETATM   18  C12 UNL     1       1.516  -0.958  -1.237  1.00  0.00     0.272 C 
HETATM   19  F1  UNL     1       0.914  -1.189  -2.475  1.00  0.00    -0.227 F 
BRANCH  16  20
HETATM   20  C7  UNL     1       4.661   0.085  -0.200  1.00  0.00     0.106 C 
BRANCH  20  21
HETATM   21  C8  UNL     1       5.520   0.387  -1.437  1.00  0.00     0.189 C 
BRANCH  21  22
HETATM   22  O1  UNL     1       6.713  -0.373  -1.327  1.00  0.00    -0.399 OA
ATOM     23  H1  UNL     1       7.244  -0.186  -2.092  1.00  0.00     0.209 HD
ENDBRANCH  21  22
ENDBRANCH  20  21
BRANCH  20  24
HETATM   24  N2  UNL     1       5.440   0.472   0.917  1.00  0.00    -0.414 N 
HETATM   25  C9  UNL     1       5.046   0.048   2.212  1.00  0.00     0.143 C 
HETATM   26  C10 UNL     1       5.849   1.866   0.887  1.00  0.00     0.143 C 
ENDBRANCH  20  24
ENDBRANCH  16  20
ENDBRANCH   3  13
BRANCH   6  27
HETATM   27  N3  UNL     1      -4.210   0.535   0.156  1.00  0.00    -0.353 N 
HETATM   28  C15 UNL     1      -4.779   1.730  -0.429  1.00  0.00     0.114 C 
HETATM   29  C16 UNL     1      -6.000   1.338  -1.197  1.00  0.00     0.257 C 
HETATM   30  C19 UNL     1      -5.133   2.178   0.992  1.00  0.00     0.054 C 
HETATM   31  N4  UNL     1      -7.071   0.935  -0.300  1.00  0.00    -0.071 N 
HETATM   32  C17 UNL     1      -6.552   0.166   0.792  1.00  0.00     0.257 C 
ATOM     33  H42 UNL     1      -7.614   1.735   0.025  1.00  0.00     0.277 HD
ATOM     34  H41 UNL     1      -7.812   0.438  -0.794  1.00  0.00     0.277 HD
HETATM   35  C18 UNL     1      -5.190   0.685   1.243  1.00  0.00     0.114 C 
ENDBRANCH   6  27
TORSDOF 6
