REMARK  16 active torsions:
REMARK  status: ('A' for Active; 'I' for Inactive)
REMARK    1  A    between atoms: N1_1  and  C1_4 
REMARK    2  A    between atoms: C2_7  and  N3_8 
REMARK    3  A    between atoms: C3_13  and  N5_14 
REMARK    4  A    between atoms: N5_14  and  C4_16 
REMARK    5  A    between atoms: C6_18  and  N6_19 
REMARK    6  A    between atoms: C7_23  and  O1_24 
REMARK    7  A    between atoms: O1_24  and  S1_25 
REMARK    8  A    between atoms: S1_25  and  N7_28 
REMARK    9  A    between atoms: N7_28  and  N8_29 
REMARK   10  A    between atoms: N7_28  and  C8_32 
REMARK   11  A    between atoms: N11_37  and  C9_38 
REMARK   12  A    between atoms: C9_38  and  C10_39 
REMARK   13  A    between atoms: C10_39  and  N12_40 
REMARK   14  A    between atoms: C13_49  and  C14_50 
REMARK   15  A    between atoms: C14_50  and  O4_51 
REMARK   16  A    between atoms: N16_53  and  O5_55 
ROOT
HETATM    1  C4  UNL     1      -3.253  -0.349   0.349  1.00  0.00     0.302 C 
HETATM    2  C5  UNL     1      -3.477  -1.360  -0.736  1.00  0.00     0.090 C 
HETATM    3  C6  UNL     1      -2.193  -1.488  -1.527  1.00  0.00     0.219 C 
HETATM    4  C7  UNL     1      -1.020  -0.831  -0.848  1.00  0.00     0.213 C 
HETATM    5  C13 UNL     1      -0.976  -1.043   0.627  1.00  0.00     0.296 C 
HETATM    6  N17 UNL     1      -2.268  -0.906   1.264  1.00  0.00    -0.039 N 
ATOM      7 1H17 UNL     1      -2.585  -1.790   1.662  1.00  0.00     0.280 HD
ATOM      8 2H17 UNL     1      -2.205  -0.361   2.124  1.00  0.00     0.280 HD
ENDROOT
BRANCH   4   9
HETATM    9  O1  UNL     1       0.171  -1.372  -1.387  1.00  0.00    -0.247 OA
BRANCH   9  10
HETATM   10  S1  UNL     1       1.038  -0.165  -2.118  1.00  0.00     0.396 S 
HETATM   11  O2  UNL     1       0.642  -0.069  -3.562  1.00  0.00    -0.173 OA
HETATM   12  O3  UNL     1       0.781   1.192  -1.494  1.00  0.00    -0.173 OA
BRANCH  10  13
HETATM   13  N7  UNL     1       2.741  -0.423  -2.070  1.00  0.00     0.014 N 
BRANCH  13  14
HETATM   14  N8  UNL     1       3.425  -1.115  -3.073  1.00  0.00    -0.312 N 
ATOM     15  H82 UNL     1       2.907  -1.487  -3.869  1.00  0.00     0.178 HD
ATOM     16  H81 UNL     1       4.433  -1.268  -3.045  1.00  0.00     0.178 HD
ENDBRANCH  13  14
BRANCH  13  17
HETATM   17  C8  UNL     1       3.463   0.096  -0.960  1.00  0.00     0.746 A 
HETATM   18  N9  UNL     1       3.737  -0.509   0.218  1.00  0.00    -0.112 N 
HETATM   19  N10 UNL     1       4.433   0.309   0.989  1.00  0.00    -0.211 N 
ATOM     20  H9  UNL     1       3.450  -1.454   0.473  1.00  0.00     0.207 HD
HETATM   21  N11 UNL     1       4.627   1.444   0.347  1.00  0.00    -0.203 N 
ATOM     22  H10 UNL     1       4.766   0.096   1.929  1.00  0.00     0.210 HD
HETATM   23  N15 UNL     1       4.030   1.309  -0.850  1.00  0.00    -0.110 N 
ATOM     24  H15 UNL     1       4.010   2.027  -1.574  1.00  0.00     0.207 HD
BRANCH  21  25
HETATM   25  C9  UNL     1       5.321   2.644   0.750  1.00  0.00     0.193 C 
BRANCH  25  26
HETATM   26  C10 UNL     1       6.759   2.566   0.330  1.00  0.00     0.173 C 
BRANCH  26  27
HETATM   27  N12 UNL     1       7.431   1.444   0.929  1.00  0.00    -0.286 N 
HETATM   28  C11 UNL     1       7.549   0.203   0.421  1.00  0.00     0.130 A 
HETATM   29  C12 UNL     1       8.264  -0.573   1.303  1.00  0.00     0.127 A 
HETATM   30  N13 UNL     1       8.560   0.228   2.326  1.00  0.00    -0.296 N 
HETATM   31  N14 UNL     1       8.066   1.429   2.107  1.00  0.00    -0.241 N 
ATOM     32  H13 UNL     1       9.089  -0.047   3.153  1.00  0.00     0.187 HD
ATOM     33  H14 UNL     1       8.154   2.225   2.738  1.00  0.00     0.208 HD
ENDBRANCH  26  27
ENDBRANCH  25  26
ENDBRANCH  21  25
ENDBRANCH  13  17
ENDBRANCH  10  13
ENDBRANCH   9  10
ENDBRANCH   4   9
BRANCH   3  34
HETATM   34  N6  UNL     1      -1.916  -2.872  -1.866  1.00  0.00    -0.072 N 
ATOM     35  H63 UNL     1      -1.905  -3.465  -1.036  1.00  0.00     0.274 HD
ATOM     36  H62 UNL     1      -2.701  -3.301  -2.356  1.00  0.00     0.274 HD
ATOM     37  H61 UNL     1      -1.051  -2.958  -2.399  1.00  0.00     0.274 HD
ENDBRANCH   3  34
BRANCH   5  38
HETATM   38  C14 UNL     1      -0.367  -2.352   0.984  1.00  0.00     0.169 C 
HETATM   39  N16 UNL     1      -1.044  -3.222   1.645  1.00  0.00    -0.249 N 
ATOM     40  H16 UNL     1      -2.002  -3.010   1.924  1.00  0.00     0.196 HD
BRANCH  38  41
HETATM   41  O4  UNL     1       0.920  -2.633   0.606  1.00  0.00    -0.346 OA
ATOM     42  H4  UNL     1       1.309  -3.469   0.834  1.00  0.00     0.219 HD
ENDBRANCH  38  41
BRANCH  39  43
HETATM   43  O5  UNL     1      -0.495  -4.429   1.979  1.00  0.00    -0.288 OA
ATOM     44  H5  UNL     1      -0.995  -5.072   2.468  1.00  0.00     0.244 HD
ENDBRANCH  39  43
ENDBRANCH   5  38
BRANCH   1  45
HETATM   45  N5  UNL     1      -4.431  -0.008   1.075  1.00  0.00    -0.195 N 
ATOM     46  H5  UNL     1      -4.557  -0.438   1.991  1.00  0.00     0.180 HD
BRANCH  45  47
HETATM   47  C3  UNL     1      -5.353   0.801   0.669  1.00  0.00     0.709 A 
HETATM   48  N4  UNL     1      -6.423   1.041   1.457  1.00  0.00    -0.022 N 
HETATM   49  C2  UNL     1      -7.424   1.869   1.106  1.00  0.00     0.705 A 
ATOM     50  H4  UNL     1      -6.475   0.572   2.361  1.00  0.00     0.203 HD
HETATM   51  N2  UNL     1      -7.352   2.486  -0.087  1.00  0.00    -0.022 N 
HETATM   52  C1  UNL     1      -6.299   2.269  -0.895  1.00  0.00     0.705 A 
ATOM     53  H2  UNL     1      -8.097   3.119  -0.379  1.00  0.00     0.203 HD
HETATM   54  N18 UNL     1      -5.308   1.432  -0.518  1.00  0.00    -0.022 N 
ATOM     55  H18 UNL     1      -4.516   1.277  -1.141  1.00  0.00     0.203 HD
BRANCH  49  56
HETATM   56  N3  UNL     1      -8.449   2.081   1.891  1.00  0.00    -0.234 N 
ATOM     57  H32 UNL     1      -9.208   2.709   1.625  1.00  0.00     0.174 HD
ATOM     58  H31 UNL     1      -8.504   1.613   2.796  1.00  0.00     0.174 HD
ENDBRANCH  49  56
BRANCH  52  59
HETATM   59  N1  UNL     1      -6.210   2.846  -2.036  1.00  0.00    -0.234 N 
ATOM     60  H12 UNL     1      -6.958   3.478  -2.321  1.00  0.00     0.174 HD
ATOM     61  H11 UNL     1      -5.411   2.681  -2.649  1.00  0.00     0.174 HD
ENDBRANCH  52  59
ENDBRANCH  45  47
ENDBRANCH   1  45
TORSDOF 16
