REMARK  16 active torsions:
REMARK  status: ('A' for Active; 'I' for Inactive)
REMARK    1  A    between atoms: C3_6  and  O2_7 
REMARK    2  A    between atoms: C4_9  and  C5_10 
REMARK    3  A    between atoms: C5_10  and  C6_11 
REMARK    4  A    between atoms: C6_11  and  O3_12 
REMARK    5  A    between atoms: C6_11  and  O4_14 
REMARK    6  A    between atoms: O4_14  and  C7_15 
REMARK    7  A    between atoms: C7_15  and  C8_16 
REMARK    8  A    between atoms: C8_16  and  N2_17 
REMARK    9  A    between atoms: N2_17  and  O5_18 
REMARK   10  A    between atoms: N2_17  and  N3_20 
REMARK   11  A    between atoms: C10_29  and  N7_30 
REMARK   12  A    between atoms: C12_32  and  O6_33 
REMARK   13  A    between atoms: C13_35  and  O7_36 
REMARK   14  A    between atoms: C14_38  and  C15_39 
REMARK   15  A    between atoms: C15_39  and  N8_40 
REMARK   16  A    between atoms: C18_47  and  N11_48 
ROOT
HETATM    1  N3  UNL     1      -0.807  -1.179  -1.875  1.00  0.00     0.017 N 
HETATM    2  N4  UNL     1      -0.921  -1.663  -3.108  1.00  0.00    -0.094 N 
ATOM      3  H4  UNL     1      -1.804  -1.889  -3.566  1.00  0.00     0.208 HD
HETATM    4  C9  UNL     1       0.295  -1.813  -3.666  1.00  0.00     0.707 A 
HETATM    5  N5  UNL     1       0.601  -2.248  -4.829  1.00  0.00    -0.233 N 
ATOM      6  H51 UNL     1       1.522  -2.362  -5.252  1.00  0.00     0.174 HD
ATOM      7  H52 UNL     1      -0.062  -2.560  -5.539  1.00  0.00     0.174 HD
HETATM    8  N6  UNL     1       1.164  -1.404  -2.736  1.00  0.00    -0.018 N 
ATOM      9  H6  UNL     1       2.178  -1.392  -2.849  1.00  0.00     0.203 HD
HETATM   10  C10 UNL     1       0.500  -1.005  -1.614  1.00  0.00     0.733 A 
ENDROOT
BRANCH  10  11
HETATM   11  N7  UNL     1       1.188  -0.531  -0.482  1.00  0.00    -0.211 N 
HETATM   12  C11 UNL     1       1.459   0.878  -0.390  1.00  0.00     0.175 C 
HETATM   13  C12 UNL     1       1.915   1.317   0.957  1.00  0.00     0.165 C 
HETATM   14  C13 UNL     1       2.636   0.315   1.772  1.00  0.00     0.155 C 
HETATM   15  C14 UNL     1       2.900  -0.998   1.185  1.00  0.00     0.055 C 
HETATM   16  C19 UNL     1       1.603  -1.478   0.525  1.00  0.00     0.150 C 
BRANCH  13  17
HETATM   17  O6  UNL     1       2.585   2.571   0.897  1.00  0.00    -0.391 OA
ATOM     18  H6  UNL     1       2.876   2.851   1.757  1.00  0.00     0.210 HD
ENDBRANCH  13  17
BRANCH  14  19
HETATM   19  O7  UNL     1       3.712   0.902   2.458  1.00  0.00    -0.392 OA
ATOM     20  H7  UNL     1       4.175   0.258   2.981  1.00  0.00     0.210 HD
ENDBRANCH  14  19
BRANCH  15  21
HETATM   21  C15 UNL     1       3.984  -1.228   0.218  1.00  0.00     0.161 C 
BRANCH  21  22
HETATM   22  N8  UNL     1       5.327  -0.943   0.624  1.00  0.00    -0.260 N 
HETATM   23  N9  UNL     1       5.947  -1.815   1.396  1.00  0.00    -0.237 N 
HETATM   24  N10 UNL     1       7.169  -1.586   1.841  1.00  0.00    -0.268 N 
ATOM     25  H9  UNL     1       5.474  -2.681   1.654  1.00  0.00     0.208 HD
HETATM   26  C16 UNL     1       7.817  -0.452   1.517  1.00  0.00     0.166 A 
ATOM     27  H10 UNL     1       7.627  -2.276   2.437  1.00  0.00     0.190 HD
HETATM   28  C17 UNL     1       7.216   0.494   0.712  1.00  0.00     0.138 A 
HETATM   29  N14 UNL     1       9.113   0.097   1.820  1.00  0.00    -0.266 N 
HETATM   30  C18 UNL     1       5.924   0.193   0.273  1.00  0.00     0.149 A 
HETATM   31  N12 UNL     1       8.097   1.591   0.512  1.00  0.00    -0.277 N 
HETATM   32  N13 UNL     1       9.333   1.249   1.065  1.00  0.00    -0.020 NA
ATOM     33  H12 UNL     1       7.868   2.470   0.048  1.00  0.00     0.184 HD
ATOM     34  H14 UNL     1       9.774  -0.299   2.489  1.00  0.00     0.186 HD
BRANCH  30  35
HETATM   35  N11 UNL     1       5.400   1.088  -0.523  1.00  0.00    -0.382 N 
ATOM     36 2H11 UNL     1       4.457   0.868  -0.843  1.00  0.00     0.157 HD
ATOM     37 1H11 UNL     1       5.858   1.959  -0.792  1.00  0.00     0.157 HD
ENDBRANCH  30  35
ENDBRANCH  21  22
ENDBRANCH  15  21
ENDBRANCH  10  11
BRANCH   1  38
HETATM   38  N2  UNL     1      -1.827  -0.897  -0.979  1.00  0.00    -0.163 N 
BRANCH  38  39
HETATM   39  C8  UNL     1      -3.219  -1.129  -1.303  1.00  0.00     0.205 C 
BRANCH  39  40
HETATM   40  C7  UNL     1      -4.072   0.125  -1.119  1.00  0.00     0.195 C 
BRANCH  40  41
HETATM   41  O4  UNL     1      -5.386  -0.176  -1.448  1.00  0.00    -0.359 OA
BRANCH  41  42
HETATM   42  C6  UNL     1      -6.270   0.871  -1.301  1.00  0.00     0.261 C 
BRANCH  42  43
HETATM   43  C5  UNL     1      -7.389   0.500  -0.329  1.00  0.00     0.106 C 
BRANCH  43  44
HETATM   44  C4  UNL     1      -6.823   0.154   1.001  1.00  0.00     0.031 A 
HETATM   45  C2  UNL     1      -6.364   1.043   1.954  1.00  0.00     0.040 A 
HETATM   46  C1  UNL     1      -6.350   2.533   1.862  1.00  0.00     0.071 C 
HETATM   47  N1  UNL     1      -5.938   0.307   2.977  1.00  0.00    -0.263 N 
HETATM   48  O1  UNL     1      -6.105  -0.953   2.711  1.00  0.00    -0.212 OA
ATOM     49  H1  UNL     1      -5.540   0.677   3.840  1.00  0.00     0.194 HD
HETATM   50  C3  UNL     1      -6.640  -1.107   1.523  1.00  0.00     0.213 A 
BRANCH  50  51
HETATM   51  O2  UNL     1      -6.945  -2.332   0.946  1.00  0.00    -0.339 OA
ATOM     52  H2  UNL     1      -7.332  -2.444   0.086  1.00  0.00     0.220 HD
ENDBRANCH  50  51
ENDBRANCH  43  44
ENDBRANCH  42  43
BRANCH  42  53
HETATM   53  O3  UNL     1      -6.863   1.190  -2.530  1.00  0.00    -0.371 OA
ATOM     54  H3  UNL     1      -6.167   1.421  -3.134  1.00  0.00     0.212 HD
ENDBRANCH  42  53
ENDBRANCH  41  42
ENDBRANCH  40  41
ENDBRANCH  39  40
ENDBRANCH  38  39
BRANCH  38  55
HETATM   55  O5  UNL     1      -1.560  -0.398   0.264  1.00  0.00    -0.270 OA
ATOM     56  H5  UNL     1      -0.647  -0.246   0.477  1.00  0.00     0.246 HD
ENDBRANCH  38  55
ENDBRANCH   1  38
TORSDOF 16
