REMARK  16 active torsions:
REMARK  status: ('A' for Active; 'I' for Inactive)
REMARK    1  A    between atoms: C2_2  and  C3_3 
REMARK    2  A    between atoms: C3_3  and  N1_4 
REMARK    3  A    between atoms: C4_9  and  N4_10 
REMARK    4  A    between atoms: N4_10  and  C5_12 
REMARK    5  A    between atoms: C7_16  and  C8_17 
REMARK    6  A    between atoms: C8_17  and  O1_18 
REMARK    7  A    between atoms: C8_17  and  O2_20 
REMARK    8  A    between atoms: C12_27  and  O5_28 
REMARK    9  A    between atoms: C13_30  and  N6_31 
REMARK   10  A    between atoms: N6_31  and  N7_33 
REMARK   11  A    between atoms: N7_33  and  C14_35 
REMARK   12  A    between atoms: C15_40  and  N10_41 
REMARK   13  A    between atoms: N12_46  and  O6_47 
REMARK   14  A    between atoms: N13_49  and  O7_50 
REMARK   15  A    between atoms: C16_52  and  C17_53 
REMARK   16  A    between atoms: C17_53  and  O9_55 
ROOT
HETATM    1  C5  UNL     1      -0.029  -0.569   0.701  1.00  0.00     0.184 C 
HETATM    2  C6  UNL     1       0.529  -1.879   0.715  1.00  0.00     0.099 A 
HETATM    3  N5  UNL     1      -0.403  -2.835   0.836  1.00  0.00    -0.348 N 
ATOM      4  H5  UNL     1      -1.386  -2.571   0.906  1.00  0.00     0.166 HD
HETATM    5  C7  UNL     1      -0.062  -4.144   0.867  1.00  0.00     0.119 A 
HETATM    6  C9  UNL     1       1.259  -4.531   0.774  1.00  0.00     0.250 A 
HETATM    7  O3  UNL     1       1.523  -5.758   0.808  1.00  0.00    -0.282 OA
HETATM    8  C10 UNL     1       2.210  -3.550   0.649  1.00  0.00     0.239 A 
HETATM    9  O4  UNL     1       3.412  -3.871   0.563  1.00  0.00    -0.283 OA
HETATM   10  C11 UNL     1       1.805  -2.232   0.622  1.00  0.00     0.086 A 
HETATM   11  C12 UNL     1       2.869  -1.342   0.485  1.00  0.00     0.132 C 
HETATM   12  C13 UNL     1       2.910   0.053   0.612  1.00  0.00     0.203 C 
HETATM   13  N12 UNL     1       1.883   0.906   0.887  1.00  0.00    -0.114 N 
HETATM   14  N13 UNL     1       0.647   0.514   1.142  1.00  0.00    -0.115 N 
ENDROOT
BRANCH   1  15
HETATM   15  N4  UNL     1      -1.348  -0.483   0.260  1.00  0.00    -0.320 N 
ATOM     16  H4  UNL     1      -1.866  -1.356   0.154  1.00  0.00     0.169 HD
BRANCH  15  17
HETATM   17  C4  UNL     1      -2.020   0.708  -0.049  1.00  0.00     0.158 A 
HETATM   18  N3  UNL     1      -1.596   1.962  -0.118  1.00  0.00    -0.269 N 
HETATM   19  N2  UNL     1      -2.537   2.749  -0.498  1.00  0.00    -0.238 N 
ATOM     20  H3  UNL     1      -0.646   2.263   0.102  1.00  0.00     0.190 HD
HETATM   21  N1  UNL     1      -3.680   2.060  -0.712  1.00  0.00    -0.265 N 
ATOM     22  H2  UNL     1      -2.436   3.756  -0.621  1.00  0.00     0.208 HD
HETATM   23  C16 UNL     1      -3.383   0.785  -0.440  1.00  0.00     0.173 A 
BRANCH  21  24
HETATM   24  C3  UNL     1      -4.850   2.778  -1.117  1.00  0.00     0.177 C 
BRANCH  24  25
HETATM   25  C2  UNL     1      -5.647   3.345  -0.026  1.00  0.00    -0.015 C 
HETATM   26  C1  UNL     1      -6.907   3.022   0.149  1.00  0.00     0.008 C 
ENDBRANCH  24  25
ENDBRANCH  21  24
BRANCH  23  27
HETATM   27  C17 UNL     1      -4.324  -0.297  -0.542  1.00  0.00     0.315 C 
HETATM   28  O8  UNL     1      -4.063  -1.516  -0.280  1.00  0.00    -0.257 OA
BRANCH  27  29
HETATM   29  O9  UNL     1      -5.623  -0.075  -0.949  1.00  0.00    -0.321 OA
HETATM   30  C18 UNL     1      -6.593  -1.098  -1.069  1.00  0.00     0.213 C 
ENDBRANCH  27  29
ENDBRANCH  23  27
ENDBRANCH  15  17
ENDBRANCH   1  15
BRANCH  14  31
HETATM   31  O7  UNL     1      -0.030   1.336   2.019  1.00  0.00    -0.264 OA
ATOM     32  H7  UNL     1       0.445   2.098   2.329  1.00  0.00     0.247 HD
ENDBRANCH  14  31
BRANCH  13  33
HETATM   33  O6  UNL     1       2.164   2.245   0.902  1.00  0.00    -0.264 OA
ATOM     34  H6  UNL     1       1.448   2.840   1.094  1.00  0.00     0.247 HD
ENDBRANCH  13  33
BRANCH   5  35
HETATM   35  C8  UNL     1      -1.114  -5.194   1.004  1.00  0.00     0.309 C 
BRANCH  35  36
HETATM   36  O1  UNL     1      -0.622  -6.099   1.971  1.00  0.00    -0.366 OA
ATOM     37  H1  UNL     1      -1.292  -6.767   2.058  1.00  0.00     0.213 HD
ENDBRANCH  35  36
BRANCH  35  38
HETATM   38  O2  UNL     1      -1.258  -5.896  -0.170  1.00  0.00    -0.366 OA
ATOM     39  H2  UNL     1      -1.928  -6.564  -0.083  1.00  0.00     0.213 HD
ENDBRANCH  35  38
ENDBRANCH   5  35
BRANCH  11  40
HETATM   40  O5  UNL     1       4.063  -1.975   0.173  1.00  0.00    -0.356 OA
ATOM     41  H5  UNL     1       4.788  -1.368   0.080  1.00  0.00     0.218 HD
ENDBRANCH  11  40
BRANCH  12  42
HETATM   42  N6  UNL     1       4.167   0.677   0.437  1.00  0.00    -0.266 N 
ATOM     43  H6  UNL     1       4.756   0.782   1.263  1.00  0.00     0.189 HD
BRANCH  42  44
HETATM   44  N7  UNL     1       4.664   1.156  -0.761  1.00  0.00    -0.128 N 
ATOM     45  H7  UNL     1       4.367   0.755  -1.651  1.00  0.00     0.205 HD
BRANCH  44  46
HETATM   46  C14 UNL     1       5.526   2.138  -0.719  1.00  0.00     0.726 A 
HETATM   47  N8  UNL     1       6.018   2.773   0.360  1.00  0.00    -0.116 N 
HETATM   48  N9  UNL     1       6.870   3.714  -0.013  1.00  0.00    -0.117 N 
ATOM     49  H8  UNL     1       5.770   2.560   1.326  1.00  0.00     0.206 HD
HETATM   50  C15 UNL     1       6.937   3.697  -1.353  1.00  0.00     0.705 A 
ATOM     51  H9  UNL     1       7.384   4.340   0.607  1.00  0.00     0.206 HD
HETATM   52  N11 UNL     1       6.114   2.731  -1.798  1.00  0.00    -0.019 N 
ATOM     53  H11 UNL     1       5.956   2.484  -2.775  1.00  0.00     0.203 HD
BRANCH  50  54
HETATM   54  N10 UNL     1       7.649   4.453  -2.117  1.00  0.00    -0.233 N 
ATOM     55 2H10 UNL     1       8.273   5.186  -1.779  1.00  0.00     0.174 HD
ATOM     56 1H10 UNL     1       7.700   4.440  -3.136  1.00  0.00     0.174 HD
ENDBRANCH  50  54
ENDBRANCH  44  46
ENDBRANCH  42  44
ENDBRANCH  12  42
TORSDOF 16
