REMARK  12 active torsions:
REMARK  status: ('A' for Active; 'I' for Inactive)
REMARK    1  A    between atoms: C2_2  and  C3_3 
REMARK    2  A    between atoms: C2_2  and  C4_6 
REMARK    3  A    between atoms: C2_2  and  N1_9 
REMARK    4  A    between atoms: C3_3  and  O1_4 
REMARK    5  A    between atoms: C4_6  and  O2_7 
REMARK    6  A    between atoms: N1_9  and  C5_11 
REMARK    7  A    between atoms: C5_11  and  C6_12 
REMARK    8  A    between atoms: C9_20  and  N4_21 
REMARK    9  A    between atoms: N6_27  and  C11_28 
REMARK   10  A    between atoms: C12_32  and  N8_33 
REMARK   11  A    between atoms: N8_33  and  N9_35 
REMARK   12  A    between atoms: C13_38  and  N10_39 
ROOT
HETATM    1  C6  UNL     1      -1.027   0.003   0.201  1.00  0.00     0.096 A 
HETATM    2  N2  UNL     1      -1.181  -1.300   0.442  1.00  0.00    -0.346 N 
ATOM      3  H2  UNL     1      -2.120  -1.693   0.382  1.00  0.00     0.166 HD
HETATM    4  C7  UNL     1      -0.179  -2.114   0.756  1.00  0.00     0.147 A 
HETATM    5  C8  UNL     1      -0.411  -3.453   0.993  1.00  0.00     0.290 A 
HETATM    6  O3  UNL     1      -1.571  -3.945   0.921  1.00  0.00    -0.265 OA
HETATM    7  N3  UNL     1       0.613  -4.253   1.307  1.00  0.00    -0.154 N 
ATOM      8  H3  UNL     1       0.455  -5.245   1.485  1.00  0.00     0.187 HD
HETATM    9  C9  UNL     1       1.844  -3.742   1.385  1.00  0.00     0.680 A 
HETATM   10  N5  UNL     1       2.082  -2.421   1.152  1.00  0.00    -0.174 N 
ATOM     11  H5  UNL     1       3.039  -2.074   1.223  1.00  0.00     0.186 HD
HETATM   12  C10 UNL     1       1.102  -1.558   0.832  1.00  0.00     0.161 A 
HETATM   13  N6  UNL     1       1.316  -0.254   0.599  1.00  0.00    -0.257 N 
HETATM   14  C14 UNL     1       0.268   0.518   0.288  1.00  0.00     0.276 A 
HETATM   15  O4  UNL     1       0.437   1.724   0.068  1.00  0.00    -0.266 OA
ENDROOT
BRANCH  13  16
HETATM   16  C11 UNL     1       2.631   0.269   0.689  1.00  0.00     0.363 C 
HETATM   17  N7  UNL     1       3.424   0.104  -0.540  1.00  0.00    -0.019 N 
HETATM   18  C12 UNL     1       4.615   0.864  -0.262  1.00  0.00     0.342 C 
ATOM     19  H72 UNL     1       3.591  -0.865  -0.812  1.00  0.00     0.283 HD
ATOM     20  H71 UNL     1       2.940   0.370  -1.398  1.00  0.00     0.283 HD
HETATM   21  C13 UNL     1       4.211   2.332  -0.193  1.00  0.00     0.299 C 
HETATM   22  S1  UNL     1       2.644   2.111   0.757  1.00  0.00    -0.078 SA
BRANCH  18  23
HETATM   23  N8  UNL     1       5.725   0.609  -1.097  1.00  0.00    -0.310 N 
ATOM     24  H8  UNL     1       6.612   0.276  -0.720  1.00  0.00     0.182 HD
BRANCH  23  25
HETATM   25  N9  UNL     1       5.552   0.831  -2.439  1.00  0.00    -0.347 N 
ATOM     26  H92 UNL     1       4.658   1.164  -2.801  1.00  0.00     0.176 HD
ATOM     27  H91 UNL     1       6.354   0.647  -3.042  1.00  0.00     0.176 HD
ENDBRANCH  23  25
ENDBRANCH  18  23
BRANCH  21  28
HETATM   28  N10 UNL     1       5.197   2.999   0.614  1.00  0.00    -0.062 N 
ATOM     29 3H10 UNL     1       5.319   2.573   1.533  1.00  0.00     0.275 HD
ATOM     30 2H10 UNL     1       6.150   2.860   0.279  1.00  0.00     0.275 HD
ATOM     31 1H10 UNL     1       4.927   3.981   0.660  1.00  0.00     0.275 HD
ENDBRANCH  21  28
ENDBRANCH  13  16
BRANCH   1  32
HETATM   32  C5  UNL     1      -2.201   0.869  -0.148  1.00  0.00     0.178 C 
BRANCH  32  33
HETATM   33  N1  UNL     1      -3.364   0.049  -0.152  1.00  0.00    -0.404 N 
ATOM     34  H1  UNL     1      -3.331  -0.948   0.062  1.00  0.00     0.154 HD
BRANCH  33  35
HETATM   35  C2  UNL     1      -4.579   0.723  -0.477  1.00  0.00     0.065 C 
HETATM   36  C1  UNL     1      -4.456   1.255  -1.902  1.00  0.00     0.042 C 
BRANCH  35  37
HETATM   37  C3  UNL     1      -5.775  -0.210  -0.484  1.00  0.00     0.196 C 
BRANCH  37  38
HETATM   38  O1  UNL     1      -5.877  -0.752   0.796  1.00  0.00    -0.398 OA
ATOM     39  H1  UNL     1      -6.626  -1.336   0.792  1.00  0.00     0.209 HD
ENDBRANCH  37  38
ENDBRANCH  35  37
BRANCH  35  40
HETATM   40  C4  UNL     1      -4.907   1.874   0.410  1.00  0.00     0.196 C 
BRANCH  40  41
HETATM   41  O2  UNL     1      -6.120   2.425  -0.038  1.00  0.00    -0.398 OA
ATOM     42  H2  UNL     1      -6.329   3.159   0.528  1.00  0.00     0.209 HD
ENDBRANCH  40  41
ENDBRANCH  35  40
ENDBRANCH  33  35
ENDBRANCH  32  33
ENDBRANCH   1  32
BRANCH   9  43
HETATM   43  N4  UNL     1       2.830  -4.506   1.685  1.00  0.00    -0.234 N 
ATOM     44  H42 UNL     1       2.652  -5.495   1.859  1.00  0.00     0.174 HD
ATOM     45  H41 UNL     1       3.770  -4.116   1.745  1.00  0.00     0.174 HD
ENDBRANCH   9  43
TORSDOF 12
