REMARK  14 active torsions:
REMARK  status: ('A' for Active; 'I' for Inactive)
REMARK    1  A    between atoms: C2_2  and  O1_3 
REMARK    2  A    between atoms: C2_2  and  C3_5 
REMARK    3  A    between atoms: C4_7  and  O3_8 
REMARK    4  A    between atoms: C6_11  and  C7_12 
REMARK       I    between atoms: C7_12  and  N1_14 
REMARK    5  A    between atoms: C8_16  and  C9_17 
REMARK    6  A    between atoms: C9_17  and  N2_18 
REMARK    7  A    between atoms: C9_17  and  N3_22 
REMARK    8  A    between atoms: N3_22  and  O5_23 
REMARK    9  A    between atoms: C10_25  and  O6_26 
REMARK   10  A    between atoms: C10_25  and  C11_28 
REMARK   11  A    between atoms: C11_28  and  O7_29 
REMARK   12  A    between atoms: C12_31  and  O8_32 
REMARK   13  A    between atoms: C12_31  and  C13_34 
REMARK   14  A    between atoms: C16_42  and  C17_43 
ROOT
HETATM    1  C3  UNL     1      -2.598  -1.700  -0.212  1.00  0.00     0.186 C 
HETATM    2  O2  UNL     1      -1.554  -2.288  -0.865  1.00  0.00    -0.349 OA
HETATM    3  C4  UNL     1      -0.368  -1.841  -0.316  1.00  0.00     0.280 C 
HETATM    4  C5  UNL     1      -0.253  -0.383  -0.696  1.00  0.00     0.154 C 
HETATM    5  C6  UNL     1       0.993   0.117   0.085  1.00  0.00     0.147 C 
HETATM    6  C10 UNL     1       0.627   1.521   0.342  1.00  0.00     0.149 C 
HETATM    7  C12 UNL     1      -0.907   1.473   0.516  1.00  0.00     0.212 C 
HETATM    8  N5  UNL     1      -1.342   0.408  -0.267  1.00  0.00    -0.348 N 
HETATM    9  C16 UNL     1      -2.585  -0.182  -0.130  1.00  0.00     0.216 C 
ENDROOT
BRANCH   5  10
HETATM   10  C7  UNL     1       2.174  -0.196  -0.723  1.00  0.00     0.231 C 
HETATM   11  O4  UNL     1       2.147   0.073  -1.963  1.00  0.00    -0.273 OA
HETATM   12  N1  UNL     1       3.309  -0.768  -0.221  1.00  0.00    -0.337 N 
HETATM   13  C8  UNL     1       4.105  -0.566   0.720  1.00  0.00     0.115 C 
ATOM     14  H1  UNL     1       3.582  -1.586  -0.765  1.00  0.00     0.168 HD
BRANCH  13  15
HETATM   15  C9  UNL     1       5.247  -1.560   0.822  1.00  0.00     0.340 C 
BRANCH  15  16
HETATM   16  N2  UNL     1       6.336  -1.054   1.593  1.00  0.00    -0.054 N 
ATOM     17  H23 UNL     1       6.659  -0.157   1.230  1.00  0.00     0.276 HD
ATOM     18  H22 UNL     1       6.025  -0.753   2.517  1.00  0.00     0.276 HD
ATOM     19  H21 UNL     1       7.104  -1.722   1.662  1.00  0.00     0.276 HD
ENDBRANCH  15  16
BRANCH  15  20
HETATM   20  N3  UNL     1       5.681  -1.942  -0.497  1.00  0.00    -0.065 NA
BRANCH  20  21
HETATM   21  O5  UNL     1       6.082  -0.873  -1.246  1.00  0.00    -0.294 OA
ATOM     22  H5  UNL     1       6.368  -1.125  -2.116  1.00  0.00     0.238 HD
ENDBRANCH  20  21
ENDBRANCH  15  20
ENDBRANCH  13  15
ENDBRANCH   5  10
BRANCH   6  23
HETATM   23  O6  UNL     1       1.225   1.969   1.524  1.00  0.00    -0.381 OA
ATOM     24  H6  UNL     1       0.989   2.874   1.690  1.00  0.00     0.211 HD
ENDBRANCH   6  23
BRANCH   6  25
HETATM   25  C11 UNL     1       1.016   2.477  -0.731  1.00  0.00     0.208 C 
BRANCH  25  26
HETATM   26  O7  UNL     1       2.438   2.524  -0.734  1.00  0.00    -0.398 OA
ATOM     27  H7  UNL     1       2.686   3.134  -1.419  1.00  0.00     0.209 HD
ENDBRANCH  25  26
ENDBRANCH   6  25
BRANCH   3  28
HETATM   28  O3  UNL     1       0.700  -2.545  -0.819  1.00  0.00    -0.369 OA
ATOM     29  H3  UNL     1       1.516  -2.238  -0.441  1.00  0.00     0.212 HD
ENDBRANCH   3  28
BRANCH   7  30
HETATM   30  O8  UNL     1      -1.089   1.300   1.893  1.00  0.00    -0.363 OA
ATOM     31  H8  UNL     1      -2.032   1.270   2.000  1.00  0.00     0.213 HD
ENDBRANCH   7  30
BRANCH   7  32
HETATM   32  C13 UNL     1      -1.493   2.787   0.191  1.00  0.00     0.095 A 
HETATM   33  C14 UNL     1      -1.350   3.924   0.946  1.00  0.00     0.177 A 
HETATM   34  O9  UNL     1      -2.038   4.896   0.351  1.00  0.00    -0.271 OA
HETATM   35  C15 UNL     1      -2.608   4.449  -0.728  1.00  0.00     0.369 A 
HETATM   36  O10 UNL     1      -3.355   5.075  -1.565  1.00  0.00    -0.238 OA
HETATM   37  N4  UNL     1      -2.282   3.146  -0.844  1.00  0.00    -0.300 N 
ATOM     38  H4  UNL     1      -2.584   2.528  -1.597  1.00  0.00     0.171 HD
ENDBRANCH   7  32
BRANCH   9  39
HETATM   39  C17 UNL     1      -3.374   0.135   1.083  1.00  0.00     0.199 C 
HETATM   40  O11 UNL     1      -4.238   1.028   1.172  1.00  0.00    -0.646 OA
HETATM   41  O12 UNL     1      -3.169  -0.604   2.269  1.00  0.00    -0.646 OA
ENDBRANCH   9  39
BRANCH   1  42
HETATM   42  C2  UNL     1      -3.881  -2.187  -0.859  1.00  0.00     0.145 C 
HETATM   43  C1  UNL     1      -3.926  -3.702  -0.751  1.00  0.00     0.042 C 
BRANCH  42  44
HETATM   44  O1  UNL     1      -5.002  -1.610  -0.287  1.00  0.00    -0.393 OA
ATOM     45  H1  UNL     1      -4.974  -0.663  -0.355  1.00  0.00     0.210 HD
ENDBRANCH  42  44
ENDBRANCH   1  42
TORSDOF 14
