REMARK  13 active torsions:
REMARK  status: ('A' for Active; 'I' for Inactive)
REMARK    1  A    between atoms: N1_1  and  C1_5 
REMARK    2  A    between atoms: C1_5  and  C2_6 
REMARK    3  A    between atoms: C2_6  and  O1_7 
REMARK    4  A    between atoms: C3_10  and  C4_11 
REMARK    5  A    between atoms: C4_11  and  O3_12 
REMARK    6  A    between atoms: C5_14  and  O4_15 
REMARK    7  A    between atoms: C6_17  and  N2_18 
REMARK    8  A    between atoms: C8_20  and  C9_21 
REMARK    9  A    between atoms: C10_22  and  O5_23 
REMARK   10  A    between atoms: N3_25  and  N4_26 
REMARK   11  A    between atoms: N4_26  and  S1_28 
REMARK   12  A    between atoms: C15_40  and  N7_41 
REMARK   13  A    between atoms: N7_41  and  N8_43 
ROOT
HETATM    1  N2  UNL     1      -1.306  -1.046   0.549  1.00  0.00    -0.178 N 
HETATM    2  C7  UNL     1      -0.073  -0.630   0.219  1.00  0.00     0.128 A 
HETATM    3  C8  UNL     1       0.986  -1.497   0.278  1.00  0.00     0.063 A 
HETATM    4  C14 UNL     1       0.763  -2.792   0.679  1.00  0.00     0.272 A 
HETATM    5  O9  UNL     1       1.645  -3.673   0.773  1.00  0.00    -0.267 OA
HETATM    6  N6  UNL     1      -0.503  -3.169   1.003  1.00  0.00    -0.154 N 
ATOM      7  H6  UNL     1      -0.675  -4.130   1.300  1.00  0.00     0.187 HD
HETATM    8  C15 UNL     1      -1.531  -2.311   0.942  1.00  0.00     0.702 A 
ENDROOT
BRANCH   1   9
HETATM    9  C6  UNL     1      -2.435  -0.135   0.484  1.00  0.00     0.202 C 
HETATM   10  C2  UNL     1      -2.252   1.142   1.213  1.00  0.00     0.210 C 
HETATM   11  O2  UNL     1      -2.108   2.159   0.281  1.00  0.00    -0.342 OA
HETATM   12  C3  UNL     1      -2.562   1.738  -0.934  1.00  0.00     0.179 C 
HETATM   13  C5  UNL     1      -2.756   0.262  -0.935  1.00  0.00     0.178 C 
BRANCH  10  14
HETATM   14  C1  UNL     1      -3.483   1.494   2.059  1.00  0.00     0.299 C 
BRANCH  14  15
HETATM   15  N1  UNL     1      -3.599   0.521   3.128  1.00  0.00    -0.074 N 
ATOM     16  H13 UNL     1      -3.622  -0.439   2.783  1.00  0.00     0.274 HD
ATOM     17  H12 UNL     1      -2.748   0.449   3.686  1.00  0.00     0.274 HD
ATOM     18  H11 UNL     1      -4.417   0.755   3.690  1.00  0.00     0.274 HD
ENDBRANCH  14  15
ENDBRANCH  10  14
BRANCH  10  19
HETATM   19  O1  UNL     1      -1.179   1.196   2.079  1.00  0.00    -0.362 OA
ATOM     20  H1  UNL     1      -0.417   0.978   1.555  1.00  0.00     0.213 HD
ENDBRANCH  10  19
BRANCH  12  21
HETATM   21  C4  UNL     1      -3.779   2.491  -1.430  1.00  0.00     0.198 C 
BRANCH  21  22
HETATM   22  O3  UNL     1      -4.151   1.976  -2.672  1.00  0.00    -0.398 OA
ATOM     23  H3  UNL     1      -4.914   2.448  -2.983  1.00  0.00     0.209 HD
ENDBRANCH  21  22
ENDBRANCH  12  21
BRANCH  13  24
HETATM   24  O4  UNL     1      -4.060  -0.055  -1.278  1.00  0.00    -0.391 OA
ATOM     25  H4  UNL     1      -4.184  -0.997  -1.279  1.00  0.00     0.210 HD
ENDBRANCH  13  24
ENDBRANCH   1   9
BRANCH   8  26
HETATM   26  N7  UNL     1      -2.748  -2.696   1.260  1.00  0.00    -0.138 N 
ATOM     27  H7  UNL     1      -3.532  -2.045   1.214  1.00  0.00     0.205 HD
BRANCH  26  28
HETATM   28  N8  UNL     1      -2.938  -4.021   1.663  1.00  0.00    -0.331 N 
ATOM     29  H82 UNL     1      -2.144  -4.660   1.704  1.00  0.00     0.177 HD
ATOM     30  H81 UNL     1      -3.882  -4.320   1.910  1.00  0.00     0.177 HD
ENDBRANCH  26  28
ENDBRANCH   8  26
BRANCH   3  31
HETATM   31  C9  UNL     1       2.341  -1.094  -0.058  1.00  0.00     0.035 A 
HETATM   32  C10 UNL     1       2.809   0.049   0.371  1.00  0.00     0.169 A 
HETATM   33  N3  UNL     1       4.125   0.449   0.050  1.00  0.00    -0.254 N 
HETATM   34  C11 UNL     1       5.000  -0.352  -0.770  1.00  0.00     0.206 A 
HETATM   35  C12 UNL     1       4.381  -1.604  -1.196  1.00  0.00     0.045 A 
HETATM   36  N5  UNL     1       5.145  -2.495  -2.003  1.00  0.00    -0.105 NA
HETATM   37  C13 UNL     1       3.148  -1.969  -0.877  1.00  0.00     0.040 A 
BRANCH  32  38
HETATM   38  O5  UNL     1       2.068   0.936   1.157  1.00  0.00    -0.344 OA
ATOM     39  H5  UNL     1       2.408   1.766   1.469  1.00  0.00     0.219 HD
ENDBRANCH  32  38
BRANCH  33  40
HETATM   40  N4  UNL     1       4.621   1.689   0.547  1.00  0.00    -0.203 N 
ATOM     41  H4  UNL     1       5.176   1.817   1.393  1.00  0.00     0.203 HD
BRANCH  40  42
HETATM   42  S1  UNL     1       4.113   2.949  -0.544  1.00  0.00     0.223 S 
HETATM   43  O6  UNL     1       3.962   4.255   0.176  1.00  0.00    -0.577 OA
HETATM   44  O7  UNL     1       2.802   2.530  -1.154  1.00  0.00    -0.577 OA
HETATM   45  O8  UNL     1       5.240   3.177  -1.761  1.00  0.00    -0.577 OA
ENDBRANCH  40  42
ENDBRANCH  33  40
ENDBRANCH   3  31
TORSDOF 13
