REMARK  5 active torsions:
REMARK  status: ('A' for Active; 'I' for Inactive)
REMARK    1  A    between atoms: C1_4  and  C2_5 
REMARK       I    between atoms: C2_5  and  N2_7 
REMARK    2  A    between atoms: N3_13  and  C8_14 
REMARK    3  A    between atoms: C11_17  and  C12_18 
REMARK    4  A    between atoms: C12_18  and  C13_19 
REMARK    5  A    between atoms: N4_22  and  C16_23 
ROOT
HETATM    1  C8  UNL     1       2.377   0.153   0.393  1.00  0.00     0.076 A 
HETATM    2  C9  UNL     1       1.728   1.273   0.858  1.00  0.00     0.033 A 
HETATM    3  C10 UNL     1       0.437   1.281   1.336  1.00  0.00     0.009 A 
HETATM    4  C11 UNL     1      -0.299   0.126   1.375  1.00  0.00    -0.055 A 
HETATM    5  C24 UNL     1       0.335  -1.033   0.907  1.00  0.00     0.051 A 
HETATM    6  C25 UNL     1       1.619  -1.027   0.433  1.00  0.00     0.143 A 
HETATM    7  F1  UNL     1       2.137  -2.205  -0.003  1.00  0.00    -0.204 F 
ENDROOT
BRANCH   1   8
HETATM    8  N3  UNL     1       3.702   0.118  -0.084  1.00  0.00    -0.313 N 
HETATM    9  C7  UNL     1       4.206  -0.012  -1.474  1.00  0.00     0.139 C 
HETATM   10  C6  UNL     1       5.446  -0.799  -1.163  1.00  0.00     0.036 C 
HETATM   11  C5  UNL     1       6.480  -0.949  -2.186  1.00  0.00     0.010 C 
HETATM   12  C27 UNL     1       6.016   0.195  -0.088  1.00  0.00     0.185 C 
HETATM   13  C4  UNL     1       7.547  -1.890  -1.567  1.00  0.00     0.020 C 
HETATM   14  C3  UNL     1       7.484  -1.776  -0.048  1.00  0.00     0.127 C 
HETATM   15  N2  UNL     1       7.223  -0.373   0.326  1.00  0.00    -0.334 N 
HETATM   16  C2  UNL     1       8.212   0.282   1.067  1.00  0.00     0.259 C 
HETATM   17  O1  UNL     1       9.263  -0.383   1.429  1.00  0.00    -0.267 OA
HETATM   18  C26 UNL     1       4.853   0.185   0.796  1.00  0.00     0.247 C 
HETATM   19  O2  UNL     1       4.779   0.223   2.040  1.00  0.00    -0.271 OA
BRANCH  16  20
HETATM   20  C1  UNL     1       8.155   1.669   1.464  1.00  0.00     0.155 C 
HETATM   21  N1  UNL     1       7.222   2.509   1.211  1.00  0.00    -0.404 N 
ATOM     22  H12 UNL     1       6.441   2.141   0.668  1.00  0.00     0.155 HD
ATOM     23  H11 UNL     1       7.182   3.489   1.491  1.00  0.00     0.155 HD
ENDBRANCH  16  20
ENDBRANCH   1   8
BRANCH   4  24
HETATM   24  C12 UNL     1      -1.677   0.045   1.894  1.00  0.00     0.043 C 
BRANCH  24  25
HETATM   25  C13 UNL     1      -2.706   0.265   0.851  1.00  0.00    -0.007 C 
HETATM   26  C14 UNL     1      -2.676  -0.702  -0.304  1.00  0.00     0.024 C 
HETATM   27  C15 UNL     1      -3.600  -0.181  -1.392  1.00  0.00     0.117 C 
HETATM   28  N4  UNL     1      -4.611   0.689  -0.903  1.00  0.00    -0.408 N 
HETATM   29  C22 UNL     1      -4.188   1.853  -0.210  1.00  0.00     0.117 C 
HETATM   30  C23 UNL     1      -2.749   1.667   0.299  1.00  0.00     0.024 C 
BRANCH  28  31
HETATM   31  C16 UNL     1      -5.816   0.068  -0.470  1.00  0.00     0.079 C 
HETATM   32  C17 UNL     1      -6.738   0.979   0.306  1.00  0.00     0.025 C 
HETATM   33  C18 UNL     1      -8.201   0.583   0.136  1.00  0.00     0.002 C 
HETATM   34  C19 UNL     1      -8.389  -0.896  -0.008  1.00  0.00     0.000 C 
HETATM   35  C20 UNL     1      -7.608  -1.477  -1.160  1.00  0.00     0.002 C 
HETATM   36  C21 UNL     1      -6.614  -0.441  -1.673  1.00  0.00     0.025 C 
ENDBRANCH  28  31
ENDBRANCH  24  25
ENDBRANCH   4  24
TORSDOF 5
