REMARK  11 active torsions:
REMARK  status: ('A' for Active; 'I' for Inactive)
REMARK    1  A    between atoms: C2_2  and  O1_4 
REMARK    2  A    between atoms: C2_2  and  C4_6 
REMARK    3  A    between atoms: C4_6  and  C5_8 
REMARK    4  A    between atoms: C6_12  and  C7_13 
REMARK    5  A    between atoms: C7_13  and  O5_15 
REMARK    6  A    between atoms: O5_15  and  C8_16 
REMARK    7  A    between atoms: C8_16  and  O6_17 
REMARK    8  A    between atoms: C8_16  and  C9_19 
REMARK    9  A    between atoms: C12_24  and  N2_25 
REMARK   10  A    between atoms: C14_30  and  O11_31 
REMARK   11  A    between atoms: C15_33  and  O12_34 
ROOT
HETATM    1  O5  UNL     1       0.974   0.008  -1.089  1.00  0.00    -0.282 OA
ENDROOT
BRANCH   1   2
HETATM    2  C7  UNL     1      -0.006  -0.944  -1.225  1.00  0.00     0.317 C 
HETATM    3  O4  UNL     1       0.362  -2.042  -1.716  1.00  0.00    -0.257 OA
BRANCH   2   4
HETATM    4  C6  UNL     1      -1.396  -0.765  -0.849  1.00  0.00     0.166 A 
HETATM    5  N1  UNL     1      -2.344  -1.723  -0.994  1.00  0.00    -0.252 N 
HETATM    6  O3  UNL     1      -3.499  -1.301  -0.580  1.00  0.00    -0.231 OA
ATOM      7  H1  UNL     1      -2.172  -2.652  -1.378  1.00  0.00     0.195 HD
HETATM    8  C5  UNL     1      -3.365  -0.059  -0.148  1.00  0.00     0.183 A 
HETATM    9  C15 UNL     1      -2.041   0.309  -0.306  1.00  0.00     0.140 A 
BRANCH   8  10
HETATM   10  C4  UNL     1      -4.438   0.758   0.394  1.00  0.00     0.221 C 
HETATM   11  O2  UNL     1      -4.215   1.931   0.781  1.00  0.00    -0.287 OA
BRANCH  10  12
HETATM   12  C2  UNL     1      -5.812   0.224   0.502  1.00  0.00     0.117 C 
HETATM   13  C1  UNL     1      -6.296   0.163   1.931  1.00  0.00     0.054 C 
HETATM   14  C3  UNL     1      -6.792   1.005  -0.345  1.00  0.00     0.054 C 
BRANCH  12  15
HETATM   15  O1  UNL     1      -5.810  -1.082   0.016  1.00  0.00    -0.382 OA
ATOM     16  H1  UNL     1      -5.505  -1.044  -0.883  1.00  0.00     0.211 HD
ENDBRANCH  12  15
ENDBRANCH  10  12
ENDBRANCH   8  10
BRANCH   9  17
HETATM   17  O12 UNL     1      -1.498   1.510   0.019  1.00  0.00    -0.356 OA
ATOM     18  H12 UNL     1      -0.589   1.763  -0.090  1.00  0.00     0.218 HD
ENDBRANCH   9  17
ENDBRANCH   2   4
ENDBRANCH   1   2
BRANCH   1  19
HETATM   19  C8  UNL     1       2.308  -0.107  -1.430  1.00  0.00     0.295 C 
BRANCH  19  20
HETATM   20  O6  UNL     1       2.692   0.771  -2.470  1.00  0.00    -0.369 OA
ATOM     21  H6  UNL     1       3.609   0.692  -2.704  1.00  0.00     0.212 HD
ENDBRANCH  19  20
BRANCH  19  22
HETATM   22  C9  UNL     1       3.281   0.094  -0.323  1.00  0.00     0.151 C 
HETATM   23  S1  UNL     1       3.204   1.729   0.479  1.00  0.00    -0.136 SA
HETATM   24  C10 UNL     1       4.767   1.874   1.434  1.00  0.00     0.157 C 
HETATM   25  C11 UNL     1       5.259   0.481   1.598  1.00  0.00     0.181 C 
HETATM   26  O7  UNL     1       5.934   0.218   2.575  1.00  0.00    -0.294 OA
HETATM   27  C12 UNL     1       4.969  -0.606   0.634  1.00  0.00     0.245 C 
HETATM   28  C13 UNL     1       3.531  -0.980   0.622  1.00  0.00     0.198 C 
HETATM   29  C14 UNL     1       4.741  -0.072  -0.772  1.00  0.00     0.199 C 
HETATM   30  O10 UNL     1       2.883  -1.827   1.179  1.00  0.00    -0.292 OA
BRANCH  27  31
HETATM   31  N2  UNL     1       5.897  -1.688   0.634  1.00  0.00    -0.127 N 
HETATM   32  O8  UNL     1       6.562  -1.996  -0.368  1.00  0.00    -0.535 OA
HETATM   33  O9  UNL     1       6.077  -2.426   1.776  1.00  0.00    -0.535 OA
ENDBRANCH  27  31
BRANCH  29  34
HETATM   34  O11 UNL     1       4.803  -1.108  -1.681  1.00  0.00    -0.390 OA
ATOM     35  H11 UNL     1       5.706  -1.211  -1.959  1.00  0.00     0.210 HD
ENDBRANCH  29  34
ENDBRANCH  19  22
ENDBRANCH   1  19
TORSDOF 11
