REMARK  11 active torsions:
REMARK  status: ('A' for Active; 'I' for Inactive)
REMARK    1  A    between atoms: C3_4  and  O2_5 
REMARK    2  A    between atoms: O2_5  and  C4_6 
REMARK    3  A    between atoms: C8_12  and  C9_13 
REMARK    4  A    between atoms: C10_19  and  C11_20 
REMARK    5  A    between atoms: C11_20  and  C12_21 
REMARK    6  A    between atoms: C12_21  and  N3_22 
REMARK    7  A    between atoms: N4_26  and  O6_28 
REMARK    8  A    between atoms: O6_28  and  C13_29 
REMARK    9  A    between atoms: C14_32  and  O8_33 
REMARK   10  A    between atoms: C15_35  and  O9_36 
REMARK   11  A    between atoms: C16_38  and  O10_39 
ROOT
HETATM    1  C4  UNL     1       0.597   1.131   0.386  1.00  0.00     0.301 C 
HETATM    2  O3  UNL     1       0.352   2.166   1.286  1.00  0.00    -0.323 OA
HETATM    3  C5  UNL     1      -0.992   2.437   1.244  1.00  0.00     0.161 C 
HETATM    4  C6  UNL     1      -1.214   3.909   0.955  1.00  0.00     0.078 C 
HETATM    5  C7  UNL     1      -1.622   2.157   2.612  1.00  0.00     0.078 C 
HETATM    6  O4  UNL     1      -1.598   1.629   0.309  1.00  0.00    -0.339 OA
HETATM    7  C8  UNL     1      -0.775   0.522   0.249  1.00  0.00     0.234 C 
ENDROOT
BRANCH   7   8
HETATM    8  C9  UNL     1      -0.926  -0.234  -1.010  1.00  0.00     0.099 A 
HETATM    9  N1  UNL     1       0.007  -0.317  -1.964  1.00  0.00    -0.241 N 
HETATM   10  O5  UNL     1      -0.416  -1.042  -2.943  1.00  0.00    -0.156 OA
ATOM     11  H1  UNL     1       0.923   0.130  -1.923  1.00  0.00     0.196 HD
HETATM   12  N2  UNL     1      -1.614  -1.448  -2.665  1.00  0.00    -0.238 N 
HETATM   13  C10 UNL     1      -2.005  -0.970  -1.444  1.00  0.00     0.110 A 
ATOM     14  H2  UNL     1      -2.184  -2.039  -3.270  1.00  0.00     0.197 HD
BRANCH  13  15
HETATM   15  C11 UNL     1      -3.273  -1.207  -0.784  1.00  0.00     0.088 C 
HETATM   16  N4  UNL     1      -3.500  -0.701   0.363  1.00  0.00    -0.257 N 
ATOM     17  H4  UNL     1      -2.768  -0.134   0.791  1.00  0.00     0.195 HD
BRANCH  15  18
HETATM   18  C12 UNL     1      -4.299  -2.032  -1.441  1.00  0.00     0.290 C 
BRANCH  18  19
HETATM   19  N3  UNL     1      -4.725  -1.464  -2.714  1.00  0.00    -0.074 N 
ATOM     20  H33 UNL     1      -5.041  -0.501  -2.602  1.00  0.00     0.274 HD
ATOM     21  H32 UNL     1      -3.929  -1.302  -3.331  1.00  0.00     0.274 HD
ATOM     22  H31 UNL     1      -5.436  -2.036  -3.169  1.00  0.00     0.274 HD
ENDBRANCH  18  19
ENDBRANCH  15  18
BRANCH  16  23
HETATM   23  O6  UNL     1      -4.660  -0.872   1.051  1.00  0.00    -0.183 OA
BRANCH  23  24
HETATM   24  C13 UNL     1      -5.771  -0.050   0.947  1.00  0.00     0.394 C 
HETATM   25  N5  UNL     1      -6.962  -0.259   1.678  1.00  0.00    -0.031 NA
HETATM   26  O7  UNL     1      -5.695   0.926   0.156  1.00  0.00    -0.240 OA
ENDBRANCH  23  24
ENDBRANCH  16  23
ENDBRANCH  13  15
ENDBRANCH   7   8
BRANCH   1  27
HETATM   27  O2  UNL     1       1.522   0.271   0.968  1.00  0.00    -0.326 OA
BRANCH  27  28
HETATM   28  C3  UNL     1       2.663   0.084   0.224  1.00  0.00     0.294 C 
HETATM   29  O1  UNL     1       2.857  -1.280  -0.085  1.00  0.00    -0.351 OA
HETATM   30  C2  UNL     1       3.996  -1.338  -0.918  1.00  0.00     0.152 C 
HETATM   31  C1  UNL     1       4.056  -2.634  -1.672  1.00  0.00     0.042 C 
HETATM   32  C16 UNL     1       5.185  -1.129  -0.003  1.00  0.00     0.178 C 
HETATM   33  C15 UNL     1       5.159   0.326   0.424  1.00  0.00     0.183 C 
HETATM   34  C14 UNL     1       3.829   0.601   1.060  1.00  0.00     0.204 C 
BRANCH  32  35
HETATM   35  O10 UNL     1       4.961  -1.947   1.124  1.00  0.00    -0.390 OA
ATOM     36  H10 UNL     1       5.707  -1.816   1.698  1.00  0.00     0.210 HD
ENDBRANCH  32  35
BRANCH  33  37
HETATM   37  O9  UNL     1       6.142   0.598   1.375  1.00  0.00    -0.390 OA
ATOM     38  H9  UNL     1       6.985   0.424   0.972  1.00  0.00     0.210 HD
ENDBRANCH  33  37
BRANCH  34  39
HETATM   39  O8  UNL     1       3.806   0.059   2.340  1.00  0.00    -0.388 OA
ATOM     40  H8  UNL     1       4.532   0.381   2.861  1.00  0.00     0.210 HD
ENDBRANCH  34  39
ENDBRANCH  27  28
ENDBRANCH   1  27
TORSDOF 11
