REMARK  3 active torsions:
REMARK  status: ('A' for Active; 'I' for Inactive)
REMARK    1  A    between atoms: O1_1  and  C1_3 
REMARK    2  A    between atoms: N1_6  and  C4_7 
REMARK    3  A    between atoms: C4_7  and  C5_8 
ROOT
HETATM    1  C5  UNL     1      -0.165  -0.406  -0.320  1.00  0.00     0.053 C 
HETATM    2  C6  UNL     1      -0.556  -1.812  -0.038  1.00  0.00     0.061 C 
HETATM    3  N2  UNL     1      -1.916  -2.144  -0.114  1.00  0.00    -0.401 N 
ATOM      4  H2  UNL     1      -2.258  -3.043   0.227  1.00  0.00     0.158 HD
HETATM    5  C7  UNL     1      -2.807  -1.185  -0.683  1.00  0.00     0.128 C 
HETATM    6  C8  UNL     1      -2.611   0.211  -0.179  1.00  0.00    -0.024 C 
HETATM    7  C9  UNL     1      -3.423   0.395   1.087  1.00  0.00     0.011 C 
HETATM    8  C10 UNL     1      -4.592   1.282   0.735  1.00  0.00     0.001 C 
HETATM    9  C11 UNL     1      -4.715   1.033  -0.763  1.00  0.00     0.001 C 
HETATM   10  C12 UNL     1      -3.260   1.152  -1.179  1.00  0.00     0.011 C 
HETATM   11  C13 UNL     1      -1.200   0.622   0.039  1.00  0.00     0.022 C 
ENDROOT
BRANCH   1  12
HETATM   12  C4  UNL     1       1.068  -0.066   0.489  1.00  0.00     0.282 C 
BRANCH  12  13
HETATM   13  N1  UNL     1       2.196  -0.897   0.196  1.00  0.00     0.089 N 
HETATM   14  C3  UNL     1       2.738  -0.678  -1.110  1.00  0.00     0.275 C 
HETATM   15  C2  UNL     1       4.231  -0.451  -1.101  1.00  0.00     0.062 C 
HETATM   16  C1  UNL     1       4.622   0.759  -0.299  1.00  0.00     0.121 C 
HETATM   17  C15 UNL     1       3.873   0.699   1.002  1.00  0.00     0.062 C 
HETATM   18  C14 UNL     1       3.202  -0.633   1.238  1.00  0.00     0.275 C 
BRANCH  16  19
HETATM   19  O1  UNL     1       6.011   0.728  -0.129  1.00  0.00    -0.395 OA
ATOM     20  H1  UNL     1       6.258   1.493   0.378  1.00  0.00     0.210 HD
ENDBRANCH  16  19
ENDBRANCH  12  13
ENDBRANCH   1  12
TORSDOF 3
