REMARK  3 active torsions:
REMARK  status: ('A' for Active; 'I' for Inactive)
REMARK    1  A    between atoms: N1_2  and  C3_4 
REMARK    2  A    between atoms: C7_8  and  N2_9 
REMARK    3  A    between atoms: N2_9  and  N3_11 
ROOT
HETATM    1  C3  UNL     1      -0.413  -0.521  -0.179  1.00  0.00     0.102 C 
HETATM    2  C4  UNL     1      -0.221  -1.852   0.468  1.00  0.00     0.027 C 
HETATM    3  C5  UNL     1       1.235  -2.121   0.138  1.00  0.00     0.004 C 
HETATM    4  C6  UNL     1       1.872  -0.761  -0.151  1.00  0.00     0.029 C 
HETATM    5  C7  UNL     1       0.834   0.214   0.330  1.00  0.00     0.123 C 
ENDROOT
BRANCH   5   6
HETATM    6  N2  UNL     1       0.956   1.513  -0.249  1.00  0.00    -0.316 N 
ATOM      7  H2  UNL     1       0.137   1.995  -0.618  1.00  0.00     0.182 HD
BRANCH   6   8
HETATM    8  N3  UNL     1       2.215   2.112  -0.301  1.00  0.00    -0.253 N 
HETATM    9  N4  UNL     1       2.877   2.333   0.727  1.00  0.00    -0.331 N 
ATOM     10  H42 UNL     1       2.475   2.063   1.625  1.00  0.00     0.178 HD
ATOM     11  H41 UNL     1       3.797   2.771   0.689  1.00  0.00     0.178 HD
ATOM     12  H3  UNL     1       2.602   2.376  -1.207  1.00  0.00     0.207 HD
ENDBRANCH   6   8
ENDBRANCH   5   6
BRANCH   1  13
HETATM   13  N1  UNL     1      -1.627   0.117  -0.055  1.00  0.00    -0.415 N 
HETATM   14  C1  UNL     1      -2.220   0.690  -1.214  1.00  0.00     0.143 C 
HETATM   15  C2  UNL     1      -1.997   0.633   1.205  1.00  0.00     0.143 C 
ENDBRANCH   1  13
TORSDOF 3
