REMARK  4 active torsions:
REMARK  status: ('A' for Active; 'I' for Inactive)
REMARK    1  A    between atoms: C3_5  and  C4_6 
REMARK    2  A    between atoms: C4_6  and  N2_7 
REMARK    3  A    between atoms: C8_12  and  C9_13 
REMARK       I    between atoms: C9_13  and  N3_15 
REMARK    4  A    between atoms: N3_15  and  C10_17 
ROOT
HETATM    1  N2  UNL     1       2.183   0.367  -0.316  1.00  0.00    -0.344 N 
HETATM    2  C5  UNL     1       2.508   1.548   0.364  1.00  0.00     0.070 C 
HETATM    3  C6  UNL     1       1.572   2.709   0.223  1.00  0.00     0.071 C 
HETATM    4  C7  UNL     1       0.652   2.488  -0.925  1.00  0.00     0.174 C 
HETATM    5  O1  UNL     1      -0.528   1.930  -0.404  1.00  0.00    -0.371 OA
HETATM    6  C8  UNL     1      -0.201   0.755   0.228  1.00  0.00     0.252 C 
HETATM    7  C17 UNL     1       0.852  -0.028  -0.492  1.00  0.00     0.110 C 
ENDROOT
BRANCH   6   8
HETATM    8  C9  UNL     1      -1.405  -0.026   0.538  1.00  0.00     0.252 C 
HETATM    9  O2  UNL     1      -1.275  -1.132   1.118  1.00  0.00    -0.270 OA
HETATM   10  N3  UNL     1      -2.724   0.397   0.219  1.00  0.00    -0.354 N 
ATOM     11  H3  UNL     1      -2.837   1.294  -0.253  1.00  0.00     0.162 HD
BRANCH  10  12
HETATM   12  C10 UNL     1      -3.902  -0.357   0.518  1.00  0.00     0.084 C 
HETATM   13  C11 UNL     1      -4.610  -0.842  -0.742  1.00  0.00     0.025 C 
HETATM   14  C12 UNL     1      -5.588  -1.914  -0.339  1.00  0.00     0.002 C 
HETATM   15  C13 UNL     1      -7.010  -1.368  -0.260  1.00  0.00     0.000 C 
HETATM   16  C14 UNL     1      -7.105  -0.634   1.066  1.00  0.00     0.000 C 
HETATM   17  C15 UNL     1      -6.193   0.589   0.942  1.00  0.00     0.002 C 
HETATM   18  C16 UNL     1      -4.822   0.331   1.471  1.00  0.00     0.025 C 
ENDBRANCH  10  12
ENDBRANCH   6   8
BRANCH   1  19
HETATM   19  C4  UNL     1       3.100   0.011  -1.326  1.00  0.00     0.143 C 
BRANCH  19  20
HETATM   20  C3  UNL     1       4.483  -0.250  -0.883  1.00  0.00     0.121 A 
HETATM   21  N1  UNL     1       5.523   0.593  -0.902  1.00  0.00    -0.343 N 
HETATM   22  C2  UNL     1       6.601  -0.034  -0.414  1.00  0.00     0.029 A 
ATOM     23  H1  UNL     1       5.498   1.557  -1.234  1.00  0.00     0.167 HD
HETATM   24  C1  UNL     1       7.991   0.525  -0.247  1.00  0.00     0.070 C 
HETATM   25  C18 UNL     1       6.232  -1.296  -0.080  1.00  0.00     0.029 A 
HETATM   26  N4  UNL     1       4.925  -1.414  -0.375  1.00  0.00    -0.343 N 
HETATM   27  C19 UNL     1       7.146  -2.323   0.502  1.00  0.00     0.070 C 
ATOM     28  H4  UNL     1       4.360  -2.252  -0.236  1.00  0.00     0.167 HD
ENDBRANCH  19  20
ENDBRANCH   1  19
TORSDOF 4
