REMARK  1 active torsions:
REMARK  status: ('A' for Active; 'I' for Inactive)
REMARK    1  A    between atoms: C8_16  and  C9_17 
ROOT
HETATM    1  C1  UNL     1       1.482   2.202  -3.231  1.00  0.00     0.143 A 
HETATM    2  C2  UNL     1       2.728   1.714  -2.946  1.00  0.00     0.039 A 
HETATM    3  C3  UNL     1       2.575   0.881  -1.863  1.00  0.00     0.001 A 
HETATM    4  C4  UNL     1       3.414   0.096  -1.102  1.00  0.00     0.029 A 
HETATM    5  C5  UNL     1       2.984  -0.665  -0.037  1.00  0.00     0.012 A 
HETATM    6  C6  UNL     1       3.907  -1.469   0.728  1.00  0.00     0.147 A 
HETATM    7  N1  UNL     1       5.223  -1.623   0.577  1.00  0.00    -0.268 N 
ATOM      8  H1  UNL     1       5.793  -1.170  -0.138  1.00  0.00     0.190 HD
HETATM    9  N2  UNL     1       5.681  -2.472   1.518  1.00  0.00    -0.227 N 
ATOM     10  H2  UNL     1       6.648  -2.773   1.642  1.00  0.00     0.210 HD
HETATM   11  N3  UNL     1       4.649  -2.840   2.248  1.00  0.00    -0.227 N 
ATOM     12  H3  UNL     1       4.677  -3.480   3.041  1.00  0.00     0.210 HD
HETATM   13  N4  UNL     1       3.571  -2.239   1.778  1.00  0.00    -0.268 N 
ATOM     14  H4  UNL     1       2.628  -2.343   2.154  1.00  0.00     0.190 HD
HETATM   15  C7  UNL     1       1.636  -0.621   0.260  1.00  0.00     0.026 A 
HETATM   16  C8  UNL     1       0.734   0.134  -0.448  1.00  0.00    -0.014 A 
HETATM   17  C19 UNL     1       1.221   0.881  -1.511  1.00  0.00     0.092 A 
HETATM   18  O1  UNL     1       0.669   1.689  -2.377  1.00  0.00    -0.321 OA
ENDROOT
BRANCH  16  19
HETATM   19  C9  UNL     1      -0.678   0.128  -0.073  1.00  0.00    -0.009 C 
HETATM   20  C10 UNL     1      -1.064   1.554   0.280  1.00  0.00     0.019 C 
HETATM   21  C11 UNL     1      -2.484   1.597   0.793  1.00  0.00    -0.013 C 
HETATM   22  C12 UNL     1      -3.381   1.130  -0.326  1.00  0.00     0.009 C 
HETATM   23  C16 UNL     1      -2.646   0.716   1.985  1.00  0.00     0.009 C 
HETATM   24  C13 UNL     1      -3.020  -0.300  -0.653  1.00  0.00    -0.013 C 
HETATM   25  C14 UNL     1      -3.224  -1.214   0.537  1.00  0.00     0.009 C 
HETATM   26  C18 UNL     1      -1.591  -0.417  -1.142  1.00  0.00     0.019 C 
HETATM   27  C15 UNL     1      -2.326  -0.714   1.627  1.00  0.00    -0.013 C 
HETATM   28  C17 UNL     1      -0.891  -0.785   1.131  1.00  0.00     0.019 C 
ENDBRANCH  16  19
TORSDOF 1
