REMARK  13 active torsions:
REMARK  status: ('A' for Active; 'I' for Inactive)
REMARK       I    between atoms: N1_1  and  C1_4 
REMARK       I    between atoms: C1_4  and  N3_6 
REMARK    1  A    between atoms: N3_6  and  C2_8 
REMARK    2  A    between atoms: C3_14  and  C4_15 
REMARK    3  A    between atoms: C4_15  and  O2_16 
REMARK    4  A    between atoms: C4_15  and  C5_18 
REMARK    5  A    between atoms: C5_18  and  O3_19 
REMARK    6  A    between atoms: C5_18  and  C6_21 
REMARK    7  A    between atoms: C6_21  and  C7_22 
REMARK    8  A    between atoms: C7_22  and  N6_23 
REMARK       I    between atoms: N6_23  and  C8_25 
REMARK    9  A    between atoms: C8_25  and  C9_27 
REMARK   10  A    between atoms: C11_29  and  C12_30 
REMARK   11  A    between atoms: N7_33  and  C13_34 
REMARK   12  A    between atoms: C14_40  and  N10_41 
REMARK   13  A    between atoms: N12_46  and  O8_48 
ROOT
HETATM    1  C6  UNL     1       1.154   0.851   1.462  1.00  0.00     0.059 C 
HETATM    2  N12 UNL     1       0.476   0.674   2.538  1.00  0.00    -0.273 N 
ATOM      3  H12 UNL     1       0.715   1.277   3.325  1.00  0.00     0.193 HD
ENDROOT
BRANCH   1   4
HETATM    4  C5  UNL     1       2.195   1.906   1.512  1.00  0.00     0.202 C 
BRANCH   4   5
HETATM    5  C4  UNL     1       3.603   1.396   1.351  1.00  0.00     0.208 C 
BRANCH   5   6
HETATM    6  C3  UNL     1       4.134   1.428  -0.025  1.00  0.00     0.111 A 
HETATM    7  C2  UNL     1       5.302   0.785  -0.446  1.00  0.00     0.157 A 
HETATM    8  N4  UNL     1       5.458   1.078  -1.737  1.00  0.00    -0.223 N 
HETATM    9  O1  UNL     1       4.481   1.835  -2.096  1.00  0.00    -0.155 OA
ATOM     10  H4  UNL     1       6.219   0.758  -2.336  1.00  0.00     0.198 HD
HETATM   11  N5  UNL     1       3.687   2.058  -1.112  1.00  0.00    -0.239 N 
ATOM     12  H5  UNL     1       2.843   2.630  -1.155  1.00  0.00     0.196 HD
BRANCH   7  13
HETATM   13  N3  UNL     1       6.046   0.061   0.314  1.00  0.00    -0.314 N 
HETATM   14  C1  UNL     1       7.226  -0.575  -0.151  1.00  0.00     0.187 C 
HETATM   15  N1  UNL     1       8.336  -0.411   0.487  1.00  0.00    -0.373 N 
HETATM   16  N2  UNL     1       7.179  -1.383  -1.310  1.00  0.00    -0.064 NA
ATOM     17  H12 UNL     1       9.184  -0.868   0.153  1.00  0.00     0.158 HD
ATOM     18  H11 UNL     1       8.370   0.172   1.323  1.00  0.00     0.158 HD
ATOM     19  H3  UNL     1       5.777  -0.061   1.290  1.00  0.00     0.170 HD
ENDBRANCH   7  13
ENDBRANCH   5   6
BRANCH   5  20
HETATM   20  O2  UNL     1       3.847   0.218   2.020  1.00  0.00    -0.386 OA
ATOM     21  H2  UNL     1       3.505   0.197   2.906  1.00  0.00     0.210 HD
ENDBRANCH   5  20
ENDBRANCH   4   5
BRANCH   4  22
HETATM   22  O3  UNL     1       1.911   3.034   0.760  1.00  0.00    -0.387 OA
ATOM     23  H3  UNL     1       1.023   3.356   0.862  1.00  0.00     0.210 HD
ENDBRANCH   4  22
ENDBRANCH   1   4
BRANCH   1  24
HETATM   24  C7  UNL     1       0.924   0.015   0.262  1.00  0.00     0.180 C 
BRANCH  24  25
HETATM   25  N6  UNL     1      -0.390  -0.548   0.148  1.00  0.00    -0.350 N 
HETATM   26  C8  UNL     1      -1.549   0.259   0.013  1.00  0.00     0.270 C 
HETATM   27  O4  UNL     1      -1.424   1.503  -0.012  1.00  0.00    -0.266 OA
ATOM     28  H6  UNL     1      -0.495  -1.562   0.165  1.00  0.00     0.163 HD
BRANCH  26  29
HETATM   29  C9  UNL     1      -2.877  -0.333  -0.096  1.00  0.00     0.118 A 
HETATM   30  C10 UNL     1      -3.205  -1.671  -0.099  1.00  0.00     0.075 A 
HETATM   31  C11 UNL     1      -4.572  -1.768  -0.218  1.00  0.00     0.137 A 
HETATM   32  N7  UNL     1      -5.053  -0.512  -0.285  1.00  0.00    -0.228 N 
HETATM   33  N11 UNL     1      -4.036   0.319  -0.211  1.00  0.00    -0.286 N 
ATOM     34  H11 UNL     1      -4.122   1.335  -0.238  1.00  0.00     0.188 HD
BRANCH  31  35
HETATM   35  C12 UNL     1      -5.318  -3.020  -0.259  1.00  0.00     0.229 C 
HETATM   36  O5  UNL     1      -4.696  -4.097  -0.183  1.00  0.00    -0.643 OA
HETATM   37  O6  UNL     1      -6.694  -3.055  -0.380  1.00  0.00    -0.643 OA
ENDBRANCH  31  35
BRANCH  32  38
HETATM   38  C13 UNL     1      -6.417  -0.129  -0.411  1.00  0.00     0.195 A 
HETATM   39  N8  UNL     1      -7.411  -0.259   0.487  1.00  0.00    -0.220 N 
HETATM   40  O7  UNL     1      -8.523   0.221  -0.019  1.00  0.00    -0.153 OA
ATOM     41  H8  UNL     1      -7.315  -0.667   1.417  1.00  0.00     0.198 HD
HETATM   42  N9  UNL     1      -8.292   0.653  -1.201  1.00  0.00    -0.222 N 
HETATM   43  C14 UNL     1      -6.990   0.466  -1.514  1.00  0.00     0.169 A 
ATOM     44  H9  UNL     1      -8.987   1.076  -1.816  1.00  0.00     0.198 HD
BRANCH  43  45
HETATM   45  N10 UNL     1      -6.376   0.765  -2.593  1.00  0.00    -0.381 N 
ATOM     46 2H10 UNL     1      -5.394   0.624  -2.829  1.00  0.00     0.157 HD
ATOM     47 1H10 UNL     1      -6.800   1.205  -3.409  1.00  0.00     0.157 HD
ENDBRANCH  43  45
ENDBRANCH  32  38
ENDBRANCH  26  29
ENDBRANCH  24  25
ENDBRANCH   1  24
BRANCH   2  48
HETATM   48  O8  UNL     1      -0.500  -0.202   2.746  1.00  0.00    -0.290 OA
ATOM     49  H8  UNL     1      -1.002  -0.333   3.542  1.00  0.00     0.244 HD
ENDBRANCH   2  48
TORSDOF 13
