REMARK  11 active torsions:
REMARK  status: ('A' for Active; 'I' for Inactive)
REMARK    1  A    between atoms: C2_2  and  C3_3 
REMARK    2  A    between atoms: C3_3  and  C4_4 
REMARK    3  A    between atoms: C4_4  and  O1_5 
REMARK    4  A    between atoms: C4_4  and  C5_7 
REMARK    5  A    between atoms: C5_7  and  O2_8 
REMARK    6  A    between atoms: C5_7  and  C6_10 
REMARK    7  A    between atoms: C6_10  and  O3_11 
REMARK    8  A    between atoms: C6_10  and  C7_13 
REMARK    9  A    between atoms: C7_13  and  C8_14 
REMARK   10  A    between atoms: C8_14  and  C9_15 
REMARK   11  A    between atoms: C9_15  and  C10_16 
ROOT
HETATM    1  C6  UNL     1      -1.688   0.102  -1.168  1.00  0.00     0.149 C 
ENDROOT
BRANCH   1   2
HETATM    2  C5  UNL     1      -3.155   0.449  -1.310  1.00  0.00     0.175 C 
BRANCH   2   3
HETATM    3  C4  UNL     1      -3.957  -0.259  -0.254  1.00  0.00     0.152 C 
BRANCH   3   4
HETATM    4  C3  UNL     1      -5.413  -0.001  -0.367  1.00  0.00     0.060 C 
BRANCH   4   5
HETATM    5  C2  UNL     1      -6.165  -0.641   0.733  1.00  0.00    -0.034 C 
HETATM    6  C1  UNL     1      -5.656  -1.289   1.764  1.00  0.00     0.007 C 
ENDBRANCH   4   5
ENDBRANCH   3   4
BRANCH   3   7
HETATM    7  O1  UNL     1      -3.712  -1.623  -0.325  1.00  0.00    -0.393 OA
ATOM      8  H1  UNL     1      -2.779  -1.788  -0.253  1.00  0.00     0.210 HD
ENDBRANCH   3   7
ENDBRANCH   2   3
BRANCH   2   9
HETATM    9  O2  UNL     1      -3.366   1.818  -1.286  1.00  0.00    -0.390 OA
ATOM     10  H2  UNL     1      -2.859   2.265  -1.953  1.00  0.00     0.210 HD
ENDBRANCH   2   9
ENDBRANCH   1   2
BRANCH   1  11
HETATM   11  O3  UNL     1      -1.487  -1.269  -1.189  1.00  0.00    -0.393 OA
ATOM     12  H3  UNL     1      -0.567  -1.487  -1.100  1.00  0.00     0.210 HD
ENDBRANCH   1  11
BRANCH   1  13
HETATM   13  C7  UNL     1      -1.085   0.675   0.075  1.00  0.00     0.034 C 
BRANCH  13  14
HETATM   14  C8  UNL     1       0.375   0.355   0.263  1.00  0.00     0.003 C 
BRANCH  14  15
HETATM   15  C9  UNL     1       1.172   0.886  -0.870  1.00  0.00     0.005 C 
BRANCH  15  16
HETATM   16  C10 UNL     1       2.650   0.620  -0.760  1.00  0.00    -0.014 C 
HETATM   17  C11 UNL     1       2.929  -0.863  -0.704  1.00  0.00     0.004 C 
HETATM   18  C12 UNL     1       3.367  -1.325   0.664  1.00  0.00     0.000 C 
HETATM   19  C13 UNL     1       4.771  -0.961   1.005  1.00  0.00     0.000 C 
HETATM   20  C14 UNL     1       5.400   0.016   0.047  1.00  0.00     0.000 C 
HETATM   21  C15 UNL     1       4.808   1.385   0.113  1.00  0.00     0.000 C 
HETATM   22  C16 UNL     1       3.315   1.385   0.346  1.00  0.00     0.004 C 
ENDBRANCH  15  16
ENDBRANCH  14  15
ENDBRANCH  13  14
ENDBRANCH   1  13
TORSDOF 11
