REMARK  7 active torsions:
REMARK  status: ('A' for Active; 'I' for Inactive)
REMARK    1  A    between atoms: C2_2  and  C3_3 
REMARK    2  A    between atoms: C3_3  and  C4_4 
REMARK    3  A    between atoms: C3_3  and  N1_7 
REMARK    4  A    between atoms: C4_4  and  O1_5 
REMARK    5  A    between atoms: N1_7  and  C5_9 
REMARK    6  A    between atoms: C5_9  and  C6_10 
REMARK    7  A    between atoms: C5_9  and  C14_21 
ROOT
HETATM    1  C5  UNL     1      -0.365  -0.079  -0.129  1.00  0.00     0.041 C 
ENDROOT
BRANCH   1   2
HETATM    2  N1  UNL     1      -0.969  -1.347  -0.205  1.00  0.00    -0.383 N 
ATOM      3  H1  UNL     1      -0.391  -2.147   0.051  1.00  0.00     0.160 HD
BRANCH   2   4
HETATM    4  C3  UNL     1      -2.255  -1.613  -0.588  1.00  0.00     0.105 C 
BRANCH   4   5
HETATM    5  C2  UNL     1      -2.697  -2.900   0.183  1.00  0.00     0.023 C 
HETATM    6  C1  UNL     1      -2.562  -2.660   1.649  1.00  0.00     0.007 C 
ENDBRANCH   4   5
BRANCH   4   7
HETATM    7  C4  UNL     1      -2.458  -2.042  -2.044  1.00  0.00     0.189 C 
BRANCH   7   8
HETATM    8  O1  UNL     1      -1.784  -3.190  -2.376  1.00  0.00    -0.399 OA
ATOM      9  H1  UNL     1      -1.910  -3.456  -3.279  1.00  0.00     0.209 HD
ENDBRANCH   7   8
ENDBRANCH   4   7
ENDBRANCH   2   4
ENDBRANCH   1   2
BRANCH   1  10
HETATM   10  C6  UNL     1       1.084  -0.168   0.149  1.00  0.00     0.002 A 
HETATM   11  C7  UNL     1       1.624  -0.604   1.290  1.00  0.00     0.023 A 
HETATM   12  C8  UNL     1       3.085  -0.574   1.276  1.00  0.00     0.138 A 
HETATM   13  C9  UNL     1       3.660  -1.945   1.415  1.00  0.00     0.050 C 
HETATM   14  C10 UNL     1       3.573   0.316   2.400  1.00  0.00     0.050 C 
HETATM   15  N2  UNL     1       3.442  -0.031  -0.018  1.00  0.00    -0.051 N 
HETATM   16  C11 UNL     1       2.238   0.197  -0.741  1.00  0.00     0.148 A 
ATOM     17  H22 UNL     1       4.027   0.802   0.050  1.00  0.00     0.279 HD
ATOM     18  H21 UNL     1       4.103  -0.619  -0.525  1.00  0.00     0.279 HD
HETATM   19  C12 UNL     1       2.216  -0.760  -1.963  1.00  0.00     0.051 C 
HETATM   20  C13 UNL     1       2.227   1.553  -1.318  1.00  0.00     0.051 C 
ENDBRANCH   1  10
BRANCH   1  21
HETATM   21  C14 UNL     1      -1.129   1.110   0.245  1.00  0.00    -0.023 C 
HETATM   22  C15 UNL     1      -2.221   1.511  -0.767  1.00  0.00     0.068 C 
HETATM   23  C16 UNL     1      -1.867   2.960  -1.062  1.00  0.00     0.276 C 
HETATM   24  N3  UNL     1      -1.117   3.464   0.051  1.00  0.00     0.088 N 
HETATM   25  C17 UNL     1      -1.915   4.340   0.890  1.00  0.00     0.310 C 
HETATM   26  C18 UNL     1      -0.567   2.334   0.786  1.00  0.00     0.308 C 
ENDBRANCH   1  21
TORSDOF 7
