REMARK  6 active torsions:
REMARK  status: ('A' for Active; 'I' for Inactive)
REMARK    1  A    between atoms: C7_11  and  C8_12 
REMARK    2  A    between atoms: C8_12  and  N3_13 
REMARK    3  A    between atoms: C13_21  and  C14_22 
REMARK    4  A    between atoms: C14_22  and  C15_23 
REMARK    5  A    between atoms: C15_23  and  N5_24 
REMARK    6  A    between atoms: N5_24  and  C16_27 
ROOT
HETATM    1  C1  UNL     1       1.454   5.097  -0.253  1.00  0.00     0.045 C 
HETATM    2  C2  UNL     1       0.525   4.202  -0.546  1.00  0.00     0.050 A 
HETATM    3  N1  UNL     1      -0.798   4.445  -1.007  1.00  0.00    -0.358 N 
ATOM      4  H1  UNL     1      -1.211   5.362  -1.175  1.00  0.00     0.166 HD
HETATM    5  C3  UNL     1      -1.387   3.311  -1.177  1.00  0.00     0.019 A 
HETATM    6  C4  UNL     1      -2.778   3.143  -1.650  1.00  0.00     0.069 C 
HETATM    7  C5  UNL     1      -0.500   2.198  -0.840  1.00  0.00     0.023 A 
HETATM    8  C6  UNL     1       0.686   2.778  -0.450  1.00  0.00     0.071 A 
HETATM    9  N2  UNL     1       1.539   1.769  -0.129  1.00  0.00    -0.355 N 
ATOM     10  H2  UNL     1       2.496   1.909   0.196  1.00  0.00     0.166 HD
HETATM   11  C7  UNL     1       0.971   0.574  -0.291  1.00  0.00     0.045 A 
HETATM   12  C13 UNL     1      -0.327   0.835  -0.743  1.00  0.00    -0.018 A 
ENDROOT
BRANCH  11  13
HETATM   13  C8  UNL     1       1.559  -0.756  -0.035  1.00  0.00     0.330 C 
BRANCH  13  14
HETATM   14  N3  UNL     1       2.940  -0.599   0.382  1.00  0.00     0.097 N 
HETATM   15  C9  UNL     1       3.402  -1.947   0.731  1.00  0.00     0.300 C 
HETATM   16  C10 UNL     1       4.893  -2.012   0.891  1.00  0.00     0.262 C 
HETATM   17  N4  UNL     1       5.593  -1.562  -0.298  1.00  0.00    -0.072 N 
HETATM   18  C11 UNL     1       4.641  -1.163  -1.321  1.00  0.00     0.262 C 
ATOM     19  H42 UNL     1       6.261  -0.820  -0.089  1.00  0.00     0.277 HD
ATOM     20  H41 UNL     1       6.250  -2.263  -0.641  1.00  0.00     0.277 HD
HETATM   21  C12 UNL     1       3.751  -0.094  -0.728  1.00  0.00     0.300 C 
ENDBRANCH  13  14
ENDBRANCH  11  13
BRANCH  12  22
HETATM   22  C14 UNL     1      -1.349  -0.160  -1.068  1.00  0.00     0.069 C 
BRANCH  22  23
HETATM   23  C15 UNL     1      -2.429  -0.309  -0.015  1.00  0.00     0.237 C 
BRANCH  23  24
HETATM   24  N5  UNL     1      -3.391  -1.300  -0.452  1.00  0.00    -0.071 N 
ATOM     25  H52 UNL     1      -3.746  -1.076  -1.382  1.00  0.00     0.277 HD
ATOM     26  H51 UNL     1      -2.931  -2.187  -0.657  1.00  0.00     0.277 HD
BRANCH  24  27
HETATM   27  C16 UNL     1      -4.465  -1.487   0.470  1.00  0.00     0.177 C 
HETATM   28  C17 UNL     1      -3.939  -2.015   1.785  1.00  0.00     0.039 C 
HETATM   29  C18 UNL     1      -5.396  -2.553  -0.104  1.00  0.00     0.039 C 
ENDBRANCH  24  27
ENDBRANCH  23  24
ENDBRANCH  22  23
ENDBRANCH  12  22
TORSDOF 6
