REMARK  8 active torsions:
REMARK  status: ('A' for Active; 'I' for Inactive)
REMARK    1  A    between atoms: C1_2  and  N1_3 
REMARK    2  A    between atoms: N1_3  and  C2_5 
REMARK    3  A    between atoms: C2_5  and  C3_6 
REMARK    4  A    between atoms: C3_6  and  N2_7 
REMARK       I    between atoms: N2_7  and  C4_9 
REMARK       I    between atoms: C4_9  and  N3_11 
REMARK    5  A    between atoms: N3_11  and  C5_13 
REMARK    6  A    between atoms: C5_13  and  C6_14 
REMARK    7  A    between atoms: C6_14  and  N4_15 
REMARK       I    between atoms: N4_15  and  C7_17 
REMARK    8  A    between atoms: C7_17  and  C8_19 
ROOT
HETATM    1  N2  UNL     1      -1.519  -0.389   0.041  1.00  0.00    -0.342 N 
ATOM      2  H2  UNL     1      -1.369  -0.913   0.903  1.00  0.00     0.164 HD
HETATM    3  C4  UNL     1      -0.451  -0.270  -0.877  1.00  0.00     0.316 C 
HETATM    4  O2  UNL     1      -0.599   0.363  -1.943  1.00  0.00    -0.247 OA
HETATM    5  N3  UNL     1       0.794  -0.873  -0.588  1.00  0.00    -0.342 N 
ATOM      6  H3  UNL     1       0.924  -1.393   0.280  1.00  0.00     0.164 HD
ENDROOT
BRANCH   5   7
HETATM    7  C5  UNL     1       1.897  -0.745  -1.546  1.00  0.00     0.144 C 
BRANCH   7   8
HETATM    8  C6  UNL     1       3.106  -1.458  -1.030  1.00  0.00     0.142 C 
BRANCH   8   9
HETATM    9  N4  UNL     1       3.530  -0.915   0.221  1.00  0.00    -0.355 N 
HETATM   10  C7  UNL     1       3.926   0.449   0.384  1.00  0.00     0.282 C 
HETATM   11  O3  UNL     1       3.918   1.247  -0.593  1.00  0.00    -0.267 OA
ATOM     12  H4  UNL     1       3.551  -1.529   1.036  1.00  0.00     0.162 HD
BRANCH  10  13
HETATM   13  C8  UNL     1       4.352   0.950   1.697  1.00  0.00     0.444 C 
HETATM   14  F1  UNL     1       4.681   2.272   1.605  1.00  0.00    -0.204 F 
HETATM   15  F2  UNL     1       5.380   0.179   2.229  1.00  0.00    -0.204 F 
ENDBRANCH  10  13
ENDBRANCH   8   9
ENDBRANCH   7   8
ENDBRANCH   5   7
BRANCH   1  16
HETATM   16  C3  UNL     1      -2.824   0.208  -0.199  1.00  0.00     0.144 C 
BRANCH  16  17
HETATM   17  C2  UNL     1      -3.709  -0.111   0.968  1.00  0.00     0.141 C 
BRANCH  17  18
HETATM   18  N1  UNL     1      -5.029   0.431   0.824  1.00  0.00    -0.367 N 
ATOM     19  H1  UNL     1      -5.835  -0.193   0.796  1.00  0.00     0.161 HD
BRANCH  18  20
HETATM   20  C1  UNL     1      -5.216   1.831   0.720  1.00  0.00     0.348 C 
HETATM   21  O1  UNL     1      -4.264   2.667   0.750  1.00  0.00    -0.284 OA
ENDBRANCH  18  20
ENDBRANCH  17  18
ENDBRANCH  16  17
ENDBRANCH   1  16
TORSDOF 8
