REMARK  11 active torsions:
REMARK  status: ('A' for Active; 'I' for Inactive)
REMARK    1  A    between atoms: C2_2  and  N1_5 
REMARK       I    between atoms: N1_5  and  C5_7 
REMARK    2  A    between atoms: C5_7  and  C6_9 
REMARK    3  A    between atoms: C6_9  and  C7_10 
REMARK    4  A    between atoms: N2_12  and  C8_14 
REMARK    5  A    between atoms: N3_17  and  C11_18 
REMARK    6  A    between atoms: C11_18  and  N4_20 
REMARK    7  A    between atoms: N4_20  and  C12_22 
REMARK    8  A    between atoms: C15_25  and  O2_26 
REMARK    9  A    between atoms: O2_26  and  C16_27 
REMARK   10  A    between atoms: C16_27  and  O4_29 
REMARK   11  A    between atoms: O4_29  and  C17_30 
ROOT
HETATM    1  C8  UNL     1      -4.091   0.740  -0.146  1.00  0.00     0.155 C 
HETATM    2  C9  UNL     1      -3.334   1.915   0.482  1.00  0.00     0.057 C 
HETATM    3  C10 UNL     1      -1.961   2.044  -0.088  1.00  0.00     0.138 C 
HETATM    4  N3  UNL     1      -1.093   0.916   0.279  1.00  0.00    -0.285 N 
HETATM    5  C23 UNL     1      -1.624  -0.189   0.993  1.00  0.00     0.290 C 
HETATM    6  O5  UNL     1      -0.988  -0.779   1.884  1.00  0.00    -0.260 OA
HETATM    7  S2  UNL     1      -3.302  -0.757   0.585  1.00  0.00    -0.043 SA
ENDROOT
BRANCH   4   8
HETATM    8  C11 UNL     1       0.263   0.959  -0.109  1.00  0.00     0.177 C 
HETATM    9  S1  UNL     1       0.774   2.322  -0.890  1.00  0.00    -0.041 SA
BRANCH   8  10
HETATM   10  N4  UNL     1       1.185  -0.100   0.081  1.00  0.00    -0.362 N 
ATOM     11  H4  UNL     1       0.880  -0.974   0.510  1.00  0.00     0.162 HD
BRANCH  10  12
HETATM   12  C12 UNL     1       2.558   0.062  -0.335  1.00  0.00     0.084 C 
HETATM   13  C13 UNL     1       3.294  -1.269  -0.312  1.00  0.00     0.028 C 
HETATM   14  C14 UNL     1       4.656  -1.189   0.307  1.00  0.00     0.034 C 
HETATM   15  C15 UNL     1       5.478  -0.023  -0.201  1.00  0.00     0.134 C 
HETATM   16  C21 UNL     1       4.673   1.224  -0.087  1.00  0.00     0.034 C 
HETATM   17  C22 UNL     1       3.326   1.003   0.595  1.00  0.00     0.028 C 
BRANCH  15  18
HETATM   18  O2  UNL     1       6.653   0.001   0.589  1.00  0.00    -0.293 OA
BRANCH  18  19
HETATM   19  C16 UNL     1       7.883  -0.237  -0.001  1.00  0.00     0.407 C 
HETATM   20  O3  UNL     1       7.922  -0.466  -1.218  1.00  0.00    -0.229 OA
BRANCH  19  21
HETATM   21  O4  UNL     1       9.074  -0.230   0.709  1.00  0.00    -0.288 OA
BRANCH  21  22
HETATM   22  C17 UNL     1      10.338  -0.460   0.176  1.00  0.00     0.062 C 
HETATM   23  C18 UNL     1      10.369  -1.845  -0.438  1.00  0.00     0.046 C 
HETATM   24  C19 UNL     1      10.755   0.533  -0.875  1.00  0.00     0.046 C 
HETATM   25  C20 UNL     1      11.335  -0.424   1.322  1.00  0.00     0.046 C 
ENDBRANCH  21  22
ENDBRANCH  19  21
ENDBRANCH  18  19
ENDBRANCH  15  18
ENDBRANCH  10  12
ENDBRANCH   8  10
ENDBRANCH   4   8
BRANCH   1  26
HETATM   26  N2  UNL     1      -5.472   0.787   0.212  1.00  0.00    -0.374 N 
HETATM   27  C6  UNL     1      -6.413   0.063  -0.256  1.00  0.00     0.088 C 
ATOM     28  H2  UNL     1      -5.735   1.474   0.919  1.00  0.00     0.160 HD
BRANCH  27  29
HETATM   29  C5  UNL     1      -7.783   0.225   0.209  1.00  0.00     0.265 C 
HETATM   30  N1  UNL     1      -8.847  -0.563  -0.282  1.00  0.00    -0.348 N 
ATOM     31  H1  UNL     1      -8.677  -1.280  -0.987  1.00  0.00     0.163 HD
HETATM   32  O1  UNL     1      -8.000   1.122   1.093  1.00  0.00    -0.266 OA
BRANCH  30  33
HETATM   33  C2  UNL     1     -10.177  -0.339   0.228  1.00  0.00     0.022 C 
HETATM   34  C1  UNL     1     -11.189  -1.268  -0.403  1.00  0.00     0.037 C 
HETATM   35  C3  UNL     1     -10.252  -0.492   1.729  1.00  0.00     0.037 C 
HETATM   36  C4  UNL     1     -10.590   1.073  -0.129  1.00  0.00     0.037 C 
ENDBRANCH  30  33
ENDBRANCH  27  29
BRANCH  27  37
HETATM   37  C7  UNL     1      -6.117  -0.941  -1.281  1.00  0.00     0.177 C 
HETATM   38 CL1  UNL     1      -6.909  -0.582  -2.853  1.00  0.00    -0.124 Cl
ENDBRANCH  27  37
ENDBRANCH   1  26
TORSDOF 11
