REMARK  11 active torsions:
REMARK  status: ('A' for Active; 'I' for Inactive)
REMARK    1  A    between atoms: O1_2  and  C2_3 
REMARK    2  A    between atoms: C6_9  and  C7_10 
REMARK       I    between atoms: C7_10  and  N2_12 
REMARK    3  A    between atoms: N2_12  and  N3_14 
REMARK    4  A    between atoms: C8_16  and  C9_17 
REMARK    5  A    between atoms: C8_16  and  C20_31 
REMARK    6  A    between atoms: C9_17  and  C10_19 
REMARK    7  A    between atoms: C10_19  and  C11_20 
REMARK    8  A    between atoms: C11_20  and  O4_22 
REMARK    9  A    between atoms: O4_22  and  C13_23 
REMARK   10  A    between atoms: C13_23  and  C14_25 
REMARK   11  A    between atoms: C23_34  and  N4_35 
ROOT
HETATM    1  N3  UNL     1      -2.691   1.554   0.516  1.00  0.00    -0.292 N 
ATOM      2  H3  UNL     1      -3.219   2.365   0.838  1.00  0.00     0.187 HD
HETATM    3  C8  UNL     1      -1.425   1.574   0.594  1.00  0.00     0.128 C 
ENDROOT
BRANCH   3   4
HETATM    4  C9  UNL     1      -0.623   0.466   0.159  1.00  0.00     0.182 C 
HETATM    5  O3  UNL     1      -1.213  -0.544  -0.318  1.00  0.00    -0.291 OA
BRANCH   4   6
HETATM    6  C10 UNL     1       0.855   0.519   0.270  1.00  0.00     0.117 C 
BRANCH   6   7
HETATM    7  C11 UNL     1       1.509  -0.725  -0.289  1.00  0.00     0.135 C 
HETATM    8  C12 UNL     1       1.080  -1.977   0.410  1.00  0.00     0.040 C 
BRANCH   7   9
HETATM    9  O4  UNL     1       2.911  -0.540  -0.246  1.00  0.00    -0.312 OA
BRANCH   9  10
HETATM   10  C13 UNL     1       3.683  -0.474  -1.403  1.00  0.00     0.293 C 
HETATM   11  O5  UNL     1       3.057  -0.587  -2.487  1.00  0.00    -0.259 OA
BRANCH  10  12
HETATM   12  C14 UNL     1       5.129  -0.284  -1.356  1.00  0.00     0.039 A 
HETATM   13  C15 UNL     1       5.870  -0.221  -2.512  1.00  0.00     0.017 A 
HETATM   14  C16 UNL     1       7.252  -0.042  -2.508  1.00  0.00     0.001 A 
HETATM   15  C17 UNL     1       7.903   0.078  -1.301  1.00  0.00     0.000 A 
HETATM   16  C18 UNL     1       7.168   0.016  -0.148  1.00  0.00     0.001 A 
HETATM   17  C19 UNL     1       5.789  -0.163  -0.153  1.00  0.00     0.017 A 
ENDBRANCH  10  12
ENDBRANCH   9  10
ENDBRANCH   7   9
ENDBRANCH   6   7
ENDBRANCH   4   6
ENDBRANCH   3   4
BRANCH   3  18
HETATM   18  C20 UNL     1      -0.781   2.770   1.140  1.00  0.00     0.110 A 
HETATM   19  C21 UNL     1      -1.458   3.908   1.598  1.00  0.00     0.044 A 
HETATM   20  C22 UNL     1      -0.523   4.812   2.031  1.00  0.00     0.066 A 
HETATM   21  C23 UNL     1       0.697   4.211   1.831  1.00  0.00     0.215 A 
HETATM   22  O8  UNL     1       0.491   3.012   1.305  1.00  0.00    -0.286 OA
BRANCH  21  23
HETATM   23  N4  UNL     1       1.951   4.792   2.141  1.00  0.00    -0.090 N 
HETATM   24  O6  UNL     1       1.996   5.920   2.629  1.00  0.00    -0.530 OA
HETATM   25  O7  UNL     1       3.103   4.089   1.894  1.00  0.00    -0.530 OA
ENDBRANCH  21  23
ENDBRANCH   3  18
BRANCH   1  26
HETATM   26  N2  UNL     1      -3.394   0.442  -0.004  1.00  0.00    -0.265 N 
HETATM   27  C7  UNL     1      -4.053  -0.424   0.897  1.00  0.00     0.274 C 
HETATM   28  O2  UNL     1      -3.968  -0.138   2.156  1.00  0.00    -0.266 OA
ATOM     29  H2  UNL     1      -3.424   0.269  -1.009  1.00  0.00     0.190 HD
BRANCH  27  30
HETATM   30  C6  UNL     1      -4.814  -1.600   0.552  1.00  0.00     0.084 A 
HETATM   31  C2  UNL     1      -5.022  -2.071  -0.715  1.00  0.00     0.157 A 
HETATM   32  N1  UNL     1      -5.761  -3.192  -0.892  1.00  0.00    -0.346 N 
HETATM   33  C3  UNL     1      -6.309  -3.881   0.107  1.00  0.00     0.090 A 
ATOM     34  H1  UNL     1      -5.906  -3.527  -1.844  1.00  0.00     0.167 HD
HETATM   35  C4  UNL     1      -6.108  -3.420   1.386  1.00  0.00     0.018 A 
HETATM   36  C5  UNL     1      -5.381  -2.307   1.632  1.00  0.00     0.023 A 
BRANCH  31  37
HETATM   37  O1  UNL     1      -4.493  -1.419  -1.799  1.00  0.00    -0.340 OA
HETATM   38  C1  UNL     1      -4.646  -1.817  -3.133  1.00  0.00     0.211 C 
ENDBRANCH  31  37
ENDBRANCH  27  30
ENDBRANCH   1  26
TORSDOF 11
