REMARK  2 active torsions:
REMARK  status: ('A' for Active; 'I' for Inactive)
REMARK    1  A    between atoms: C3_4  and  O2_5 
REMARK    2  A    between atoms: O2_5  and  N1_6 
ROOT
HETATM    1  C1  UNL     1      -3.216   0.920   0.460  1.00  0.00     0.264 C 
HETATM    2  C2  UNL     1      -3.415  -0.349  -0.339  1.00  0.00     0.200 C 
HETATM    3  O1  UNL     1      -2.134  -0.753  -0.609  1.00  0.00    -0.336 OA
HETATM    4  C3  UNL     1      -1.274  -0.200   0.303  1.00  0.00     0.491 C 
HETATM    5  N2  UNL     1      -2.065   0.525   1.282  1.00  0.00    -0.021 N 
ATOM      6  H21 UNL     1      -2.288   0.013   2.136  1.00  0.00     0.283 HD
ATOM      7  H22 UNL     1      -1.584   1.286   1.762  1.00  0.00     0.283 HD
ENDROOT
BRANCH   4   8
HETATM    8  O2  UNL     1      -0.370   0.669  -0.255  1.00  0.00    -0.220 OA
BRANCH   8   9
HETATM    9  N1  UNL     1       0.900   0.357  -0.120  1.00  0.00    -0.285 N 
HETATM   10  C4  UNL     1       1.271  -0.975  -0.457  1.00  0.00     0.175 C 
HETATM   11  C5  UNL     1       2.780  -0.947  -0.745  1.00  0.00     0.189 C 
HETATM   12  O3  UNL     1       3.387  -0.612   0.465  1.00  0.00    -0.388 OA
HETATM   13  C6  UNL     1       3.054   0.659   0.898  1.00  0.00     0.189 C 
HETATM   14  C7  UNL     1       1.567   0.873   1.025  1.00  0.00     0.175 C 
ENDBRANCH   8   9
ENDBRANCH   4   8
TORSDOF 2
