REMARK  1 active torsions:
REMARK  status: ('A' for Active; 'I' for Inactive)
REMARK    1  A    between atoms: C3_4  and  N1_5 
ROOT
HETATM    1  C1  UNL     1      -3.277  -0.066  -0.100  1.00  0.00     0.140 C 
HETATM    2  C2  UNL     1      -2.485  -1.344  -0.168  1.00  0.00     0.189 C 
HETATM    3  O1  UNL     1      -1.195  -1.115  -0.637  1.00  0.00    -0.364 OA
HETATM    4  C3  UNL     1      -0.596  -0.232   0.291  1.00  0.00     0.236 C 
HETATM    5  C8  UNL     1      -1.176   1.127   0.001  1.00  0.00     0.167 C 
HETATM    6  N2  UNL     1      -2.531   1.105  -0.430  1.00  0.00    -0.415 N 
ATOM      7  H2  UNL     1      -2.946   1.881  -0.945  1.00  0.00     0.153 HD
ENDROOT
BRANCH   4   8
HETATM    8  N1  UNL     1       0.811  -0.309   0.279  1.00  0.00    -0.382 N 
HETATM    9  C4  UNL     1       1.538   0.451   1.221  1.00  0.00     0.145 C 
HETATM   10  C5  UNL     1       2.824   0.921   0.574  1.00  0.00     0.187 C 
HETATM   11  O2  UNL     1       3.508  -0.203   0.131  1.00  0.00    -0.388 OA
HETATM   12  C6  UNL     1       2.865  -0.870  -0.898  1.00  0.00     0.187 C 
HETATM   13  C7  UNL     1       1.401  -0.526  -0.996  1.00  0.00     0.145 C 
ENDBRANCH   4   8
TORSDOF 1
