REMARK  3 active torsions:
REMARK  status: ('A' for Active; 'I' for Inactive)
REMARK    1  A    between atoms: C4_4  and  N1_5 
REMARK    2  A    between atoms: N1_5  and  C5_8 
REMARK    3  A    between atoms: C5_8  and  C6_9 
ROOT
HETATM    1  N1  UNL     1      -0.065  -0.306  -0.777  1.00  0.00    -0.069 N 
ATOM      2  H11 UNL     1      -0.360  -1.065  -1.392  1.00  0.00     0.277 HD
ATOM      3  H12 UNL     1      -0.112   0.459  -1.450  1.00  0.00     0.277 HD
ENDROOT
BRANCH   1   4
HETATM    4  C4  UNL     1       1.267  -0.504  -0.283  1.00  0.00     0.186 C 
HETATM    5  C3  UNL     1       2.305  -0.696  -1.377  1.00  0.00     0.033 C 
HETATM    6  C2  UNL     1       3.565  -1.159  -0.674  1.00  0.00     0.002 C 
HETATM    7  C1  UNL     1       4.170  -0.086   0.176  1.00  0.00     0.000 C 
HETATM    8  C11 UNL     1       3.181   1.052   0.292  1.00  0.00     0.002 C 
HETATM    9  C10 UNL     1       1.798   0.520   0.651  1.00  0.00     0.033 C 
ENDBRANCH   1   4
BRANCH   1  10
HETATM   10  C5  UNL     1      -0.970  -0.117   0.310  1.00  0.00     0.264 C 
BRANCH  10  11
HETATM   11  C6  UNL     1      -2.410  -0.169  -0.059  1.00  0.00     0.147 C 
HETATM   12  C7  UNL     1      -3.266   0.078   1.187  1.00  0.00     0.036 C 
HETATM   13  C8  UNL     1      -4.629   0.101   0.475  1.00  0.00     0.029 C 
HETATM   14  C9  UNL     1      -4.253   0.829  -0.796  1.00  0.00     0.168 C 
HETATM   15  O1  UNL     1      -2.874   0.755  -0.958  1.00  0.00    -0.384 OA
ENDBRANCH  10  11
ENDBRANCH   1  10
TORSDOF 3
