REMARK  4 active torsions:
REMARK  status: ('A' for Active; 'I' for Inactive)
REMARK    1  A    between atoms: C2_2  and  O1_4 
REMARK    2  A    between atoms: O1_4  and  C4_5 
REMARK    3  A    between atoms: C5_6  and  C6_7 
REMARK       I    between atoms: C6_7  and  N1_9 
REMARK    4  A    between atoms: N1_9  and  N2_11 
ROOT
HETATM    1  C4  UNL     1      -0.106   0.998  -0.855  1.00  0.00     0.111 A 
HETATM    2  C5  UNL     1      -1.438   1.032  -0.623  1.00  0.00     0.110 A 
HETATM    3  S1  UNL     1      -1.839   2.681  -1.064  1.00  0.00    -0.073 SA
HETATM    4  C7  UNL     1      -0.306   3.219  -1.519  1.00  0.00     0.072 A 
HETATM    5 BR1  UNL     1       0.209   4.971  -2.166  1.00  0.00    -0.042 Br
HETATM    6  C8  UNL     1       0.493   2.127  -1.324  1.00  0.00     0.070 A 
HETATM    7 BR2  UNL     1       2.394   2.288  -1.763  1.00  0.00    -0.046 Br
ENDROOT
BRANCH   2   8
HETATM    8  C6  UNL     1      -2.434   0.074  -0.169  1.00  0.00     0.279 C 
HETATM    9  O2  UNL     1      -3.621   0.499   0.050  1.00  0.00    -0.265 OA
HETATM   10  N1  UNL     1      -2.168  -1.274   0.030  1.00  0.00    -0.272 N 
ATOM     11  H1  UNL     1      -1.228  -1.624  -0.153  1.00  0.00     0.189 HD
BRANCH  10  12
HETATM   12  N2  UNL     1      -3.169  -2.186   0.483  1.00  0.00    -0.342 N 
ATOM     13  H22 UNL     1      -4.104  -1.819   0.661  1.00  0.00     0.176 HD
ATOM     14  H21 UNL     1      -2.974  -3.176   0.629  1.00  0.00     0.176 HD
ENDBRANCH  10  12
ENDBRANCH   2   8
BRANCH   1  15
HETATM   15  O1  UNL     1       0.695  -0.180  -0.604  1.00  0.00    -0.344 OA
BRANCH  15  16
HETATM   16  C2  UNL     1       1.456  -0.222   0.591  1.00  0.00     0.121 C 
HETATM   17  C1  UNL     1       1.103  -1.292   1.581  1.00  0.00     0.040 C 
HETATM   18  C3  UNL     1       2.922  -0.486   0.214  1.00  0.00     0.040 C 
ENDBRANCH  15  16
ENDBRANCH   1  15
TORSDOF 4
