REMARK  5 active torsions:
REMARK  status: ('A' for Active; 'I' for Inactive)
REMARK    1  A    between atoms: C2_2  and  N1_3 
REMARK       I    between atoms: N1_3  and  C4_5 
REMARK       I    between atoms: C4_5  and  N2_7 
REMARK    2  A    between atoms: N2_7  and  C5_9 
REMARK    3  A    between atoms: C8_15  and  N3_16 
REMARK       I    between atoms: N3_16  and  C9_18 
REMARK    4  A    between atoms: C9_18  and  O4_20 
REMARK    5  A    between atoms: O4_20  and  C10_21 
ROOT
HETATM    1  C5  UNL     1      -1.497  -1.838   1.465  1.00  0.00     0.138 C 
HETATM    2  C6  UNL     1      -0.985  -3.266   1.471  1.00  0.00     0.199 C 
HETATM    3  O2  UNL     1       0.120  -3.309   2.279  1.00  0.00    -0.348 OA
HETATM    4  C7  UNL     1       0.067  -2.212   3.138  1.00  0.00     0.238 C 
HETATM    5 CL1  UNL     1      -1.283  -2.489   4.260  1.00  0.00    -0.068 Cl
HETATM    6 CL2  UNL     1       1.577  -1.875   3.935  1.00  0.00    -0.068 Cl
HETATM    7  C8  UNL     1      -0.328  -1.115   2.139  1.00  0.00     0.178 C 
ENDROOT
BRANCH   7   8
HETATM    8  N3  UNL     1       0.764  -0.967   1.232  1.00  0.00    -0.325 N 
HETATM    9  C9  UNL     1       1.429   0.268   0.982  1.00  0.00     0.361 C 
HETATM   10  O3  UNL     1       1.016   1.278   1.606  1.00  0.00    -0.238 OA
ATOM     11  H3  UNL     1       1.088  -1.795   0.733  1.00  0.00     0.165 HD
BRANCH   9  12
HETATM   12  O4  UNL     1       2.473   0.413   0.116  1.00  0.00    -0.294 OA
BRANCH  12  13
HETATM   13  C10 UNL     1       3.152   1.620  -0.153  1.00  0.00     0.061 C 
HETATM   14  C11 UNL     1       3.787   2.210   1.080  1.00  0.00     0.046 C 
HETATM   15  C12 UNL     1       2.280   2.668  -0.774  1.00  0.00     0.046 C 
HETATM   16  C13 UNL     1       4.275   1.301  -1.129  1.00  0.00     0.046 C 
ENDBRANCH  12  13
ENDBRANCH   9  12
ENDBRANCH   7   8
BRANCH   1  17
HETATM   17  N2  UNL     1      -1.758  -1.344   0.149  1.00  0.00    -0.334 N 
HETATM   18  C4  UNL     1      -3.012  -0.815  -0.169  1.00  0.00     0.318 C 
HETATM   19  N1  UNL     1      -3.289  -0.325  -1.461  1.00  0.00    -0.339 N 
HETATM   20  O1  UNL     1      -3.912  -0.774   0.713  1.00  0.00    -0.247 OA
HETATM   21  C3  UNL     1      -4.606   0.246  -1.767  1.00  0.00     0.154 C 
ATOM     22  H2  UNL     1      -1.026  -1.378  -0.561  1.00  0.00     0.164 HD
BRANCH  19  23
HETATM   23  C2  UNL     1      -2.267  -0.389  -2.481  1.00  0.00     0.122 C 
HETATM   24  C1  UNL     1      -1.401   0.852  -2.468  1.00  0.00     0.026 C 
ENDBRANCH  19  23
ENDBRANCH   1  17
TORSDOF 5
