REMARK  7 active torsions:
REMARK  status: ('A' for Active; 'I' for Inactive)
REMARK    1  A    between atoms: C2_2  and  C3_3 
REMARK    2  A    between atoms: C3_3  and  C4_4 
REMARK    3  A    between atoms: C4_4  and  C5_5 
REMARK    4  A    between atoms: C5_5  and  O1_7 
REMARK    5  A    between atoms: O1_7  and  C6_8 
REMARK    6  A    between atoms: C13_21  and  C14_22 
REMARK       I    between atoms: N3_25  and  C15_26 
REMARK       I    between atoms: C15_26  and  N4_28 
REMARK    7  A    between atoms: N4_28  and  C16_30 
ROOT
HETATM    1  C4  UNL     1      -0.811   0.319   0.017  1.00  0.00     0.134 C 
HETATM    2  C8  UNL     1      -1.859  -0.592  -0.507  1.00  0.00     0.048 C 
HETATM    3  N1  UNL     1      -3.164  -0.593   0.087  1.00  0.00    -0.338 N 
ATOM      4  H1  UNL     1      -3.493   0.260   0.540  1.00  0.00     0.168 HD
HETATM    5  C9  UNL     1      -4.024  -1.731   0.074  1.00  0.00     0.138 C 
HETATM    6  N2  UNL     1      -5.285  -1.630  -0.198  1.00  0.00    -0.380 N 
ATOM      7  H21 UNL     1      -5.900  -2.444  -0.207  1.00  0.00     0.158 HD
ATOM      8  H22 UNL     1      -5.707  -0.727  -0.414  1.00  0.00     0.158 HD
HETATM    9  S1  UNL     1      -3.277  -3.332   0.456  1.00  0.00    -0.090 SA
HETATM   10  C10 UNL     1      -1.499  -3.062   0.042  1.00  0.00     0.118 C 
HETATM   11  C11 UNL     1      -1.487  -1.972  -0.940  1.00  0.00    -0.042 C 
HETATM   12  C12 UNL     1      -0.346  -1.912  -1.865  1.00  0.00     0.073 C 
HETATM   13  C13 UNL     1       0.800  -1.211  -1.271  1.00  0.00     0.195 C 
HETATM   14  N3  UNL     1       0.535  -0.199  -0.277  1.00  0.00    -0.299 N 
HETATM   15  C15 UNL     1       1.685   0.285   0.387  1.00  0.00     0.320 C 
HETATM   16  O4  UNL     1       1.749   1.220   1.220  1.00  0.00    -0.247 OA
HETATM   17  N4  UNL     1       2.995  -0.255   0.192  1.00  0.00    -0.335 N 
ATOM     18  H4  UNL     1       3.114  -1.033  -0.457  1.00  0.00     0.165 HD
ENDROOT
BRANCH   1  19
HETATM   19  C3  UNL     1      -0.983   0.938   1.328  1.00  0.00     0.043 C 
BRANCH  19  20
HETATM   20  C2  UNL     1      -0.972   0.383   2.652  1.00  0.00    -0.002 C 
HETATM   21  C1  UNL     1      -2.009  -0.604   3.095  1.00  0.00     0.005 C 
ENDBRANCH  19  20
ENDBRANCH   1  19
BRANCH   1  22
HETATM   22  C5  UNL     1      -0.880   1.576  -0.944  1.00  0.00     0.341 C 
HETATM   23  F1  UNL     1       0.051   2.529  -0.580  1.00  0.00    -0.217 F 
BRANCH  22  24
HETATM   24  O1  UNL     1      -2.076   2.250  -0.816  1.00  0.00    -0.354 OA
BRANCH  24  25
HETATM   25  C6  UNL     1      -2.623   2.517  -2.031  1.00  0.00     0.167 C 
HETATM   26  C7  UNL     1      -3.939   3.266  -1.794  1.00  0.00     0.033 C 
ENDBRANCH  24  25
ENDBRANCH  22  24
ENDBRANCH   1  22
BRANCH  13  27
HETATM   27  C14 UNL     1       1.571  -0.705  -2.447  1.00  0.00     0.197 C 
HETATM   28  O2  UNL     1       1.960   0.473  -2.549  1.00  0.00    -0.646 OA
HETATM   29  O3  UNL     1       1.871  -1.580  -3.474  1.00  0.00    -0.646 OA
ENDBRANCH  13  27
BRANCH  17  30
HETATM   30  C16 UNL     1       4.157   0.262   0.881  1.00  0.00     0.023 C 
HETATM   31  C17 UNL     1       4.004   0.144   2.389  1.00  0.00     0.037 C 
HETATM   32  C18 UNL     1       5.401  -0.488   0.498  1.00  0.00     0.037 C 
HETATM   33  C19 UNL     1       4.379   1.731   0.583  1.00  0.00     0.037 C 
ENDBRANCH  17  30
TORSDOF 7
