REMARK  7 active torsions:
REMARK  status: ('A' for Active; 'I' for Inactive)
REMARK    1  A    between atoms: C2_2  and  N1_3 
REMARK    2  A    between atoms: N1_3  and  C3_4 
REMARK    3  A    between atoms: N1_3  and  C5_6 
REMARK    4  A    between atoms: C5_6  and  C6_7 
REMARK    5  A    between atoms: C6_7  and  N2_8 
REMARK    6  A    between atoms: C7_9  and  O1_10 
REMARK    7  A    between atoms: C10_14  and  O2_15 
ROOT
HETATM    1  N2  UNL     1       1.261  -0.548   0.407  1.00  0.00    -0.306 N 
HETATM    2  C7  UNL     1       0.619  -1.306  -0.504  1.00  0.00     0.152 A 
HETATM    3  C8  UNL     1      -0.734  -1.148  -0.306  1.00  0.00     0.025 A 
HETATM    4  C9  UNL     1      -0.939  -0.269   0.755  1.00  0.00     0.014 A 
HETATM    5  C10 UNL     1       0.357   0.072   1.159  1.00  0.00     0.152 A 
HETATM    6  C11 UNL     1      -2.302   0.111   1.228  1.00  0.00    -0.004 C 
HETATM    7  C12 UNL     1      -2.146   0.115   2.782  1.00  0.00     0.021 C 
HETATM    8  C13 UNL     1      -3.185  -1.064   0.990  1.00  0.00     0.047 C 
HETATM    9  C14 UNL     1      -3.148  -1.708  -0.347  1.00  0.00     0.051 C 
HETATM   10  C15 UNL     1      -3.678  -3.148  -0.146  1.00  0.00     0.040 C 
HETATM   11  N3  UNL     1      -4.162  -1.114  -1.241  1.00  0.00    -0.357 N 
ATOM     12  H3  UNL     1      -4.253  -1.596  -2.135  1.00  0.00     0.162 HD
HETATM   13  C16 UNL     1      -5.031  -0.008  -1.100  1.00  0.00     0.168 C 
HETATM   14  S1  UNL     1      -6.353  -0.072  -2.059  1.00  0.00    -0.041 SA
HETATM   15  N4  UNL     1      -4.940   1.148  -0.261  1.00  0.00    -0.362 N 
ATOM     16  H4  UNL     1      -5.796   1.691  -0.375  1.00  0.00     0.162 HD
HETATM   17  C17 UNL     1      -4.117   1.819   0.661  1.00  0.00     0.089 C 
HETATM   18  C18 UNL     1      -3.531   3.054  -0.069  1.00  0.00     0.026 C 
HETATM   19  C19 UNL     1      -2.421   2.061  -0.480  1.00  0.00     0.010 C 
HETATM   20  C20 UNL     1      -2.716   1.442   0.865  1.00  0.00     0.021 C 
HETATM   21  C21 UNL     1      -1.863  -1.783  -1.054  1.00  0.00     0.148 C 
HETATM   22 CL1  UNL     1      -1.911  -1.143  -2.731  1.00  0.00    -0.117 Cl
ENDROOT
BRANCH   1  23
HETATM   23  C6  UNL     1       2.694  -0.476   0.499  1.00  0.00     0.153 C 
BRANCH  23  24
HETATM   24  C5  UNL     1       3.317   0.616  -0.341  1.00  0.00     0.142 C 
BRANCH  24  25
HETATM   25  N1  UNL     1       4.717   0.558  -0.183  1.00  0.00    -0.393 N 
BRANCH  25  26
HETATM   26  C2  UNL     1       5.266   0.901   1.068  1.00  0.00     0.117 C 
HETATM   27  C1  UNL     1       6.265  -0.191   1.487  1.00  0.00     0.026 C 
ENDBRANCH  25  26
BRANCH  25  28
HETATM   28  C3  UNL     1       5.559   0.593  -1.295  1.00  0.00     0.054 C 
HETATM   29  C4  UNL     1       4.944   0.225  -2.602  1.00  0.00     0.054 C 
ENDBRANCH  25  28
ENDBRANCH  24  25
ENDBRANCH  23  24
ENDBRANCH   1  23
BRANCH   2  30
HETATM   30  O1  UNL     1       1.180  -2.112  -1.480  1.00  0.00    -0.345 OA
ATOM     31  H1  UNL     1       0.727  -2.646  -2.122  1.00  0.00     0.219 HD
ENDBRANCH   2  30
BRANCH   5  32
HETATM   32  O2  UNL     1       0.609   0.938   2.202  1.00  0.00    -0.345 OA
ATOM     33  H2  UNL     1      -0.037   1.381   2.739  1.00  0.00     0.219 HD
ENDBRANCH   5  32
TORSDOF 7
