REMARK  7 active torsions:
REMARK  status: ('A' for Active; 'I' for Inactive)
REMARK    1  A    between atoms: C2_2  and  C3_3 
REMARK    2  A    between atoms: C3_3  and  C5_5 
REMARK    3  A    between atoms: C3_3  and  C14_22 
REMARK       I    between atoms: C5_5  and  N1_7 
REMARK    4  A    between atoms: N1_7  and  C6_9 
REMARK    5  A    between atoms: C7_12  and  S1_13 
REMARK    6  A    between atoms: C9_15  and  S2_16 
REMARK    7  A    between atoms: S2_16  and  C10_17 
ROOT
HETATM    1  C6  UNL     1       0.117   0.176   0.795  1.00  0.00     0.153 A 
HETATM    2  N2  UNL     1       0.467  -0.355  -0.378  1.00  0.00    -0.330 N 
ATOM      3  H2  UNL     1      -0.171  -0.328  -1.174  1.00  0.00     0.168 HD
HETATM    4  C7  UNL     1       1.641  -0.908  -0.484  1.00  0.00     0.095 A 
HETATM    5  C9  UNL     1       2.454  -0.912   0.619  1.00  0.00     0.079 A 
HETATM    6  S3  UNL     1       1.479  -0.111   1.773  1.00  0.00    -0.044 SA
ENDROOT
BRANCH   1   7
HETATM    7  N1  UNL     1      -1.004   0.777   1.127  1.00  0.00    -0.306 N 
HETATM    8  C5  UNL     1      -2.054   0.937   0.188  1.00  0.00     0.238 C 
HETATM    9  O1  UNL     1      -1.809   1.574  -0.867  1.00  0.00    -0.272 OA
ATOM     10  H1  UNL     1      -1.120   1.134   2.075  1.00  0.00     0.171 HD
BRANCH   8  11
HETATM   11  C3  UNL     1      -3.417   0.387   0.404  1.00  0.00     0.086 C 
HETATM   12  C4  UNL     1      -3.312  -1.119   0.505  1.00  0.00     0.033 C 
BRANCH  11  13
HETATM   13  C2  UNL     1      -4.016   0.894   1.697  1.00  0.00     0.021 C 
HETATM   14  C1  UNL     1      -4.142   2.403   1.652  1.00  0.00     0.006 C 
ENDBRANCH  11  13
BRANCH  11  15
HETATM   15  C14 UNL     1      -4.312   0.708  -0.748  1.00  0.00     0.070 A 
HETATM   16  C15 UNL     1      -5.617   1.180  -0.679  1.00  0.00     0.036 A 
HETATM   17  C16 UNL     1      -6.081   1.345  -1.967  1.00  0.00     0.027 A 
HETATM   18  C17 UNL     1      -5.030   0.964  -2.774  1.00  0.00     0.142 A 
HETATM   19  O2  UNL     1      -4.020   0.601  -2.017  1.00  0.00    -0.326 OA
ENDBRANCH  11  15
ENDBRANCH   8  11
ENDBRANCH   1   7
BRANCH   4  20
HETATM   20  S1  UNL     1       2.220  -1.674  -2.041  1.00  0.00    -0.115 SA
HETATM   21  C8  UNL     1       1.758  -3.423  -2.077  1.00  0.00     0.097 C 
ENDBRANCH   4  20
BRANCH   5  22
HETATM   22  S2  UNL     1       4.115  -1.585   0.789  1.00  0.00    -0.111 SA
BRANCH  22  23
HETATM   23  C10 UNL     1       5.365  -0.332   0.390  1.00  0.00     0.003 C 
HETATM   24  C11 UNL     1       5.242  -0.019  -1.083  1.00  0.00     0.026 C 
HETATM   25  C12 UNL     1       6.754  -0.811   0.725  1.00  0.00     0.026 C 
HETATM   26  C13 UNL     1       5.117   0.916   1.213  1.00  0.00     0.026 C 
ENDBRANCH  22  23
ENDBRANCH   5  22
TORSDOF 7
