REMARK  4 active torsions:
REMARK  status: ('A' for Active; 'I' for Inactive)
REMARK    1  A    between atoms: C2_2  and  C3_3 
REMARK    2  A    between atoms: N1_8  and  C8_10 
REMARK    3  A    between atoms: C8_10  and  C9_11 
REMARK    4  A    between atoms: C9_11  and  O1_12 
ROOT
HETATM    1  C8  UNL     1      -2.033   0.531  -0.900  1.00  0.00     0.124 C 
HETATM    2  C10 UNL     1      -2.965   0.096  -2.056  1.00  0.00     0.090 C 
HETATM    3  C11 UNL     1      -4.300  -0.052  -1.442  1.00  0.00     0.157 A 
HETATM    4  O2  UNL     1      -5.056  -1.080  -1.145  1.00  0.00    -0.374 OA
HETATM    5  C12 UNL     1      -4.016  -1.081  -0.344  1.00  0.00     0.168 A 
HETATM    6  C13 UNL     1      -3.623  -0.202   0.784  1.00  0.00     0.151 C 
HETATM    7  N2  UNL     1      -2.750   0.799   0.294  1.00  0.00    -0.392 N 
ATOM      8  H2  UNL     1      -2.640   1.686   0.785  1.00  0.00     0.155 HD
ENDROOT
BRANCH   1   9
HETATM    9  N1  UNL     1      -1.106  -0.514  -0.698  1.00  0.00    -0.360 N 
HETATM   10  C7  UNL     1      -0.170  -0.545   0.098  1.00  0.00     0.049 C 
HETATM   11  C6  UNL     1       0.779  -1.716   0.245  1.00  0.00     0.070 C 
HETATM   12  S1  UNL     1       0.459   0.602   1.307  1.00  0.00    -0.082 SA
HETATM   13  C5  UNL     1       2.160  -1.051   0.309  1.00  0.00     0.052 C 
HETATM   14  C4  UNL     1       2.116  -0.082   1.432  1.00  0.00    -0.019 C 
HETATM   15  C3  UNL     1       3.087   0.171   2.278  1.00  0.00    -0.013 C 
ATOM     16  H1  UNL     1      -1.227  -1.342  -1.282  1.00  0.00     0.162 HD
BRANCH  15  17
HETATM   17  C2  UNL     1       4.415  -0.479   2.255  1.00  0.00     0.024 C 
HETATM   18  C1  UNL     1       5.446   0.625   2.064  1.00  0.00     0.009 C 
ENDBRANCH  15  17
ENDBRANCH   1   9
BRANCH   1  19
HETATM   19  C9  UNL     1      -1.290   1.738  -1.427  1.00  0.00     0.217 C 
BRANCH  19  20
HETATM   20  O1  UNL     1      -0.696   1.315  -2.641  1.00  0.00    -0.397 OA
ATOM     21  H1  UNL     1      -0.229   2.073  -2.972  1.00  0.00     0.209 HD
ENDBRANCH  19  20
ENDBRANCH   1  19
TORSDOF 4
