REMARK  6 active torsions:
REMARK  status: ('A' for Active; 'I' for Inactive)
REMARK    1  A    between atoms: C1_2  and  O2_3 
REMARK    2  A    between atoms: C1_2  and  C7_9 
REMARK    3  A    between atoms: O2_3  and  C2_4 
REMARK    4  A    between atoms: C2_4  and  C3_5 
REMARK    5  A    between atoms: C7_9  and  O3_10 
REMARK    6  A    between atoms: C13_17  and  O4_18 
ROOT
HETATM    1  C7  UNL     1      -0.953  -0.150  -0.539  1.00  0.00     0.152 C 
HETATM    2  C8  UNL     1      -1.860  -1.325  -0.769  1.00  0.00     0.053 C 
HETATM    3  C9  UNL     1      -3.278  -0.763  -0.887  1.00  0.00    -0.008 C 
HETATM    4  C10 UNL     1      -3.284   0.507  -1.711  1.00  0.00     0.010 C 
HETATM    5  C11 UNL     1      -2.594   1.626  -0.986  1.00  0.00    -0.001 C 
HETATM    6  C12 UNL     1      -3.433   2.024   0.240  1.00  0.00     0.043 C 
HETATM    7  C13 UNL     1      -2.782   0.803   0.916  1.00  0.00     0.066 C 
HETATM    8  C14 UNL     1      -3.642  -0.365   0.546  1.00  0.00     0.043 C 
HETATM    9  C15 UNL     1      -1.615   1.036   0.036  1.00  0.00     0.069 C 
ENDROOT
BRANCH   1  10
HETATM   10  C1  UNL     1       0.249  -0.568   0.233  1.00  0.00     0.294 C 
HETATM   11  O1  UNL     1       0.057  -0.942   1.430  1.00  0.00    -0.262 OA
BRANCH  10  12
HETATM   12  O2  UNL     1       1.531  -0.570  -0.276  1.00  0.00    -0.319 OA
BRANCH  12  13
HETATM   13  C2  UNL     1       2.583  -0.994   0.573  1.00  0.00     0.183 C 
BRANCH  13  14
HETATM   14  C3  UNL     1       3.913  -0.933  -0.144  1.00  0.00     0.010 C 
HETATM   15  C4  UNL     1       4.295   0.448  -0.633  1.00  0.00     0.007 C 
HETATM   16  C5  UNL     1       5.701   0.170  -0.138  1.00  0.00     0.001 C 
HETATM   17  C6  UNL     1       5.067  -0.832   0.833  1.00  0.00     0.007 C 
ENDBRANCH  13  14
ENDBRANCH  12  13
ENDBRANCH  10  12
ENDBRANCH   1  10
BRANCH   1  18
HETATM   18  O3  UNL     1      -0.469   0.212  -1.821  1.00  0.00    -0.379 OA
ATOM     19  H3  UNL     1      -1.236   0.479  -2.314  1.00  0.00     0.211 HD
ENDBRANCH   1  18
BRANCH   7  20
HETATM   20  O4  UNL     1      -2.568   0.991   2.282  1.00  0.00    -0.389 OA
ATOM     21  H4  UNL     1      -2.166   0.238   2.699  1.00  0.00     0.210 HD
ENDBRANCH   7  20
TORSDOF 6
