REMARK  4 active torsions:
REMARK  status: ('A' for Active; 'I' for Inactive)
REMARK       I    between atoms: N3_4  and  C2_6 
REMARK    1  A    between atoms: C2_6  and  C3_8 
REMARK    2  A    between atoms: C3_8  and  N4_9 
REMARK    3  A    between atoms: C7_13  and  C8_14 
REMARK    4  A    between atoms: C8_14  and  N5_15 
ROOT
HETATM    1  N4  UNL     1       1.150  -1.183  -0.436  1.00  0.00    -0.357 N 
HETATM    2  C4  UNL     1       1.057  -2.486  -0.787  1.00  0.00     0.091 A 
HETATM    3  C5  UNL     1      -0.050  -3.171  -0.352  1.00  0.00     0.018 A 
HETATM    4  C6  UNL     1      -1.028  -2.565   0.409  1.00  0.00     0.011 A 
HETATM    5  C7  UNL     1      -0.921  -1.224   0.763  1.00  0.00    -0.024 A 
HETATM    6  C14 UNL     1       0.206  -0.570   0.306  1.00  0.00     0.099 A 
ENDROOT
BRANCH   1   7
HETATM    7  C3  UNL     1       2.286  -0.417  -0.862  1.00  0.00     0.230 C 
BRANCH   7   8
HETATM    8  C2  UNL     1       3.410  -0.439   0.065  1.00  0.00     0.241 C 
HETATM    9  N3  UNL     1       4.590   0.277  -0.238  1.00  0.00    -0.302 N 
HETATM   10  C1  UNL     1       4.583   1.563  -0.127  1.00  0.00     0.203 C 
ATOM     11  H3  UNL     1       5.432  -0.214  -0.539  1.00  0.00     0.171 HD
HETATM   12  N1  UNL     1       3.442   2.299   0.288  1.00  0.00    -0.066 NA
HETATM   13  N2  UNL     1       5.785   2.244  -0.441  1.00  0.00    -0.066 NA
HETATM   14  O1  UNL     1       3.363  -1.078   1.135  1.00  0.00    -0.271 OA
ENDBRANCH   7   8
ENDBRANCH   1   7
BRANCH   5  15
HETATM   15  C8  UNL     1      -1.957  -0.559   1.575  1.00  0.00     0.167 C 
BRANCH  15  16
HETATM   16  N5  UNL     1      -3.001   0.038   0.768  1.00  0.00    -0.362 N 
HETATM   17  C9  UNL     1      -2.838   1.305   0.375  1.00  0.00     0.090 A 
HETATM   18  C10 UNL     1      -3.772   1.965  -0.395  1.00  0.00     0.017 A 
HETATM   19  C11 UNL     1      -4.902   1.261  -0.754  1.00  0.00     0.003 A 
HETATM   20  C12 UNL     1      -5.064  -0.042  -0.348  1.00  0.00     0.017 A 
HETATM   21  C13 UNL     1      -4.093  -0.633   0.417  1.00  0.00     0.090 A 
ENDBRANCH  15  16
ENDBRANCH   5  15
TORSDOF 4
