REMARK  3 active torsions:
REMARK  status: ('A' for Active; 'I' for Inactive)
REMARK    1  A    between atoms: C8_8  and  C9_9 
REMARK       I    between atoms: C9_9  and  N1_11 
REMARK    2  A    between atoms: C10_13  and  N3_16 
REMARK    3  A    between atoms: N3_16  and  N4_18 
ROOT
HETATM    1  C1  UNL     1       4.996   0.979  -0.062  1.00  0.00     0.013 C 
HETATM    2  C2  UNL     1       3.910   0.647  -0.467  1.00  0.00    -0.107 C 
HETATM    3  C3  UNL     1       2.573   0.262  -0.979  1.00  0.00     0.028 A 
HETATM    4  C4  UNL     1       2.264  -1.205  -0.881  1.00  0.00     0.023 C 
HETATM    5  C5  UNL     1       1.895  -1.468   0.580  1.00  0.00     0.007 C 
HETATM    6  C6  UNL     1       0.649  -0.731   0.996  1.00  0.00    -0.005 C 
HETATM    7  C7  UNL     1      -0.447  -1.738   1.342  1.00  0.00     0.011 C 
HETATM    8  C8  UNL     1       0.246   0.185  -0.140  1.00  0.00     0.087 C 
HETATM    9  C12 UNL     1       1.404   1.089  -0.460  1.00  0.00     0.021 A 
HETATM   10  C13 UNL     1       1.885   1.196  -1.863  1.00  0.00     0.030 A 
ENDROOT
BRANCH   8  11
HETATM   11  C9  UNL     1      -0.897   1.016   0.311  1.00  0.00     0.228 C 
HETATM   12  O1  UNL     1      -0.738   2.272   0.340  1.00  0.00    -0.273 OA
HETATM   13  N1  UNL     1      -2.121   0.422   0.695  1.00  0.00    -0.303 N 
HETATM   14  C10 UNL     1      -3.223   0.931   0.315  1.00  0.00     0.206 C 
ATOM     15  H1  UNL     1      -2.120  -0.415   1.277  1.00  0.00     0.171 HD
HETATM   16  C11 UNL     1      -3.222   2.098  -0.496  1.00  0.00     0.138 C 
HETATM   17  N2  UNL     1      -3.241   3.055  -1.162  1.00  0.00    -0.188 NA
BRANCH  14  18
HETATM   18  N3  UNL     1      -4.440   0.294   0.729  1.00  0.00    -0.262 N 
ATOM     19  H3  UNL     1      -4.805   0.420   1.673  1.00  0.00     0.190 HD
BRANCH  18  20
HETATM   20  N4  UNL     1      -5.105  -0.500  -0.196  1.00  0.00    -0.247 N 
HETATM   21  N5  UNL     1      -4.975  -1.756  -0.124  1.00  0.00    -0.331 N 
ATOM     22  H52 UNL     1      -4.389  -2.162   0.606  1.00  0.00     0.178 HD
ATOM     23  H51 UNL     1      -5.463  -2.339  -0.803  1.00  0.00     0.178 HD
ATOM     24  H4  UNL     1      -5.687  -0.078  -0.920  1.00  0.00     0.207 HD
ENDBRANCH  18  20
ENDBRANCH  14  18
ENDBRANCH   8  11
TORSDOF 3
