REMARK  2 active torsions:
REMARK  status: ('A' for Active; 'I' for Inactive)
REMARK    1  A    between atoms: C3_3  and  C4_4 
REMARK    2  A    between atoms: N1_18  and  O2_20 
ROOT
HETATM    1  C1  UNL     1       4.742   2.405   0.028  1.00  0.00     0.112 C 
HETATM    2  C2  UNL     1       3.659   1.428   0.271  1.00  0.00    -0.110 C 
HETATM    3  C3  UNL     1       2.791   0.618   0.471  1.00  0.00    -0.091 C 
ENDROOT
BRANCH   3   4
HETATM    4  C4  UNL     1       1.762  -0.363   0.732  1.00  0.00     0.061 C 
HETATM    5  C5  UNL     1       2.450  -1.693   1.072  1.00  0.00     0.036 C 
HETATM    6  C6  UNL     1       0.819  -0.010   1.828  1.00  0.00     0.029 C 
HETATM    7  C7  UNL     1      -0.498  -0.745   1.701  1.00  0.00     0.011 C 
HETATM    8  C8  UNL     1      -1.154  -0.577   0.372  1.00  0.00     0.033 C 
HETATM    9  C9  UNL     1      -2.461   0.139   0.404  1.00  0.00     0.058 C 
HETATM   10  C14 UNL     1      -0.277  -0.058  -0.735  1.00  0.00     0.007 C 
HETATM   11  C10 UNL     1      -2.556   1.244   1.415  1.00  0.00     0.046 C 
HETATM   12  C11 UNL     1      -3.562  -0.889   0.698  1.00  0.00     0.046 C 
HETATM   13  O1  UNL     1      -2.753   0.669  -0.829  1.00  0.00    -0.380 OA
HETATM   14  C12 UNL     1      -2.443  -0.083  -1.919  1.00  0.00     0.170 C 
HETATM   15  C13 UNL     1      -0.982  -0.500  -2.021  1.00  0.00     0.042 C 
HETATM   16  C15 UNL     1      -0.184   1.427  -0.827  1.00  0.00     0.022 C 
HETATM   17  C16 UNL     1       1.060  -0.616  -0.574  1.00  0.00     0.039 C 
HETATM   18  N1  UNL     1       1.658  -1.281  -1.440  1.00  0.00    -0.275 N 
ATOM     19  H1  UNL     1       2.586  -1.583  -1.143  1.00  0.00     0.193 HD
BRANCH  18  20
HETATM   20  O2  UNL     1       1.344  -1.684  -2.676  1.00  0.00    -0.290 OA
ATOM     21  H2  UNL     1       1.800  -2.191  -3.337  1.00  0.00     0.244 HD
ENDBRANCH  18  20
ENDBRANCH   3   4
TORSDOF 2
