REMARK  2 active torsions:
REMARK  status: ('A' for Active; 'I' for Inactive)
REMARK    1  A    between atoms: C6_6  and  O1_7 
REMARK    2  A    between atoms: C12_14  and  O2_15 
ROOT
HETATM    1  C1  UNL     1      -1.390   2.780   0.580  1.00  0.00     0.010 C 
HETATM    2  C2  UNL     1      -1.292   1.872  -0.641  1.00  0.00    -0.014 C 
HETATM    3  C3  UNL     1       0.072   1.480  -0.966  1.00  0.00     0.010 C 
HETATM    4  C4  UNL     1       1.007   1.016   0.076  1.00  0.00    -0.007 C 
HETATM    5  C5  UNL     1       2.322   1.832   0.120  1.00  0.00     0.037 C 
HETATM    6  C6  UNL     1       3.366   0.858   0.630  1.00  0.00     0.122 C 
HETATM    7  C7  UNL     1       2.654  -0.502   0.732  1.00  0.00     0.015 C 
HETATM    8  C8  UNL     1       3.592  -1.643   0.522  1.00  0.00     0.013 C 
HETATM    9  C9  UNL     1       1.618  -0.326  -0.304  1.00  0.00    -0.004 C 
HETATM   10  C10 UNL     1       0.645  -1.412  -0.503  1.00  0.00     0.008 C 
HETATM   11  C11 UNL     1      -0.337  -1.629   0.584  1.00  0.00     0.038 C 
HETATM   12  C12 UNL     1      -1.728  -1.887   0.231  1.00  0.00     0.058 C 
HETATM   13  C13 UNL     1      -2.206  -1.626  -1.142  1.00  0.00     0.038 C 
HETATM   14  C14 UNL     1      -2.425  -0.210  -1.529  1.00  0.00     0.008 C 
HETATM   15  C15 UNL     1      -2.369   0.827  -0.475  1.00  0.00    -0.011 C 
HETATM   16  C16 UNL     1      -2.525   0.354   0.940  1.00  0.00     0.008 C 
HETATM   17  C17 UNL     1      -2.683  -1.103   1.143  1.00  0.00     0.038 C 
ENDROOT
BRANCH   6  18
HETATM   18  O1  UNL     1       4.363   0.664  -0.354  1.00  0.00    -0.395 OA
ATOM     19  H1  UNL     1       5.017   0.054  -0.034  1.00  0.00     0.210 HD
ENDBRANCH   6  18
BRANCH  12  20
HETATM   20  O2  UNL     1      -2.015  -3.247   0.524  1.00  0.00    -0.390 OA
ATOM     21  H2  UNL     1      -2.921  -3.415   0.294  1.00  0.00     0.210 HD
ENDBRANCH  12  20
TORSDOF 2
