REMARK  8 active torsions:
REMARK  status: ('A' for Active; 'I' for Inactive)
REMARK    1  A    between atoms: N1_2  and  C2_4 
REMARK    2  A    between atoms: C2_4  and  N2_6 
REMARK    3  A    between atoms: N2_6  and  N3_8 
REMARK    4  A    between atoms: N3_8  and  C4_10 
REMARK    5  A    between atoms: C4_10  and  N4_12 
REMARK    6  A    between atoms: N4_12  and  N5_14 
REMARK       I    between atoms: C5_16  and  N7_18 
REMARK    7  A    between atoms: N7_18  and  N8_20 
REMARK    8  A    between atoms: N8_20  and  O1_24 
ROOT
HETATM    1  N4  UNL     1      -1.371  -0.862   0.315  1.00  0.00    -0.273 N 
ATOM      2  H4  UNL     1      -2.032  -1.508   0.748  1.00  0.00     0.189 HD
ENDROOT
BRANCH   1   3
HETATM    3  C4  UNL     1      -0.146  -0.602   0.968  1.00  0.00     0.207 C 
HETATM    4  S2  UNL     1       0.178  -1.344   2.399  1.00  0.00    -0.038 SA
BRANCH   3   5
HETATM    5  N3  UNL     1       0.816   0.274   0.438  1.00  0.00    -0.268 N 
HETATM    6  C3  UNL     1       0.716   1.008  -0.787  1.00  0.00     0.180 C 
BRANCH   5   7
HETATM    7  N2  UNL     1       2.011   0.461   1.180  1.00  0.00    -0.272 N 
ATOM      8  H2  UNL     1       1.992   0.882   2.109  1.00  0.00     0.189 HD
BRANCH   7   9
HETATM    9  C2  UNL     1       3.231   0.045   0.591  1.00  0.00     0.186 C 
HETATM   10  S1  UNL     1       3.227  -0.619  -0.885  1.00  0.00    -0.040 SA
BRANCH   9  11
HETATM   11  N1  UNL     1       4.444   0.220   1.314  1.00  0.00    -0.370 N 
HETATM   12  C1  UNL     1       5.691  -0.212   0.698  1.00  0.00     0.148 C 
ATOM     13  H1  UNL     1       4.440   0.639   2.244  1.00  0.00     0.161 HD
ENDBRANCH   9  11
ENDBRANCH   7   9
ENDBRANCH   5   7
ENDBRANCH   3   5
ENDBRANCH   1   3
BRANCH   1  14
HETATM   14  N5  UNL     1      -1.709  -0.268  -0.899  1.00  0.00    -0.270 N 
HETATM   15  C5  UNL     1      -2.909  -0.161  -1.325  1.00  0.00     0.225 C 
HETATM   16  N6  UNL     1      -3.164   0.457  -2.569  1.00  0.00    -0.060 NA
HETATM   17  N7  UNL     1      -3.992  -0.655  -0.562  1.00  0.00    -0.231 N 
ATOM     18  H7  UNL     1      -4.374  -1.569  -0.806  1.00  0.00     0.194 HD
ATOM     19  H5  UNL     1      -0.957   0.102  -1.480  1.00  0.00     0.189 HD
BRANCH  17  20
HETATM   20  N8  UNL     1      -4.565   0.032   0.500  1.00  0.00    -0.099 N 
HETATM   21  N9  UNL     1      -5.807  -0.047   0.710  1.00  0.00    -0.303 N 
ATOM     22  H92 UNL     1      -6.388  -0.619   0.096  1.00  0.00     0.181 HD
ATOM     23  H91 UNL     1      -6.228   0.458   1.490  1.00  0.00     0.181 HD
BRANCH  20  24
HETATM   24  O1  UNL     1      -3.789   0.796   1.320  1.00  0.00    -0.254 OA
ATOM     25  H1  UNL     1      -4.181   1.266   2.047  1.00  0.00     0.248 HD
ENDBRANCH  20  24
ENDBRANCH  17  20
ENDBRANCH   1  14
TORSDOF 8
