REMARK  6 active torsions:
REMARK  status: ('A' for Active; 'I' for Inactive)
REMARK    1  A    between atoms: O1_1  and  C1_3 
REMARK    2  A    between atoms: C1_3  and  C2_4 
REMARK    3  A    between atoms: C7_11  and  C8_12 
REMARK    4  A    between atoms: C8_12  and  C9_13 
REMARK    5  A    between atoms: N1_17  and  C13_18 
REMARK    6  A    between atoms: C13_18  and  C14_19 
ROOT
HETATM    1  C9  UNL     1      -0.374  -1.041   0.004  1.00  0.00    -0.036 C 
HETATM    2  C10 UNL     1      -0.033  -1.427  -1.395  1.00  0.00     0.014 C 
HETATM    3  C11 UNL     1       1.390  -1.602  -1.719  1.00  0.00     0.045 C 
HETATM    4  C12 UNL     1       2.339  -0.532  -1.221  1.00  0.00     0.063 C 
HETATM    5  N1  UNL     1       2.540  -0.530   0.167  1.00  0.00    -0.369 N 
HETATM    6  C18 UNL     1       1.433  -0.610   1.028  1.00  0.00     0.089 C 
HETATM    7  C19 UNL     1       0.602  -1.845   0.897  1.00  0.00     0.035 C 
HETATM    8  C20 UNL     1       0.274   0.183   0.531  1.00  0.00     0.035 C 
ENDROOT
BRANCH   1   9
HETATM    9  C8  UNL     1      -1.787  -1.205   0.404  1.00  0.00     0.019 C 
BRANCH   9  10
HETATM   10  C7  UNL     1      -2.831  -0.482  -0.349  1.00  0.00     0.049 C 
HETATM   11  C2  UNL     1      -4.229  -0.758   0.189  1.00  0.00     0.152 C 
HETATM   12  O2  UNL     1      -4.434   0.127   1.221  1.00  0.00    -0.375 OA
HETATM   13  C3  UNL     1      -3.536   1.174   1.123  1.00  0.00     0.153 C 
HETATM   14  C4  UNL     1      -4.282   2.493   0.879  1.00  0.00     0.061 C 
HETATM   15  C6  UNL     1      -2.822   1.020  -0.199  1.00  0.00     0.157 C 
HETATM   16  C5  UNL     1      -4.608   2.347  -0.575  1.00  0.00     0.171 C 
HETATM   17  O3  UNL     1      -3.666   1.558  -1.167  1.00  0.00    -0.383 OA
BRANCH  11  18
HETATM   18  C1  UNL     1      -4.415  -2.182   0.595  1.00  0.00     0.196 C 
BRANCH  18  19
HETATM   19  O1  UNL     1      -5.726  -2.320   1.057  1.00  0.00    -0.398 OA
ATOM     20  H1  UNL     1      -5.844  -3.226   1.315  1.00  0.00     0.209 HD
ENDBRANCH  18  19
ENDBRANCH  11  18
ENDBRANCH   9  10
ENDBRANCH   1   9
BRANCH   5  21
HETATM   21  C13 UNL     1       3.830  -0.690   0.697  1.00  0.00     0.070 C 
BRANCH  21  22
HETATM   22  C14 UNL     1       4.816   0.394   0.543  1.00  0.00     0.050 C 
HETATM   23  C15 UNL     1       4.424   1.722   1.169  1.00  0.00     0.038 C 
HETATM   24  C16 UNL     1       5.503   2.605   0.539  1.00  0.00     0.168 C 
HETATM   25  O4  UNL     1       6.002   1.928  -0.564  1.00  0.00    -0.390 OA
HETATM   26  C17 UNL     1       5.145   0.855  -0.836  1.00  0.00     0.177 C 
ENDBRANCH  21  22
ENDBRANCH   5  21
TORSDOF 6
