REMARK  6 active torsions:
REMARK  status: ('A' for Active; 'I' for Inactive)
REMARK    1  A    between atoms: N1_2  and  C3_4 
REMARK    2  A    between atoms: C3_4  and  C4_5 
REMARK    3  A    between atoms: C4_5  and  N2_6 
REMARK    4  A    between atoms: N2_6  and  C5_8 
REMARK    5  A    between atoms: C6_11  and  C7_12 
REMARK    6  A    between atoms: C11_18  and  N5_19 
ROOT
HETATM    1  C5  UNL     1       0.293   0.397  -0.895  1.00  0.00     0.694 A 
HETATM    2  N3  UNL     1      -0.814   0.294  -0.161  1.00  0.00    -0.179 N 
ATOM      3  H3  UNL     1      -0.740   0.488   0.838  1.00  0.00     0.185 HD
HETATM    4  C6  UNL     1      -2.007  -0.043  -0.636  1.00  0.00     0.121 A 
HETATM    5  N4  UNL     1      -2.119  -0.296  -1.974  1.00  0.00    -0.179 N 
ATOM      6  H4  UNL     1      -3.024  -0.552  -2.370  1.00  0.00     0.185 HD
HETATM    7  C11 UNL     1      -1.030  -0.207  -2.777  1.00  0.00     0.691 A 
HETATM    8  N6  UNL     1       0.128   0.133  -2.233  1.00  0.00    -0.023 N 
ATOM      9  H6  UNL     1       0.944   0.203  -2.842  1.00  0.00     0.203 HD
ENDROOT
BRANCH   1  10
HETATM   10  N2  UNL     1       1.461   0.734  -0.487  1.00  0.00    -0.221 N 
ATOM     11  H2  UNL     1       2.220   0.768  -1.168  1.00  0.00     0.178 HD
BRANCH  10  12
HETATM   12  C4  UNL     1       1.753   1.062   0.860  1.00  0.00     0.182 C 
BRANCH  12  13
HETATM   13  C3  UNL     1       2.808   0.196   1.507  1.00  0.00     0.077 C 
BRANCH  13  14
HETATM   14  N1  UNL     1       4.098   0.248   0.942  1.00  0.00    -0.400 N 
HETATM   15  C1  UNL     1       5.040  -0.664   1.512  1.00  0.00     0.148 C 
HETATM   16  C2  UNL     1       4.267   0.415  -0.451  1.00  0.00     0.148 C 
ENDBRANCH  13  14
ENDBRANCH  12  13
ENDBRANCH  10  12
ENDBRANCH   1  10
BRANCH   4  17
HETATM   17  C7  UNL     1      -3.222  -0.157   0.187  1.00  0.00     0.009 C 
HETATM   18  C8  UNL     1      -4.438  -0.238  -0.724  1.00  0.00     0.022 C 
HETATM   19  C9  UNL     1      -3.119  -1.444   0.977  1.00  0.00     0.022 C 
HETATM   20  C10 UNL     1      -3.418   0.996   1.145  1.00  0.00     0.022 C 
ENDBRANCH   4  17
BRANCH   7  21
HETATM   21  N5  UNL     1      -1.147  -0.462  -4.050  1.00  0.00    -0.234 N 
ATOM     22  H52 UNL     1      -2.039  -0.724  -4.469  1.00  0.00     0.174 HD
ATOM     23  H51 UNL     1      -0.328  -0.395  -4.654  1.00  0.00     0.174 HD
ENDBRANCH   7  21
TORSDOF 6
