REMARK  2 active torsions:
REMARK  status: ('A' for Active; 'I' for Inactive)
REMARK    1  A    between atoms: C10_14  and  S1_15 
REMARK    2  A    between atoms: S1_15  and  N3_16 
ROOT
HETATM    1  N1  UNL     1       3.557   1.261  -1.377  1.00  0.00    -0.101 NA
HETATM    2  C1  UNL     1       2.650   0.963  -0.319  1.00  0.00     0.062 A 
HETATM    3  C2  UNL     1       2.886   1.396   0.968  1.00  0.00     0.118 A 
HETATM    4  N2  UNL     1       1.992   1.083   1.923  1.00  0.00    -0.331 N 
ATOM      5  H2  UNL     1       2.180   1.410   2.871  1.00  0.00     0.168 HD
HETATM    6  C3  UNL     1       0.869   0.371   1.721  1.00  0.00     0.256 A 
HETATM    7  O1  UNL     1       0.097   0.133   2.693  1.00  0.00    -0.267 OA
HETATM    8  C4  UNL     1       0.602  -0.077   0.448  1.00  0.00     0.045 A 
HETATM    9  C5  UNL     1      -0.562  -0.897   0.225  1.00  0.00     0.003 A 
HETATM   10  C6  UNL     1      -0.689  -2.129   0.888  1.00  0.00     0.014 A 
HETATM   11  C7  UNL     1      -1.729  -2.994   0.702  1.00  0.00     0.001 A 
HETATM   12  C8  UNL     1      -2.708  -2.644  -0.182  1.00  0.00     0.002 A 
HETATM   13  C9  UNL     1      -2.605  -1.450  -0.835  1.00  0.00     0.026 A 
HETATM   14  C10 UNL     1      -1.546  -0.550  -0.656  1.00  0.00     0.090 A 
HETATM   15  C11 UNL     1       1.479   0.217  -0.546  1.00  0.00     0.045 A 
ENDROOT
BRANCH  14  16
HETATM   16  S1  UNL     1      -1.606   0.933  -1.537  1.00  0.00     0.257 S 
HETATM   17  O2  UNL     1      -0.729   1.063  -2.706  1.00  0.00    -0.201 OA
HETATM   18  O3  UNL     1      -3.033   1.057  -2.119  1.00  0.00    -0.201 OA
BRANCH  16  19
HETATM   19  N3  UNL     1      -1.502   2.252  -0.412  1.00  0.00    -0.324 N 
ATOM     20  H32 UNL     1      -1.419   2.151   0.600  1.00  0.00     0.169 HD
ATOM     21  H31 UNL     1      -1.537   3.128  -0.933  1.00  0.00     0.169 HD
ENDBRANCH  16  19
ENDBRANCH  14  16
TORSDOF 2
