REMARK  5 active torsions:
REMARK  status: ('A' for Active; 'I' for Inactive)
REMARK    1  A    between atoms: N1_4  and  C3_5 
REMARK    2  A    between atoms: C3_5  and  C4_6 
REMARK    3  A    between atoms: C4_6  and  N2_7 
REMARK    4  A    between atoms: N2_7  and  C5_9 
REMARK    5  A    between atoms: C6_12  and  C7_13 
ROOT
HETATM    1  C5  UNL     1      -0.464   1.651  -1.165  1.00  0.00     0.144 A 
HETATM    2  N3  UNL     1      -1.112   0.676  -0.524  1.00  0.00    -0.340 N 
ATOM      3  H3  UNL     1      -0.606  -0.130  -0.156  1.00  0.00     0.168 HD
HETATM    4  C6  UNL     1      -2.405   0.774  -0.377  1.00  0.00     0.022 A 
HETATM    5  C12 UNL     1      -3.022   1.889  -0.900  1.00  0.00     0.078 A 
HETATM    6  S1  UNL     1      -1.707   2.736  -1.573  1.00  0.00    -0.064 SA
ENDROOT
BRANCH   1   7
HETATM    7  N2  UNL     1       0.795   1.790  -1.441  1.00  0.00    -0.369 N 
ATOM      8  H2  UNL     1       1.062   2.634  -1.947  1.00  0.00     0.161 HD
BRANCH   7   9
HETATM    9  C4  UNL     1       1.841   0.887  -1.111  1.00  0.00     0.152 C 
BRANCH   9  10
HETATM   10  C3  UNL     1       2.571   1.327   0.116  1.00  0.00     0.292 C 
BRANCH  10  11
HETATM   11  N1  UNL     1       3.651   0.459   0.500  1.00  0.00     0.097 N 
HETATM   12  C2  UNL     1       3.270  -0.830   0.969  1.00  0.00     0.338 C 
HETATM   13  C1  UNL     1       4.337  -1.875   0.685  1.00  0.00     0.335 C 
HETATM   14  F1  UNL     1       4.168  -2.911   1.594  1.00  0.00    -0.218 F 
HETATM   15  O1  UNL     1       5.619  -1.387   0.855  1.00  0.00    -0.353 OA
HETATM   16  C14 UNL     1       5.889  -0.265   0.089  1.00  0.00     0.201 C 
HETATM   17  C13 UNL     1       4.634   0.294  -0.554  1.00  0.00     0.298 C 
ENDBRANCH  10  11
ENDBRANCH   9  10
ENDBRANCH   7   9
ENDBRANCH   1   7
BRANCH   4  18
HETATM   18  C7  UNL     1      -3.203  -0.309   0.348  1.00  0.00     0.036 C 
HETATM   19  C8  UNL     1      -4.024   0.331   1.407  1.00  0.00     0.011 C 
HETATM   20  C9  UNL     1      -5.409  -0.306   1.339  1.00  0.00     0.001 C 
HETATM   21  C10 UNL     1      -5.237  -1.483   0.368  1.00  0.00     0.001 C 
HETATM   22  C11 UNL     1      -4.253  -0.864  -0.609  1.00  0.00     0.011 C 
ENDBRANCH   4  18
TORSDOF 5
