REMARK  9 active torsions:
REMARK  status: ('A' for Active; 'I' for Inactive)
REMARK    1  A    between atoms: C2_2  and  C3_3 
REMARK    2  A    between atoms: C2_2  and  C15_20 
REMARK    3  A    between atoms: C4_4  and  C5_5 
REMARK       I    between atoms: C5_5  and  N1_7 
REMARK    4  A    between atoms: N1_7  and  C6_9 
REMARK    5  A    between atoms: C13_16  and  O2_18 
REMARK    6  A    between atoms: C15_20  and  C16_21 
REMARK    7  A    between atoms: C16_21  and  N2_22 
REMARK    8  A    between atoms: C16_21  and  C17_26 
REMARK       I    between atoms: C17_26  and  N3_28 
REMARK    9  A    between atoms: N3_28  and  C18_30 
ROOT
HETATM    1  C15 UNL     1      -1.070  -0.292  -2.218  1.00  0.00     0.051 C 
ENDROOT
BRANCH   1   2
HETATM    2  C2  UNL     1       0.322  -0.582  -2.579  1.00  0.00     0.006 C 
HETATM    3  C1  UNL     1       0.634   0.469  -3.753  1.00  0.00     0.014 C 
BRANCH   2   4
HETATM    4  C3  UNL     1       1.419  -0.286  -1.655  1.00  0.00    -0.017 C 
HETATM    5  C4  UNL     1       1.472   0.325  -0.521  1.00  0.00     0.070 C 
BRANCH   5   6
HETATM    6  C5  UNL     1       2.686   0.511   0.258  1.00  0.00     0.241 C 
HETATM    7  O1  UNL     1       2.666   1.125   1.374  1.00  0.00    -0.269 OA
HETATM    8  N1  UNL     1       3.924   0.021  -0.187  1.00  0.00    -0.350 N 
ATOM      9  H1  UNL     1       3.988  -0.479  -1.074  1.00  0.00     0.163 HD
BRANCH   8  10
HETATM   10  C6  UNL     1       5.122   0.229   0.625  1.00  0.00     0.122 C 
HETATM   11  C7  UNL     1       6.099   1.120  -0.148  1.00  0.00     0.007 C 
HETATM   12  C8  UNL     1       5.342   2.219  -0.859  1.00  0.00     0.012 C 
HETATM   13  C9  UNL     1       7.074   1.660   0.859  1.00  0.00     0.007 C 
HETATM   14  C10 UNL     1       7.255   0.730   2.031  1.00  0.00     0.007 C 
HETATM   15  C11 UNL     1       7.112  -0.715   1.653  1.00  0.00     0.018 C 
HETATM   16  C12 UNL     1       8.303  -1.178   0.846  1.00  0.00     0.013 C 
HETATM   17  C13 UNL     1       5.826  -1.042   0.968  1.00  0.00     0.078 C 
HETATM   18  C14 UNL     1       4.927  -1.947   1.780  1.00  0.00     0.048 C 
BRANCH  17  19
HETATM   19  O2  UNL     1       6.091  -1.719  -0.234  1.00  0.00    -0.388 OA
ATOM     20  H2  UNL     1       6.539  -2.528  -0.016  1.00  0.00     0.210 HD
ENDBRANCH  17  19
ENDBRANCH   8  10
ENDBRANCH   5   6
ENDBRANCH   2   4
ENDBRANCH   1   2
BRANCH   1  21
HETATM   21  C16 UNL     1      -1.789  -1.157  -1.263  1.00  0.00     0.275 C 
BRANCH  21  22
HETATM   22  N2  UNL     1      -1.217  -1.255   0.023  1.00  0.00    -0.066 N 
ATOM     23  H23 UNL     1      -0.244  -1.551  -0.051  1.00  0.00     0.275 HD
ATOM     24  H22 UNL     1      -1.094  -0.324   0.421  1.00  0.00     0.275 HD
ATOM     25  H21 UNL     1      -1.714  -1.853   0.683  1.00  0.00     0.275 HD
ENDBRANCH  21  22
BRANCH  21  26
HETATM   26  C17 UNL     1      -3.229  -0.727  -1.102  1.00  0.00     0.248 C 
HETATM   27  O3  UNL     1      -3.864  -0.520  -2.160  1.00  0.00    -0.271 OA
HETATM   28  N3  UNL     1      -3.866  -0.553   0.133  1.00  0.00    -0.350 N 
ATOM     29  H3  UNL     1      -3.318  -0.731   0.975  1.00  0.00     0.163 HD
BRANCH  28  30
HETATM   30  C18 UNL     1      -5.232  -0.143   0.306  1.00  0.00     0.034 C 
HETATM   31  C19 UNL     1      -5.519   1.215  -0.295  1.00  0.00     0.035 C 
HETATM   32  C20 UNL     1      -6.890   1.680   0.109  1.00  0.00    -0.012 C 
HETATM   33  C21 UNL     1      -7.886   0.738  -0.567  1.00  0.00     0.009 C 
HETATM   34  C25 UNL     1      -7.073   1.702   1.594  1.00  0.00     0.009 C 
HETATM   35  C22 UNL     1      -7.615  -0.644  -0.042  1.00  0.00    -0.012 C 
HETATM   36  C23 UNL     1      -7.912  -0.661   1.422  1.00  0.00     0.009 C 
HETATM   37  C27 UNL     1      -6.197  -1.113  -0.354  1.00  0.00     0.035 C 
HETATM   38  C24 UNL     1      -6.946   0.286   2.109  1.00  0.00    -0.012 C 
HETATM   39  C26 UNL     1      -5.552  -0.183   1.784  1.00  0.00     0.035 C 
ENDBRANCH  28  30
ENDBRANCH  21  26
ENDBRANCH   1  21
TORSDOF 9
