REMARK  10 active torsions:
REMARK  status: ('A' for Active; 'I' for Inactive)
REMARK    1  A    between atoms: C7_9  and  C8_10 
REMARK    2  A    between atoms: C8_10  and  C9_11 
REMARK    3  A    between atoms: C9_11  and  C10_12 
REMARK    4  A    between atoms: C10_12  and  C11_13 
REMARK    5  A    between atoms: C11_13  and  N2_14 
REMARK       I    between atoms: N2_14  and  C12_16 
REMARK    6  A    between atoms: C12_16  and  O2_18 
REMARK    7  A    between atoms: O2_18  and  C13_19 
REMARK    8  A    between atoms: C19_25  and  C20_26 
REMARK    9  A    between atoms: C20_26  and  O3_27 
REMARK   10  A    between atoms: C23_31  and  O4_32 
ROOT
HETATM    1  C13 UNL     1      -1.715   0.813  -0.574  1.00  0.00     0.138 C 
HETATM    2  C14 UNL     1      -1.405   0.675  -2.074  1.00  0.00     0.035 C 
HETATM    3  C15 UNL     1      -2.533   0.011  -2.831  1.00  0.00     0.036 C 
HETATM    4  C16 UNL     1      -3.882   0.520  -2.417  1.00  0.00     0.190 C 
HETATM    5  C17 UNL     1      -3.598   1.844  -1.691  1.00  0.00     0.041 C 
HETATM    6  C18 UNL     1      -2.982   1.514  -0.344  1.00  0.00     0.030 C 
HETATM    7  C19 UNL     1      -4.061   0.896   0.479  1.00  0.00     0.016 C 
HETATM    8  C21 UNL     1      -4.819   2.111   1.098  1.00  0.00     0.017 C 
HETATM    9  C22 UNL     1      -6.284   1.921   1.142  1.00  0.00     0.032 C 
HETATM   10  C23 UNL     1      -6.828   0.554   1.257  1.00  0.00     0.120 C 
HETATM   11  C24 UNL     1      -6.124  -0.470   0.392  1.00  0.00     0.066 C 
HETATM   12  C25 UNL     1      -5.084   0.255  -0.412  1.00  0.00     0.203 C 
HETATM   13  N3  UNL     1      -4.649  -0.393  -1.603  1.00  0.00    -0.065 N 
HETATM   14  C26 UNL     1      -5.912  -0.591  -2.375  1.00  0.00     0.273 C 
HETATM   15  C27 UNL     1      -4.158  -1.709  -1.497  1.00  0.00     0.273 C 
ENDROOT
BRANCH   1  16
HETATM   16  O2  UNL     1      -0.582   1.488  -0.038  1.00  0.00    -0.298 OA
BRANCH  16  17
HETATM   17  C12 UNL     1       0.408   0.939   0.718  1.00  0.00     0.360 C 
HETATM   18  N2  UNL     1       1.510   1.679   1.225  1.00  0.00    -0.337 N 
ATOM     19  H2  UNL     1       1.558   2.675   1.010  1.00  0.00     0.164 HD
HETATM   20  O1  UNL     1       0.344  -0.282   0.979  1.00  0.00    -0.239 OA
BRANCH  18  21
HETATM   21  C11 UNL     1       2.553   1.115   2.016  1.00  0.00     0.125 C 
BRANCH  21  22
HETATM   22  C10 UNL     1       3.334   0.011   1.313  1.00  0.00     0.020 C 
BRANCH  22  23
HETATM   23  C9  UNL     1       4.382  -0.443   2.313  1.00  0.00     0.002 C 
BRANCH  23  24
HETATM   24  C8  UNL     1       5.263  -1.537   1.817  1.00  0.00     0.010 C 
BRANCH  24  25
HETATM   25  C7  UNL     1       6.018  -1.106   0.589  1.00  0.00     0.030 C 
HETATM   26  C2  UNL     1       6.902  -2.204   0.094  1.00  0.00    -0.018 C 
HETATM   27  C1  UNL     1       6.800  -3.536   0.746  1.00  0.00     0.063 C 
HETATM   28  N1  UNL     1       7.697  -1.926  -0.867  1.00  0.00    -0.392 N 
HETATM   29  C3  UNL     1       7.650  -0.560  -1.373  1.00  0.00     0.077 C 
ATOM     30  H1  UNL     1       8.331  -2.623  -1.259  1.00  0.00     0.159 HD
HETATM   31  C4  UNL     1       8.747  -0.385  -2.371  1.00  0.00     0.032 C 
HETATM   32  C5  UNL     1       7.933   0.311  -0.142  1.00  0.00     0.025 C 
HETATM   33  C6  UNL     1       6.950   0.048   0.958  1.00  0.00     0.012 C 
ENDBRANCH  24  25
ENDBRANCH  23  24
ENDBRANCH  22  23
ENDBRANCH  21  22
ENDBRANCH  18  21
ENDBRANCH  16  17
ENDBRANCH   1  16
BRANCH   7  34
HETATM   34  C20 UNL     1      -3.657   0.143   1.672  1.00  0.00     0.176 C 
BRANCH  34  35
HETATM   35  O3  UNL     1      -2.876  -0.946   1.608  1.00  0.00    -0.400 OA
ATOM     36  H3  UNL     1      -2.614  -1.433   2.380  1.00  0.00     0.209 HD
ENDBRANCH  34  35
ENDBRANCH   7  34
BRANCH  10  37
HETATM   37  O4  UNL     1      -8.169   0.580   0.836  1.00  0.00    -0.396 OA
ATOM     38  H4  UNL     1      -8.519  -0.300   0.910  1.00  0.00     0.210 HD
ENDBRANCH  10  37
TORSDOF 10
