REMARK  16 active torsions:
REMARK  status: ('A' for Active; 'I' for Inactive)
REMARK    1  A    between atoms: C2_2  and  O1_3 
REMARK    2  A    between atoms: O1_3  and  C3_4 
REMARK    3  A    between atoms: C3_4  and  O2_5 
REMARK    4  A    between atoms: C8_15  and  C9_16 
REMARK    5  A    between atoms: C8_15  and  C11_18 
REMARK    6  A    between atoms: C12_22  and  N3_23 
REMARK    7  A    between atoms: N3_23  and  C13_25 
REMARK    8  A    between atoms: C14_26  and  O7_27 
REMARK    9  A    between atoms: C15_29  and  N4_30 
REMARK   10  A    between atoms: C17_35  and  N5_36 
REMARK   11  A    between atoms: C18_40  and  N6_41 
REMARK   12  A    between atoms: N6_41  and  C19_43 
REMARK   13  A    between atoms: C19_43  and  N7_44 
REMARK   14  A    between atoms: C19_43  and  O8_48 
REMARK   15  A    between atoms: C20_50  and  N8_51 
REMARK   16  A    between atoms: N8_51  and  O9_52 
ROOT
HETATM    1  C3  UNL     1      -2.872  -1.768  -0.800  1.00  0.00     0.244 C 
HETATM    2  C4  UNL     1      -1.897  -1.260  -1.941  1.00  0.00     0.246 C 
HETATM    3  O3  UNL     1      -2.289   0.095  -1.841  1.00  0.00    -0.356 OA
HETATM    4  C5  UNL     1      -2.011   0.438  -0.517  1.00  0.00     0.216 C 
HETATM    5  C6  UNL     1      -2.901   1.496  -0.074  1.00  0.00     0.136 C 
HETATM    6  C7  UNL     1      -4.257   1.213   0.358  1.00  0.00     0.117 C 
HETATM    7  N1  UNL     1      -5.360   1.009   0.718  1.00  0.00    -0.190 NA
HETATM    8  N2  UNL     1      -2.472   2.686  -0.045  1.00  0.00    -0.341 N 
ATOM      9  H2  UNL     1      -3.106   3.422   0.264  1.00  0.00     0.163 HD
HETATM   10  C8  UNL     1      -1.163   3.044  -0.418  1.00  0.00     0.227 C 
HETATM   11  O6  UNL     1      -0.191   2.058  -0.287  1.00  0.00    -0.322 OA
HETATM   12  C12 UNL     1      -0.543   0.761  -0.321  1.00  0.00     0.273 C 
HETATM   13  C20 UNL     1      -2.417  -0.835   0.243  1.00  0.00     0.204 C 
ENDROOT
BRANCH  12  14
HETATM   14  N3  UNL     1      -0.058  -0.047   0.746  1.00  0.00    -0.363 N 
ATOM     15  H3  UNL     1      -0.721  -0.567   1.321  1.00  0.00     0.162 HD
BRANCH  14  16
HETATM   16  C13 UNL     1       1.331  -0.144   1.026  1.00  0.00     0.040 C 
HETATM   17  C14 UNL     1       1.968   1.171   1.462  1.00  0.00     0.196 C 
HETATM   18  C15 UNL     1       2.981   0.803   2.561  1.00  0.00     0.219 C 
HETATM   19  C16 UNL     1       3.445  -0.617   2.405  1.00  0.00     0.071 C 
HETATM   20  C17 UNL     1       3.536  -1.112   1.002  1.00  0.00     0.213 C 
HETATM   21  C18 UNL     1       2.234  -0.969   0.205  1.00  0.00     0.159 C 
BRANCH  17  22
HETATM   22  O7  UNL     1       2.571   1.858   0.437  1.00  0.00    -0.388 OA
ATOM     23  H7  UNL     1       2.968   2.677   0.709  1.00  0.00     0.210 HD
ENDBRANCH  17  22
BRANCH  18  24
HETATM   24  N4  UNL     1       4.012   1.769   2.737  1.00  0.00    -0.072 N 
ATOM     25  H43 UNL     1       4.489   1.950   1.854  1.00  0.00     0.274 HD
ATOM     26  H42 UNL     1       3.614   2.692   2.909  1.00  0.00     0.274 HD
ATOM     27  H41 UNL     1       4.683   1.525   3.465  1.00  0.00     0.274 HD
ENDBRANCH  18  24
BRANCH  20  28
HETATM   28  N5  UNL     1       4.645  -0.433   0.395  1.00  0.00    -0.073 N 
ATOM     29  H53 UNL     1       4.579   0.583   0.460  1.00  0.00     0.274 HD
ATOM     30  H52 UNL     1       5.515  -0.539   0.916  1.00  0.00     0.274 HD
ATOM     31  H51 UNL     1       4.707  -0.772  -0.565  1.00  0.00     0.274 HD
ENDBRANCH  20  28
BRANCH  21  32
HETATM   32  N6  UNL     1       2.579  -0.626  -1.098  1.00  0.00    -0.364 N 
ATOM     33  H6  UNL     1       2.809   0.339  -1.335  1.00  0.00     0.158 HD
BRANCH  32  34
HETATM   34  C19 UNL     1       2.607  -1.645  -2.100  1.00  0.00     0.420 C 
BRANCH  34  35
HETATM   35  N7  UNL     1       3.512  -2.719  -1.837  1.00  0.00    -0.035 N 
ATOM     36  H73 UNL     1       4.452  -2.357  -1.674  1.00  0.00     0.279 HD
ATOM     37  H72 UNL     1       3.319  -3.128  -0.923  1.00  0.00     0.279 HD
ATOM     38  H71 UNL     1       3.532  -3.446  -2.552  1.00  0.00     0.279 HD
ENDBRANCH  34  35
BRANCH  34  39
HETATM   39  O8  UNL     1       2.978  -1.007  -3.288  1.00  0.00    -0.355 OA
ATOM     40  H8  UNL     1       2.997  -1.684  -3.954  1.00  0.00     0.213 HD
ENDBRANCH  34  39
ENDBRANCH  32  34
ENDBRANCH  21  32
ENDBRANCH  14  16
ENDBRANCH  12  14
BRANCH  13  41
HETATM   41  N8  UNL     1      -2.367  -1.025   1.438  1.00  0.00    -0.283 NA
BRANCH  41  42
HETATM   42  O9  UNL     1      -2.414  -1.465   2.612  1.00  0.00    -0.218 OA
ATOM     43  H9  UNL     1      -2.375  -1.614   3.549  1.00  0.00     0.261 HD
ENDBRANCH  41  42
ENDBRANCH  13  41
BRANCH  10  44
HETATM   44  C9  UNL     1      -1.094   3.504  -1.851  1.00  0.00     0.069 C 
HETATM   45  C10 UNL     1      -1.977   4.676  -2.105  1.00  0.00     0.010 C 
ENDBRANCH  10  44
BRANCH  10  46
HETATM   46  C11 UNL     1      -0.802   4.229   0.427  1.00  0.00     0.231 C 
HETATM   47  O4  UNL     1       0.299   4.359   0.957  1.00  0.00    -0.644 OA
HETATM   48  O5  UNL     1      -1.793   5.203   0.596  1.00  0.00    -0.644 OA
ENDBRANCH  10  46
BRANCH   1  49
HETATM   49  O1  UNL     1      -2.680  -3.094  -0.639  1.00  0.00    -0.348 OA
BRANCH  49  50
HETATM   50  C2  UNL     1      -3.651  -3.684   0.138  1.00  0.00     0.167 C 
HETATM   51  C1  UNL     1      -3.407  -5.179   0.314  1.00  0.00     0.033 C 
ENDBRANCH  49  50
ENDBRANCH   1  49
BRANCH   1  52
HETATM   52  O2  UNL     1      -4.118  -1.471  -1.371  1.00  0.00    -0.358 OA
ATOM     53  H2  UNL     1      -4.253  -0.538  -1.484  1.00  0.00     0.213 HD
ENDBRANCH   1  52
TORSDOF 16
