REMARK  7 active torsions:
REMARK  status: ('A' for Active; 'I' for Inactive)
REMARK    1  A    between atoms: C3_3  and  S1_6 
REMARK    2  A    between atoms: S1_6  and  C6_7 
REMARK    3  A    between atoms: C6_7  and  C7_8 
REMARK    4  A    between atoms: C8_9  and  C9_10 
REMARK    5  A    between atoms: C9_10  and  C10_11 
REMARK    6  A    between atoms: C12_14  and  C13_15 
REMARK    7  A    between atoms: C13_15  and  N1_16 
ROOT
HETATM    1  C1  UNL     1       3.417  -2.431   0.661  1.00  0.00     0.098 C 
HETATM    2  C2  UNL     1       4.159  -1.668   0.051  1.00  0.00    -0.167 C 
HETATM    3  C3  UNL     1       5.063  -0.797  -0.685  1.00  0.00     0.052 C 
HETATM    4  C4  UNL     1       6.163  -0.347   0.269  1.00  0.00     0.039 C 
HETATM    5  C5  UNL     1       5.778  -1.574  -1.790  1.00  0.00     0.039 C 
ENDROOT
BRANCH   3   6
HETATM    6  S1  UNL     1       4.227   0.617  -1.389  1.00  0.00    -0.136 SA
BRANCH   6   7
HETATM    7  C6  UNL     1       3.678   1.774  -0.170  1.00  0.00     0.169 C 
BRANCH   7   8
HETATM    8  C7  UNL     1       2.586   1.262   0.639  1.00  0.00    -0.096 C 
HETATM    9  C8  UNL     1       1.656   0.864   1.316  1.00  0.00    -0.101 C 
BRANCH   9  10
HETATM   10  C9  UNL     1       0.544   0.361   2.118  1.00  0.00     0.133 C 
BRANCH  10  11
HETATM   11  C10 UNL     1      -0.732   1.003   1.600  1.00  0.00    -0.040 A 
HETATM   12  C11 UNL     1      -1.138   2.185   2.167  1.00  0.00     0.058 A 
HETATM   13  S2  UNL     1      -2.579   2.524   1.290  1.00  0.00    -0.104 SA
HETATM   14  C12 UNL     1      -2.612   1.173   0.252  1.00  0.00     0.009 A 
HETATM   15  C17 UNL     1      -1.502   0.499   0.618  1.00  0.00     0.024 A 
BRANCH  14  16
HETATM   16  C13 UNL     1      -3.667   0.949  -0.737  1.00  0.00     0.282 C 
BRANCH  16  17
HETATM   17  N1  UNL     1      -4.553  -0.135  -0.478  1.00  0.00    -0.074 N 
HETATM   18  C14 UNL     1      -4.885  -0.210   0.910  1.00  0.00     0.272 C 
HETATM   19  C15 UNL     1      -4.093  -1.397  -1.021  1.00  0.00     0.272 C 
HETATM   20  C16 UNL     1      -5.799   0.166  -1.202  1.00  0.00     0.272 C 
ENDBRANCH  16  17
ENDBRANCH  14  16
ENDBRANCH  10  11
ENDBRANCH   9  10
ENDBRANCH   7   8
ENDBRANCH   6   7
ENDBRANCH   3   6
TORSDOF 7
