REMARK  3 active torsions:
REMARK  status: ('A' for Active; 'I' for Inactive)
REMARK    1  A    between atoms: C2_2  and  N1_3 
REMARK    2  A    between atoms: N1_3  and  C4_5 
REMARK    3  A    between atoms: C8_10  and  O2_11 
ROOT
HETATM    1  C4  UNL     1       0.518   0.106   0.021  1.00  0.00     0.150 C 
HETATM    2  C5  UNL     1      -0.620   0.398  -0.926  1.00  0.00     0.029 C 
HETATM    3  C6  UNL     1      -1.455  -0.780  -1.285  1.00  0.00     0.017 C 
HETATM    4  C7  UNL     1      -0.903  -2.125  -1.005  1.00  0.00     0.176 C 
HETATM    5  O1  UNL     1       0.029  -2.177   0.009  1.00  0.00    -0.353 OA
HETATM    6  C8  UNL     1       0.004  -1.063   0.838  1.00  0.00     0.183 C 
HETATM    7  C9  UNL     1      -1.334  -0.794   1.449  1.00  0.00     0.076 C 
HETATM    8  C10 UNL     1      -2.247   0.104   0.712  1.00  0.00     0.000 C 
HETATM    9  C11 UNL     1      -2.775  -0.679  -0.505  1.00  0.00     0.012 C 
HETATM   10  C12 UNL     1      -1.593   1.219  -0.060  1.00  0.00    -0.030 A 
HETATM   11  C13 UNL     1      -2.321   2.358  -0.585  1.00  0.00     0.011 A 
HETATM   12  C14 UNL     1      -1.214   2.502   0.512  1.00  0.00     0.011 A 
ENDROOT
BRANCH   1  13
HETATM   13  N1  UNL     1       1.771  -0.068  -0.543  1.00  0.00    -0.388 N 
HETATM   14  C3  UNL     1       1.947  -0.620  -1.820  1.00  0.00     0.149 C 
BRANCH  13  15
HETATM   15  C2  UNL     1       2.898   0.015   0.297  1.00  0.00     0.054 C 
HETATM   16  C1  UNL     1       3.959   0.988  -0.161  1.00  0.00     0.054 C 
ENDBRANCH  13  15
ENDBRANCH   1  13
BRANCH   6  17
HETATM   17  O2  UNL     1       0.935  -1.308   1.845  1.00  0.00    -0.364 OA
ATOM     18  H2  UNL     1       0.613  -2.041   2.357  1.00  0.00     0.213 HD
ENDBRANCH   6  17
TORSDOF 3
