REMARK  1 active torsions:
REMARK  status: ('A' for Active; 'I' for Inactive)
REMARK    1  A    between atoms: O1_2  and  C2_3 
ROOT
HETATM    1  C2  UNL     1       2.033  -0.362  -0.456  1.00  0.00     0.265 C 
HETATM    2  C3  UNL     1       0.795  -1.043   0.053  1.00  0.00     0.101 C 
HETATM    3  C4  UNL     1      -0.437  -0.156  -0.034  1.00  0.00     0.096 C 
HETATM    4  C5  UNL     1      -1.319  -0.530   1.144  1.00  0.00     0.041 C 
HETATM    5  C6  UNL     1      -2.762  -0.326   0.896  1.00  0.00     0.005 C 
HETATM    6  C7  UNL     1      -3.111   0.432  -0.332  1.00  0.00     0.026 C 
HETATM    7  C8  UNL     1      -2.197   0.249  -1.484  1.00  0.00     0.169 C 
HETATM    8  O2  UNL     1      -1.048  -0.440  -1.236  1.00  0.00    -0.377 OA
HETATM    9  C9  UNL     1      -0.087   1.303   0.132  1.00  0.00     0.214 A 
HETATM   10  O3  UNL     1       1.071   1.477   0.985  1.00  0.00    -0.345 OA
HETATM   11  C10 UNL     1       1.152   1.748  -0.379  1.00  0.00     0.295 A 
HETATM   12  O4  UNL     1       1.762   0.785  -1.192  1.00  0.00    -0.329 OA
ENDROOT
BRANCH   1  13
HETATM   13  O1  UNL     1       2.890  -0.043   0.589  1.00  0.00    -0.366 OA
HETATM   14  C1  UNL     1       4.091  -0.688   0.424  1.00  0.00     0.204 C 
ENDBRANCH   1  13
TORSDOF 1
