REMARK  9 active torsions:
REMARK  status: ('A' for Active; 'I' for Inactive)
REMARK    1  A    between atoms: O1_2  and  C2_3 
REMARK    2  A    between atoms: C4_5  and  C5_6 
REMARK    3  A    between atoms: C5_6  and  C6_7 
REMARK    4  A    between atoms: C6_7  and  N1_8 
REMARK       I    between atoms: N1_8  and  C7_10 
REMARK    5  A    between atoms: C7_10  and  C8_12 
REMARK    6  A    between atoms: C12_18  and  N3_19 
REMARK    7  A    between atoms: N3_19  and  C13_21 
REMARK    8  A    between atoms: N5_30  and  C19_31 
REMARK    9  A    between atoms: C30_44  and  O4_45 
ROOT
HETATM    1  C8  UNL     1       0.807  -0.170  -0.472  1.00  0.00     0.101 A 
HETATM    2  C9  UNL     1       0.461   1.159  -0.472  1.00  0.00     0.037 A 
HETATM    3  C10 UNL     1      -0.856   1.552  -0.484  1.00  0.00     0.008 A 
HETATM    4  C11 UNL     1      -1.228   2.873  -0.478  1.00  0.00     0.103 A 
HETATM    5  N2  UNL     1      -2.510   3.271  -0.485  1.00  0.00    -0.352 N 
ATOM      6  H2  UNL     1      -2.748   4.263  -0.481  1.00  0.00     0.166 HD
HETATM    7  C12 UNL     1      -3.471   2.335  -0.497  1.00  0.00     0.103 A 
HETATM    8  C17 UNL     1      -3.188   0.966  -0.504  1.00  0.00     0.079 A 
HETATM    9  C18 UNL     1      -1.873   0.576  -0.498  1.00  0.00     0.057 A 
HETATM   10  N5  UNL     1      -1.537  -0.751  -0.499  1.00  0.00    -0.285 N 
HETATM   11  C27 UNL     1      -0.228  -1.081  -0.486  1.00  0.00     0.268 A 
HETATM   12  O3  UNL     1       0.074  -2.277  -0.485  1.00  0.00    -0.267 OA
ENDROOT
BRANCH   1  13
HETATM   13  C7  UNL     1       2.197  -0.621  -0.459  1.00  0.00     0.257 C 
HETATM   14  N1  UNL     1       3.163   0.087   0.284  1.00  0.00    -0.356 N 
ATOM     15  H1  UNL     1       2.890   0.916   0.812  1.00  0.00     0.162 HD
HETATM   16  O2  UNL     1       2.552  -1.637  -1.102  1.00  0.00    -0.267 OA
BRANCH  14  17
HETATM   17  C6  UNL     1       4.536  -0.355   0.302  1.00  0.00     0.127 C 
BRANCH  17  18
HETATM   18  C5  UNL     1       5.395   0.546   1.158  1.00  0.00     0.058 C 
BRANCH  18  19
HETATM   19  C4  UNL     1       6.787   0.052   1.143  1.00  0.00    -0.051 A 
HETATM   20  C3  UNL     1       7.708   0.479   0.198  1.00  0.00     0.047 A 
HETATM   21  C2  UNL     1       9.003   0.025   0.176  1.00  0.00     0.104 A 
HETATM   22  C30 UNL     1       9.390  -0.889   1.132  1.00  0.00     0.138 A 
HETATM   23  C29 UNL     1       8.492  -1.328   2.082  1.00  0.00     0.152 A 
HETATM   24  C28 UNL     1       7.182  -0.870   2.106  1.00  0.00     0.052 A 
HETATM   25  F1  UNL     1       8.895  -2.228   3.014  1.00  0.00    -0.203 F 
BRANCH  21  26
HETATM   26  O1  UNL     1       9.871   0.483  -0.785  1.00  0.00    -0.353 OA
HETATM   27  C1  UNL     1       9.541   1.406  -1.777  1.00  0.00     0.210 C 
ENDBRANCH  21  26
BRANCH  22  28
HETATM   28  O4  UNL     1      10.685  -1.386   1.161  1.00  0.00    -0.355 OA
ATOM     29  H4  UNL     1      10.952  -2.016   1.820  1.00  0.00     0.218 HD
ENDBRANCH  22  28
ENDBRANCH  18  19
ENDBRANCH  17  18
ENDBRANCH  14  17
ENDBRANCH   1  13
BRANCH  10  30
HETATM   30  C19 UNL     1      -2.551  -1.749  -0.525  1.00  0.00    -0.002 C 
HETATM   31  C20 UNL     1      -2.225  -3.037  -1.227  1.00  0.00     0.053 C 
HETATM   32  C21 UNL     1      -3.515  -3.674  -1.729  1.00  0.00     0.006 C 
HETATM   33  C22 UNL     1      -3.857  -4.880  -0.896  1.00  0.00     0.000 C 
HETATM   34  C23 UNL     1      -4.395  -4.552   0.472  1.00  0.00     0.000 C 
HETATM   35  C24 UNL     1      -3.272  -4.384   1.437  1.00  0.00     0.000 C 
HETATM   36  C25 UNL     1      -2.792  -3.006   1.680  1.00  0.00     0.006 C 
HETATM   37  C26 UNL     1      -3.235  -1.923   0.793  1.00  0.00     0.053 C 
ENDBRANCH  10  30
BRANCH   7  38
HETATM   38  N3  UNL     1      -4.712   2.650  -0.503  1.00  0.00    -0.370 N 
ATOM     39  H3  UNL     1      -5.384   1.883  -0.513  1.00  0.00     0.161 HD
BRANCH  38  40
HETATM   40  C13 UNL     1      -5.243   3.976  -0.497  1.00  0.00     0.110 C 
HETATM   41  C14 UNL     1      -5.550   4.495   0.884  1.00  0.00     0.054 C 
HETATM   42  C15 UNL     1      -6.763   5.360   0.669  1.00  0.00     0.234 C 
HETATM   43  N4  UNL     1      -7.237   5.119  -0.657  1.00  0.00    -0.073 N 
HETATM   44  C16 UNL     1      -6.641   3.903  -1.116  1.00  0.00     0.257 C 
ATOM     45  H42 UNL     1      -8.255   5.110  -0.719  1.00  0.00     0.277 HD
ATOM     46  H41 UNL     1      -7.071   5.904  -1.286  1.00  0.00     0.277 HD
ENDBRANCH  38  40
ENDBRANCH   7  38
TORSDOF 9
