REMARK  7 active torsions:
REMARK  status: ('A' for Active; 'I' for Inactive)
REMARK       I    between atoms: N1_2  and  C2_4 
REMARK    1  A    between atoms: C2_4  and  C3_6 
REMARK    2  A    between atoms: C5_9  and  N2_10 
REMARK    3  A    between atoms: C6_13  and  N3_14 
REMARK    4  A    between atoms: N3_14  and  C7_16 
REMARK    5  A    between atoms: C7_16  and  C8_17 
REMARK    6  A    between atoms: C12_21  and  C13_22 
REMARK    7  A    between atoms: C18_31  and  C19_32 
ROOT
HETATM    1  C3  UNL     1       4.051   0.477   0.543  1.00  0.00     0.161 A 
HETATM    2  O2  UNL     1       2.878   0.978   0.926  1.00  0.00    -0.300 OA
HETATM    3  C4  UNL     1       1.886   0.438   0.322  1.00  0.00     0.124 A 
HETATM    4  C5  UNL     1       0.515   0.682   0.440  1.00  0.00     0.165 A 
HETATM    5  C6  UNL     1      -0.329  -0.064  -0.349  1.00  0.00     0.083 A 
HETATM    6  C15 UNL     1       0.191  -1.017  -1.221  1.00  0.00     0.058 A 
HETATM    7 BR1  UNL     1      -0.988  -2.030  -2.293  1.00  0.00    -0.047 Br
HETATM    8  C16 UNL     1       1.541  -1.234  -1.314  1.00  0.00     0.044 A 
HETATM    9 BR2  UNL     1       2.267  -2.540  -2.511  1.00  0.00    -0.049 Br
HETATM   10  C17 UNL     1       2.394  -0.503  -0.538  1.00  0.00     0.039 A 
HETATM   11  C18 UNL     1       3.780  -0.484  -0.402  1.00  0.00     0.094 A 
ENDROOT
BRANCH   5  12
HETATM   12  N3  UNL     1      -1.749   0.123  -0.281  1.00  0.00    -0.382 N 
ATOM     13  H3  UNL     1      -2.164   0.863  -0.847  1.00  0.00     0.160 HD
BRANCH  12  14
HETATM   14  C7  UNL     1      -2.614  -0.667   0.533  1.00  0.00     0.158 C 
BRANCH  14  15
HETATM   15  C8  UNL     1      -4.034  -0.248   0.434  1.00  0.00    -0.040 A 
HETATM   16  C9  UNL     1      -4.591   0.556   1.419  1.00  0.00     0.009 A 
HETATM   17  C10 UNL     1      -5.899   0.958   1.345  1.00  0.00     0.002 A 
HETATM   18  C11 UNL     1      -6.703   0.580   0.295  1.00  0.00     0.018 A 
HETATM   19  C12 UNL     1      -6.186  -0.218  -0.701  1.00  0.00     0.041 A 
HETATM   20  C14 UNL     1      -4.852  -0.617  -0.609  1.00  0.00     0.027 A 
BRANCH  19  21
HETATM   21  C13 UNL     1      -7.009  -0.625  -1.814  1.00  0.00     0.209 C 
HETATM   22  O5  UNL     1      -8.191  -0.255  -1.874  1.00  0.00    -0.644 OA
HETATM   23  O6  UNL     1      -6.529  -1.432  -2.849  1.00  0.00    -0.644 OA
ENDBRANCH  19  21
ENDBRANCH  14  15
ENDBRANCH  12  14
ENDBRANCH   5  12
BRANCH   4  24
HETATM   24  N2  UNL     1       0.066   1.674   1.344  1.00  0.00    -0.110 N 
HETATM   25  O3  UNL     1       0.196   2.892   1.057  1.00  0.00    -0.532 OA
HETATM   26  O4  UNL     1      -0.515   1.382   2.545  1.00  0.00    -0.532 OA
ENDBRANCH   4  24
BRANCH   1  27
HETATM   27  C2  UNL     1       5.350   0.868   1.028  1.00  0.00     0.276 C 
HETATM   28  N1  UNL     1       6.586   0.359   0.620  1.00  0.00    -0.360 N 
HETATM   29  C1  UNL     1       7.808   0.905   1.253  1.00  0.00     0.149 C 
ATOM     30  H1  UNL     1       6.645  -0.368  -0.093  1.00  0.00     0.162 HD
HETATM   31  O1  UNL     1       5.351   1.778   1.928  1.00  0.00    -0.265 OA
ENDBRANCH   1  27
BRANCH  11  32
HETATM   32  C19 UNL     1       4.626  -1.359  -1.166  1.00  0.00     0.213 C 
HETATM   33  O7  UNL     1       4.917  -2.509  -0.684  1.00  0.00    -0.644 OA
HETATM   34  O8  UNL     1       5.165  -1.055  -2.407  1.00  0.00    -0.644 OA
ENDBRANCH  11  32
TORSDOF 7
