REMARK  12 active torsions:
REMARK  status: ('A' for Active; 'I' for Inactive)
REMARK    1  A    between atoms: C2_2  and  C3_3 
REMARK    2  A    between atoms: C2_2  and  C6_8 
REMARK    3  A    between atoms: C3_3  and  C4_4 
REMARK    4  A    between atoms: C4_4  and  C5_5 
REMARK    5  A    between atoms: C15_17  and  O2_18 
REMARK    6  A    between atoms: O2_18  and  C16_19 
REMARK    7  A    between atoms: C16_19  and  C17_20 
REMARK    8  A    between atoms: C16_19  and  C18_23 
REMARK    9  A    between atoms: C17_20  and  O3_21 
REMARK   10  A    between atoms: C18_23  and  C19_24 
REMARK   11  A    between atoms: C20_27  and  O6_28 
REMARK   12  A    between atoms: C21_30  and  O7_31 
ROOT
HETATM    1  C6  UNL     1       4.353  -0.238   0.003  1.00  0.00    -0.002 C 
HETATM    2  C7  UNL     1       4.765  -1.397   0.882  1.00  0.00     0.006 C 
HETATM    3  C8  UNL     1       3.537  -1.453   1.841  1.00  0.00     0.006 C 
HETATM    4  C9  UNL     1       2.421  -1.216   0.907  1.00  0.00     0.002 C 
HETATM    5  C10 UNL     1       1.411  -0.207   1.351  1.00  0.00     0.031 C 
HETATM    6  C11 UNL     1       0.205  -0.923   1.923  1.00  0.00     0.009 C 
HETATM    7  C12 UNL     1      -1.042  -0.119   1.943  1.00  0.00     0.006 C 
HETATM    8  C13 UNL     1      -1.780   0.166   0.722  1.00  0.00    -0.001 C 
HETATM    9  C14 UNL     1      -3.287  -0.091   0.890  1.00  0.00     0.040 C 
HETATM   10  C15 UNL     1      -4.088   0.493  -0.259  1.00  0.00     0.153 C 
HETATM   11  C20 UNL     1      -3.453   0.266  -1.603  1.00  0.00     0.176 C 
HETATM   12  C21 UNL     1      -1.968   0.399  -1.662  1.00  0.00     0.158 C 
HETATM   13  C22 UNL     1      -1.328  -0.431  -0.578  1.00  0.00    -0.005 C 
HETATM   14  C23 UNL     1      -1.927  -1.834  -0.792  1.00  0.00     0.019 C 
HETATM   15  C24 UNL     1       0.143  -0.579  -0.662  1.00  0.00     0.038 C 
HETATM   16  C25 UNL     1       0.917  -0.208  -1.859  1.00  0.00     0.017 C 
HETATM   17  C26 UNL     1       2.046   0.217  -0.983  1.00  0.00     0.036 C 
HETATM   18  C27 UNL     1       3.020  -0.676  -0.402  1.00  0.00    -0.029 C 
HETATM   19  C28 UNL     1       3.245  -1.966  -1.231  1.00  0.00     0.016 C 
HETATM   20  C29 UNL     1       0.969   0.420   0.067  1.00  0.00     0.116 C 
HETATM   21  F1  UNL     1       0.631   1.722   0.099  1.00  0.00    -0.242 F 
ENDROOT
BRANCH  10  22
HETATM   22  O2  UNL     1      -5.281  -0.168  -0.252  1.00  0.00    -0.375 OA
BRANCH  22  23
HETATM   23  C16 UNL     1      -6.439   0.421  -0.015  1.00  0.00     0.155 C 
BRANCH  23  24
HETATM   24  C17 UNL     1      -6.818   0.009   1.446  1.00  0.00     0.196 C 
BRANCH  24  25
HETATM   25  O3  UNL     1      -8.027   0.601   1.741  1.00  0.00    -0.398 OA
ATOM     26  H3  UNL     1      -8.257   0.351   2.628  1.00  0.00     0.209 HD
ENDBRANCH  24  25
ENDBRANCH  23  24
BRANCH  23  27
HETATM   27  C18 UNL     1      -7.650   0.204  -0.804  1.00  0.00     0.147 C 
BRANCH  27  28
HETATM   28  C19 UNL     1      -7.457   0.578  -2.223  1.00  0.00     0.175 C 
HETATM   29  O4  UNL     1      -6.894  -0.180  -3.061  1.00  0.00    -0.648 OA
HETATM   30  O5  UNL     1      -7.889   1.801  -2.724  1.00  0.00    -0.648 OA
ENDBRANCH  27  28
ENDBRANCH  23  27
ENDBRANCH  22  23
ENDBRANCH  10  22
BRANCH  11  31
HETATM   31  O6  UNL     1      -3.936   1.340  -2.412  1.00  0.00    -0.390 OA
ATOM     32  H6  UNL     1      -3.535   1.197  -3.261  1.00  0.00     0.210 HD
ENDBRANCH  11  31
BRANCH  12  33
HETATM   33  O7  UNL     1      -1.694   1.761  -1.568  1.00  0.00    -0.392 OA
ATOM     34  H7  UNL     1      -0.749   1.846  -1.606  1.00  0.00     0.210 HD
ENDBRANCH  12  33
BRANCH   1  35
HETATM   35  C2  UNL     1       4.867   0.989   0.481  1.00  0.00    -0.013 C 
HETATM   36  C1  UNL     1       4.432   2.300  -0.197  1.00  0.00     0.010 C 
BRANCH  35  37
HETATM   37  C3  UNL     1       6.365   1.157   0.131  1.00  0.00     0.013 C 
BRANCH  37  38
HETATM   38  C4  UNL     1       7.332   0.169   0.539  1.00  0.00     0.091 C 
BRANCH  38  39
HETATM   39  C5  UNL     1       8.689   0.633   0.051  1.00  0.00     0.195 C 
HETATM   40  O1  UNL     1       8.771   1.660  -0.576  1.00  0.00    -0.285 OA
HETATM   41 BR1  UNL     1      10.269  -0.365   0.401  1.00  0.00    -0.009 Br
ENDBRANCH  38  39
ENDBRANCH  37  38
ENDBRANCH  35  37
ENDBRANCH   1  35
TORSDOF 12
