REMARK  6 active torsions:
REMARK  status: ('A' for Active; 'I' for Inactive)
REMARK    1  A    between atoms: N1_1  and  C1_4 
REMARK    2  A    between atoms: C3_9  and  C4_10 
REMARK    3  A    between atoms: C4_10  and  O2_11 
REMARK    4  A    between atoms: C4_10  and  N3_13 
REMARK    5  A    between atoms: N3_13  and  N4_15 
REMARK    6  A    between atoms: N5_18  and  O3_19 
ROOT
HETATM    1  C1  UNL     1      -2.584  -0.142   0.502  1.00  0.00     0.695 A 
HETATM    2  N2  UNL     1      -2.035   1.074   0.659  1.00  0.00    -0.153 N 
ATOM      3  H2  UNL     1      -2.610   1.885   0.889  1.00  0.00     0.187 HD
HETATM    4  C2  UNL     1      -0.712   1.189   0.505  1.00  0.00     0.295 A 
HETATM    5  O1  UNL     1      -0.189   2.303   0.646  1.00  0.00    -0.265 OA
HETATM    6  C3  UNL     1       0.129   0.115   0.190  1.00  0.00     0.202 A 
HETATM    7  N5  UNL     1      -0.477  -1.060   0.049  1.00  0.00    -0.139 N 
HETATM    8  N6  UNL     1      -1.811  -1.192   0.201  1.00  0.00    -0.105 N 
ATOM      9  H6  UNL     1      -2.239  -2.111   0.084  1.00  0.00     0.208 HD
ENDROOT
BRANCH   6  10
HETATM   10  C4  UNL     1       1.557   0.303   0.036  1.00  0.00     0.191 C 
BRANCH  10  11
HETATM   11  O2  UNL     1       1.992   1.519   0.208  1.00  0.00    -0.343 OA
ATOM     12  H2  UNL     1       2.929   1.642   0.107  1.00  0.00     0.219 HD
ENDBRANCH  10  11
BRANCH  10  13
HETATM   13  N3  UNL     1       2.541  -0.618  -0.268  1.00  0.00    -0.285 N 
ATOM     14  H3  UNL     1       2.286  -1.594  -0.418  1.00  0.00     0.188 HD
BRANCH  13  15
HETATM   15  N4  UNL     1       3.901  -0.227  -0.375  1.00  0.00    -0.343 N 
ATOM     16  H42 UNL     1       4.139   0.753  -0.222  1.00  0.00     0.176 HD
ATOM     17  H41 UNL     1       4.627  -0.907  -0.599  1.00  0.00     0.176 HD
ENDBRANCH  13  15
ENDBRANCH  10  13
ENDBRANCH   6  10
BRANCH   7  18
HETATM   18  O3  UNL     1       0.196  -2.216  -0.259  1.00  0.00    -0.267 OA
ATOM     19  H3  UNL     1      -0.237  -3.056  -0.360  1.00  0.00     0.247 HD
ENDBRANCH   7  18
BRANCH   1  20
HETATM   20  N1  UNL     1      -3.861  -0.252   0.651  1.00  0.00    -0.233 N 
ATOM     21  H12 UNL     1      -4.450   0.548   0.880  1.00  0.00     0.174 HD
ATOM     22  H11 UNL     1      -4.278  -1.175   0.532  1.00  0.00     0.174 HD
ENDBRANCH   1  20
TORSDOF 6
