REMARK  3 active torsions:
REMARK  status: ('A' for Active; 'I' for Inactive)
REMARK    1  A    between atoms: C2_3  and  C3_4 
REMARK    2  A    between atoms: C4_9  and  N3_10 
REMARK    3  A    between atoms: C5_15  and  N5_16 
ROOT
HETATM    1  C1  UNL     1      -2.178  -0.258  -0.217  1.00  0.00     0.177 C 
HETATM    2  N1  UNL     1      -0.757  -0.202  -0.054  1.00  0.00    -0.165 N 
HETATM    3  C2  UNL     1      -0.086   0.958  -0.169  1.00  0.00     0.214 A 
HETATM    4  N2  UNL     1       1.263   0.965  -0.006  1.00  0.00    -0.169 N 
ATOM      5  H2  UNL     1       1.777   1.842  -0.092  1.00  0.00     0.186 HD
HETATM    6  C4  UNL     1       1.924  -0.167   0.267  1.00  0.00     0.692 A 
HETATM    7  N4  UNL     1       1.211  -1.324   0.377  1.00  0.00    -0.023 N 
ATOM      8  H4  UNL     1       1.707  -2.191   0.585  1.00  0.00     0.203 HD
HETATM    9  C5  UNL     1      -0.105  -1.360   0.223  1.00  0.00     0.694 A 
ENDROOT
BRANCH   3  10
HETATM   10  C3  UNL     1      -0.713   2.234  -0.463  1.00  0.00     0.246 C 
HETATM   11  O1  UNL     1      -0.032   3.298  -0.561  1.00  0.00    -0.642 OA
HETATM   12  O2  UNL     1      -2.065   2.318  -0.642  1.00  0.00    -0.642 OA
ENDBRANCH   3  10
BRANCH   9  13
HETATM   13  N5  UNL     1      -0.770  -2.451   0.327  1.00  0.00    -0.234 N 
ATOM     14  H52 UNL     1      -1.783  -2.479   0.208  1.00  0.00     0.174 HD
ATOM     15  H51 UNL     1      -0.280  -3.321   0.535  1.00  0.00     0.174 HD
ENDBRANCH   9  13
BRANCH   6  16
HETATM   16  N3  UNL     1       3.203  -0.157   0.421  1.00  0.00    -0.234 N 
ATOM     17  H32 UNL     1       3.736   0.709   0.339  1.00  0.00     0.174 HD
ATOM     18  H31 UNL     1       3.707  -1.019   0.629  1.00  0.00     0.174 HD
ENDBRANCH   6  16
TORSDOF 3
