REMARK  6 active torsions:
REMARK  status: ('A' for Active; 'I' for Inactive)
REMARK    1  A    between atoms: C8_9  and  N2_10 
REMARK    2  A    between atoms: N2_10  and  C9_12 
REMARK    3  A    between atoms: C18_23  and  N4_24 
REMARK    4  A    between atoms: N4_24  and  C19_26 
REMARK    5  A    between atoms: C19_26  and  N5_28 
REMARK    6  A    between atoms: N5_28  and  C20_30 
ROOT
HETATM    1  C1  UNL     1      -5.526  -2.236   0.907  1.00  0.00     0.051 C 
HETATM    2  C2  UNL     1      -4.076  -2.192   0.677  1.00  0.00    -0.023 A 
HETATM    3  C3  UNL     1      -3.235  -3.279   0.754  1.00  0.00     0.014 A 
HETATM    4  C4  UNL     1      -3.641  -4.691   1.083  1.00  0.00     0.069 C 
HETATM    5  N1  UNL     1      -1.950  -2.920   0.489  1.00  0.00    -0.353 N 
HETATM    6  C5  UNL     1      -0.860  -3.866   0.504  1.00  0.00     0.156 C 
HETATM    7  C6  UNL     1      -1.965  -1.620   0.245  1.00  0.00     0.061 A 
HETATM    8  C7  UNL     1      -3.275  -1.138   0.354  1.00  0.00     0.044 A 
HETATM    9  C8  UNL     1      -3.557   0.177   0.149  1.00  0.00     0.119 A 
HETATM   10  N3  UNL     1      -2.589   1.055  -0.165  1.00  0.00    -0.341 N 
ATOM     11  H3  UNL     1      -2.830   2.035  -0.314  1.00  0.00     0.167 HD
HETATM   12  C15 UNL     1      -1.310   0.663  -0.286  1.00  0.00     0.046 A 
HETATM   13  C16 UNL     1      -0.334   1.607  -0.614  1.00  0.00     0.033 A 
HETATM   14  C17 UNL     1       0.948   1.160  -0.726  1.00  0.00     0.032 A 
HETATM   15  C18 UNL     1       1.327  -0.154  -0.535  1.00  0.00     0.035 A 
HETATM   16  C27 UNL     1       0.329  -1.082  -0.208  1.00  0.00     0.045 A 
HETATM   17  C28 UNL     1      -0.982  -0.684  -0.082  1.00  0.00     0.021 A 
ENDROOT
BRANCH  15  18
HETATM   18  N4  UNL     1       2.661  -0.533  -0.701  1.00  0.00    -0.333 N 
ATOM     19  H4  UNL     1       3.177   0.035  -1.373  1.00  0.00     0.168 HD
BRANCH  18  20
HETATM   20  C19 UNL     1       3.412  -1.547  -0.114  1.00  0.00     0.191 C 
HETATM   21  S1  UNL     1       2.830  -2.537   1.018  1.00  0.00    -0.040 SA
BRANCH  20  22
HETATM   22  N5  UNL     1       4.798  -1.746  -0.476  1.00  0.00    -0.166 N 
ATOM     23  H5  UNL     1       5.083  -2.613  -0.932  1.00  0.00     0.186 HD
BRANCH  22  24
HETATM   24  C20 UNL     1       5.672  -0.840  -0.228  1.00  0.00     0.685 A 
HETATM   25  N6  UNL     1       6.986  -0.872  -0.499  1.00  0.00    -0.189 N 
HETATM   26  C21 UNL     1       7.552   0.265  -0.083  1.00  0.00     0.076 A 
ATOM     27  H6  UNL     1       7.476  -1.644  -0.952  1.00  0.00     0.184 HD
HETATM   28  C22 UNL     1       8.839   0.779  -0.096  1.00  0.00     0.032 A 
HETATM   29  C26 UNL     1       6.555   1.054   0.476  1.00  0.00     0.076 A 
HETATM   30  C23 UNL     1       9.157   2.017   0.414  1.00  0.00     0.002 A 
HETATM   31  C24 UNL     1       8.148   2.779   0.963  1.00  0.00     0.002 A 
HETATM   32  C25 UNL     1       6.857   2.296   0.991  1.00  0.00     0.032 A 
HETATM   33  N7  UNL     1       5.424   0.334   0.364  1.00  0.00    -0.189 N 
ATOM     34  H7  UNL     1       4.506   0.640   0.685  1.00  0.00     0.184 HD
ENDBRANCH  22  24
ENDBRANCH  20  22
ENDBRANCH  18  20
ENDBRANCH  15  18
BRANCH   9  35
HETATM   35  N2  UNL     1      -4.742   0.635   0.243  1.00  0.00    -0.342 N 
ATOM     36  H2  UNL     1      -5.480  -0.028   0.481  1.00  0.00     0.167 HD
BRANCH  35  37
HETATM   37  C9  UNL     1      -5.119   1.972   0.048  1.00  0.00     0.033 A 
HETATM   38  C10 UNL     1      -4.998   2.888   1.071  1.00  0.00     0.029 A 
HETATM   39  C11 UNL     1      -5.355   4.215   0.929  1.00  0.00     0.002 A 
HETATM   40  C12 UNL     1      -5.849   4.660  -0.263  1.00  0.00     0.000 A 
HETATM   41  C13 UNL     1      -5.984   3.764  -1.314  1.00  0.00     0.002 A 
HETATM   42  C14 UNL     1      -5.620   2.432  -1.154  1.00  0.00     0.029 A 
ENDBRANCH  35  37
ENDBRANCH   9  35
TORSDOF 6
