REMARK  4 active torsions:
REMARK  status: ('A' for Active; 'I' for Inactive)
REMARK    1  A    between atoms: O1_2  and  C2_3 
REMARK    2  A    between atoms: C5_6  and  N1_7 
REMARK    3  A    between atoms: N1_7  and  C6_9 
REMARK    4  A    between atoms: C7_18  and  N7_19 
ROOT
HETATM    1  C2  UNL     1      -2.203   2.089   0.538  1.00  0.00     0.112 A 
HETATM    2  C3  UNL     1      -1.825   0.821   0.877  1.00  0.00     0.062 A 
HETATM    3  C4  UNL     1      -0.565   0.453   0.619  1.00  0.00     0.047 A 
HETATM    4  C5  UNL     1       0.045  -0.786   0.876  1.00  0.00     0.149 A 
HETATM    5  N6  UNL     1       1.322  -0.970   0.547  1.00  0.00    -0.175 N 
ATOM      6  H6  UNL     1       1.727  -1.884   0.750  1.00  0.00     0.186 HD
HETATM    7  C7  UNL     1       2.111  -0.074  -0.019  1.00  0.00     0.682 A 
HETATM    8  N8  UNL     1       1.553   1.137  -0.282  1.00  0.00    -0.184 N 
ATOM      9  H8  UNL     1       2.109   1.872  -0.719  1.00  0.00     0.185 HD
HETATM   10  C10 UNL     1       0.247   1.366   0.040  1.00  0.00     0.107 A 
HETATM   11  S1  UNL     1      -0.765   2.746  -0.143  1.00  0.00    -0.046 SA
ENDROOT
BRANCH   4  12
HETATM   12  N1  UNL     1      -0.640  -1.872   1.478  1.00  0.00    -0.173 N 
ATOM     13  H1  UNL     1      -0.414  -2.119   2.441  1.00  0.00     0.186 HD
BRANCH  12  14
HETATM   14  C6  UNL     1      -1.537  -2.560   0.858  1.00  0.00     0.709 A 
HETATM   15  N2  UNL     1      -2.224  -3.598   1.364  1.00  0.00    -0.117 N 
HETATM   16  N3  UNL     1      -3.054  -4.048   0.434  1.00  0.00     0.006 NA
ATOM     17  H2  UNL     1      -2.124  -3.976   2.306  1.00  0.00     0.202 HD
HETATM   18  N4  UNL     1      -2.913  -3.315  -0.668  1.00  0.00     0.006 NA
HETATM   19  N5  UNL     1      -1.977  -2.397  -0.402  1.00  0.00    -0.117 N 
ATOM     20  H5  UNL     1      -1.648  -1.684  -1.054  1.00  0.00     0.202 HD
ENDBRANCH  12  14
ENDBRANCH   4  12
BRANCH   7  21
HETATM   21  N7  UNL     1       3.469  -0.307  -0.356  1.00  0.00    -0.226 N 
HETATM   22  C8  UNL     1       4.292   0.710  -0.976  1.00  0.00     0.168 C 
HETATM   23  C9  UNL     1       4.043  -1.604  -0.068  1.00  0.00     0.168 C 
ENDBRANCH   7  21
BRANCH   1  24
HETATM   24  O1  UNL     1      -3.438   2.725   0.692  1.00  0.00    -0.349 OA
HETATM   25  C1  UNL     1      -3.541   4.074   0.239  1.00  0.00     0.211 C 
ENDBRANCH   1  24
TORSDOF 4
