REMARK  2 active torsions:
REMARK  status: ('A' for Active; 'I' for Inactive)
REMARK    1  A    between atoms: C1_2  and  C2_4 
REMARK    2  A    between atoms: C3_7  and  C4_8 
ROOT
HETATM    1  C2  UNL     1       2.452  -0.375  -0.072  1.00  0.00     0.188 A 
HETATM    2  N2  UNL     1       1.277   0.214   0.255  1.00  0.00    -0.321 N 
ATOM      3  H2  UNL     1       1.187   1.045   0.840  1.00  0.00     0.169 HD
HETATM    4  C3  UNL     1       0.252  -0.444  -0.295  1.00  0.00     0.139 A 
HETATM    5  N5  UNL     1       0.801  -1.460  -0.977  1.00  0.00    -0.283 N 
ATOM      6  H5  UNL     1       0.284  -2.156  -1.514  1.00  0.00     0.188 HD
HETATM    7  N6  UNL     1       2.121  -1.419  -0.844  1.00  0.00    -0.280 N 
ATOM      8  H6  UNL     1       2.778  -2.077  -1.263  1.00  0.00     0.189 HD
ENDROOT
BRANCH   4   9
HETATM    9  C4  UNL     1      -1.181  -0.148  -0.197  1.00  0.00     0.093 A 
HETATM   10  C5  UNL     1      -1.652   0.924   0.531  1.00  0.00     0.113 A 
HETATM   11  N3  UNL     1      -2.966   1.185   0.613  1.00  0.00    -0.318 N 
HETATM   12  C6  UNL     1      -3.867   0.409  -0.012  1.00  0.00     0.327 A 
ATOM     13  H3  UNL     1      -3.286   1.985   1.159  1.00  0.00     0.170 HD
HETATM   14  O2  UNL     1      -5.112   0.676   0.080  1.00  0.00    -0.247 OA
HETATM   15  N4  UNL     1      -3.452  -0.646  -0.732  1.00  0.00    -0.275 N 
HETATM   16  C7  UNL     1      -2.132  -0.923  -0.825  1.00  0.00     0.264 A 
ATOM     17  H4  UNL     1      -4.132  -1.238  -1.208  1.00  0.00     0.173 HD
HETATM   18  O3  UNL     1      -1.736  -1.908  -1.497  1.00  0.00    -0.267 OA
ENDBRANCH   4   9
BRANCH   1  19
HETATM   19  C1  UNL     1       3.793   0.022   0.317  1.00  0.00     0.300 C 
HETATM   20  N1  UNL     1       4.037   1.153   1.144  1.00  0.00    -0.054 NA
HETATM   21  O1  UNL     1       4.772  -0.652  -0.087  1.00  0.00    -0.268 OA
ENDBRANCH   1  19
TORSDOF 2
