REMARK  4 active torsions:
REMARK  status: ('A' for Active; 'I' for Inactive)
REMARK    1  A    between atoms: C2_5  and  N3_6 
REMARK    2  A    between atoms: C6_17  and  N6_18 
REMARK    3  A    between atoms: N6_18  and  N7_20 
REMARK    4  A    between atoms: N7_20  and  C7_22 
ROOT
HETATM    1  C1  UNL     1       0.405   2.944  -0.025  1.00  0.00     0.179 C 
HETATM    2  N1  UNL     1      -0.267   1.645  -0.058  1.00  0.00    -0.277 N 
HETATM    3  N2  UNL     1      -1.579   1.583  -0.003  1.00  0.00    -0.281 N 
ATOM      4  H2  UNL     1      -2.104   2.455   0.062  1.00  0.00     0.189 HD
HETATM    5  C2  UNL     1      -2.276   0.404  -0.029  1.00  0.00     0.132 A 
HETATM    6  C3  UNL     1      -1.618  -0.796  -0.116  1.00  0.00     0.110 A 
HETATM    7  C4  UNL     1      -1.995  -2.125  -0.164  1.00  0.00     0.276 A 
HETATM    8  O1  UNL     1      -3.171  -2.563  -0.133  1.00  0.00    -0.266 OA
HETATM    9  N4  UNL     1      -0.855  -2.829  -0.249  1.00  0.00    -0.265 N 
ATOM     10  H4  UNL     1      -0.797  -3.846  -0.301  1.00  0.00     0.190 HD
HETATM   11  N5  UNL     1       0.185  -2.006  -0.255  1.00  0.00    -0.293 N 
ATOM     12  H5  UNL     1       1.157  -2.308  -0.313  1.00  0.00     0.187 HD
HETATM   13  C5  UNL     1      -0.207  -0.721  -0.175  1.00  0.00     0.114 A 
HETATM   14  C6  UNL     1       0.426   0.495  -0.145  1.00  0.00     0.166 A 
ENDROOT
BRANCH  14  15
HETATM   15  N6  UNL     1       1.681   0.599  -0.195  1.00  0.00    -0.280 N 
ATOM     16  H6  UNL     1       2.001   1.567  -0.161  1.00  0.00     0.188 HD
BRANCH  15  17
HETATM   17  N7  UNL     1       2.694  -0.286  -0.283  1.00  0.00    -0.276 N 
ATOM     18  H7  UNL     1       2.847  -0.785  -1.159  1.00  0.00     0.189 HD
BRANCH  17  19
HETATM   19  C7  UNL     1       3.550  -0.537   0.816  1.00  0.00     0.368 C 
HETATM   20  O2  UNL     1       3.344   0.087   1.885  1.00  0.00    -0.282 OA
ENDBRANCH  17  19
ENDBRANCH  15  17
ENDBRANCH  14  15
BRANCH   5  21
HETATM   21  N3  UNL     1      -3.557   0.425   0.029  1.00  0.00    -0.384 N 
ATOM     22  H32 UNL     1      -4.046   1.318   0.094  1.00  0.00     0.157 HD
ATOM     23  H31 UNL     1      -4.076  -0.453   0.010  1.00  0.00     0.157 HD
ENDBRANCH   5  21
TORSDOF 4
