REMARK  3 active torsions:
REMARK  status: ('A' for Active; 'I' for Inactive)
REMARK    1  A    between atoms: C1_1  and  C6_14 
REMARK    2  A    between atoms: N1_2  and  N2_4 
REMARK    3  A    between atoms: N2_4  and  C2_6 
ROOT
HETATM    1  C1  UNL     1      -1.013  -1.544   0.424  1.00  0.00     0.119 C 
HETATM    2  N1  UNL     1       0.157  -1.164   0.527  1.00  0.00    -0.309 N 
ATOM      3  H1  UNL     1       0.809  -1.915   0.751  1.00  0.00     0.186 HD
ENDROOT
BRANCH   2   4
HETATM    4  N2  UNL     1       0.749   0.041   0.404  1.00  0.00    -0.285 N 
ATOM      5  H2  UNL     1       0.192   0.895   0.439  1.00  0.00     0.188 HD
BRANCH   4   6
HETATM    6  C2  UNL     1       2.048   0.105   0.239  1.00  0.00     0.134 A 
HETATM    7  C3  UNL     1       2.689   1.320   0.110  1.00  0.00     0.052 A 
HETATM    8  C4  UNL     1       4.053   1.389  -0.063  1.00  0.00     0.022 A 
HETATM    9  C5  UNL     1       4.774   0.211  -0.105  1.00  0.00     0.107 A 
HETATM   10  N3  UNL     1       4.096  -0.940   0.027  1.00  0.00    -0.310 N 
HETATM   11  N4  UNL     1       2.795  -1.021   0.193  1.00  0.00    -0.285 N 
ATOM     12  H3  UNL     1       4.627  -1.811  -0.004  1.00  0.00     0.186 HD
ATOM     13  H4  UNL     1       2.349  -1.933   0.287  1.00  0.00     0.188 HD
ENDBRANCH   4   6
ENDBRANCH   2   4
BRANCH   1  14
HETATM   14  C6  UNL     1      -2.193  -0.769   0.119  1.00  0.00    -0.004 A 
HETATM   15  C7  UNL     1      -2.199   0.588  -0.117  1.00  0.00     0.015 A 
HETATM   16  C8  UNL     1      -3.407   1.242  -0.405  1.00  0.00     0.018 A 
HETATM   17  C9  UNL     1      -4.582   0.528  -0.451  1.00  0.00     0.087 A 
HETATM   18  N5  UNL     1      -4.569  -0.783  -0.222  1.00  0.00    -0.374 N 
HETATM   19  C10 UNL     1      -3.439  -1.420   0.052  1.00  0.00     0.100 A 
ATOM     20  H5  UNL     1      -5.444  -1.307  -0.258  1.00  0.00     0.164 HD
ENDBRANCH   1  14
TORSDOF 3
