REMARK  3 active torsions:
REMARK  status: ('A' for Active; 'I' for Inactive)
REMARK    1  A    between atoms: O1_1  and  C1_3 
REMARK    2  A    between atoms: C1_3  and  N1_4 
REMARK    3  A    between atoms: C1_3  and  C6_12 
ROOT
HETATM    1  C6  UNL     1      -0.664  -0.336   0.565  1.00  0.00     0.031 C 
HETATM    2  C7  UNL     1      -0.362  -1.811   0.507  1.00  0.00     0.018 C 
HETATM    3  C8  UNL     1      -0.893  -2.353  -0.790  1.00  0.00     0.002 C 
HETATM    4  C9  UNL     1      -2.013  -1.395  -1.089  1.00  0.00     0.006 C 
HETATM    5  C10 UNL     1      -1.300  -0.063  -0.756  1.00  0.00     0.008 C 
HETATM    6  C11 UNL     1      -2.262   1.071  -0.801  1.00  0.00     0.017 C 
HETATM    7  C12 UNL     1      -3.705   0.591  -0.543  1.00  0.00     0.173 C 
HETATM    8  O2  UNL     1      -3.758   0.326   0.793  1.00  0.00    -0.385 OA
HETATM    9  C13 UNL     1      -2.663   0.931   1.435  1.00  0.00     0.123 C 
HETATM   10  C14 UNL     1      -2.224   1.965   0.448  1.00  0.00     0.039 C 
HETATM   11  C15 UNL     1      -1.664  -0.138   1.703  1.00  0.00     0.050 C 
ENDROOT
BRANCH   1  12
HETATM   12  C1  UNL     1       0.602   0.348   0.856  1.00  0.00     0.122 C 
BRANCH  12  13
HETATM   13  O1  UNL     1       0.624   0.943   2.025  1.00  0.00    -0.349 OA
ATOM     14  H1  UNL     1      -0.183   0.848   2.517  1.00  0.00     0.219 HD
ENDBRANCH  12  13
BRANCH  12  15
HETATM   15  N1  UNL     1       1.769   0.485   0.144  1.00  0.00    -0.362 N 
HETATM   16  C2  UNL     1       2.096  -0.030  -1.158  1.00  0.00     0.152 C 
HETATM   17  C3  UNL     1       3.619   0.101  -1.330  1.00  0.00     0.252 C 
HETATM   18  N2  UNL     1       4.347  -0.363  -0.193  1.00  0.00    -0.072 N 
HETATM   19  C4  UNL     1       3.970   0.277   1.040  1.00  0.00     0.252 C 
ATOM     20  H22 UNL     1       4.273  -1.377  -0.109  1.00  0.00     0.277 HD
ATOM     21  H21 UNL     1       5.351  -0.277  -0.350  1.00  0.00     0.277 HD
HETATM   22  C5  UNL     1       2.875   1.262   0.755  1.00  0.00     0.152 C 
ENDBRANCH  12  15
ENDBRANCH   1  12
TORSDOF 3
