REMARK  4 active torsions:
REMARK  status: ('A' for Active; 'I' for Inactive)
REMARK    1  A    between atoms: C13_15  and  O3_16 
REMARK    2  A    between atoms: O3_16  and  C14_17 
REMARK    3  A    between atoms: C14_17  and  C15_18 
REMARK    4  A    between atoms: C15_18  and  O4_19 
ROOT
HETATM    1  C1  UNL     1      -2.619   3.904  -0.422  1.00  0.00     0.043 C 
HETATM    2  C2  UNL     1      -2.287   2.465  -0.170  1.00  0.00    -0.086 C 
HETATM    3  C3  UNL     1      -3.079   1.526  -0.668  1.00  0.00    -0.024 C 
HETATM    4  C4  UNL     1      -2.765   0.124  -0.429  1.00  0.00     0.027 C 
HETATM    5  C5  UNL     1      -3.499  -0.501   0.726  1.00  0.00     0.004 C 
HETATM    6  C6  UNL     1      -2.675  -1.504   1.458  1.00  0.00     0.001 C 
HETATM    7  C7  UNL     1      -2.460  -2.790   0.771  1.00  0.00     0.008 C 
HETATM    8  C8  UNL     1      -1.233  -2.864  -0.096  1.00  0.00     0.087 C 
HETATM    9  C9  UNL     1       0.012  -2.720   0.685  1.00  0.00     0.195 C 
HETATM   10  O1  UNL     1       0.013  -3.275   1.837  1.00  0.00    -0.289 OA
HETATM   11  C10 UNL     1       1.190  -2.009   0.235  1.00  0.00     0.203 C 
HETATM   12  O2  UNL     1       2.277  -2.271   0.821  1.00  0.00    -0.289 OA
HETATM   13  C11 UNL     1       1.225  -1.011  -0.844  1.00  0.00     0.115 C 
HETATM   14  C12 UNL     1       2.175  -1.535  -1.927  1.00  0.00     0.023 C 
HETATM   15  C13 UNL     1       1.788   0.318  -0.401  1.00  0.00     0.270 C 
HETATM   16  O5  UNL     1       0.962   1.041   0.408  1.00  0.00    -0.360 OA
HETATM   17  C16 UNL     1       0.158   1.961  -0.254  1.00  0.00     0.175 C 
HETATM   18  C17 UNL     1      -1.078   2.145   0.632  1.00  0.00     0.059 C 
ENDROOT
BRANCH  15  19
HETATM   19  O3  UNL     1       2.950   0.025   0.341  1.00  0.00    -0.358 OA
BRANCH  19  20
HETATM   20  C14 UNL     1       4.076   0.585  -0.241  1.00  0.00     0.197 C 
BRANCH  20  21
HETATM   21  C15 UNL     1       5.260   0.213   0.628  1.00  0.00     0.190 C 
BRANCH  21  22
HETATM   22  O4  UNL     1       5.070   0.719   1.915  1.00  0.00    -0.399 OA
ATOM     23  H4  UNL     1       5.812   0.486   2.460  1.00  0.00     0.209 HD
ENDBRANCH  21  22
ENDBRANCH  20  21
ENDBRANCH  19  20
ENDBRANCH  15  19
TORSDOF 4
