REMARK  5 active torsions:
REMARK  status: ('A' for Active; 'I' for Inactive)
REMARK    1  A    between atoms: N1_2  and  C2_5 
REMARK    2  A    between atoms: C2_5  and  C3_6 
REMARK    3  A    between atoms: C3_6  and  C4_7 
REMARK    4  A    between atoms: C5_8  and  C6_9 
REMARK    5  A    between atoms: C6_9  and  N2_10 
ROOT
HETATM    1  N2  UNL     1      -0.107   0.393  -0.023  1.00  0.00     0.091 N 
HETATM    2  C7  UNL     1      -0.818   0.659   1.218  1.00  0.00     0.273 C 
HETATM    3  C8  UNL     1      -2.181   0.129   1.342  1.00  0.00     0.039 C 
HETATM    4  C9  UNL     1      -2.989  -0.083   0.112  1.00  0.00    -0.037 C 
HETATM    5  C10 UNL     1      -3.684  -1.458   0.169  1.00  0.00     0.010 C 
HETATM    6  C11 UNL     1      -5.085  -1.261  -0.325  1.00  0.00     0.001 C 
HETATM    7  C12 UNL     1      -5.400   0.189  -0.107  1.00  0.00     0.001 C 
HETATM    8  C13 UNL     1      -4.108   0.935  -0.030  1.00  0.00     0.010 C 
HETATM    9  C14 UNL     1      -2.140  -0.103  -1.135  1.00  0.00     0.039 C 
HETATM   10  C15 UNL     1      -0.803  -0.712  -0.693  1.00  0.00     0.273 C 
ENDROOT
BRANCH   1  11
HETATM   11  C6  UNL     1       1.278  -0.019   0.251  1.00  0.00     0.299 C 
BRANCH  11  12
HETATM   12  C5  UNL     1       1.986   0.033  -1.026  1.00  0.00    -0.001 C 
HETATM   13  C4  UNL     1       3.050   0.744  -1.277  1.00  0.00    -0.027 C 
BRANCH  13  14
HETATM   14  C3  UNL     1       3.708   1.611  -0.291  1.00  0.00     0.054 C 
BRANCH  14  15
HETATM   15  C2  UNL     1       5.170   1.099  -0.118  1.00  0.00     0.235 C 
BRANCH  15  16
HETATM   16  N1  UNL     1       5.008  -0.278   0.332  1.00  0.00    -0.079 N 
HETATM   17  C1  UNL     1       6.263  -0.979   0.495  1.00  0.00     0.266 C 
ATOM     18  H12 UNL     1       4.385  -0.792  -0.291  1.00  0.00     0.276 HD
ATOM     19  H11 UNL     1       4.458  -0.316   1.190  1.00  0.00     0.276 HD
ENDBRANCH  15  16
ENDBRANCH  14  15
ENDBRANCH  13  14
ENDBRANCH  11  12
ENDBRANCH   1  11
TORSDOF 5
