REMARK  3 active torsions:
REMARK  status: ('A' for Active; 'I' for Inactive)
REMARK    1  A    between atoms: N1_4  and  C4_6 
REMARK    2  A    between atoms: C5_7  and  C6_8 
REMARK    3  A    between atoms: C7_9  and  N2_11 
ROOT
HETATM    1  C6  UNL     1      -0.298  -0.601  -0.104  1.00  0.00     0.039 C 
HETATM    2  C7  UNL     1       0.115   0.280  -1.007  1.00  0.00     0.079 C 
HETATM    3  S1  UNL     1      -1.075   1.436  -1.651  1.00  0.00    -0.033 SA
ENDROOT
BRANCH   1   4
HETATM    4  C5  UNL     1      -1.662  -0.641   0.358  1.00  0.00     0.020 C 
HETATM    5  C4  UNL     1      -2.029  -1.531   1.255  1.00  0.00     0.088 C 
BRANCH   5   6
HETATM    6  N1  UNL     1      -3.356  -1.619   1.748  1.00  0.00    -0.373 N 
HETATM    7  C2  UNL     1      -3.798  -0.659   2.484  1.00  0.00    -0.022 C 
HETATM    8  C1  UNL     1      -5.174  -0.723   3.010  1.00  0.00     0.062 C 
HETATM    9  C3  UNL     1      -2.963   0.512   2.821  1.00  0.00     0.062 C 
ATOM     10  H1  UNL     1      -3.945  -2.422   1.525  1.00  0.00     0.164 HD
ENDBRANCH   5   6
ENDBRANCH   1   4
BRANCH   2  11
HETATM   11  N2  UNL     1       1.445   0.353  -1.487  1.00  0.00    -0.375 N 
HETATM   12  C8  UNL     1       1.927  -0.682  -2.352  1.00  0.00     0.123 C 
HETATM   13  C9  UNL     1       3.407  -0.849  -2.364  1.00  0.00     0.020 C 
HETATM   14  C10 UNL     1       4.186   0.348  -1.950  1.00  0.00     0.003 C 
HETATM   15  C11 UNL     1       3.638   0.991  -0.706  1.00  0.00     0.020 C 
HETATM   16  C12 UNL     1       2.234   1.490  -1.062  1.00  0.00     0.123 C 
ENDBRANCH   2  11
TORSDOF 3
