REMARK  2 active torsions:
REMARK  status: ('A' for Active; 'I' for Inactive)
REMARK    1  A    between atoms: C6_6  and  C7_7 
REMARK    2  A    between atoms: C11_14  and  O1_15 
ROOT
HETATM    1  C7  UNL     1       1.728   1.797  -0.916  1.00  0.00     0.077 C 
HETATM    2  N1  UNL     1       2.239   2.831  -0.340  1.00  0.00    -0.308 N 
ATOM      3  H1  UNL     1       2.565   3.612  -0.910  1.00  0.00     0.177 HD
HETATM    4  C8  UNL     1       2.355   2.902   1.051  1.00  0.00     0.181 C 
HETATM    5  N2  UNL     1       2.470   2.955   2.201  1.00  0.00    -0.172 NA
ENDROOT
BRANCH   1   6
HETATM    6  C6  UNL     1       1.260   0.682  -0.108  1.00  0.00     0.029 C 
HETATM    7  C5  UNL     1       2.383  -0.337   0.128  1.00  0.00     0.010 C 
HETATM    8  C4  UNL     1       1.864  -1.234   1.228  1.00  0.00     0.001 C 
HETATM    9  C3  UNL     1       0.589  -1.910   0.903  1.00  0.00     0.010 C 
HETATM   10  C2  UNL     1      -0.428  -1.120   0.167  1.00  0.00    -0.040 C 
HETATM   11  C1  UNL     1      -1.217  -2.144  -0.662  1.00  0.00     0.015 C 
HETATM   12  C9  UNL     1       0.161  -0.126  -0.802  1.00  0.00     0.005 C 
HETATM   13  C13 UNL     1      -1.390  -0.515   1.137  1.00  0.00     0.012 C 
HETATM   14  C10 UNL     1      -0.827   0.733  -1.469  1.00  0.00     0.037 C 
HETATM   15  C11 UNL     1      -2.128   0.924  -0.790  1.00  0.00     0.118 C 
HETATM   16  C12 UNL     1      -2.125   0.670   0.680  1.00  0.00     0.032 C 
BRANCH  15  17
HETATM   17  O1  UNL     1      -2.547   2.263  -0.966  1.00  0.00    -0.396 OA
ATOM     18  H1  UNL     1      -3.382   2.386  -0.530  1.00  0.00     0.210 HD
ENDBRANCH  15  17
ENDBRANCH   1   6
TORSDOF 2
