REMARK  3 active torsions:
REMARK  status: ('A' for Active; 'I' for Inactive)
REMARK    1  A    between atoms: C2_2  and  N1_3 
REMARK    2  A    between atoms: C4_8  and  N3_9 
REMARK    3  A    between atoms: N4_12  and  C5_13 
ROOT
HETATM    1  N1  UNL     1       1.401  -0.328   0.424  1.00  0.00    -0.300 N 
HETATM    2  C3  UNL     1       1.556  -1.586  -0.028  1.00  0.00     0.195 A 
HETATM    3  S1  UNL     1       3.030  -2.304   0.064  1.00  0.00    -0.040 SA
HETATM    4  N2  UNL     1       0.533  -2.280  -0.558  1.00  0.00    -0.166 N 
ATOM      5  H2  UNL     1       0.663  -3.233  -0.898  1.00  0.00     0.186 HD
HETATM    6  C4  UNL     1      -0.663  -1.677  -0.625  1.00  0.00     0.682 A 
HETATM    7  N4  UNL     1      -0.818  -0.399  -0.165  1.00  0.00    -0.154 N 
HETATM    8  C8  UNL     1       0.214   0.294   0.367  1.00  0.00     0.198 A 
HETATM    9  S2  UNL     1       0.000   1.824   0.911  1.00  0.00    -0.040 SA
ENDROOT
BRANCH   6  10
HETATM   10  N3  UNL     1      -1.651  -2.323  -1.127  1.00  0.00    -0.234 N 
ATOM     11  H32 UNL     1      -1.535  -3.277  -1.470  1.00  0.00     0.174 HD
ATOM     12  H31 UNL     1      -2.561  -1.864  -1.178  1.00  0.00     0.174 HD
ENDBRANCH   6  10
BRANCH   7  13
HETATM   13  C5  UNL     1      -2.092   0.243  -0.236  1.00  0.00     0.102 C 
HETATM   14  C6  UNL     1      -2.691   0.484   1.142  1.00  0.00     0.033 C 
HETATM   15  C7  UNL     1      -2.055   1.523  -1.049  1.00  0.00     0.033 C 
ENDBRANCH   7  13
BRANCH   1  16
HETATM   16  C2  UNL     1       2.544   0.382   0.991  1.00  0.00     0.129 C 
HETATM   17  C1  UNL     1       3.310   1.152  -0.045  1.00  0.00     0.027 C 
ENDBRANCH   1  16
TORSDOF 3
