REMARK  4 active torsions:
REMARK  status: ('A' for Active; 'I' for Inactive)
REMARK    1  A    between atoms: C2_2  and  O1_3 
REMARK    2  A    between atoms: C2_2  and  C3_5 
REMARK    3  A    between atoms: C9_13  and  O2_15 
REMARK    4  A    between atoms: O2_15  and  O3_16 
ROOT
HETATM    1  C3  UNL     1      -0.575  -0.110  -0.316  1.00  0.00     0.058 C 
HETATM    2  C4  UNL     1       0.625  -0.978  -0.287  1.00  0.00     0.030 C 
HETATM    3  C5  UNL     1       0.908  -1.717   0.941  1.00  0.00     0.129 C 
HETATM    4  N1  UNL     1       2.302  -1.932   1.137  1.00  0.00    -0.178 NA
HETATM    5  S1  UNL     1       3.182  -0.845   0.060  1.00  0.00    -0.056 SA
HETATM    6  C6  UNL     1       1.722   0.026  -0.566  1.00  0.00     0.029 C 
HETATM    7  C7  UNL     1       1.829   0.380  -2.014  1.00  0.00     0.029 C 
HETATM    8  C8  UNL     1       1.311   1.179   0.312  1.00  0.00     0.063 C 
HETATM    9  C9  UNL     1      -0.214   1.177   0.364  1.00  0.00     0.100 C 
HETATM   10  C10 UNL     1      -0.690   2.397  -0.395  1.00  0.00     0.050 C 
ENDROOT
BRANCH   1  11
HETATM   11  C2  UNL     1      -1.844  -0.692   0.183  1.00  0.00     0.121 C 
HETATM   12  C1  UNL     1      -2.264  -1.911  -0.597  1.00  0.00     0.040 C 
BRANCH  11  13
HETATM   13  O1  UNL     1      -1.906  -0.873   1.556  1.00  0.00    -0.395 OA
ATOM     14  H1  UNL     1      -1.641  -0.105   2.048  1.00  0.00     0.210 HD
ENDBRANCH  11  13
ENDBRANCH   1  11
BRANCH   9  15
HETATM   15  O2  UNL     1      -0.673   1.270   1.663  1.00  0.00    -0.232 OA
BRANCH  15  16
HETATM   16  O3  UNL     1      -0.315   2.409   2.167  1.00  0.00    -0.250 OA
ATOM     17  H3  UNL     1      -0.631   2.473   3.061  1.00  0.00     0.253 HD
ENDBRANCH  15  16
ENDBRANCH   9  15
TORSDOF 4
