REMARK  4 active torsions:
REMARK  status: ('A' for Active; 'I' for Inactive)
REMARK    1  A    between atoms: O1_2  and  C2_3 
REMARK    2  A    between atoms: C2_3  and  N1_5 
REMARK    3  A    between atoms: N1_5  and  C3_7 
REMARK    4  A    between atoms: C3_7  and  C4_8 
ROOT
HETATM    1  C3  UNL     1      -0.066   0.227   0.734  1.00  0.00     0.196 C 
ENDROOT
BRANCH   1   2
HETATM    2  N1  UNL     1       1.003  -0.268  -0.109  1.00  0.00    -0.356 N 
ATOM      3  H1  UNL     1       0.874  -1.093  -0.695  1.00  0.00     0.162 HD
BRANCH   2   4
HETATM    4  C2  UNL     1       2.238   0.436  -0.092  1.00  0.00     0.209 C 
HETATM    5  S1  UNL     1       2.469   1.759   0.838  1.00  0.00    -0.033 SA
BRANCH   4   6
HETATM    6  O1  UNL     1       3.328   0.034  -0.871  1.00  0.00    -0.332 OA
HETATM    7  C1  UNL     1       4.449  -0.551  -0.243  1.00  0.00     0.212 C 
ENDBRANCH   4   6
ENDBRANCH   2   4
ENDBRANCH   1   2
BRANCH   1   8
HETATM    8  C4  UNL     1      -1.316  -0.639   0.598  1.00  0.00     0.221 C 
HETATM    9  F1  UNL     1      -1.036  -1.941   0.889  1.00  0.00    -0.210 F 
HETATM   10  C5  UNL     1      -1.780  -0.493  -0.835  1.00  0.00     0.077 C 
HETATM   11  C6  UNL     1      -2.644   0.759  -0.716  1.00  0.00     0.032 C 
HETATM   12  C7  UNL     1      -3.224   0.530   0.671  1.00  0.00     0.172 C 
HETATM   13  O2  UNL     1      -2.282  -0.122   1.414  1.00  0.00    -0.350 OA
ENDBRANCH   1   8
TORSDOF 4
