REMARK  10 active torsions:
REMARK  status: ('A' for Active; 'I' for Inactive)
REMARK    1  A    between atoms: C2_2  and  S1_5 
REMARK    2  A    between atoms: S1_5  and  N1_8 
REMARK    3  A    between atoms: N1_8  and  N2_10 
REMARK    4  A    between atoms: N2_10  and  C5_12 
REMARK    5  A    between atoms: C8_15  and  C9_16 
REMARK    6  A    between atoms: N3_17  and  N4_19 
REMARK    7  A    between atoms: C11_24  and  O3_25 
REMARK    8  A    between atoms: O3_25  and  N7_26 
REMARK    9  A    between atoms: N8_28  and  N9_29 
REMARK   10  A    between atoms: N8_28  and  O4_32 
ROOT
HETATM    1  C5  UNL     1      -0.175  -0.617  -0.157  1.00  0.00     0.122 A 
HETATM    2  C6  UNL     1       0.271   0.636  -0.518  1.00  0.00     0.051 A 
HETATM    3  C7  UNL     1       1.635   0.905  -0.444  1.00  0.00     0.021 A 
HETATM    4  C8  UNL     1       2.529  -0.059  -0.017  1.00  0.00     0.034 A 
HETATM    5  C11 UNL     1       2.034  -1.325   0.344  1.00  0.00     0.185 A 
HETATM    6  N10 UNL     1       0.723  -1.533   0.254  1.00  0.00    -0.319 N 
ATOM      7  H10 UNL     1       0.372  -2.454   0.516  1.00  0.00     0.169 HD
ENDROOT
BRANCH   1   8
HETATM    8  N2  UNL     1      -1.431  -0.910  -0.211  1.00  0.00    -0.276 N 
ATOM      9  H2  UNL     1      -1.759  -1.838   0.058  1.00  0.00     0.189 HD
BRANCH   8  10
HETATM   10  N1  UNL     1      -2.334   0.063  -0.643  1.00  0.00    -0.225 N 
ATOM     11  H1  UNL     1      -2.341   0.318  -1.631  1.00  0.00     0.200 HD
BRANCH  10  12
HETATM   12  S1  UNL     1      -3.437   0.851   0.418  1.00  0.00     0.251 S 
HETATM   13  O1  UNL     1      -2.819   0.948   1.787  1.00  0.00    -0.204 OA
HETATM   14  O2  UNL     1      -3.701   2.234  -0.115  1.00  0.00    -0.204 OA
BRANCH  12  15
HETATM   15  C2  UNL     1      -4.986  -0.046   0.513  1.00  0.00     0.073 C 
HETATM   16  C1  UNL     1      -4.752  -1.432   1.023  1.00  0.00     0.033 C 
HETATM   17  C3  UNL     1      -5.869   0.687   1.502  1.00  0.00     0.033 C 
HETATM   18  C4  UNL     1      -5.613  -0.033  -0.866  1.00  0.00     0.033 C 
ENDBRANCH  12  15
ENDBRANCH  10  12
ENDBRANCH   8  10
ENDBRANCH   1   8
BRANCH   5  19
HETATM   19  O3  UNL     1       2.931  -2.280   0.768  1.00  0.00    -0.200 OA
BRANCH  19  20
HETATM   20  N7  UNL     1       2.610  -3.537   1.146  1.00  0.00    -0.158 N 
HETATM   21  N8  UNL     1       2.911  -4.573   0.480  1.00  0.00    -0.081 N 
ATOM     22  H7  UNL     1       2.095  -3.660   2.018  1.00  0.00     0.220 HD
BRANCH  21  23
HETATM   23  N9  UNL     1       3.612  -4.538  -0.730  1.00  0.00    -0.302 N 
ATOM     24  H92 UNL     1       3.892  -3.624  -1.086  1.00  0.00     0.181 HD
ATOM     25  H91 UNL     1       3.854  -5.371  -1.266  1.00  0.00     0.181 HD
ENDBRANCH  21  23
BRANCH  21  26
HETATM   26  O4  UNL     1       2.533  -5.806   0.960  1.00  0.00    -0.252 OA
ATOM     27  H4  UNL     1       2.759  -6.582   0.461  1.00  0.00     0.248 HD
ENDBRANCH  21  26
ENDBRANCH  19  20
ENDBRANCH   5  19
BRANCH   4  28
HETATM   28  C9  UNL     1       3.956   0.167   0.080  1.00  0.00     0.123 C 
HETATM   29  N3  UNL     1       4.558   1.216  -0.195  1.00  0.00    -0.309 N 
ATOM     30  H3  UNL     1       5.565   1.143  -0.050  1.00  0.00     0.186 HD
BRANCH  29  31
HETATM   31  N4  UNL     1       4.186   2.414  -0.636  1.00  0.00    -0.276 N 
HETATM   32  C10 UNL     1       4.987   3.422  -0.651  1.00  0.00     0.215 C 
HETATM   33  N5  UNL     1       6.323   3.305  -0.191  1.00  0.00    -0.065 NA
HETATM   34  N6  UNL     1       4.507   4.660  -1.138  1.00  0.00    -0.065 NA
ATOM     35  H4  UNL     1       3.232   2.539  -0.975  1.00  0.00     0.189 HD
ENDBRANCH  29  31
ENDBRANCH   4  28
TORSDOF 10
