REMARK  3 active torsions:
REMARK  status: ('A' for Active; 'I' for Inactive)
REMARK    1  A    between atoms: C2_2  and  N1_5 
REMARK    2  A    between atoms: N1_5  and  C5_7 
REMARK    3  A    between atoms: C5_7  and  N2_9 
REMARK       I    between atoms: N3_12  and  C8_13 
ROOT
HETATM    1  N2  UNL     1       0.843   0.089  -0.401  1.00  0.00    -0.278 N 
HETATM    2  C6  UNL     1       1.890   0.652  -1.227  1.00  0.00     0.162 C 
HETATM    3  C7  UNL     1       3.015   1.034  -0.289  1.00  0.00     0.164 C 
HETATM    4  N3  UNL     1       3.342  -0.160   0.491  1.00  0.00    -0.256 N 
HETATM    5  C8  UNL     1       4.595  -0.634   0.890  1.00  0.00     0.342 C 
HETATM    6  N4  UNL     1       5.756   0.079   0.529  1.00  0.00    -0.039 NA
HETATM    7  O1  UNL     1       4.682  -1.686   1.562  1.00  0.00    -0.250 OA
HETATM    8  S2  UNL     1       1.722  -0.856   0.806  1.00  0.00     0.077 SA
ENDROOT
BRANCH   1   9
HETATM    9  C5  UNL     1      -0.555   0.240  -0.510  1.00  0.00     0.181 C 
HETATM   10  S1  UNL     1      -1.125   1.172  -1.721  1.00  0.00    -0.040 SA
BRANCH   9  11
HETATM   11  N1  UNL     1      -1.390  -0.413   0.420  1.00  0.00    -0.358 N 
ATOM     12  H1  UNL     1      -0.951  -0.978   1.147  1.00  0.00     0.162 HD
BRANCH  11  13
HETATM   13  C2  UNL     1      -2.833  -0.327   0.402  1.00  0.00     0.021 C 
HETATM   14  C1  UNL     1      -3.326   1.087   0.560  1.00  0.00     0.037 C 
HETATM   15  C3  UNL     1      -3.455  -1.166   1.478  1.00  0.00     0.037 C 
HETATM   16  C4  UNL     1      -3.295  -0.811  -0.963  1.00  0.00     0.037 C 
ENDBRANCH  11  13
ENDBRANCH   9  11
ENDBRANCH   1   9
TORSDOF 3
