REMARK  13 active torsions:
REMARK  status: ('A' for Active; 'I' for Inactive)
REMARK    1  A    between atoms: C1_2  and  O2_4 
REMARK    2  A    between atoms: O2_4  and  C2_5 
REMARK    3  A    between atoms: C2_5  and  C3_6 
REMARK    4  A    between atoms: C3_6  and  N2_7 
REMARK    5  A    between atoms: C3_6  and  C4_11 
REMARK       I    between atoms: C4_11  and  N3_13 
REMARK    6  A    between atoms: N3_13  and  C5_15 
REMARK    7  A    between atoms: C5_15  and  O4_16 
REMARK    8  A    between atoms: C6_18  and  O5_19 
REMARK    9  A    between atoms: C6_18  and  C7_21 
REMARK   10  A    between atoms: C8_25  and  O6_26 
REMARK   11  A    between atoms: C9_28  and  N5_29 
REMARK   12  A    between atoms: N6_34  and  N7_35 
REMARK   13  A    between atoms: C14_41  and  C15_42 
ROOT
HETATM    1  C7  UNL     1      -0.610  -0.806  -0.532  1.00  0.00     0.287 C 
HETATM    2  N4  UNL     1      -1.541  -0.940  -1.634  1.00  0.00    -0.031 N 
ATOM      3  H41 UNL     1      -1.627  -1.919  -1.907  1.00  0.00     0.281 HD
ATOM      4  H42 UNL     1      -1.137  -0.554  -2.487  1.00  0.00     0.281 HD
HETATM    5  C8  UNL     1      -2.825  -0.379  -1.400  1.00  0.00     0.369 C 
HETATM    6  C9  UNL     1      -2.891   0.102   0.021  1.00  0.00     0.289 C 
HETATM    7  O9  UNL     1      -1.933   1.061   0.181  1.00  0.00    -0.345 OA
HETATM    8  C14 UNL     1      -0.641   0.444   0.196  1.00  0.00     0.250 C 
ENDROOT
BRANCH   1   9
HETATM    9  C6  UNL     1       0.713  -1.305  -1.102  1.00  0.00     0.128 C 
HETATM   10  C5  UNL     1       1.640  -1.785  -0.120  1.00  0.00     0.174 C 
BRANCH  10  11
HETATM   11  N3  UNL     1       3.018  -1.784  -0.155  1.00  0.00    -0.304 N 
HETATM   12  C4  UNL     1       3.957  -1.359  -1.109  1.00  0.00     0.256 C 
HETATM   13  O3  UNL     1       3.753  -0.839  -2.227  1.00  0.00    -0.271 OA
ATOM     14  H3  UNL     1       3.444  -2.172   0.686  1.00  0.00     0.171 HD
BRANCH  12  15
HETATM   15  C3  UNL     1       5.460  -1.509  -0.837  1.00  0.00     0.299 C 
BRANCH  15  16
HETATM   16  C2  UNL     1       6.133  -0.194  -1.019  1.00  0.00     0.222 C 
BRANCH  16  17
HETATM   17  O2  UNL     1       5.809   0.842  -0.189  1.00  0.00    -0.304 OA
BRANCH  17  18
HETATM   18  C1  UNL     1       5.974   1.024   1.143  1.00  0.00     0.372 C 
HETATM   19  N1  UNL     1       5.512   2.233   1.751  1.00  0.00    -0.032 NA
HETATM   20  O1  UNL     1       6.525   0.138   1.826  1.00  0.00    -0.242 OA
ENDBRANCH  17  18
ENDBRANCH  16  17
ENDBRANCH  15  16
BRANCH  15  21
HETATM   21  N2  UNL     1       5.639  -2.186   0.386  1.00  0.00    -0.064 N 
ATOM     22  H23 UNL     1       6.638  -2.296   0.563  1.00  0.00     0.275 HD
ATOM     23  H22 UNL     1       5.372  -1.567   1.151  1.00  0.00     0.275 HD
ATOM     24  H21 UNL     1       5.178  -3.087   0.511  1.00  0.00     0.275 HD
ENDBRANCH  15  21
ENDBRANCH  12  15
ENDBRANCH  10  11
BRANCH  10  25
HETATM   25  O4  UNL     1       1.121  -2.300   0.965  1.00  0.00    -0.344 OA
ATOM     26  H4  UNL     1       0.171  -2.301   0.989  1.00  0.00     0.219 HD
ENDBRANCH  10  25
BRANCH   9  27
HETATM   27  O5  UNL     1       1.130  -0.584  -2.175  1.00  0.00    -0.359 OA
ATOM     28  H5  UNL     1       0.516  -0.266  -2.826  1.00  0.00     0.217 HD
ENDBRANCH   9  27
ENDBRANCH   1   9
BRANCH   8  29
HETATM   29  C15 UNL     1       0.283   1.530  -0.142  1.00  0.00     0.262 C 
HETATM   30  N8  UNL     1      -0.145   2.844  -0.484  1.00  0.00    -0.060 NA
HETATM   31  O10 UNL     1       1.514   1.349  -0.147  1.00  0.00    -0.274 OA
ENDBRANCH   8  29
BRANCH   5  32
HETATM   32  O6  UNL     1      -3.017   0.647  -2.324  1.00  0.00    -0.366 OA
ATOM     33  H6  UNL     1      -3.876   1.022  -2.168  1.00  0.00     0.212 HD
ENDBRANCH   5  32
BRANCH   6  34
HETATM   34  N5  UNL     1      -4.214   0.515   0.421  1.00  0.00    -0.276 N 
HETATM   35  C10 UNL     1      -4.509   1.826   0.440  1.00  0.00     0.104 A 
HETATM   36  C11 UNL     1      -5.768   2.247   0.818  1.00  0.00     0.094 A 
HETATM   37  C12 UNL     1      -6.696   1.288   1.171  1.00  0.00     0.271 A 
HETATM   38  O7  UNL     1      -7.857   1.679   1.519  1.00  0.00    -0.266 OA
HETATM   39  N6  UNL     1      -6.403  -0.025   1.152  1.00  0.00    -0.175 N 
HETATM   40  C13 UNL     1      -5.151  -0.386   0.773  1.00  0.00     0.352 A 
HETATM   41  O8  UNL     1      -4.866  -1.613   0.752  1.00  0.00    -0.244 OA
BRANCH  39  42
HETATM   42  N7  UNL     1      -7.364  -0.972   1.514  1.00  0.00    -0.332 N 
ATOM     43  H72 UNL     1      -8.305  -0.701   1.799  1.00  0.00     0.177 HD
ATOM     44  H71 UNL     1      -7.142  -1.967   1.500  1.00  0.00     0.177 HD
ENDBRANCH  39  42
ENDBRANCH   6  34
TORSDOF 13
