REMARK  5 active torsions:
REMARK  status: ('A' for Active; 'I' for Inactive)
REMARK    1  A    between atoms: C4_4  and  C5_5 
REMARK    2  A    between atoms: N1_6  and  N2_8 
REMARK       I    between atoms: N2_8  and  C6_10 
REMARK    3  A    between atoms: C6_10  and  C7_12 
REMARK    4  A    between atoms: C7_12  and  C8_13 
REMARK    5  A    between atoms: N3_14  and  O2_16 
ROOT
HETATM    1  N2  UNL     1       0.747  -0.712   0.552  1.00  0.00    -0.270 N 
ATOM      2  H2  UNL     1       0.766  -1.480   1.223  1.00  0.00     0.190 HD
HETATM    3  C6  UNL     1       1.935   0.026   0.312  1.00  0.00     0.240 C 
HETATM    4  O1  UNL     1       1.902   0.971  -0.517  1.00  0.00    -0.271 OA
ENDROOT
BRANCH   1   5
HETATM    5  N1  UNL     1      -0.458  -0.412  -0.112  1.00  0.00    -0.313 N 
HETATM    6  C5  UNL     1      -1.446  -1.206  -0.107  1.00  0.00     0.085 C 
ATOM      7  H1  UNL     1      -0.538   0.473  -0.613  1.00  0.00     0.185 HD
BRANCH   6   8
HETATM    8  C4  UNL     1      -2.737  -0.987  -0.764  1.00  0.00     0.030 A 
HETATM    9  C2  UNL     1      -3.559   0.201  -0.615  1.00  0.00    -0.009 A 
HETATM   10  C1  UNL     1      -3.185   1.404   0.191  1.00  0.00     0.011 C 
HETATM   11  C3  UNL     1      -3.925  -1.018   0.221  1.00  0.00     0.015 A 
ENDBRANCH   6   8
ENDBRANCH   1   5
BRANCH   3  12
HETATM   12  C7  UNL     1       3.185  -0.310   1.023  1.00  0.00     0.151 C 
BRANCH  12  13
HETATM   13  C8  UNL     1       4.252   0.600   0.595  1.00  0.00     0.096 C 
HETATM   14  N3  UNL     1       5.461   0.378   0.937  1.00  0.00    -0.284 N 
ATOM     15  H3  UNL     1       5.657  -0.443   1.510  1.00  0.00     0.192 HD
BRANCH  14  16
HETATM   16  O2  UNL     1       6.514   1.183   0.576  1.00  0.00    -0.291 OA
ATOM     17  H2  UNL     1       7.414   1.018   0.831  1.00  0.00     0.244 HD
ENDBRANCH  14  16
ENDBRANCH  12  13
ENDBRANCH   3  12
TORSDOF 5
