REMARK  11 active torsions:
REMARK  status: ('A' for Active; 'I' for Inactive)
REMARK       I    between atoms: C2_2  and  N1_4 
REMARK    1  A    between atoms: N1_4  and  C3_6 
REMARK    2  A    between atoms: C3_6  and  C4_7 
REMARK    3  A    between atoms: C5_12  and  C6_13 
REMARK    4  A    between atoms: C8_20  and  N6_21 
REMARK    5  A    between atoms: C9_26  and  C10_27 
REMARK    6  A    between atoms: C10_27  and  O3_28 
REMARK    7  A    between atoms: C10_27  and  O4_30 
REMARK    8  A    between atoms: C12_35  and  N10_36 
REMARK    9  A    between atoms: C13_39  and  C14_40 
REMARK   10  A    between atoms: C14_40  and  O5_41 
REMARK   11  A    between atoms: C14_40  and  O6_43 
ROOT
HETATM    1  C6  UNL     1       0.808  -0.854   0.032  1.00  0.00     0.143 A 
HETATM    2  O2  UNL     1       0.814   0.434  -0.324  1.00  0.00    -0.286 OA
HETATM    3  C7  UNL     1      -0.246   1.109  -0.660  1.00  0.00     0.179 A 
HETATM    4  N4  UNL     1      -0.450   2.400  -1.047  1.00  0.00    -0.277 N 
ATOM      5  H4  UNL     1       0.282   3.104  -1.140  1.00  0.00     0.189 HD
HETATM    6  N5  UNL     1      -1.719   2.605  -1.281  1.00  0.00    -0.280 N 
ATOM      7  H5  UNL     1      -2.143   3.482  -1.583  1.00  0.00     0.188 HD
HETATM    8  C8  UNL     1      -2.366   1.443  -1.050  1.00  0.00     0.178 A 
HETATM    9  C11 UNL     1      -1.465   0.479  -0.656  1.00  0.00     0.092 A 
HETATM   10  C12 UNL     1      -1.551  -0.872  -0.294  1.00  0.00     0.058 A 
HETATM   11  C13 UNL     1      -0.374  -1.560   0.063  1.00  0.00     0.061 A 
ENDROOT
BRANCH   1  12
HETATM   12  C5  UNL     1       2.099  -1.471   0.385  1.00  0.00     0.199 A 
HETATM   13  N3  UNL     1       2.457  -2.675   0.776  1.00  0.00    -0.276 N 
HETATM   14  N2  UNL     1       3.758  -2.694   0.960  1.00  0.00    -0.280 N 
ATOM     15  H3  UNL     1       1.827  -3.465   0.914  1.00  0.00     0.189 HD
HETATM   16  C4  UNL     1       4.254  -1.477   0.683  1.00  0.00     0.158 A 
ATOM     17  H2  UNL     1       4.302  -3.501   1.264  1.00  0.00     0.189 HD
HETATM   18  O7  UNL     1       3.227  -0.767   0.340  1.00  0.00    -0.274 OA
BRANCH  16  19
HETATM   19  C3  UNL     1       5.668  -1.024   0.749  1.00  0.00     0.208 C 
BRANCH  19  20
HETATM   20  N1  UNL     1       5.760   0.359   0.369  1.00  0.00    -0.354 N 
HETATM   21  C2  UNL     1       7.004   1.063   0.340  1.00  0.00     0.213 C 
HETATM   22  C1  UNL     1       7.018   2.484  -0.062  1.00  0.00     0.117 C 
HETATM   23  O1  UNL     1       8.071   0.508   0.644  1.00  0.00    -0.274 OA
ATOM     24  H1  UNL     1       4.907   0.856   0.111  1.00  0.00     0.162 HD
ENDBRANCH  19  20
ENDBRANCH  16  19
ENDBRANCH   1  12
BRANCH  11  25
HETATM   25  C14 UNL     1      -0.510  -2.981   0.421  1.00  0.00     0.293 C 
BRANCH  25  26
HETATM   26  O5  UNL     1      -1.557  -3.159   1.371  1.00  0.00    -0.367 OA
ATOM     27  H5  UNL     1      -1.645  -4.076   1.602  1.00  0.00     0.213 HD
ENDBRANCH  25  26
BRANCH  25  28
HETATM   28  O6  UNL     1      -1.051  -3.635  -0.737  1.00  0.00    -0.367 OA
ATOM     29  H6  UNL     1      -1.139  -4.552  -0.506  1.00  0.00     0.213 HD
ENDBRANCH  25  28
ENDBRANCH  11  25
BRANCH  10  30
HETATM   30  N10 UNL     1      -2.700  -1.365  -0.342  1.00  0.00    -0.398 N 
ATOM     31 2H10 UNL     1      -3.552  -0.867  -0.600  1.00  0.00     0.156 HD
ATOM     32 1H10 UNL     1      -2.763  -2.348  -0.079  1.00  0.00     0.156 HD
ENDBRANCH  10  30
BRANCH   8  33
HETATM   33  N6  UNL     1      -3.761   1.186  -1.173  1.00  0.00    -0.161 N 
HETATM   34  N7  UNL     1      -4.339   0.599  -2.194  1.00  0.00    -0.218 N 
HETATM   35  N8  UNL     1      -5.659   0.526  -1.965  1.00  0.00    -0.268 N 
ATOM     36  H7  UNL     1      -3.862   0.254  -3.027  1.00  0.00     0.210 HD
HETATM   37  C9  UNL     1      -5.915   1.083  -0.769  1.00  0.00     0.169 A 
ATOM     38  H8  UNL     1      -6.351   0.117  -2.593  1.00  0.00     0.190 HD
HETATM   39  N9  UNL     1      -4.728   1.484  -0.296  1.00  0.00    -0.259 N 
ATOM     40  H9  UNL     1      -4.582   1.948   0.600  1.00  0.00     0.190 HD
BRANCH  37  41
HETATM   41  C10 UNL     1      -7.262   1.215  -0.121  1.00  0.00     0.326 C 
BRANCH  41  42
HETATM   42  O3  UNL     1      -7.086   0.830   1.213  1.00  0.00    -0.365 OA
ATOM     43  H3  UNL     1      -7.939   0.914   1.623  1.00  0.00     0.213 HD
ENDBRANCH  41  42
BRANCH  41  44
HETATM   44  O4  UNL     1      -7.630   2.559  -0.146  1.00  0.00    -0.365 OA
ATOM     45  H4  UNL     1      -8.483   2.643   0.264  1.00  0.00     0.213 HD
ENDBRANCH  41  44
ENDBRANCH  37  41
ENDBRANCH   8  33
TORSDOF 11
