REMARK  15 active torsions:
REMARK  status: ('A' for Active; 'I' for Inactive)
REMARK    1  A    between atoms: N1_1  and  C1_5 
REMARK    2  A    between atoms: C1_5  and  C2_6 
REMARK    3  A    between atoms: C1_5  and  C3_11 
REMARK    4  A    between atoms: C2_6  and  O1_7 
REMARK    5  A    between atoms: C2_6  and  O2_9 
REMARK    6  A    between atoms: C3_11  and  O3_12 
REMARK    7  A    between atoms: C3_11  and  C4_14 
REMARK    8  A    between atoms: C6_16  and  C7_17 
REMARK    9  A    between atoms: C7_17  and  N2_18 
REMARK   10  A    between atoms: C7_17  and  C14_37 
REMARK   11  A    between atoms: N2_18  and  C8_20 
REMARK   12  A    between atoms: C8_20  and  O4_21 
REMARK   13  A    between atoms: C8_20  and  N3_23 
REMARK   14  A    between atoms: C15_40  and  C16_41 
REMARK   15  A    between atoms: C18_56  and  O10_57 
ROOT
HETATM    1  C7  UNL     1       0.487   1.186  -0.135  1.00  0.00     0.210 C 
ENDROOT
BRANCH   1   2
HETATM    2  C6  UNL     1      -0.577   0.740   0.735  1.00  0.00     0.057 A 
HETATM    3  C5  UNL     1      -1.679   0.048   0.305  1.00  0.00     0.043 A 
HETATM    4  C4  UNL     1      -2.671  -0.383   1.151  1.00  0.00     0.027 A 
HETATM    5  C18 UNL     1      -2.490  -0.072   2.512  1.00  0.00     0.163 A 
HETATM    6  N12 UNL     1      -1.423   0.591   2.900  1.00  0.00    -0.279 N 
HETATM    7  N11 UNL     1      -0.473   1.000   2.049  1.00  0.00    -0.300 N 
ATOM      8  H12 UNL     1      -1.314   0.803   3.892  1.00  0.00     0.189 HD
ATOM      9  H11 UNL     1       0.335   1.513   2.401  1.00  0.00     0.186 HD
BRANCH   4  10
HETATM   10  C3  UNL     1      -3.844  -1.210   0.815  1.00  0.00     0.191 C 
BRANCH  10  11
HETATM   11  C1  UNL     1      -4.593  -0.764  -0.354  1.00  0.00     0.271 C 
BRANCH  11  12
HETATM   12  N1  UNL     1      -3.899  -0.447  -1.532  1.00  0.00    -0.068 N 
ATOM     13  H13 UNL     1      -3.679  -1.277  -2.082  1.00  0.00     0.275 HD
ATOM     14  H12 UNL     1      -4.494   0.027  -2.211  1.00  0.00     0.275 HD
ATOM     15  H11 UNL     1      -3.065   0.096  -1.307  1.00  0.00     0.275 HD
ENDBRANCH  11  12
BRANCH  11  16
HETATM   16  C2  UNL     1      -5.841  -1.577  -0.691  1.00  0.00     0.287 C 
BRANCH  16  17
HETATM   17  O1  UNL     1      -5.482  -2.710  -1.389  1.00  0.00    -0.369 OA
ATOM     18  H1  UNL     1      -6.258  -3.216  -1.599  1.00  0.00     0.212 HD
ENDBRANCH  16  17
BRANCH  16  19
HETATM   19  O2  UNL     1      -6.659  -0.710  -1.428  1.00  0.00    -0.369 OA
ATOM     20  H2  UNL     1      -7.435  -1.216  -1.638  1.00  0.00     0.212 HD
ENDBRANCH  16  19
ENDBRANCH  11  16
ENDBRANCH  10  11
BRANCH  10  21
HETATM   21  O3  UNL     1      -4.535  -1.527   1.955  1.00  0.00    -0.388 OA
ATOM     22  H3  UNL     1      -4.047  -1.818   2.717  1.00  0.00     0.210 HD
ENDBRANCH  10  21
ENDBRANCH   4  10
BRANCH   5  23
HETATM   23  O10 UNL     1      -3.482  -0.488   3.434  1.00  0.00    -0.345 OA
ATOM     24  H10 UNL     1      -3.360  -0.278   4.352  1.00  0.00     0.219 HD
ENDBRANCH   5  23
ENDBRANCH   1   2
BRANCH   1  25
HETATM   25  N2  UNL     1       1.278   0.229  -0.812  1.00  0.00    -0.363 N 
ATOM     26  H2  UNL     1       1.721   0.477  -1.697  1.00  0.00     0.158 HD
BRANCH  25  27
HETATM   27  C8  UNL     1       1.463  -1.069  -0.278  1.00  0.00     0.332 C 
BRANCH  27  28
HETATM   28  O4  UNL     1       1.920  -1.014   1.030  1.00  0.00    -0.359 OA
ATOM     29  H4  UNL     1       2.044  -1.885   1.388  1.00  0.00     0.214 HD
ENDBRANCH  27  28
BRANCH  27  30
HETATM   30  N3  UNL     1       2.552  -1.669  -1.089  1.00  0.00    -0.283 N 
HETATM   31  C9  UNL     1       2.964  -1.211  -2.296  1.00  0.00     0.189 A 
HETATM   32  N4  UNL     1       3.985  -1.966  -2.746  1.00  0.00    -0.345 N 
HETATM   33  C10 UNL     1       4.201  -2.889  -1.814  1.00  0.00     0.147 A 
ATOM     34  H4  UNL     1       4.490  -1.852  -3.625  1.00  0.00     0.167 HD
HETATM   35  C11 UNL     1       5.117  -3.902  -1.790  1.00  0.00     0.280 A 
HETATM   36  C13 UNL     1       3.301  -2.702  -0.777  1.00  0.00     0.148 A 
HETATM   37  O5  UNL     1       5.932  -4.090  -2.706  1.00  0.00    -0.265 OA
HETATM   38  N5  UNL     1       5.150  -4.746  -0.732  1.00  0.00    -0.273 N 
HETATM   39  C12 UNL     1       4.273  -4.565   0.276  1.00  0.00     0.328 A 
ATOM     40  H5  UNL     1       5.828  -5.507  -0.698  1.00  0.00     0.173 HD
HETATM   41  O6  UNL     1       4.322  -5.365   1.253  1.00  0.00    -0.247 OA
HETATM   42  N6  UNL     1       3.364  -3.555   0.248  1.00  0.00    -0.292 N 
ATOM     43  H6  UNL     1       2.715  -3.446   1.028  1.00  0.00     0.172 HD
ENDBRANCH  27  30
ENDBRANCH  25  27
ENDBRANCH   1  25
BRANCH   1  44
HETATM   44  C14 UNL     1       1.366   2.221   0.485  1.00  0.00     0.177 A 
HETATM   45  N7  UNL     1       1.361   3.493  -0.013  1.00  0.00    -0.318 N 
HETATM   46  C15 UNL     1       2.219   4.235   0.709  1.00  0.00     0.174 A 
ATOM     47  H7  UNL     1       0.801   3.824  -0.799  1.00  0.00     0.169 HD
HETATM   48  N10 UNL     1       2.714   3.398   1.617  1.00  0.00    -0.240 N 
HETATM   49  O9  UNL     1       2.197   2.187   1.472  1.00  0.00    -0.220 OA
ATOM     50  H10 UNL     1       3.399   3.654   2.328  1.00  0.00     0.196 HD
BRANCH  46  51
HETATM   51  C16 UNL     1       2.521   5.629   0.455  1.00  0.00     0.177 A 
HETATM   52  N8  UNL     1       3.370   6.378   1.166  1.00  0.00    -0.282 N 
HETATM   53  C17 UNL     1       3.390   7.600   0.624  1.00  0.00     0.388 A 
ATOM     54  H8  UNL     1       3.907   6.072   1.977  1.00  0.00     0.172 HD
HETATM   55  O7  UNL     1       4.056   8.578   1.018  1.00  0.00    -0.236 OA
HETATM   56  O8  UNL     1       2.563   7.569  -0.401  1.00  0.00    -0.179 OA
HETATM   57  N9  UNL     1       2.024   6.422  -0.534  1.00  0.00    -0.236 N 
ATOM     58  H9  UNL     1       1.348   6.149  -1.247  1.00  0.00     0.197 HD
ENDBRANCH  46  51
ENDBRANCH   1  44
TORSDOF 15
