REMARK  11 active torsions:
REMARK  status: ('A' for Active; 'I' for Inactive)
REMARK    1  A    between atoms: C2_2  and  C5_5 
REMARK    2  A    between atoms: C5_5  and  N1_6 
REMARK    3  A    between atoms: C5_5  and  C25_38 
REMARK       I    between atoms: N1_6  and  C6_8 
REMARK       I    between atoms: C6_8  and  N2_10 
REMARK    4  A    between atoms: N2_10  and  C7_11 
REMARK    5  A    between atoms: C7_11  and  C8_12 
REMARK    6  A    between atoms: C7_11  and  C21_33 
REMARK    7  A    between atoms: C8_12  and  O2_13 
REMARK    8  A    between atoms: C8_12  and  N3_15 
REMARK    9  A    between atoms: C12_19  and  C13_20 
REMARK       I    between atoms: C13_20  and  N4_22 
REMARK   10  A    between atoms: N4_22  and  C14_24 
REMARK   11  A    between atoms: C14_24  and  C15_25 
ROOT
HETATM    1  C21 UNL     1      -0.494  -0.221  -1.457  1.00  0.00     0.082 C 
HETATM    2  C22 UNL     1      -1.678   0.162  -2.379  1.00  0.00     0.035 C 
HETATM    3  C23 UNL     1      -0.706  -1.705  -1.174  1.00  0.00     0.035 C 
HETATM    4  C24 UNL     1       0.656   0.093  -2.240  1.00  0.00     0.072 C 
HETATM    5  N5  UNL     1       1.578   0.344  -2.935  1.00  0.00    -0.196 NA
ENDROOT
BRANCH   1   6
HETATM    6  C7  UNL     1      -0.646   0.602  -0.234  1.00  0.00     0.264 C 
BRANCH   6   7
HETATM    7  N2  UNL     1      -2.002   0.318   0.300  1.00  0.00    -0.381 NA
HETATM    8  C6  UNL     1      -3.205   0.060   0.782  1.00  0.00     0.390 C 
HETATM    9  N1  UNL     1      -4.381   0.610   0.116  1.00  0.00    -0.316 N 
HETATM   10  O1  UNL     1      -3.451  -0.634   1.775  1.00  0.00    -0.231 OA
ATOM     11  H1  UNL     1      -4.299   1.355  -0.576  1.00  0.00     0.166 HD
BRANCH   9  12
HETATM   12  C5  UNL     1      -5.658   0.061   0.473  1.00  0.00     0.195 C 
BRANCH  12  13
HETATM   13  C2  UNL     1      -6.799   0.811  -0.207  1.00  0.00    -0.021 C 
HETATM   14  C1  UNL     1      -6.565   0.767  -1.726  1.00  0.00     0.017 C 
HETATM   15  C3  UNL     1      -6.976   2.222   0.257  1.00  0.00     0.017 C 
HETATM   16  C4  UNL     1      -8.100   0.046   0.052  1.00  0.00     0.017 C 
ENDBRANCH  12  13
BRANCH  12  17
HETATM   17  C25 UNL     1      -5.942  -0.185   1.893  1.00  0.00     0.197 C 
HETATM   18  O4  UNL     1      -5.690   0.549   2.889  1.00  0.00    -0.646 OA
HETATM   19  O5  UNL     1      -6.570  -1.444   2.229  1.00  0.00    -0.646 OA
ENDBRANCH  12  17
ENDBRANCH   9  12
ENDBRANCH   6   7
BRANCH   6  20
HETATM   20  C8  UNL     1       0.261   0.289   0.898  1.00  0.00     0.153 C 
BRANCH  20  21
HETATM   21  O2  UNL     1      -0.264   0.893   1.983  1.00  0.00    -0.347 OA
ATOM     22  H2  UNL     1       0.317   0.693   2.708  1.00  0.00     0.219 HD
ENDBRANCH  20  21
BRANCH  20  23
HETATM   23  N3  UNL     1       1.409  -0.403   1.181  1.00  0.00    -0.349 N 
HETATM   24  C9  UNL     1       1.755  -0.614   2.638  1.00  0.00     0.126 C 
HETATM   25  C10 UNL     1       2.802  -1.639   2.620  1.00  0.00     0.022 C 
HETATM   26  C11 UNL     1       2.625  -2.325   1.320  1.00  0.00     0.037 C 
HETATM   27  C12 UNL     1       2.451  -1.048   0.428  1.00  0.00     0.179 C 
BRANCH  27  28
HETATM   28  C13 UNL     1       3.723  -0.264   0.540  1.00  0.00     0.251 C 
HETATM   29  O3  UNL     1       3.947   0.505   1.412  1.00  0.00    -0.270 OA
HETATM   30  N4  UNL     1       4.704  -0.496  -0.491  1.00  0.00    -0.290 N 
ATOM     31  H4  UNL     1       4.410  -1.105  -1.255  1.00  0.00     0.178 HD
BRANCH  30  32
HETATM   32  C14 UNL     1       5.947  -0.016  -0.575  1.00  0.00    -0.024 C 
BRANCH  32  33
HETATM   33  C15 UNL     1       7.191   0.615  -0.615  1.00  0.00     0.070 A 
HETATM   34  C16 UNL     1       8.315  -0.087  -1.194  1.00  0.00     0.055 A 
HETATM   35 CL1  UNL     1       7.913  -1.596  -1.956  1.00  0.00    -0.083 Cl
HETATM   36  C17 UNL     1       9.569   0.418  -1.145  1.00  0.00     0.025 A 
HETATM   37  C18 UNL     1       9.831   1.655  -0.523  1.00  0.00     0.003 A 
HETATM   38  C19 UNL     1       8.769   2.333   0.036  1.00  0.00     0.025 A 
HETATM   39  C20 UNL     1       7.519   1.840  -0.007  1.00  0.00     0.055 A 
HETATM   40 CL2  UNL     1       6.283   2.871   0.726  1.00  0.00    -0.083 Cl
ENDBRANCH  32  33
ENDBRANCH  30  32
ENDBRANCH  27  28
ENDBRANCH  20  23
ENDBRANCH   6  20
ENDBRANCH   1   6
TORSDOF 11
