REMARK  6 active torsions:
REMARK  status: ('A' for Active; 'I' for Inactive)
REMARK       I    between atoms: N1_2  and  C2_4 
REMARK       I    between atoms: C2_4  and  N2_6 
REMARK    1  A    between atoms: N2_6  and  C3_8 
REMARK    2  A    between atoms: C3_8  and  C4_9 
REMARK    3  A    between atoms: C4_9  and  C5_10 
REMARK       I    between atoms: C5_10  and  N3_12 
REMARK       I    between atoms: C6_14  and  N4_15 
REMARK       I    between atoms: C6_14  and  N5_21 
REMARK    4  A    between atoms: N4_15  and  C7_17 
REMARK    5  A    between atoms: C8_18  and  C9_19 
REMARK    6  A    between atoms: N5_21  and  N6_23 
ROOT
HETATM    1  C5  UNL     1       0.493  -1.378   0.681  1.00  0.00     0.237 C 
HETATM    2  O2  UNL     1       0.522  -1.754   1.866  1.00  0.00    -0.273 OA
HETATM    3  N3  UNL     1      -0.709  -1.313  -0.016  1.00  0.00    -0.158 N 
ATOM      4  H3  UNL     1      -1.178  -2.202  -0.188  1.00  0.00     0.187 HD
HETATM    5  C6  UNL     1      -1.292  -0.273  -0.464  1.00  0.00     0.712 C 
HETATM    6  N4  UNL     1      -0.720   0.996  -0.273  1.00  0.00    -0.147 N 
ATOM      7  H4  UNL     1      -0.173   1.423  -1.021  1.00  0.00     0.195 HD
HETATM    8  N5  UNL     1      -2.513  -0.391  -1.152  1.00  0.00    -0.048 N 
ATOM      9  H5  UNL     1      -2.584   0.047  -2.071  1.00  0.00     0.213 HD
ENDROOT
BRANCH   1  10
HETATM   10  C4  UNL     1       1.761  -0.997   0.015  1.00  0.00     0.123 C 
BRANCH  10  11
HETATM   11  C3  UNL     1       2.888  -1.164   0.995  1.00  0.00     0.133 C 
BRANCH  11  12
HETATM   12  N2  UNL     1       4.149  -0.825   0.434  1.00  0.00    -0.343 N 
HETATM   13  C2  UNL     1       4.453   0.453  -0.034  1.00  0.00     0.315 C 
HETATM   14  N1  UNL     1       5.737   0.732  -0.602  1.00  0.00    -0.347 N 
HETATM   15  O1  UNL     1       3.613   1.378   0.032  1.00  0.00    -0.247 OA
HETATM   16  C1  UNL     1       6.029   2.064  -1.080  1.00  0.00     0.151 C 
ATOM     17  H1  UNL     1       6.440  -0.004  -0.669  1.00  0.00     0.163 HD
ATOM     18  H2  UNL     1       4.864  -1.549   0.371  1.00  0.00     0.164 HD
ENDBRANCH  11  12
ENDBRANCH  10  11
ENDBRANCH   1  10
BRANCH   6  19
HETATM   19  C7  UNL     1      -0.898   1.688   0.952  1.00  0.00     0.026 C 
HETATM   20  C8  UNL     1      -1.049   2.296   1.984  1.00  0.00    -0.072 C 
BRANCH  20  21
HETATM   21  C9  UNL     1      -1.245   3.054   3.228  1.00  0.00     0.180 C 
HETATM   22 BR1  UNL     1      -2.925   2.485   3.991  1.00  0.00    -0.083 Br
ENDBRANCH  20  21
ENDBRANCH   6  19
BRANCH   8  23
HETATM   23  N6  UNL     1      -3.632  -1.064  -0.666  1.00  0.00     0.014 N 
HETATM   24  C10 UNL     1      -3.352  -2.477  -0.613  1.00  0.00     0.302 C 
HETATM   25  C11 UNL     1      -3.901  -0.564   0.680  1.00  0.00     0.302 C 
HETATM   26  C12 UNL     1      -4.772  -0.828  -1.508  1.00  0.00     0.302 C 
ENDBRANCH   8  23
TORSDOF 6
