REMARK  8 active torsions:
REMARK  status: ('A' for Active; 'I' for Inactive)
REMARK    1  A    between atoms: C7_7  and  C8_8 
REMARK    2  A    between atoms: C9_9  and  C10_10 
REMARK    3  A    between atoms: C10_10  and  C11_11 
REMARK    4  A    between atoms: C11_11  and  C12_12 
REMARK    5  A    between atoms: C11_11  and  N1_15 
REMARK    6  A    between atoms: C12_12  and  O1_13 
REMARK    7  A    between atoms: N1_15  and  N2_16 
REMARK       I    between atoms: N1_15  and  C13_21 
REMARK    8  A    between atoms: C13_21  and  C14_23 
ROOT
HETATM    1  C1  UNL     1      -3.615   1.722   3.370  1.00  0.00     0.012 C 
HETATM    2  C2  UNL     1      -3.288   1.342   2.269  1.00  0.00    -0.110 C 
HETATM    3  C3  UNL     1      -2.877   0.903   0.948  1.00  0.00     0.090 C 
HETATM    4  C4  UNL     1      -3.580  -0.377   0.465  1.00  0.00     0.012 C 
HETATM    5  C5  UNL     1      -3.614  -1.172   1.729  1.00  0.00     0.008 C 
HETATM    6  C6  UNL     1      -2.149  -0.975   2.176  1.00  0.00     0.025 C 
HETATM    7  C7  UNL     1      -1.687  -0.059   1.085  1.00  0.00     0.045 C 
HETATM    8  C15 UNL     1      -2.216  -0.703  -0.158  1.00  0.00    -0.023 C 
HETATM    9  C16 UNL     1      -1.946  -2.154  -0.340  1.00  0.00     0.017 C 
HETATM   10  C17 UNL     1      -2.015   0.056  -1.441  1.00  0.00     0.017 C 
ENDROOT
BRANCH   7  11
HETATM   11  C8  UNL     1      -0.400   0.482   1.107  1.00  0.00    -0.094 C 
HETATM   12  C9  UNL     1       0.712   0.946   1.145  1.00  0.00    -0.103 C 
BRANCH  12  13
HETATM   13  C10 UNL     1       2.045   1.537   1.206  1.00  0.00     0.123 C 
BRANCH  13  14
HETATM   14  C11 UNL     1       2.742   1.373  -0.103  1.00  0.00     0.147 C 
BRANCH  14  15
HETATM   15  C12 UNL     1       2.004   2.010  -1.249  1.00  0.00     0.192 C 
BRANCH  15  16
HETATM   16  O1  UNL     1       1.734   3.326  -0.881  1.00  0.00    -0.399 OA
ATOM     17  H1  UNL     1       1.268   3.728  -1.605  1.00  0.00     0.209 HD
ENDBRANCH  15  16
ENDBRANCH  14  15
BRANCH  14  18
HETATM   18  N1  UNL     1       3.101  -0.009  -0.323  1.00  0.00    -0.239 N 
HETATM   19  C13 UNL     1       4.474  -0.375  -0.437  1.00  0.00     0.249 C 
HETATM   20  O2  UNL     1       5.367   0.511  -0.352  1.00  0.00    -0.271 OA
BRANCH  18  21
HETATM   21  N2  UNL     1       2.147  -1.014  -0.445  1.00  0.00    -0.244 N 
HETATM   22  N3  UNL     1       2.168  -2.095   0.200  1.00  0.00    -0.331 N 
ATOM     23  H32 UNL     1       2.942  -2.227   0.851  1.00  0.00     0.178 HD
ATOM     24  H31 UNL     1       1.468  -2.832   0.111  1.00  0.00     0.178 HD
ATOM     25  H2  UNL     1       1.380  -0.865  -1.100  1.00  0.00     0.208 HD
ENDBRANCH  18  21
BRANCH  19  26
HETATM   26  C14 UNL     1       4.893  -1.770  -0.656  1.00  0.00     0.189 C 
HETATM   27 BR1  UNL     1       6.840  -1.872  -0.857  1.00  0.00    -0.087 Br
ENDBRANCH  19  26
ENDBRANCH  14  18
ENDBRANCH  13  14
ENDBRANCH  12  13
ENDBRANCH   7  11
TORSDOF 8
