REMARK  7 active torsions:
REMARK  status: ('A' for Active; 'I' for Inactive)
REMARK    1  A    between atoms: O1_1  and  C1_3 
REMARK    2  A    between atoms: C1_3  and  C2_4 
REMARK    3  A    between atoms: C2_4  and  N1_5 
REMARK    4  A    between atoms: N4_17  and  C9_18 
REMARK    5  A    between atoms: C9_18  and  C10_19 
REMARK    6  A    between atoms: C10_19  and  C11_20 
REMARK    7  A    between atoms: C11_20  and  C12_21 
ROOT
HETATM    1  N1  UNL     1       5.471   0.122  -0.204  1.00  0.00    -0.372 N 
ATOM      2  H1  UNL     1       6.339   0.635  -0.047  1.00  0.00     0.161 HD
HETATM    3  C3  UNL     1       4.395   0.613   0.302  1.00  0.00     0.130 A 
HETATM    4  N2  UNL     1       4.499   1.759   0.995  1.00  0.00    -0.351 N 
ATOM      5  H2  UNL     1       5.415   2.197   1.097  1.00  0.00     0.166 HD
HETATM    6  C4  UNL     1       3.418   2.349   1.563  1.00  0.00     0.092 A 
HETATM    7  C5  UNL     1       2.158   1.798   1.453  1.00  0.00     0.049 A 
HETATM    8  C6  UNL     1       2.016   0.625   0.750  1.00  0.00     0.067 A 
HETATM    9  C7  UNL     1       3.142   0.054   0.186  1.00  0.00     0.104 A 
HETATM   10  N3  UNL     1       2.729  -1.051  -0.426  1.00  0.00    -0.347 N 
ATOM     11  H3  UNL     1       3.318  -1.705  -0.942  1.00  0.00     0.167 HD
HETATM   12  C8  UNL     1       1.394  -1.159  -0.246  1.00  0.00     0.184 A 
HETATM   13  N4  UNL     1       0.932  -0.126   0.482  1.00  0.00    -0.341 N 
ENDROOT
BRANCH  13  14
HETATM   14  C9  UNL     1      -0.456   0.127   0.897  1.00  0.00     0.130 C 
BRANCH  14  15
HETATM   15  C10 UNL     1      -1.159   0.955  -0.146  1.00  0.00     0.021 C 
BRANCH  15  16
HETATM   16  C11 UNL     1      -2.583   1.236   0.249  1.00  0.00     0.006 C 
BRANCH  16  17
HETATM   17  C12 UNL     1      -3.414   0.004   0.434  1.00  0.00    -0.014 C 
HETATM   18  C13 UNL     1      -4.817   0.409   0.825  1.00  0.00     0.004 C 
HETATM   19  C14 UNL     1      -5.769   0.382  -0.353  1.00  0.00     0.000 C 
HETATM   20  C15 UNL     1      -5.875  -1.015  -0.939  1.00  0.00     0.000 C 
HETATM   21  C16 UNL     1      -4.620  -1.818  -0.647  1.00  0.00     0.000 C 
HETATM   22  C17 UNL     1      -3.451  -0.869  -0.783  1.00  0.00     0.004 C 
ENDBRANCH  16  17
ENDBRANCH  15  16
ENDBRANCH  14  15
ENDBRANCH  13  14
BRANCH   1  23
HETATM   23  C2  UNL     1       5.551  -1.084  -0.969  1.00  0.00     0.147 C 
BRANCH  23  24
HETATM   24  C1  UNL     1       7.009  -1.245  -1.410  1.00  0.00     0.183 C 
BRANCH  24  25
HETATM   25  O1  UNL     1       7.770  -1.316  -0.248  1.00  0.00    -0.399 OA
ATOM     26  H1  UNL     1       8.674  -1.416  -0.522  1.00  0.00     0.209 HD
ENDBRANCH  24  25
ENDBRANCH  23  24
ENDBRANCH   1  23
TORSDOF 7
