REMARK  7 active torsions:
REMARK  status: ('A' for Active; 'I' for Inactive)
REMARK    1  A    between atoms: N1_2  and  C2_3 
REMARK    2  A    between atoms: N1_2  and  C11_16 
REMARK    3  A    between atoms: C2_3  and  C3_4 
REMARK    4  A    between atoms: N2_8  and  C7_9 
REMARK    5  A    between atoms: C7_9  and  C8_10 
REMARK    6  A    between atoms: C8_10  and  O1_11 
REMARK    7  A    between atoms: C8_10  and  C9_13 
ROOT
HETATM    1  C3  UNL     1       0.627   0.166   0.591  1.00  0.00     0.042 C 
HETATM    2  C4  UNL     1       1.490   0.611   1.743  1.00  0.00     0.016 C 
HETATM    3  C5  UNL     1       2.955   0.462   1.552  1.00  0.00     0.045 C 
HETATM    4  C6  UNL     1       3.275   0.974   0.156  1.00  0.00     0.063 C 
HETATM    5  N2  UNL     1       2.672   0.142  -0.770  1.00  0.00    -0.367 N 
HETATM    6  C10 UNL     1       1.210   0.370  -0.740  1.00  0.00     0.137 C 
ENDROOT
BRANCH   1   7
HETATM    7  C2  UNL     1      -0.687   0.894   0.737  1.00  0.00     0.064 C 
BRANCH   7   8
HETATM    8  N1  UNL     1      -1.667   0.633  -0.207  1.00  0.00    -0.393 N 
HETATM    9  C1  UNL     1      -1.586   1.046  -1.545  1.00  0.00     0.149 C 
BRANCH   8  10
HETATM   10  C11 UNL     1      -2.992   0.361   0.196  1.00  0.00     0.083 C 
HETATM   11  C12 UNL     1      -3.586  -0.812  -0.597  1.00  0.00     0.025 C 
HETATM   12  C13 UNL     1      -5.070  -0.654  -0.582  1.00  0.00     0.002 C 
HETATM   13  C14 UNL     1      -5.582  -0.037   0.698  1.00  0.00     0.000 C 
HETATM   14  C15 UNL     1      -4.681  -0.279   1.864  1.00  0.00     0.002 C 
HETATM   15  C16 UNL     1      -3.239   0.099   1.637  1.00  0.00     0.025 C 
ENDBRANCH   8  10
ENDBRANCH   7   8
ENDBRANCH   1   7
BRANCH   5  16
HETATM   16  C7  UNL     1       3.007  -1.156  -1.095  1.00  0.00     0.122 C 
BRANCH  16  17
HETATM   17  C8  UNL     1       4.250  -1.518  -1.817  1.00  0.00     0.068 C 
BRANCH  17  18
HETATM   18  O1  UNL     1       4.408  -0.803  -3.025  1.00  0.00    -0.363 OA
ATOM     19  H1  UNL     1       5.205  -1.035  -3.488  1.00  0.00     0.217 HD
ENDBRANCH  17  18
BRANCH  17  20
HETATM   20  C9  UNL     1       5.470  -1.910  -1.116  1.00  0.00     0.151 C 
HETATM   21  S1  UNL     1       6.287  -0.822   0.001  1.00  0.00    -0.091 SA
ENDBRANCH  17  20
ENDBRANCH  16  17
ENDBRANCH   5  16
TORSDOF 7
