REMARK  8 active torsions:
REMARK  status: ('A' for Active; 'I' for Inactive)
REMARK    1  A    between atoms: N2_4  and  C1_6 
REMARK    2  A    between atoms: C1_6  and  C2_7 
REMARK    3  A    between atoms: C2_7  and  C3_8 
REMARK    4  A    between atoms: C3_8  and  N3_9 
REMARK       I    between atoms: N3_9  and  C4_11 
REMARK    5  A    between atoms: C4_11  and  C5_13 
REMARK    6  A    between atoms: C5_13  and  C6_15 
REMARK    7  A    between atoms: C6_15  and  N4_16 
REMARK    8  A    between atoms: N4_16  and  C7_18 
ROOT
HETATM    1  N3  UNL     1       2.260   1.101  -0.105  1.00  0.00    -0.360 N 
ATOM      2  H3  UNL     1       2.064   0.961   0.886  1.00  0.00     0.162 HD
HETATM    3  C4  UNL     1       1.487   2.020  -0.849  1.00  0.00     0.237 C 
HETATM    4  O1  UNL     1       1.726   2.190  -2.058  1.00  0.00    -0.272 OA
ENDROOT
BRANCH   3   5
HETATM    5  C5  UNL     1       0.408   2.762  -0.175  1.00  0.00     0.191 C 
HETATM    6 CL1  UNL     1       1.061   3.731   1.163  1.00  0.00    -0.113 Cl
BRANCH   5   7
HETATM    7  C6  UNL     1      -0.702   1.822   0.315  1.00  0.00     0.144 C 
BRANCH   7   8
HETATM    8  N4  UNL     1      -1.220   1.158  -0.831  1.00  0.00    -0.415 N 
ATOM      9  H4  UNL     1      -0.856   1.337  -1.767  1.00  0.00     0.153 HD
BRANCH   8  10
HETATM   10  C7  UNL     1      -2.269   0.234  -0.602  1.00  0.00     0.076 C 
HETATM   11  C8  UNL     1      -1.936  -0.943   0.250  1.00  0.00     0.026 C 
HETATM   12  C9  UNL     1      -3.121  -1.325   1.129  1.00  0.00     0.022 C 
HETATM   13  C10 UNL     1      -4.383  -1.390   0.308  1.00  0.00     0.082 C 
HETATM   14 CL2  UNL     1      -4.272  -2.756  -0.839  1.00  0.00    -0.125 Cl
HETATM   15  C11 UNL     1      -4.668  -0.090  -0.386  1.00  0.00     0.022 C 
HETATM   16  C12 UNL     1      -3.542   0.903  -0.067  1.00  0.00     0.026 C 
ENDBRANCH   8  10
ENDBRANCH   7   8
ENDBRANCH   5   7
ENDBRANCH   3   5
BRANCH   1  17
HETATM   17  C3  UNL     1       3.332   0.354  -0.740  1.00  0.00     0.124 C 
BRANCH  17  18
HETATM   18  C2  UNL     1       4.003  -0.554   0.275  1.00  0.00     0.041 C 
BRANCH  18  19
HETATM   19  C1  UNL     1       5.109  -1.299  -0.461  1.00  0.00     0.140 C 
BRANCH  19  20
HETATM   20  N2  UNL     1       5.778  -2.166   0.437  1.00  0.00    -0.343 N 
HETATM   21  N1  UNL     1       5.452  -3.339   0.657  1.00  0.00    -0.349 N 
ATOM     22  H12 UNL     1       4.642  -3.691   0.147  1.00  0.00     0.176 HD
ATOM     23  H11 UNL     1       5.934  -3.963   1.304  1.00  0.00     0.176 HD
ATOM     24  H2  UNL     1       6.586  -1.797   0.938  1.00  0.00     0.179 HD
ENDBRANCH  19  20
ENDBRANCH  18  19
ENDBRANCH  17  18
ENDBRANCH   1  17
TORSDOF 8
