REMARK  9 active torsions:
REMARK  status: ('A' for Active; 'I' for Inactive)
REMARK    1  A    between atoms: N1_2  and  C4_5 
REMARK    2  A    between atoms: C4_5  and  C5_6 
REMARK    3  A    between atoms: C5_6  and  O1_7 
REMARK    4  A    between atoms: O1_7  and  C6_8 
REMARK    5  A    between atoms: C8_10  and  N2_11 
REMARK    6  A    between atoms: C9_14  and  N3_15 
REMARK    7  A    between atoms: N3_15  and  C10_17 
REMARK    8  A    between atoms: C10_17  and  C11_18 
REMARK    9  A    between atoms: C11_18  and  O2_19 
ROOT
HETATM    1  C6  UNL     1       0.537   0.997  -0.142  1.00  0.00     0.159 A 
HETATM    2  C7  UNL     1       0.952  -0.296   0.085  1.00  0.00     0.090 A 
HETATM    3  C8  UNL     1       2.334  -0.560   0.066  1.00  0.00     0.075 A 
HETATM    4  C9  UNL     1       3.244   0.434  -0.170  1.00  0.00     0.146 A 
HETATM    5  N4  UNL     1       2.759   1.683  -0.386  1.00  0.00    -0.282 N 
ATOM      6  H4  UNL     1       3.412   2.446  -0.566  1.00  0.00     0.188 HD
HETATM    7  N5  UNL     1       1.459   1.935  -0.369  1.00  0.00    -0.278 N 
ATOM      8  H5  UNL     1       1.147   2.892  -0.537  1.00  0.00     0.189 HD
ENDROOT
BRANCH   1   9
HETATM    9  O1  UNL     1      -0.823   1.251  -0.123  1.00  0.00    -0.333 OA
BRANCH   9  10
HETATM   10  C5  UNL     1      -1.795   0.264   0.116  1.00  0.00     0.205 C 
BRANCH  10  11
HETATM   11  C4  UNL     1      -3.147   0.903   0.061  1.00  0.00     0.262 C 
BRANCH  11  12
HETATM   12  N1  UNL     1      -4.230  -0.027   0.294  1.00  0.00    -0.077 N 
HETATM   13  C1  UNL     1      -4.435  -0.103   1.736  1.00  0.00     0.271 C 
HETATM   14  C2  UNL     1      -3.823  -1.323  -0.192  1.00  0.00     0.271 C 
HETATM   15  C3  UNL     1      -5.429   0.420  -0.364  1.00  0.00     0.271 C 
ENDBRANCH  11  12
ENDBRANCH  10  11
ENDBRANCH   9  10
ENDBRANCH   1   9
BRANCH   3  16
HETATM   16  N2  UNL     1       2.760  -1.748   0.273  1.00  0.00    -0.396 N 
ATOM     17  H22 UNL     1       2.082  -2.489   0.449  1.00  0.00     0.156 HD
ATOM     18  H21 UNL     1       3.762  -1.939   0.259  1.00  0.00     0.156 HD
ENDBRANCH   3  16
BRANCH   4  19
HETATM   19  N3  UNL     1       4.476   0.250  -0.197  1.00  0.00    -0.351 N 
ATOM     20  H3  UNL     1       5.002   1.103  -0.387  1.00  0.00     0.166 HD
BRANCH  19  21
HETATM   21  C10 UNL     1       5.300  -0.878  -0.022  1.00  0.00     0.088 C 
BRANCH  21  22
HETATM   22  C11 UNL     1       6.775  -0.536  -0.137  1.00  0.00     0.208 C 
BRANCH  22  23
HETATM   23  O2  UNL     1       7.039   0.404   0.867  1.00  0.00    -0.396 OA
ATOM     24  H2  UNL     1       7.962   0.618   0.795  1.00  0.00     0.209 HD
ENDBRANCH  22  23
ENDBRANCH  21  22
ENDBRANCH  19  21
ENDBRANCH   4  19
TORSDOF 9
