REMARK  5 active torsions:
REMARK  status: ('A' for Active; 'I' for Inactive)
REMARK    1  A    between atoms: C2_2  and  C3_3 
REMARK    2  A    between atoms: C3_3  and  S1_4 
REMARK    3  A    between atoms: S1_4  and  O1_5 
REMARK    4  A    between atoms: O1_5  and  C4_6 
REMARK    5  A    between atoms: C4_6  and  C5_7 
ROOT
HETATM    1  S1  UNL     1      -0.183   0.549  -0.026  1.00  0.00     0.048 SA
HETATM    2  O2  UNL     1      -0.365  -1.100   1.235  1.00  0.00    -0.271 OA
HETATM    3  C9  UNL     1      -1.490  -1.629   0.632  1.00  0.00     0.181 C 
HETATM    4  C10 UNL     1      -1.421  -3.135   0.952  1.00  0.00     0.080 C 
HETATM    5  C11 UNL     1      -2.772  -1.153   1.275  1.00  0.00     0.098 C 
HETATM    6  C12 UNL     1      -3.909  -1.490   0.319  1.00  0.00     0.215 C 
HETATM    7  O3  UNL     1      -3.884  -0.658  -0.811  1.00  0.00    -0.237 OA
HETATM    8  O4  UNL     1      -2.934   0.215  -0.611  1.00  0.00    -0.186 OA
HETATM    9  C13 UNL     1      -1.756  -0.225  -1.102  1.00  0.00     0.276 C 
HETATM   10  C14 UNL     1      -1.513   0.012  -2.543  1.00  0.00     0.099 C 
HETATM   11  O5  UNL     1      -1.450  -1.544  -0.717  1.00  0.00    -0.305 OA
ENDROOT
BRANCH   1  12
HETATM   12  C3  UNL     1      -0.079   2.189   0.804  1.00  0.00     0.056 C 
BRANCH  12  13
HETATM   13  C2  UNL     1      -1.225   2.777   1.568  1.00  0.00     0.032 C 
HETATM   14  C1  UNL     1      -2.460   3.053   0.758  1.00  0.00     0.010 C 
ENDBRANCH  12  13
ENDBRANCH   1  12
BRANCH   1  15
HETATM   15  O1  UNL     1       1.528   0.018  -1.005  1.00  0.00    -0.309 OA
BRANCH  15  16
HETATM   16  C4  UNL     1       2.487   0.236  -0.012  1.00  0.00     0.195 C 
BRANCH  16  17
HETATM   17  C5  UNL     1       3.828  -0.116  -0.588  1.00  0.00    -0.021 A 
HETATM   18  C6  UNL     1       4.247   0.685  -1.808  1.00  0.00     0.017 C 
HETATM   19  C7  UNL     1       4.351  -1.506  -0.532  1.00  0.00     0.012 A 
HETATM   20  C8  UNL     1       4.871  -0.495   0.422  1.00  0.00     0.012 A 
ENDBRANCH  16  17
ENDBRANCH  15  16
ENDBRANCH   1  15
TORSDOF 5
