REMARK  9 active torsions:
REMARK  status: ('A' for Active; 'I' for Inactive)
REMARK    1  A    between atoms: C2_2  and  C3_3 
REMARK    2  A    between atoms: C3_3  and  C6_6 
REMARK    3  A    between atoms: C11_11  and  C12_12 
REMARK    4  A    between atoms: C15_15  and  N1_16 
REMARK    5  A    between atoms: C16_17  and  N2_18 
REMARK    6  A    between atoms: C17_20  and  O1_21 
REMARK    7  A    between atoms: C17_20  and  C18_23 
REMARK    8  A    between atoms: C18_23  and  C19_24 
REMARK    9  A    between atoms: C19_24  and  C20_25 
ROOT
HETATM    1  N1  UNL     1      -1.264   1.360  -0.442  1.00  0.00    -0.215 N 
HETATM    2  C16 UNL     1       0.132   1.304  -0.047  1.00  0.00     0.154 A 
HETATM    3  C25 UNL     1       0.596   2.521   0.589  1.00  0.00     0.122 A 
HETATM    4  N4  UNL     1       1.712   3.030   1.178  1.00  0.00    -0.303 N 
ATOM      5  H4  UNL     1       2.601   2.536   1.257  1.00  0.00     0.171 HD
HETATM    6  C26 UNL     1       1.483   4.286   1.648  1.00  0.00     0.326 A 
HETATM    7  O2  UNL     1       2.286   5.044   2.243  1.00  0.00    -0.247 OA
HETATM    8  N5  UNL     1       0.221   4.591   1.362  1.00  0.00    -0.296 N 
ATOM      9  H5  UNL     1      -0.258   5.464   1.582  1.00  0.00     0.171 HD
HETATM   10  C27 UNL     1      -0.310   3.514   0.718  1.00  0.00     0.184 A 
HETATM   11  S1  UNL     1      -1.742   2.922  -0.066  1.00  0.00     0.289 S 
HETATM   12  O3  UNL     1      -2.819   3.091   0.995  1.00  0.00    -0.198 OA
HETATM   13  O4  UNL     1      -2.219   3.844  -1.135  1.00  0.00    -0.198 OA
ENDROOT
BRANCH   1  14
HETATM   14  C15 UNL     1      -1.920   0.222  -1.017  1.00  0.00     0.070 A 
HETATM   15  C6  UNL     1      -2.709  -0.598  -0.244  1.00  0.00    -0.015 A 
HETATM   16  C7  UNL     1      -3.560  -1.565  -0.857  1.00  0.00    -0.053 A 
HETATM   17  C8  UNL     1      -4.455  -2.473  -0.184  1.00  0.00     0.049 C 
HETATM   18  C9  UNL     1      -3.558  -1.659  -2.243  1.00  0.00     0.008 A 
HETATM   19  C10 UNL     1      -2.778  -0.867  -2.986  1.00  0.00     0.014 A 
HETATM   20  C11 UNL     1      -1.913   0.117  -2.395  1.00  0.00    -0.006 A 
BRANCH  15  21
HETATM   21  C3  UNL     1      -2.660  -0.737   1.166  1.00  0.00    -0.018 C 
HETATM   22  C4  UNL     1      -4.058  -0.259   1.680  1.00  0.00     0.020 C 
HETATM   23  C5  UNL     1      -2.470  -2.232   1.592  1.00  0.00     0.020 C 
BRANCH  21  24
HETATM   24  C2  UNL     1      -1.869  -0.026   2.172  1.00  0.00     0.009 C 
HETATM   25  C1  UNL     1      -2.250  -0.485   3.624  1.00  0.00     0.006 C 
ENDBRANCH  21  24
ENDBRANCH  15  21
BRANCH  20  26
HETATM   26  C12 UNL     1      -1.074   0.720  -3.392  1.00  0.00    -0.075 C 
HETATM   27  C13 UNL     1      -1.628   0.611  -4.824  1.00  0.00     0.044 C 
HETATM   28  C14 UNL     1      -0.176   1.851  -3.277  1.00  0.00     0.044 C 
ENDBRANCH  20  26
ENDBRANCH   1  14
BRANCH   2  29
HETATM   29  N2  UNL     1       0.859   0.298  -0.235  1.00  0.00    -0.324 N 
HETATM   30  C17 UNL     1       1.925  -0.459  -0.221  1.00  0.00     0.117 C 
ATOM     31  H2  UNL     1       0.193  -0.329  -0.687  1.00  0.00     0.169 HD
BRANCH  30  32
HETATM   32  O1  UNL     1       2.112  -1.313  -1.215  1.00  0.00    -0.349 OA
ATOM     33  H1  UNL     1       2.887  -1.863  -1.205  1.00  0.00     0.219 HD
ENDBRANCH  30  32
BRANCH  30  34
HETATM   34  C18 UNL     1       3.057  -0.559   0.766  1.00  0.00     0.088 C 
BRANCH  34  35
HETATM   35  C19 UNL     1       4.154  -1.370   0.111  1.00  0.00     0.048 C 
BRANCH  35  36
HETATM   36  C20 UNL     1       5.351  -1.566   0.906  1.00  0.00    -0.042 A 
HETATM   37  C21 UNL     1       6.385  -0.650   0.876  1.00  0.00     0.010 A 
HETATM   38  C22 UNL     1       7.542  -0.872   1.640  1.00  0.00     0.018 A 
HETATM   39  C23 UNL     1       7.632  -2.003   2.411  1.00  0.00     0.087 A 
HETATM   40  N3  UNL     1       6.620  -2.889   2.433  1.00  0.00    -0.375 N 
HETATM   41  C24 UNL     1       5.500  -2.676   1.697  1.00  0.00     0.094 A 
ATOM     42  H3  UNL     1       6.695  -3.728   3.008  1.00  0.00     0.164 HD
ENDBRANCH  35  36
ENDBRANCH  34  35
ENDBRANCH  30  34
ENDBRANCH   2  29
TORSDOF 9
