REMARK  3 active torsions:
REMARK  status: ('A' for Active; 'I' for Inactive)
REMARK    1  A    between atoms: C2_2  and  N1_4 
REMARK    2  A    between atoms: N1_4  and  C4_6 
REMARK    3  A    between atoms: C4_6  and  C5_7 
ROOT
HETATM    1  C5  UNL     1      -0.246  -0.147   0.537  1.00  0.00    -0.008 C 
HETATM    2  C6  UNL     1      -1.173  -1.179   1.218  1.00  0.00     0.019 C 
HETATM    3  C7  UNL     1      -2.578  -1.065   0.730  1.00  0.00    -0.013 C 
HETATM    4  C8  UNL     1      -3.104   0.306   1.027  1.00  0.00     0.009 C 
HETATM    5  C9  UNL     1      -2.195   1.305   0.302  1.00  0.00    -0.013 C 
HETATM    6  C10 UNL     1      -2.314   1.015  -1.161  1.00  0.00     0.009 C 
HETATM    7  C11 UNL     1      -1.744  -0.384  -1.448  1.00  0.00    -0.013 C 
HETATM    8  C12 UNL     1      -2.562  -1.402  -0.743  1.00  0.00     0.009 C 
HETATM    9  C13 UNL     1      -0.288  -0.317  -0.955  1.00  0.00     0.019 C 
HETATM   10  C14 UNL     1      -0.797   1.227   0.843  1.00  0.00     0.019 C 
ENDROOT
BRANCH   1  11
HETATM   11  C4  UNL     1       1.092  -0.387   1.135  1.00  0.00     0.065 C 
BRANCH  11  12
HETATM   12  N1  UNL     1       2.192   0.368   0.780  1.00  0.00    -0.398 N 
ATOM     13  H1  UNL     1       2.555   1.017   1.478  1.00  0.00     0.159 HD
BRANCH  12  14
HETATM   14  C2  UNL     1       2.849   0.321  -0.446  1.00  0.00     0.072 C 
HETATM   15  C1  UNL     1       3.489  -1.011  -0.794  1.00  0.00     0.031 C 
HETATM   16  C3  UNL     1       4.027   1.329  -0.353  1.00  0.00     0.031 C 
ENDBRANCH  12  14
ENDBRANCH  11  12
ENDBRANCH   1  11
TORSDOF 3
