REMARK  3 active torsions:
REMARK  status: ('A' for Active; 'I' for Inactive)
REMARK    1  A    between atoms: C2_2  and  C3_3 
REMARK    2  A    between atoms: C8_11  and  N2_13 
REMARK    3  A    between atoms: N2_13  and  C10_15 
ROOT
HETATM    1  C3  UNL     1       1.814  -0.118  -0.798  1.00  0.00     0.192 C 
HETATM    2  N1  UNL     1       1.747  -1.551  -0.573  1.00  0.00    -0.064 N 
ATOM      3  H11 UNL     1       2.586  -1.932  -0.135  1.00  0.00     0.278 HD
ATOM      4  H12 UNL     1       1.795  -2.098  -1.432  1.00  0.00     0.278 HD
HETATM    5  C4  UNL     1       0.544  -1.787   0.191  1.00  0.00     0.214 C 
HETATM    6  C5  UNL     1       0.735  -1.193   1.562  1.00  0.00     0.036 C 
HETATM    7  C6  UNL     1       0.719   0.307   1.333  1.00  0.00     0.011 C 
HETATM    8  C7  UNL     1       0.579   0.437  -0.175  1.00  0.00     0.046 C 
HETATM    9  C8  UNL     1      -0.398  -0.727  -0.414  1.00  0.00     0.056 C 
HETATM   10  C9  UNL     1      -0.616  -1.007  -1.847  1.00  0.00     0.041 C 
ENDROOT
BRANCH   9  11
HETATM   11  N2  UNL     1      -1.536  -0.671   0.413  1.00  0.00    -0.407 N 
ATOM     12  H2  UNL     1      -1.550  -1.153   1.312  1.00  0.00     0.154 HD
BRANCH  11  13
HETATM   13  C10 UNL     1      -2.659   0.067  -0.029  1.00  0.00     0.069 C 
HETATM   14  C11 UNL     1      -3.700   0.034   1.098  1.00  0.00     0.031 C 
HETATM   15  C12 UNL     1      -2.422   1.500  -0.370  1.00  0.00     0.031 C 
ENDBRANCH  11  13
ENDBRANCH   9  11
BRANCH   1  16
HETATM   16  C2  UNL     1       3.098   0.392  -0.236  1.00  0.00     0.029 C 
HETATM   17  C1  UNL     1       3.281   1.876  -0.411  1.00  0.00     0.007 C 
ENDBRANCH   1  16
TORSDOF 3
