REMARK  2 active torsions:
REMARK  status: ('A' for Active; 'I' for Inactive)
REMARK    1  A    between atoms: N1_1  and  C1_5 
REMARK    2  A    between atoms: C1_5  and  C2_6 
ROOT
HETATM    1  C2  UNL     1       1.035   0.010   0.397  1.00  0.00     0.019 C 
HETATM    2  C3  UNL     1       0.247  -1.219   0.792  1.00  0.00    -0.008 C 
HETATM    3  C4  UNL     1      -1.030  -0.742   1.440  1.00  0.00     0.010 C 
HETATM    4  C5  UNL     1      -1.916   0.033   0.532  1.00  0.00    -0.014 C 
HETATM    5  C6  UNL     1      -1.548   1.515   0.493  1.00  0.00     0.005 C 
HETATM    6  C7  UNL     1      -0.475   1.724  -0.529  1.00  0.00     0.006 C 
HETATM    7  C8  UNL     1       0.317   0.475  -0.827  1.00  0.00    -0.004 C 
HETATM    8  C9  UNL     1      -0.518  -0.654  -1.336  1.00  0.00    -0.009 C 
HETATM    9  C10 UNL     1      -1.944  -0.454  -0.882  1.00  0.00     0.009 C 
HETATM   10  C11 UNL     1      -0.006  -1.869  -0.548  1.00  0.00     0.010 C 
ENDROOT
BRANCH   1  11
HETATM   11  C1  UNL     1       2.487  -0.310   0.133  1.00  0.00     0.234 C 
BRANCH  11  12
HETATM   12  N1  UNL     1       3.156   0.923  -0.236  1.00  0.00    -0.079 N 
ATOM     13  H13 UNL     1       2.707   1.397  -1.020  1.00  0.00     0.274 HD
ATOM     14  H12 UNL     1       3.034   1.661   0.457  1.00  0.00     0.274 HD
ATOM     15  H11 UNL     1       4.137   0.707  -0.414  1.00  0.00     0.274 HD
ENDBRANCH  11  12
ENDBRANCH   1  11
TORSDOF 2
