REMARK  15 active torsions:
REMARK  status: ('A' for Active; 'I' for Inactive)
REMARK    1  A    between atoms: C2_2  and  C4_4 
REMARK    2  A    between atoms: C4_4  and  C5_5 
REMARK    3  A    between atoms: C8_9  and  C9_10 
REMARK    4  A    between atoms: C9_10  and  C10_11 
REMARK    5  A    between atoms: C10_11  and  C11_12 
REMARK    6  A    between atoms: C11_12  and  C12_14 
REMARK    7  A    between atoms: C14_16  and  O2_17 
REMARK    8  A    between atoms: O2_17  and  C15_18 
REMARK    9  A    between atoms: C15_18  and  C16_20 
REMARK   10  A    between atoms: C16_20  and  C17_21 
REMARK   11  A    between atoms: C19_23  and  O4_24 
REMARK   12  A    between atoms: O4_24  and  C20_25 
REMARK   13  A    between atoms: C22_28  and  O6_29 
REMARK   14  A    between atoms: O6_29  and  C23_30 
REMARK   15  A    between atoms: C25_33  and  O8_34 
ROOT
HETATM    1  C12 UNL     1      -1.880   0.114   1.658  1.00  0.00     0.089 C 
HETATM    2  C13 UNL     1      -2.920   1.166   1.406  1.00  0.00     0.050 C 
HETATM    3  C14 UNL     1      -4.229   0.699   0.903  1.00  0.00     0.165 C 
HETATM    4  C19 UNL     1      -4.322  -0.592   0.209  1.00  0.00     0.193 C 
HETATM    5  C22 UNL     1      -2.995  -1.362   0.135  1.00  0.00     0.193 C 
HETATM    6  C25 UNL     1      -2.459  -1.293   1.532  1.00  0.00     0.161 C 
ENDROOT
BRANCH   1   7
HETATM    7  C11 UNL     1      -0.760   0.235   0.702  1.00  0.00     0.133 C 
HETATM    8  O1  UNL     1      -0.770   1.076  -0.179  1.00  0.00    -0.297 OA
BRANCH   7   9
HETATM    9  C10 UNL     1       0.447  -0.678   0.776  1.00  0.00     0.079 C 
BRANCH   9  10
HETATM   10  C9  UNL     1       1.575   0.138   1.317  1.00  0.00     0.018 C 
BRANCH  10  11
HETATM   11  C8  UNL     1       2.867  -0.497   1.584  1.00  0.00     0.033 C 
HETATM   12  C6  UNL     1       3.569  -1.107   0.451  1.00  0.00     0.020 C 
HETATM   13  S1  UNL     1       4.287   0.157  -0.677  1.00  0.00    -0.148 SA
HETATM   14  C7  UNL     1       2.835  -2.106  -0.389  1.00  0.00     0.028 C 
HETATM   15  C30 UNL     1       4.871  -1.777   0.903  1.00  0.00     0.034 C 
HETATM   16  C5  UNL     1       5.807  -0.719  -1.110  1.00  0.00     0.080 C 
HETATM   17  C31 UNL     1       5.742  -1.931  -0.256  1.00  0.00    -0.069 C 
HETATM   18  C32 UNL     1       6.433  -3.034  -0.557  1.00  0.00     0.016 C 
HETATM   19  C29 UNL     1       5.475  -1.235   2.134  1.00  0.00     0.015 C 
HETATM   20  C28 UNL     1       5.160   0.171   2.477  1.00  0.00     0.034 C 
HETATM   21  C26 UNL     1       3.780   0.566   2.161  1.00  0.00    -0.084 C 
HETATM   22  C27 UNL     1       3.428   1.808   2.395  1.00  0.00     0.015 C 
BRANCH  16  23
HETATM   23  C4  UNL     1       7.052   0.058  -0.950  1.00  0.00     0.052 C 
BRANCH  23  24
HETATM   24  C2  UNL     1       7.116   1.264  -1.797  1.00  0.00    -0.092 C 
HETATM   25  C1  UNL     1       6.217   1.579  -2.706  1.00  0.00     0.014 C 
HETATM   26  C3  UNL     1       8.253   2.250  -1.649  1.00  0.00     0.042 C 
ENDBRANCH  23  24
ENDBRANCH  16  23
ENDBRANCH  10  11
ENDBRANCH   9  10
ENDBRANCH   7   9
ENDBRANCH   1   7
BRANCH   6  27
HETATM   27  O8  UNL     1      -3.511  -1.309   2.486  1.00  0.00    -0.392 OA
ATOM     28  H8  UNL     1      -3.871  -2.185   2.408  1.00  0.00     0.210 HD
ENDBRANCH   6  27
BRANCH   3  29
HETATM   29  O2  UNL     1      -4.718   1.711   0.003  1.00  0.00    -0.313 OA
BRANCH  29  30
HETATM   30  C15 UNL     1      -5.838   2.478   0.268  1.00  0.00     0.259 C 
HETATM   31  O3  UNL     1      -6.419   2.236   1.368  1.00  0.00    -0.265 OA
BRANCH  30  32
HETATM   32  C16 UNL     1      -6.330   3.520  -0.671  1.00  0.00     0.111 C 
BRANCH  32  33
HETATM   33  C17 UNL     1      -7.553   4.152  -0.028  1.00  0.00     0.005 C 
HETATM   34  C18 UNL     1      -8.143   5.234  -0.899  1.00  0.00     0.005 C 
ENDBRANCH  32  33
ENDBRANCH  30  32
ENDBRANCH  29  30
ENDBRANCH   3  29
BRANCH   5  35
HETATM   35  O6  UNL     1      -3.269  -2.615  -0.366  1.00  0.00    -0.311 OA
BRANCH  35  36
HETATM   36  C23 UNL     1      -2.734  -3.206  -1.499  1.00  0.00     0.255 C 
HETATM   37  C24 UNL     1      -3.070  -4.554  -1.984  1.00  0.00     0.126 C 
HETATM   38  O7  UNL     1      -1.918  -2.516  -2.118  1.00  0.00    -0.266 OA
ENDBRANCH  35  36
ENDBRANCH   5  35
BRANCH   4  39
HETATM   39  O4  UNL     1      -4.967  -0.565  -1.041  1.00  0.00    -0.311 OA
BRANCH  39  40
HETATM   40  C20 UNL     1      -6.117  -1.270  -1.355  1.00  0.00     0.255 C 
HETATM   41  C21 UNL     1      -6.767  -1.218  -2.685  1.00  0.00     0.126 C 
HETATM   42  O5  UNL     1      -6.585  -1.975  -0.422  1.00  0.00    -0.266 OA
ENDBRANCH  39  40
ENDBRANCH   4  39
TORSDOF 15
