REMARK  6 active torsions:
REMARK  status: ('A' for Active; 'I' for Inactive)
REMARK    1  A    between atoms: C7_10  and  C8_11 
REMARK    2  A    between atoms: N1_14  and  C11_15 
REMARK    3  A    between atoms: C11_15  and  C12_16 
REMARK    4  A    between atoms: C12_16  and  C13_17 
REMARK    5  A    between atoms: C13_17  and  O1_18 
REMARK    6  A    between atoms: O1_18  and  C14_19 
ROOT
HETATM    1  C8  UNL     1      -2.551  -0.508   0.189  1.00  0.00    -0.064 C 
HETATM    2  C9  UNL     1      -1.504   0.581   0.515  1.00  0.00     0.065 C 
HETATM    3  C10 UNL     1      -0.447   0.601  -0.642  1.00  0.00     0.276 C 
HETATM    4  N1  UNL     1       0.220  -0.643  -0.546  1.00  0.00     0.089 N 
HETATM    5  C18 UNL     1      -0.677  -1.636  -1.019  1.00  0.00     0.276 C 
HETATM    6  C19 UNL     1      -2.157  -1.255  -1.002  1.00  0.00     0.065 C 
ENDROOT
BRANCH   4   7
HETATM    7  C11 UNL     1       1.430  -0.720  -1.322  1.00  0.00     0.274 C 
BRANCH   7   8
HETATM    8  C12 UNL     1       2.575   0.109  -0.848  1.00  0.00     0.057 C 
BRANCH   8   9
HETATM    9  C13 UNL     1       3.053  -0.249   0.518  1.00  0.00     0.179 C 
BRANCH   9  10
HETATM   10  O1  UNL     1       4.135   0.458   0.997  1.00  0.00    -0.336 OA
BRANCH  10  11
HETATM   11  C14 UNL     1       5.423   0.578   0.594  1.00  0.00     0.149 A 
HETATM   12  C15 UNL     1       5.952  -0.066  -0.489  1.00  0.00     0.130 A 
HETATM   13  C16 UNL     1       7.265   0.103  -0.844  1.00  0.00     0.251 A 
HETATM   14  O2  UNL     1       7.775  -0.478  -1.841  1.00  0.00    -0.268 OA
HETATM   15  N2  UNL     1       8.042   0.912  -0.116  1.00  0.00    -0.299 N 
HETATM   16  C17 UNL     1       7.501   1.537   0.949  1.00  0.00     0.183 A 
ATOM     17  H2  UNL     1       9.022   1.053  -0.361  1.00  0.00     0.171 HD
HETATM   18 CL4  UNL     1       8.559   2.582   1.876  1.00  0.00    -0.045 Cl
HETATM   19  N3  UNL     1       6.230   1.401   1.329  1.00  0.00    -0.313 N 
ATOM     20  H3  UNL     1       5.870   1.897   2.145  1.00  0.00     0.170 HD
ENDBRANCH  10  11
ENDBRANCH   9  10
ENDBRANCH   8   9
ENDBRANCH   7   8
ENDBRANCH   4   7
BRANCH   1  21
HETATM   21  C7  UNL     1      -3.867   0.008   0.432  1.00  0.00    -0.004 A 
HETATM   22  C2  UNL     1      -5.009  -0.432  -0.245  1.00  0.00    -0.048 A 
HETATM   23  C1  UNL     1      -4.958  -1.457  -1.274  1.00  0.00     0.049 C 
HETATM   24  C3  UNL     1      -6.230   0.133   0.124  1.00  0.00     0.033 A 
HETATM   25  C4  UNL     1      -6.380   1.083   1.099  1.00  0.00     0.058 A 
HETATM   26 CL1  UNL     1      -7.986   1.711   1.451  1.00  0.00    -0.082 Cl
HETATM   27  C5  UNL     1      -5.267   1.517   1.769  1.00  0.00     0.078 A 
HETATM   28 CL2  UNL     1      -5.441   2.731   3.014  1.00  0.00    -0.081 Cl
HETATM   29  C6  UNL     1      -4.047   0.980   1.434  1.00  0.00     0.068 A 
HETATM   30 CL3  UNL     1      -2.745   1.511   2.502  1.00  0.00    -0.082 Cl
ENDBRANCH   1  21
TORSDOF 6
