REMARK  6 active torsions:
REMARK  status: ('A' for Active; 'I' for Inactive)
REMARK    1  A    between atoms: O1_2  and  C2_3 
REMARK    2  A    between atoms: C2_3  and  C3_4 
REMARK    3  A    between atoms: C3_4  and  N1_5 
REMARK    4  A    between atoms: N1_5  and  C4_7 
REMARK    5  A    between atoms: C9_17  and  O2_18 
REMARK    6  A    between atoms: C9_17  and  C10_20 
ROOT
HETATM    1  C4  UNL     1       0.912  -0.731  -0.607  1.00  0.00     0.132 A 
HETATM    2  N2  UNL     1       1.303  -1.658  -1.468  1.00  0.00    -0.331 N 
ATOM      3  H2  UNL     1       2.267  -1.682  -1.800  1.00  0.00     0.168 HD
HETATM    4  C5  UNL     1       0.409  -2.569  -1.900  1.00  0.00     0.079 A 
HETATM    5  C6  UNL     1       0.814  -3.633  -2.876  1.00  0.00     0.089 C 
HETATM    6  N3  UNL     1      -0.878  -2.605  -1.512  1.00  0.00    -0.347 N 
ATOM      7  H3  UNL     1      -1.513  -3.318  -1.871  1.00  0.00     0.167 HD
HETATM    8  C7  UNL     1      -1.309  -1.669  -0.632  1.00  0.00     0.042 A 
HETATM    9  C8  UNL     1      -0.401  -0.715  -0.174  1.00  0.00     0.105 A 
HETATM   10  N4  UNL     1      -0.888   0.267   0.728  1.00  0.00    -0.302 N 
HETATM   11  C9  UNL     1      -0.593   1.594   0.594  1.00  0.00     0.127 C 
HETATM   12  C14 UNL     1      -1.851  -0.296   1.694  1.00  0.00     0.116 C 
HETATM   13  C15 UNL     1      -2.313   0.707   2.697  1.00  0.00     0.057 C 
HETATM   14 CL1  UNL     1      -1.237  -1.715   2.512  1.00  0.00    -0.095 Cl
HETATM   15  C16 UNL     1      -3.029  -0.675   0.829  1.00  0.00     0.031 C 
HETATM   16  C17 UNL     1      -4.189  -1.175   1.685  1.00  0.00     0.014 C 
HETATM   17  C18 UNL     1      -2.702  -1.726  -0.156  1.00  0.00     0.067 C 
ENDROOT
BRANCH  11  18
HETATM   18  O2  UNL     1      -0.373   2.220   1.726  1.00  0.00    -0.349 OA
ATOM     19  H2  UNL     1      -0.168   3.143   1.633  1.00  0.00     0.219 HD
ENDBRANCH  11  18
BRANCH  11  20
HETATM   20  C10 UNL     1      -0.492   2.494  -0.551  1.00  0.00     0.014 C 
HETATM   21  C11 UNL     1       0.533   3.625  -0.349  1.00  0.00     0.023 C 
HETATM   22  C12 UNL     1      -1.829   3.394  -0.508  1.00  0.00     0.023 C 
HETATM   23  C13 UNL     1      -0.559   1.976  -1.931  1.00  0.00     0.023 C 
ENDBRANCH  11  20
BRANCH   1  24
HETATM   24  N1  UNL     1       1.693   0.148  -0.067  1.00  0.00    -0.372 N 
ATOM     25  H1  UNL     1       1.257   0.804   0.581  1.00  0.00     0.161 HD
BRANCH  24  26
HETATM   26  C3  UNL     1       3.087   0.300  -0.276  1.00  0.00     0.147 C 
BRANCH  26  27
HETATM   27  C2  UNL     1       3.947  -0.483   0.669  1.00  0.00     0.186 C 
BRANCH  27  28
HETATM   28  O1  UNL     1       5.278  -0.229   0.336  1.00  0.00    -0.394 OA
HETATM   29  C1  UNL     1       6.154  -0.925   1.175  1.00  0.00     0.201 C 
ENDBRANCH  27  28
ENDBRANCH  26  27
ENDBRANCH  24  26
ENDBRANCH   1  24
TORSDOF 6
