REMARK  5 active torsions:
REMARK  status: ('A' for Active; 'I' for Inactive)
REMARK    1  A    between atoms: C4_7  and  C5_8 
REMARK    2  A    between atoms: C5_8  and  C7_11 
REMARK    3  A    between atoms: C7_11  and  N3_12 
REMARK    4  A    between atoms: C10_15  and  N4_16 
REMARK    5  A    between atoms: C18_24  and  O1_25 
ROOT
HETATM    1  C5  UNL     1       2.234  -0.908   0.219  1.00  0.00     0.175 C 
HETATM    2  C6  UNL     1       1.841  -1.270  -1.126  1.00  0.00     0.074 C 
HETATM    3  N2  UNL     1       1.552  -1.589  -2.228  1.00  0.00    -0.196 NA
ENDROOT
BRANCH   1   4
HETATM    4  C4  UNL     1       3.691  -0.682   0.216  1.00  0.00     0.061 A 
HETATM    5  S1  UNL     1       4.763  -1.045   1.466  1.00  0.00    -0.050 SA
HETATM    6  C3  UNL     1       6.244  -0.709   0.655  1.00  0.00     0.174 A 
HETATM    7  N1  UNL     1       7.624  -0.678   0.728  1.00  0.00    -0.324 N 
HETATM    8  N5  UNL     1       5.823  -0.328  -0.559  1.00  0.00    -0.208 N 
HETATM    9  C2  UNL     1       8.035  -0.251  -0.510  1.00  0.00     0.094 A 
ATOM     10  H1  UNL     1       8.209  -0.920   1.528  1.00  0.00     0.169 HD
HETATM   11  C1  UNL     1       9.465  -0.036  -0.838  1.00  0.00     0.090 C 
HETATM   12  N6  UNL     1       6.954  -0.047  -1.259  1.00  0.00    -0.279 N 
ATOM     13  H6  UNL     1       6.972   0.276  -2.226  1.00  0.00     0.189 HD
HETATM   14  C18 UNL     1       4.524  -0.311  -0.795  1.00  0.00     0.179 A 
BRANCH  14  15
HETATM   15  O1  UNL     1       3.954   0.086  -2.054  1.00  0.00    -0.344 OA
ATOM     16  H1  UNL     1       4.535   0.345  -2.759  1.00  0.00     0.219 HD
ENDBRANCH  14  15
ENDBRANCH   1   4
BRANCH   1  17
HETATM   17  C7  UNL     1       1.453   0.167   0.827  1.00  0.00     0.083 C 
BRANCH  17  18
HETATM   18  N3  UNL     1       0.070   0.034   0.887  1.00  0.00    -0.392 N 
HETATM   19  C8  UNL     1      -0.678   1.271   1.007  1.00  0.00     0.124 C 
HETATM   20  C9  UNL     1      -1.821   1.225  -0.031  1.00  0.00     0.055 C 
HETATM   21  C10 UNL     1      -2.860   0.213   0.433  1.00  0.00     0.226 C 
HETATM   22  C16 UNL     1      -2.065  -0.915   1.023  1.00  0.00     0.055 C 
HETATM   23  C17 UNL     1      -0.684  -0.969   0.341  1.00  0.00     0.124 C 
BRANCH  21  24
HETATM   24  N4  UNL     1      -3.623  -0.204  -0.696  1.00  0.00     0.093 N 
HETATM   25  C11 UNL     1      -4.285   0.892  -1.371  1.00  0.00     0.273 C 
HETATM   26  C12 UNL     1      -5.283   1.632  -0.522  1.00  0.00     0.030 C 
HETATM   27  C13 UNL     1      -6.436   0.650  -0.307  1.00  0.00     0.003 C 
HETATM   28  C14 UNL     1      -5.803  -0.540   0.390  1.00  0.00     0.030 C 
HETATM   29  C15 UNL     1      -4.668  -1.153  -0.349  1.00  0.00     0.273 C 
ENDBRANCH  21  24
ENDBRANCH  17  18
ENDBRANCH   1  17
TORSDOF 5
