REMARK  4 active torsions:
REMARK  status: ('A' for Active; 'I' for Inactive)
REMARK    1  A    between atoms: C2_2  and  N1_4 
REMARK    2  A    between atoms: N1_4  and  C4_6 
REMARK    3  A    between atoms: C4_6  and  N2_8 
REMARK    4  A    between atoms: N2_8  and  C5_10 
ROOT
HETATM    1  C4  UNL     1       0.732   0.013   0.019  1.00  0.00     0.168 C 
HETATM    2  S1  UNL     1       0.855   1.591   0.310  1.00  0.00    -0.041 SA
ENDROOT
BRANCH   1   3
HETATM    3  N1  UNL     1       1.907  -0.723  -0.277  1.00  0.00    -0.363 N 
ATOM      4  H1  UNL     1       1.843  -1.726  -0.454  1.00  0.00     0.162 HD
BRANCH   3   5
HETATM    5  C2  UNL     1       3.208  -0.062  -0.332  1.00  0.00     0.075 C 
HETATM    6  C1  UNL     1       4.241  -1.097  -0.663  1.00  0.00     0.032 C 
HETATM    7  C3  UNL     1       3.518   0.602   0.993  1.00  0.00     0.032 C 
ENDBRANCH   3   5
ENDBRANCH   1   3
BRANCH   1   8
HETATM    8  N2  UNL     1      -0.505  -0.658   0.063  1.00  0.00    -0.363 N 
ATOM      9  H2  UNL     1      -0.544  -1.662  -0.111  1.00  0.00     0.162 HD
BRANCH   8  10
HETATM   10  C5  UNL     1      -1.713   0.066   0.352  1.00  0.00     0.083 C 
HETATM   11  C6  UNL     1      -2.149   1.053  -0.661  1.00  0.00     0.025 C 
HETATM   12  C7  UNL     1      -3.607   1.324  -0.250  1.00  0.00     0.002 C 
HETATM   13  C8  UNL     1      -4.105  -0.055   0.028  1.00  0.00     0.002 C 
HETATM   14  C9  UNL     1      -2.908  -0.849   0.499  1.00  0.00     0.025 C 
ENDBRANCH   8  10
ENDBRANCH   1   8
TORSDOF 4
