REMARK  14 active torsions:
REMARK  status: ('A' for Active; 'I' for Inactive)
REMARK    1  A    between atoms: C2_2  and  O1_3 
REMARK    2  A    between atoms: O1_3  and  C3_4 
REMARK    3  A    between atoms: C3_4  and  C4_6 
REMARK    4  A    between atoms: N1_8  and  C6_9 
REMARK    5  A    between atoms: C6_9  and  C7_10 
REMARK    6  A    between atoms: C7_10  and  C8_11 
REMARK    7  A    between atoms: C9_12  and  C10_13 
REMARK    8  A    between atoms: C12_17  and  O5_18 
REMARK    9  A    between atoms: C14_21  and  C15_22 
REMARK   10  A    between atoms: C15_22  and  C16_23 
REMARK   11  A    between atoms: C18_25  and  C19_26 
REMARK   12  A    between atoms: C19_26  and  O7_28 
REMARK   13  A    between atoms: O7_28  and  C20_29 
REMARK   14  A    between atoms: C20_29  and  C21_30 
ROOT
HETATM    1  C4  UNL     1       1.757  -1.492   0.073  1.00  0.00     0.081 C 
HETATM    2  C5  UNL     1       2.305  -0.122   0.008  1.00  0.00     0.292 C 
HETATM    3  N1  UNL     1       3.239   0.132  -1.043  1.00  0.00     0.092 N 
HETATM    4  C11 UNL     1       2.881  -0.433  -2.324  1.00  0.00     0.310 C 
HETATM    5  C12 UNL     1       1.937  -1.587  -2.219  1.00  0.00     0.086 C 
HETATM    6  C13 UNL     1       0.563  -1.024  -1.846  1.00  0.00     0.045 C 
HETATM    7  C14 UNL     1       0.309  -1.574  -0.470  1.00  0.00     0.009 C 
HETATM    8  C24 UNL     1       2.400  -2.378  -0.984  1.00  0.00     0.061 C 
ENDROOT
BRANCH   7   9
HETATM    9  C15 UNL     1      -0.638  -0.854   0.394  1.00  0.00     0.011 C 
BRANCH   9  10
HETATM   10  C16 UNL     1      -2.045  -0.947  -0.100  1.00  0.00     0.000 A 
HETATM   11  C17 UNL     1      -2.368  -0.375  -1.445  1.00  0.00     0.020 A 
HETATM   12  C18 UNL     1      -2.977   0.180  -0.190  1.00  0.00     0.090 A 
BRANCH  12  13
HETATM   13  C19 UNL     1      -4.447  -0.109  -0.054  1.00  0.00     0.263 C 
HETATM   14  O6  UNL     1      -4.938  -1.225  -0.337  1.00  0.00    -0.265 OA
BRANCH  13  15
HETATM   15  O7  UNL     1      -5.338   0.876   0.402  1.00  0.00    -0.321 OA
BRANCH  15  16
HETATM   16  C20 UNL     1      -6.722   0.557   0.517  1.00  0.00     0.182 C 
BRANCH  16  17
HETATM   17  C21 UNL     1      -7.471   1.773   1.019  1.00  0.00     0.002 C 
HETATM   18  C22 UNL     1      -7.317   2.946   0.063  1.00  0.00     0.011 C 
HETATM   19  C23 UNL     1      -7.064   2.189   2.400  1.00  0.00     0.011 C 
ENDBRANCH  16  17
ENDBRANCH  15  16
ENDBRANCH  13  15
ENDBRANCH  12  13
ENDBRANCH   9  10
ENDBRANCH   7   9
BRANCH   1  20
HETATM   20  C3  UNL     1       1.828  -2.111   1.417  1.00  0.00     0.269 C 
HETATM   21  O2  UNL     1       2.320  -1.439   2.357  1.00  0.00    -0.264 OA
BRANCH  20  22
HETATM   22  O1  UNL     1       1.382  -3.386   1.686  1.00  0.00    -0.321 OA
BRANCH  22  23
HETATM   23  C2  UNL     1       1.423  -4.027   2.939  1.00  0.00     0.174 C 
HETATM   24  C1  UNL     1       2.859  -4.126   3.381  1.00  0.00     0.034 C 
ENDBRANCH  22  23
ENDBRANCH  20  22
ENDBRANCH   1  20
BRANCH   5  25
HETATM   25  O5  UNL     1       1.901  -2.383  -3.334  1.00  0.00    -0.388 OA
ATOM     26  H5  UNL     1       1.301  -3.116  -3.267  1.00  0.00     0.210 HD
ENDBRANCH   5  25
BRANCH   3  27
HETATM   27  C6  UNL     1       3.319   1.564  -1.249  1.00  0.00     0.276 C 
BRANCH  27  28
HETATM   28  C7  UNL     1       3.972   2.232  -0.050  1.00  0.00     0.057 C 
BRANCH  28  29
HETATM   29  C8  UNL     1       5.319   1.717   0.183  1.00  0.00    -0.018 C 
HETATM   30  C9  UNL     1       6.430   2.390   0.171  1.00  0.00     0.080 C 
BRANCH  30  31
HETATM   31  C10 UNL     1       6.640   3.790  -0.068  1.00  0.00     0.198 C 
HETATM   32  O3  UNL     1       7.853   4.221  -0.023  1.00  0.00    -0.645 OA
HETATM   33  O4  UNL     1       5.682   4.735  -0.345  1.00  0.00    -0.645 OA
ENDBRANCH  30  31
ENDBRANCH  28  29
ENDBRANCH  27  28
ENDBRANCH   3  27
TORSDOF 14
