REMARK  13 active torsions:
REMARK  status: ('A' for Active; 'I' for Inactive)
REMARK    1  A    between atoms: C3_3  and  C4_4 
REMARK    2  A    between atoms: C4_4  and  C5_5 
REMARK    3  A    between atoms: C5_5  and  S2_7 
REMARK    4  A    between atoms: S2_7  and  S3_8 
REMARK    5  A    between atoms: S3_8  and  C6_9 
REMARK    6  A    between atoms: C6_9  and  N4_21 
REMARK    7  A    between atoms: N1_10  and  N2_12 
REMARK       I    between atoms: N2_12  and  C7_14 
REMARK    8  A    between atoms: C7_14  and  C8_16 
REMARK    9  A    between atoms: C8_16  and  N3_17 
REMARK   10  A    between atoms: N4_21  and  C9_23 
REMARK   11  A    between atoms: C9_23  and  C10_24 
REMARK   12  A    between atoms: C10_24  and  C11_25 
REMARK       I    between atoms: C11_25  and  N5_27 
REMARK   13  A    between atoms: N5_27  and  C12_29 
ROOT
HETATM    1  C6  UNL     1       1.570   0.925  -0.532  1.00  0.00     0.166 C 
HETATM    2  N1  UNL     1       2.135   2.054  -0.382  1.00  0.00    -0.277 N 
ATOM      3  H1  UNL     1       3.074   2.201  -0.753  1.00  0.00     0.189 HD
ENDROOT
BRANCH   1   4
HETATM    4  S3  UNL     1       2.432  -0.387  -1.391  1.00  0.00    -0.014 SA
BRANCH   4   5
HETATM    5  S2  UNL     1       4.337   0.211  -2.035  1.00  0.00    -0.042 SA
BRANCH   5   6
HETATM    6  C5  UNL     1       5.613  -0.082  -0.852  1.00  0.00     0.060 C 
HETATM    7  S1  UNL     1       6.957   0.322  -1.229  1.00  0.00    -0.076 SA
BRANCH   6   8
HETATM    8  C4  UNL     1       5.419  -0.700   0.480  1.00  0.00     0.085 C 
BRANCH   8   9
HETATM    9  C3  UNL     1       4.896  -2.104   0.366  1.00  0.00    -0.025 C 
HETATM   10  C2  UNL     1       3.747  -2.425   0.909  1.00  0.00    -0.035 C 
HETATM   11  C1  UNL     1       3.207  -3.808   0.811  1.00  0.00     0.036 C 
ENDBRANCH   8   9
ENDBRANCH   6   8
ENDBRANCH   5   6
ENDBRANCH   4   5
ENDBRANCH   1   4
BRANCH   1  12
HETATM   12  N4  UNL     1       0.275   0.700  -0.028  1.00  0.00    -0.369 N 
ATOM     13  H4  UNL     1      -0.003   1.142   0.848  1.00  0.00     0.161 HD
BRANCH  12  14
HETATM   14  C9  UNL     1      -0.672  -0.145  -0.726  1.00  0.00     0.131 C 
BRANCH  14  15
HETATM   15  C10 UNL     1      -1.977  -0.195   0.059  1.00  0.00     0.122 C 
BRANCH  15  16
HETATM   16  C11 UNL     1      -2.970  -1.065  -0.649  1.00  0.00     0.219 C 
HETATM   17  O2  UNL     1      -2.667  -1.625  -1.730  1.00  0.00    -0.274 OA
HETATM   18  N5  UNL     1      -4.258  -1.270  -0.118  1.00  0.00    -0.355 N 
ATOM     19  H5  UNL     1      -4.526  -0.823   0.759  1.00  0.00     0.162 HD
BRANCH  18  20
HETATM   20  C12 UNL     1      -5.196  -2.110  -0.814  1.00  0.00     0.103 C 
HETATM   21  C13 UNL     1      -6.493  -1.322  -1.037  1.00  0.00     0.100 C 
HETATM   22  S4  UNL     1      -6.862  -1.593   0.720  1.00  0.00    -0.165 SA
HETATM   23  C14 UNL     1      -5.987  -3.042   0.079  1.00  0.00     0.100 C 
ENDBRANCH  18  20
ENDBRANCH  15  16
ENDBRANCH  14  15
ENDBRANCH  12  14
ENDBRANCH   1  12
BRANCH   2  24
HETATM   24  N2  UNL     1       1.486   3.094   0.284  1.00  0.00    -0.267 N 
HETATM   25  C7  UNL     1       1.185   4.289  -0.387  1.00  0.00     0.261 C 
HETATM   26  O1  UNL     1       1.493   4.443  -1.590  1.00  0.00    -0.270 OA
ATOM     27  H2  UNL     1       1.229   2.985   1.265  1.00  0.00     0.190 HD
BRANCH  25  28
HETATM   28  C8  UNL     1       0.496   5.416   0.290  1.00  0.00     0.333 C 
BRANCH  28  29
HETATM   29  N3  UNL     1       0.207   5.096   1.662  1.00  0.00    -0.071 N 
ATOM     30  H33 UNL     1      -0.324   4.229   1.742  1.00  0.00     0.274 HD
ATOM     31  H32 UNL     1       1.047   4.811   2.166  1.00  0.00     0.274 HD
ATOM     32  H31 UNL     1      -0.266   5.870   2.127  1.00  0.00     0.274 HD
ENDBRANCH  28  29
ENDBRANCH  25  28
ENDBRANCH   2  24
TORSDOF 13
