REMARK  13 active torsions:
REMARK  status: ('A' for Active; 'I' for Inactive)
REMARK    1  A    between atoms: N1_1  and  C1_5 
REMARK    2  A    between atoms: C1_5  and  C2_6 
REMARK    3  A    between atoms: C2_6  and  C3_7 
REMARK    4  A    between atoms: C3_7  and  N2_8 
REMARK    5  A    between atoms: N2_8  and  C4_10 
REMARK    6  A    between atoms: C5_13  and  N4_14 
REMARK    7  A    between atoms: N4_14  and  C6_16 
REMARK    8  A    between atoms: C6_16  and  C7_17 
REMARK    9  A    between atoms: C6_16  and  C8_20 
REMARK   10  A    between atoms: C7_17  and  O1_18 
REMARK   11  A    between atoms: C8_20  and  C9_21 
REMARK   12  A    between atoms: C15_29  and  N6_30 
REMARK   13  A    between atoms: N7_33  and  C18_34 
ROOT
HETATM    1  C4  UNL     1       0.955   1.425   0.096  1.00  0.00     0.148 A 
HETATM    2  N3  UNL     1      -0.421   1.511   0.076  1.00  0.00    -0.174 N 
ATOM      3  H3  UNL     1      -0.839   2.431   0.213  1.00  0.00     0.186 HD
HETATM    4  C5  UNL     1      -1.248   0.478  -0.110  1.00  0.00     0.680 A 
HETATM    5  N5  UNL     1      -0.707  -0.713  -0.287  1.00  0.00    -0.200 N 
ATOM      6  H5  UNL     1      -1.324  -1.512  -0.430  1.00  0.00     0.183 HD
HETATM    7  C14 UNL     1       0.620  -0.919  -0.287  1.00  0.00     0.139 A 
HETATM    8  C15 UNL     1       1.481   0.174  -0.091  1.00  0.00     0.091 A 
ENDROOT
BRANCH   4   9
HETATM    9  N4  UNL     1      -2.521   0.656  -0.121  1.00  0.00    -0.219 N 
ATOM     10  H4  UNL     1      -2.894   1.596   0.013  1.00  0.00     0.178 HD
BRANCH   9  11
HETATM   11  C6  UNL     1      -3.478  -0.494  -0.328  1.00  0.00     0.123 C 
BRANCH  11  12
HETATM   12  C7  UNL     1      -3.498  -0.626  -1.832  1.00  0.00     0.189 C 
BRANCH  12  13
HETATM   13  O1  UNL     1      -4.237  -1.675  -2.251  1.00  0.00    -0.399 OA
ATOM     14  H1  UNL     1      -4.250  -1.758  -3.197  1.00  0.00     0.209 HD
ENDBRANCH  12  13
ENDBRANCH  11  12
BRANCH  11  15
HETATM   15  C8  UNL     1      -4.753   0.052   0.194  1.00  0.00     0.032 C 
BRANCH  15  16
HETATM   16  C9  UNL     1      -5.995  -0.624   0.318  1.00  0.00    -0.013 C 
HETATM   17  C10 UNL     1      -6.790  -1.234  -0.765  1.00  0.00     0.005 C 
HETATM   18  C11 UNL     1      -8.104  -1.483   0.060  1.00  0.00     0.000 C 
HETATM   19  C12 UNL     1      -7.534  -2.055   1.368  1.00  0.00     0.000 C 
HETATM   20  C13 UNL     1      -6.047  -1.750   1.357  1.00  0.00     0.005 C 
ENDBRANCH  15  16
ENDBRANCH  11  15
ENDBRANCH   9  11
ENDBRANCH   4   9
BRANCH   1  21
HETATM   21  N2  UNL     1       1.635   2.429   0.261  1.00  0.00    -0.354 N 
ATOM     22  H2  UNL     1       0.929   3.159   0.355  1.00  0.00     0.166 HD
BRANCH  21  23
HETATM   23  C3  UNL     1       2.781   3.118   0.389  1.00  0.00     0.064 C 
BRANCH  23  24
HETATM   24  C2  UNL     1       2.731   4.613   0.115  1.00  0.00     0.072 C 
BRANCH  24  25
HETATM   25  C1  UNL     1       1.755   5.305   1.029  1.00  0.00     0.234 C 
BRANCH  25  26
HETATM   26  N1  UNL     1       1.709   6.719   0.779  1.00  0.00    -0.079 N 
ATOM     27  H13 UNL     1       2.637   7.138   0.838  1.00  0.00     0.274 HD
ATOM     28  H12 UNL     1       1.508   6.918  -0.201  1.00  0.00     0.274 HD
ATOM     29  H11 UNL     1       1.048   7.188   1.398  1.00  0.00     0.274 HD
ENDBRANCH  25  26
ENDBRANCH  24  25
ENDBRANCH  23  24
ENDBRANCH  21  23
ENDBRANCH   1  21
BRANCH   8  30
HETATM   30  N6  UNL     1       2.853  -0.157  -0.096  1.00  0.00    -0.374 N 
HETATM   31  C16 UNL     1       3.629  -0.250   1.094  1.00  0.00     0.143 C 
HETATM   32  C17 UNL     1       5.110  -0.432   0.687  1.00  0.00     0.145 C 
HETATM   33  N7  UNL     1       5.228  -1.590  -0.176  1.00  0.00    -0.358 N 
HETATM   34  C21 UNL     1       4.298  -1.750  -1.260  1.00  0.00     0.145 C 
HETATM   35  C22 UNL     1       3.496  -0.442  -1.383  1.00  0.00     0.143 C 
BRANCH  33  36
HETATM   36  C18 UNL     1       6.249  -2.549   0.070  1.00  0.00     0.146 A 
HETATM   37  N8  UNL     1       6.160  -3.789   0.512  1.00  0.00    -0.346 N 
HETATM   38  C19 UNL     1       7.219  -4.507   0.684  1.00  0.00     0.097 A 
ATOM     39  H8  UNL     1       5.243  -4.185   0.720  1.00  0.00     0.167 HD
HETATM   40  C20 UNL     1       8.430  -3.943   0.397  1.00  0.00     0.070 A 
HETATM   41  S1  UNL     1       7.957  -2.369  -0.123  1.00  0.00    -0.065 SA
ENDBRANCH  33  36
ENDBRANCH   8  30
TORSDOF 13
