REMARK  13 active torsions:
REMARK  status: ('A' for Active; 'I' for Inactive)
REMARK    1  A    between atoms: O1_2  and  C2_3 
REMARK    2  A    between atoms: C2_3  and  C3_5 
REMARK    3  A    between atoms: C3_5  and  C4_6 
REMARK    4  A    between atoms: C4_6  and  C5_7 
REMARK    5  A    between atoms: C5_7  and  C6_8 
REMARK    6  A    between atoms: C7_9  and  C8_10 
REMARK    7  A    between atoms: C8_10  and  C9_11 
REMARK    8  A    between atoms: C11_16  and  C12_17 
REMARK    9  A    between atoms: C12_17  and  N2_18 
REMARK       I    between atoms: N3_21  and  C15_22 
REMARK   10  A    between atoms: C18_27  and  N4_28 
REMARK   11  A    between atoms: N4_28  and  C19_30 
REMARK   12  A    between atoms: C19_30  and  O6_31 
REMARK   13  A    between atoms: N5_33  and  O7_35 
ROOT
HETATM    1  C9  UNL     1      -0.338  -1.315  -0.244  1.00  0.00     0.110 C 
HETATM    2  C10 UNL     1      -0.139  -0.841   1.157  1.00  0.00     0.228 C 
HETATM    3  O3  UNL     1      -0.862  -0.857   2.169  1.00  0.00    -0.273 OA
HETATM    4  N1  UNL     1       1.209  -0.298   1.116  1.00  0.00    -0.330 N 
ATOM      5  H1  UNL     1       1.558   0.423   1.748  1.00  0.00     0.168 HD
HETATM    6  C11 UNL     1       1.902  -0.838   0.188  1.00  0.00     0.030 C 
HETATM    7  C18 UNL     1       1.057  -1.858  -0.500  1.00  0.00     0.146 C 
ENDROOT
BRANCH   1   8
HETATM    8  C8  UNL     1      -1.445  -2.266  -0.421  1.00  0.00     0.043 C 
BRANCH   8   9
HETATM    9  C7  UNL     1      -2.737  -1.602  -0.014  1.00  0.00    -0.030 C 
HETATM   10  C6  UNL     1      -3.674  -1.488  -0.933  1.00  0.00    -0.031 C 
BRANCH  10  11
HETATM   11  C5  UNL     1      -4.970  -0.846  -0.603  1.00  0.00     0.027 C 
BRANCH  11  12
HETATM   12  C4  UNL     1      -4.972  -0.418   0.827  1.00  0.00     0.013 C 
BRANCH  12  13
HETATM   13  C3  UNL     1      -6.270   0.229   1.178  1.00  0.00     0.111 C 
BRANCH  13  14
HETATM   14  C2  UNL     1      -6.602   1.446   0.446  1.00  0.00     0.258 C 
HETATM   15  O2  UNL     1      -5.917   2.044  -0.402  1.00  0.00    -0.265 OA
BRANCH  14  16
HETATM   16  O1  UNL     1      -7.856   2.040   0.718  1.00  0.00    -0.326 OA
HETATM   17  C1  UNL     1      -8.259   3.220   0.057  1.00  0.00     0.213 C 
ENDBRANCH  14  16
ENDBRANCH  13  14
ENDBRANCH  12  13
ENDBRANCH  11  12
ENDBRANCH  10  11
ENDBRANCH   8   9
ENDBRANCH   1   8
BRANCH   7  18
HETATM   18  N4  UNL     1       1.266  -3.090   0.210  1.00  0.00    -0.344 N 
ATOM     19  H4  UNL     1       0.517  -3.442   0.806  1.00  0.00     0.163 HD
BRANCH  18  20
HETATM   20  C19 UNL     1       2.474  -3.842   0.119  1.00  0.00     0.237 C 
HETATM   21  N5  UNL     1       2.844  -4.455  -0.927  1.00  0.00    -0.233 N 
ATOM     22  H5  UNL     1       3.726  -4.967  -0.893  1.00  0.00     0.198 HD
BRANCH  20  23
HETATM   23  O6  UNL     1       3.271  -3.892   1.252  1.00  0.00    -0.331 OA
ATOM     24  H6  UNL     1       4.076  -4.393   1.191  1.00  0.00     0.221 HD
ENDBRANCH  20  23
BRANCH  21  25
HETATM   25  O7  UNL     1       2.135  -4.475  -2.105  1.00  0.00    -0.287 OA
ATOM     26  H7  UNL     1       2.412  -4.934  -2.889  1.00  0.00     0.244 HD
ENDBRANCH  21  25
ENDBRANCH  18  20
ENDBRANCH   7  18
BRANCH   6  27
HETATM   27  C12 UNL     1       3.334  -0.507  -0.131  1.00  0.00     0.171 C 
BRANCH  27  28
HETATM   28  N2  UNL     1       3.739   0.546   0.738  1.00  0.00    -0.404 N 
HETATM   29  C13 UNL     1       3.113   1.798   0.498  1.00  0.00     0.137 C 
HETATM   30  C14 UNL     1       4.130   2.921   0.625  1.00  0.00     0.148 C 
HETATM   31  N3  UNL     1       5.337   2.651  -0.114  1.00  0.00    -0.323 N 
HETATM   32  C15 UNL     1       5.955   3.638  -0.903  1.00  0.00     0.285 C 
HETATM   33  C16 UNL     1       5.918   1.332  -0.036  1.00  0.00     0.148 C 
HETATM   34  O4  UNL     1       7.001   3.375  -1.535  1.00  0.00    -0.630 OA
HETATM   35  O5  UNL     1       5.393   4.898  -0.970  1.00  0.00    -0.630 OA
HETATM   36  C17 UNL     1       5.142   0.577   1.019  1.00  0.00     0.137 C 
ENDBRANCH  27  28
ENDBRANCH   6  27
TORSDOF 13
