REMARK  10 active torsions:
REMARK  status: ('A' for Active; 'I' for Inactive)
REMARK    1  A    between atoms: N3_5  and  C2_6 
REMARK    2  A    between atoms: C8_14  and  C9_15 
REMARK    3  A    between atoms: C9_15  and  N4_16 
REMARK    4  A    between atoms: C10_19  and  N6_20 
REMARK    5  A    between atoms: C16_29  and  C17_30 
REMARK    6  A    between atoms: N7_31  and  N8_33 
REMARK       I    between atoms: N8_33  and  C18_35 
REMARK    7  A    between atoms: C18_35  and  C19_37 
REMARK    8  A    between atoms: C19_37  and  N9_38 
REMARK    9  A    between atoms: C19_37  and  C20_42 
REMARK   10  A    between atoms: C21_43  and  O3_44 
ROOT
HETATM    1  N1  UNL     1       1.901  -1.864   1.451  1.00  0.00    -0.080 NA
HETATM    2  C1  UNL     1       0.647  -2.285   0.899  1.00  0.00     0.145 A 
HETATM    3  N2  UNL     1      -0.020  -3.413   1.233  1.00  0.00    -0.280 N 
ATOM      4  H2  UNL     1       0.296  -4.098   1.920  1.00  0.00     0.189 HD
HETATM    5  N3  UNL     1      -1.164  -3.499   0.525  1.00  0.00    -0.257 N 
HETATM    6  C8  UNL     1      -1.277  -2.432  -0.286  1.00  0.00     0.069 A 
HETATM    7  C16 UNL     1      -0.123  -1.663  -0.051  1.00  0.00     0.050 A 
ENDROOT
BRANCH   7   8
HETATM    8  C17 UNL     1       0.184  -0.427  -0.763  1.00  0.00     0.124 C 
HETATM    9  N7  UNL     1       1.156   0.291  -0.649  1.00  0.00    -0.308 N 
ATOM     10  H7  UNL     1       0.960   1.028  -1.327  1.00  0.00     0.186 HD
BRANCH   9  11
HETATM   11  N8  UNL     1       2.307   0.666  -0.161  1.00  0.00    -0.268 N 
HETATM   12  C18 UNL     1       3.544   0.612  -0.857  1.00  0.00     0.271 C 
HETATM   13  O2  UNL     1       3.508   0.153  -2.048  1.00  0.00    -0.269 OA
ATOM     14  H8  UNL     1       2.319   1.025   0.793  1.00  0.00     0.190 HD
BRANCH  12  15
HETATM   15  C19 UNL     1       4.857   1.018  -0.358  1.00  0.00     0.319 C 
BRANCH  15  16
HETATM   16  N9  UNL     1       5.892   0.132  -0.980  1.00  0.00    -0.062 N 
ATOM     17  H93 UNL     1       5.703  -0.859  -0.828  1.00  0.00     0.275 HD
ATOM     18  H92 UNL     1       5.844   0.127  -1.999  1.00  0.00     0.275 HD
ATOM     19  H91 UNL     1       6.808   0.415  -0.632  1.00  0.00     0.275 HD
ENDBRANCH  15  16
BRANCH  15  20
HETATM   20  C20 UNL     1       5.210   2.367  -0.870  1.00  0.00     0.100 A 
HETATM   21  C21 UNL     1       6.499   2.607  -1.381  1.00  0.00     0.158 A 
HETATM   22  N10 UNL     1       6.885   3.797  -1.852  1.00  0.00    -0.288 N 
HETATM   23  C22 UNL     1       6.042   4.835  -1.856  1.00  0.00     0.329 A 
ATOM     24  H10 UNL     1       7.832   3.914  -2.212  1.00  0.00     0.172 HD
HETATM   25  O4  UNL     1       6.416   5.950  -2.301  1.00  0.00    -0.247 OA
HETATM   26  N11 UNL     1       4.799   4.659  -1.379  1.00  0.00    -0.275 N 
HETATM   27  C23 UNL     1       4.380   3.450  -0.892  1.00  0.00     0.262 A 
ATOM     28  H11 UNL     1       4.150   5.446  -1.380  1.00  0.00     0.173 HD
HETATM   29  O5  UNL     1       3.217   3.400  -0.477  1.00  0.00    -0.267 OA
BRANCH  21  30
HETATM   30  O3  UNL     1       7.405   1.565  -1.397  1.00  0.00    -0.345 OA
ATOM     31  H3  UNL     1       8.275   1.727  -1.742  1.00  0.00     0.219 HD
ENDBRANCH  21  30
ENDBRANCH  15  20
ENDBRANCH  12  15
ENDBRANCH   9  11
ENDBRANCH   7   8
BRANCH   6  32
HETATM   32  C9  UNL     1      -2.390  -2.122  -1.178  1.00  0.00     0.213 C 
BRANCH  32  33
HETATM   33  N4  UNL     1      -3.377  -1.187  -0.573  1.00  0.00    -0.244 N 
HETATM   34  N5  UNL     1      -3.186   0.069  -0.632  1.00  0.00    -0.274 N 
HETATM   35  C10 UNL     1      -4.014   0.939  -0.107  1.00  0.00     0.166 A 
ATOM     36  H5  UNL     1      -2.353   0.414  -1.108  1.00  0.00     0.189 HD
HETATM   37  S2  UNL     1      -5.193  -0.109   0.542  1.00  0.00     0.010 SA
HETATM   38  C15 UNL     1      -4.481  -1.610   0.058  1.00  0.00     0.308 A 
HETATM   39  O1  UNL     1      -4.933  -2.786   0.269  1.00  0.00    -0.258 OA
BRANCH  35  40
HETATM   40  N6  UNL     1      -3.920   2.359  -0.101  1.00  0.00    -0.359 N 
HETATM   41  C11 UNL     1      -2.810   3.012  -0.724  1.00  0.00     0.135 C 
HETATM   42  C12 UNL     1      -1.882   3.614   0.305  1.00  0.00     0.093 C 
HETATM   43  S1  UNL     1      -2.861   4.692   1.404  1.00  0.00    -0.166 SA
HETATM   44  C13 UNL     1      -4.491   3.944   1.697  1.00  0.00     0.093 C 
HETATM   45  C14 UNL     1      -4.950   3.124   0.535  1.00  0.00     0.135 C 
ENDBRANCH  35  40
ENDBRANCH  32  33
ENDBRANCH   6  32
BRANCH   5  46
HETATM   46  C2  UNL     1      -2.011  -4.625   0.694  1.00  0.00     0.059 A 
HETATM   47  C3  UNL     1      -2.329  -5.412  -0.377  1.00  0.00     0.033 A 
HETATM   48  C4  UNL     1      -3.140  -6.514  -0.275  1.00  0.00     0.029 A 
HETATM   49  C5  UNL     1      -3.657  -6.843   0.955  1.00  0.00     0.072 A 
HETATM   50 CL1  UNL     1      -4.710  -8.258   1.135  1.00  0.00    -0.081 Cl
HETATM   51  C6  UNL     1      -3.348  -6.063   2.046  1.00  0.00     0.140 A 
HETATM   52  F1  UNL     1      -3.842  -6.369   3.252  1.00  0.00    -0.204 F 
HETATM   53  C7  UNL     1      -2.518  -4.940   1.927  1.00  0.00     0.075 A 
ENDBRANCH   5  46
TORSDOF 10
