REMARK  12 active torsions:
REMARK  status: ('A' for Active; 'I' for Inactive)
REMARK    1  A    between atoms: S1_2  and  N1_5 
REMARK    2  A    between atoms: N1_5  and  C2_7 
REMARK    3  A    between atoms: C2_7  and  C3_8 
REMARK    4  A    between atoms: C3_8  and  O3_9 
REMARK    5  A    between atoms: O3_9  and  C4_10 
REMARK    6  A    between atoms: C4_10  and  C5_12 
REMARK    7  A    between atoms: C13_25  and  N4_26 
REMARK       I    between atoms: N5_28  and  C14_30 
REMARK       I    between atoms: C14_30  and  N6_32 
REMARK    8  A    between atoms: N6_32  and  O7_34 
REMARK    9  A    between atoms: O7_34  and  C15_35 
REMARK   10  A    between atoms: C16_38  and  N8_39 
REMARK   11  A    between atoms: C18_44  and  N9_45 
REMARK   12  A    between atoms: N10_48  and  N11_50 
ROOT
HETATM    1  C5  UNL     1      -1.317   0.796   0.036  1.00  0.00     0.141 A 
HETATM    2  N2  UNL     1      -1.706   1.945   0.583  1.00  0.00    -0.348 N 
ATOM      3  H2  UNL     1      -2.656   2.006   0.950  1.00  0.00     0.166 HD
HETATM    4  C6  UNL     1      -0.910   3.042   0.680  1.00  0.00     0.049 A 
HETATM    5  C7  UNL     1      -1.433   4.176   1.270  1.00  0.00     0.058 A 
HETATM    6  C8  UNL     1      -0.650   5.309   1.384  1.00  0.00     0.070 A 
HETATM    7  N3  UNL     1      -1.097   6.511   1.972  1.00  0.00    -0.101 NA
HETATM    8  C9  UNL     1       0.650   5.267   0.895  1.00  0.00     0.059 A 
HETATM    9 CL1  UNL     1       1.666   6.687   1.025  1.00  0.00    -0.082 Cl
HETATM   10  C10 UNL     1       1.153   4.123   0.309  1.00  0.00     0.043 A 
HETATM   11  C11 UNL     1       0.376   2.992   0.193  1.00  0.00     0.045 A 
HETATM   12  C12 UNL     1       0.820   1.819  -0.382  1.00  0.00     0.214 A 
HETATM   13  O5  UNL     1       1.997   1.825  -0.809  1.00  0.00    -0.285 OA
HETATM   14  C13 UNL     1      -0.004   0.715  -0.471  1.00  0.00     0.132 A 
ENDROOT
BRANCH  14  15
HETATM   15  N4  UNL     1       0.367  -0.495  -1.032  1.00  0.00    -0.291 N 
HETATM   16  N5  UNL     1       1.240  -1.067  -1.561  1.00  0.00    -0.249 N 
HETATM   17  C14 UNL     1       2.541  -0.915  -1.998  1.00  0.00     0.359 C 
ATOM     18  H5  UNL     1       0.930  -2.015  -1.776  1.00  0.00     0.192 HD
HETATM   19  O6  UNL     1       2.836  -0.451  -3.159  1.00  0.00    -0.243 OA
HETATM   20  N6  UNL     1       3.627  -1.286  -1.137  1.00  0.00    -0.207 N 
ATOM     21  H6  UNL     1       3.440  -1.660  -0.206  1.00  0.00     0.200 HD
ATOM     22  H4  UNL     1      -0.425  -1.133  -0.954  1.00  0.00     0.187 HD
BRANCH  20  23
HETATM   23  O7  UNL     1       4.904  -1.136  -1.570  1.00  0.00    -0.213 OA
BRANCH  23  24
HETATM   24  C15 UNL     1       6.019  -1.489  -0.827  1.00  0.00     0.208 A 
HETATM   25  N7  UNL     1       6.586  -2.714  -0.742  1.00  0.00    -0.311 N 
HETATM   26  C16 UNL     1       7.655  -2.691   0.071  1.00  0.00     0.217 A 
ATOM     27  H7  UNL     1       6.247  -3.544  -1.230  1.00  0.00     0.170 HD
HETATM   28  C17 UNL     1       7.812  -1.407   0.548  1.00  0.00     0.203 A 
HETATM   29  F1  UNL     1       8.788  -0.972   1.406  1.00  0.00    -0.199 F 
HETATM   30  C18 UNL     1       6.796  -0.676  -0.014  1.00  0.00     0.198 A 
BRANCH  26  31
HETATM   31  N8  UNL     1       8.510  -3.757   0.418  1.00  0.00    -0.095 N 
HETATM   32  O8  UNL     1       8.281  -4.882  -0.067  1.00  0.00    -0.530 OA
HETATM   33  O9  UNL     1       9.580  -3.618   1.263  1.00  0.00    -0.530 OA
ENDBRANCH  26  31
BRANCH  30  34
HETATM   34  N9  UNL     1       6.560   0.711   0.197  1.00  0.00    -0.108 N 
HETATM   35  O10 UNL     1       6.791   1.583  -0.636  1.00  0.00    -0.532 OA
HETATM   36  O11 UNL     1       6.038   1.105   1.416  1.00  0.00    -0.532 OA
ENDBRANCH  30  34
ENDBRANCH  23  24
ENDBRANCH  20  23
ENDBRANCH  14  15
BRANCH   1  37
HETATM   37  C4  UNL     1      -2.224  -0.345  -0.038  1.00  0.00     0.312 C 
HETATM   38  O4  UNL     1      -1.891  -1.443  -0.544  1.00  0.00    -0.258 OA
BRANCH  37  39
HETATM   39  O3  UNL     1      -3.492  -0.211   0.466  1.00  0.00    -0.309 OA
BRANCH  39  40
HETATM   40  C3  UNL     1      -4.496  -1.173   0.486  1.00  0.00     0.257 C 
BRANCH  40  41
HETATM   41  C2  UNL     1      -4.944  -1.647  -0.842  1.00  0.00     0.129 C 
HETATM   42  N10 UNL     1      -4.490  -1.172  -1.960  1.00  0.00    -0.293 N 
ATOM     43  H10 UNL     1      -3.782  -0.438  -1.937  1.00  0.00     0.187 HD
BRANCH  41  44
HETATM   44  N1  UNL     1      -5.927  -2.668  -0.908  1.00  0.00    -0.271 N 
ATOM     45  H1  UNL     1      -5.844  -3.387  -1.627  1.00  0.00     0.180 HD
BRANCH  44  46
HETATM   46  S1  UNL     1      -7.250  -2.733   0.182  1.00  0.00     0.228 S 
HETATM   47  C1  UNL     1      -6.785  -2.927   1.866  1.00  0.00     0.186 C 
HETATM   48  O1  UNL     1      -8.110  -1.501   0.050  1.00  0.00    -0.206 OA
HETATM   49  O2  UNL     1      -8.136  -3.895  -0.215  1.00  0.00    -0.206 OA
ENDBRANCH  44  46
ENDBRANCH  41  44
BRANCH  42  50
HETATM   50  N11 UNL     1      -4.943  -1.638  -3.191  1.00  0.00    -0.344 N 
ATOM     51 2H11 UNL     1      -5.651  -2.373  -3.196  1.00  0.00     0.176 HD
ATOM     52 1H11 UNL     1      -4.586  -1.264  -4.070  1.00  0.00     0.176 HD
ENDBRANCH  42  50
ENDBRANCH  40  41
ENDBRANCH  39  40
ENDBRANCH  37  39
ENDBRANCH   1  37
TORSDOF 12
