REMARK  5 active torsions:
REMARK  status: ('A' for Active; 'I' for Inactive)
REMARK    1  A    between atoms: S1_2  and  C1_3 
REMARK    2  A    between atoms: S1_2  and  C13_17 
REMARK    3  A    between atoms: C1_3  and  C2_4 
REMARK    4  A    between atoms: C2_4  and  C3_5 
REMARK    5  A    between atoms: C6_10  and  C7_11 
ROOT
HETATM    1  C3  UNL     1      -0.618  -0.397   0.561  1.00  0.00     0.021 A 
HETATM    2  N1  UNL     1      -0.007  -1.497   1.138  1.00  0.00    -0.368 N 
ATOM      3  H1  UNL     1       0.984  -1.560   1.373  1.00  0.00     0.165 HD
HETATM    4  C4  UNL     1      -0.903  -2.460   1.341  1.00  0.00     0.089 A 
HETATM    5  C5  UNL     1      -2.133  -2.029   0.904  1.00  0.00     0.031 A 
HETATM    6  C6  UNL     1      -1.943  -0.713   0.409  1.00  0.00    -0.002 A 
ENDROOT
BRANCH   1   7
HETATM    7  C2  UNL     1       0.076   0.834   0.197  1.00  0.00     0.071 C 
BRANCH   7   8
HETATM    8  C1  UNL     1       0.588   0.991  -1.178  1.00  0.00     0.120 C 
BRANCH   8   9
HETATM    9  S1  UNL     1       1.761  -0.229  -1.688  1.00  0.00     0.050 S 
HETATM   10  O1  UNL     1       2.189   0.166  -3.289  1.00  0.00    -0.253 OA
BRANCH   9  11
HETATM   11  C13 UNL     1       3.230  -0.181  -0.771  1.00  0.00     0.031 A 
HETATM   12  C14 UNL     1       3.955  -1.345  -0.653  1.00  0.00     0.021 A 
HETATM   13  C15 UNL     1       5.142  -1.416   0.052  1.00  0.00     0.001 A 
HETATM   14  C16 UNL     1       5.638  -0.293   0.668  1.00  0.00     0.000 A 
HETATM   15  C17 UNL     1       4.920   0.870   0.554  1.00  0.00     0.001 A 
HETATM   16  C18 UNL     1       3.734   0.948  -0.147  1.00  0.00     0.021 A 
ENDBRANCH   9  11
ENDBRANCH   8   9
ENDBRANCH   7   8
ENDBRANCH   1   7
BRANCH   6  17
HETATM   17  C7  UNL     1      -3.081   0.029  -0.115  1.00  0.00    -0.024 A 
HETATM   18  C8  UNL     1      -3.144   0.525  -1.373  1.00  0.00     0.012 A 
HETATM   19  C9  UNL     1      -4.260   1.254  -1.793  1.00  0.00     0.001 A 
HETATM   20  C10 UNL     1      -5.323   1.496  -0.969  1.00  0.00     0.000 A 
HETATM   21  C11 UNL     1      -5.271   0.993   0.319  1.00  0.00     0.001 A 
HETATM   22  C12 UNL     1      -4.176   0.282   0.724  1.00  0.00     0.012 A 
ENDBRANCH   6  17
TORSDOF 5
