REMARK  5 active torsions:
REMARK  status: ('A' for Active; 'I' for Inactive)
REMARK       I    between atoms: C1_4  and  N3_6 
REMARK    1  A    between atoms: N3_6  and  C2_8 
REMARK    2  A    between atoms: C3_9  and  C4_10 
REMARK    3  A    between atoms: C4_10  and  C5_11 
REMARK    4  A    between atoms: C6_17  and  N6_18 
REMARK       I    between atoms: C7_20  and  N8_22 
REMARK    5  A    between atoms: N8_22  and  C8_24 
ROOT
HETATM    1  C2  UNL     1      -1.203   0.791  -0.237  1.00  0.00     0.165 C 
HETATM    2  C3  UNL     1      -1.257  -0.476   0.535  1.00  0.00     0.223 C 
HETATM    3  N5  UNL     1       0.075  -0.290   1.074  1.00  0.00    -0.045 N 
ATOM      4  H51 UNL     1       0.718  -1.076   1.172  1.00  0.00     0.280 HD
ATOM      5  H52 UNL     1       0.218  -0.078   2.061  1.00  0.00     0.280 HD
HETATM    6  C6  UNL     1       0.281   0.727   0.049  1.00  0.00     0.311 C 
ENDROOT
BRANCH   6   7
HETATM    7  N6  UNL     1       1.103   0.222  -1.010  1.00  0.00    -0.335 N 
HETATM    8  C7  UNL     1       2.267  -0.261  -0.707  1.00  0.00     0.192 C 
HETATM    9  N7  UNL     1       2.731  -0.298   0.635  1.00  0.00    -0.063 NA
HETATM   10  N8  UNL     1       3.106  -0.770  -1.738  1.00  0.00    -0.309 N 
ATOM     11  H8  UNL     1       2.779  -0.747  -2.704  1.00  0.00     0.170 HD
ATOM     12  H6  UNL     1       0.781   0.242  -1.977  1.00  0.00     0.164 HD
BRANCH  10  13
HETATM   13  C8  UNL     1       4.379  -1.305  -1.454  1.00  0.00     0.355 C 
HETATM   14  O2  UNL     1       4.818  -1.352  -0.282  1.00  0.00    -0.283 OA
ENDBRANCH  10  13
ENDBRANCH   6   7
BRANCH   1  15
HETATM   15  N3  UNL     1      -1.792   1.893   0.481  1.00  0.00    -0.354 N 
HETATM   16  C1  UNL     1      -1.858   3.211  -0.055  1.00  0.00     0.182 C 
HETATM   17  N1  UNL     1      -2.144   3.453  -1.279  1.00  0.00    -0.374 N 
HETATM   18  N2  UNL     1      -1.595   4.292   0.815  1.00  0.00    -0.064 NA
ATOM     19  H12 UNL     1      -2.191   4.397  -1.663  1.00  0.00     0.158 HD
ATOM     20  H11 UNL     1      -2.334   2.672  -1.907  1.00  0.00     0.158 HD
ATOM     21  H3  UNL     1      -2.177   1.722   1.410  1.00  0.00     0.162 HD
ENDBRANCH   1  15
BRANCH   2  22
HETATM   22  C4  UNL     1      -1.457  -1.741  -0.253  1.00  0.00     0.134 C 
BRANCH  22  23
HETATM   23  C5  UNL     1      -1.477  -2.863   0.729  1.00  0.00     0.233 C 
HETATM   24  N4  UNL     1      -1.653  -4.213   0.287  1.00  0.00    -0.062 NA
HETATM   25  O1  UNL     1      -1.344  -2.695   1.967  1.00  0.00    -0.277 OA
ENDBRANCH  22  23
ENDBRANCH   2  22
TORSDOF 5
