REMARK  7 active torsions:
REMARK  status: ('A' for Active; 'I' for Inactive)
REMARK    1  A    between atoms: N1_2  and  N2_3 
REMARK       I    between atoms: N2_3  and  C2_5 
REMARK       I    between atoms: C2_5  and  N4_9 
REMARK    2  A    between atoms: N4_9  and  C3_11 
REMARK    3  A    between atoms: C3_11  and  C4_12 
REMARK       I    between atoms: C4_12  and  N5_14 
REMARK    4  A    between atoms: N5_14  and  C5_16 
REMARK    5  A    between atoms: C5_16  and  C6_17 
REMARK       I    between atoms: C6_17  and  N6_19 
REMARK    6  A    between atoms: N6_19  and  C7_21 
REMARK    7  A    between atoms: N7_22  and  N8_24 
ROOT
HETATM    1  C4  UNL     1       0.266   0.953  -0.660  1.00  0.00     0.236 C 
HETATM    2  O1  UNL     1       0.613   1.530  -1.723  1.00  0.00    -0.272 OA
HETATM    3  N5  UNL     1      -1.117   0.909  -0.324  1.00  0.00    -0.351 N 
ATOM      4  H5  UNL     1      -1.434   0.449   0.530  1.00  0.00     0.163 HD
ENDROOT
BRANCH   1   5
HETATM    5  C3  UNL     1       1.261   0.322   0.242  1.00  0.00     0.240 C 
BRANCH   5   6
HETATM    6  N4  UNL     1       2.572   0.509  -0.326  1.00  0.00    -0.217 N 
HETATM    7  C2  UNL     1       3.701  -0.012   0.361  1.00  0.00     0.683 C 
HETATM    8  N2  UNL     1       3.656  -1.319   0.960  1.00  0.00    -0.137 N 
HETATM    9  N3  UNL     1       4.760   0.717   0.432  1.00  0.00    -0.234 N 
ATOM     10  H2  UNL     1       3.328  -1.432   1.919  1.00  0.00     0.201 HD
ATOM     11  H32 UNL     1       5.571   0.343   0.925  1.00  0.00     0.174 HD
ATOM     12  H31 UNL     1       4.792   1.644   0.007  1.00  0.00     0.174 HD
ATOM     13  H4  UNL     1       2.688   1.008  -1.208  1.00  0.00     0.178 HD
BRANCH   8  14
HETATM   14  N1  UNL     1       4.062  -2.429   0.225  1.00  0.00    -0.131 NA
HETATM   15  C1  UNL     1       5.518  -2.458   0.121  1.00  0.00     0.159 C 
ENDBRANCH   8  14
ENDBRANCH   5   6
ENDBRANCH   1   5
BRANCH   3  16
HETATM   16  C5  UNL     1      -2.048   1.524  -1.212  1.00  0.00     0.225 C 
BRANCH  16  17
HETATM   17  C6  UNL     1      -3.455   1.469  -0.853  1.00  0.00     0.240 C 
HETATM   18  O2  UNL     1      -4.285   2.022  -1.652  1.00  0.00    -0.271 OA
HETATM   19  N6  UNL     1      -3.932   0.845   0.315  1.00  0.00    -0.321 N 
ATOM     20  H6  UNL     1      -3.263   0.406   0.947  1.00  0.00     0.169 HD
BRANCH  19  21
HETATM   21  C7  UNL     1      -5.324   0.805   0.646  1.00  0.00     0.199 C 
HETATM   22  N7  UNL     1      -5.910  -0.323   0.776  1.00  0.00    -0.303 N 
ATOM     23  H7  UNL     1      -5.365  -1.175   0.639  1.00  0.00     0.187 HD
BRANCH  22  24
HETATM   24  N8  UNL     1      -7.263  -0.440   1.097  1.00  0.00    -0.344 N 
ATOM     25  H82 UNL     1      -7.792   0.422   1.230  1.00  0.00     0.176 HD
ATOM     26  H81 UNL     1      -7.731  -1.340   1.201  1.00  0.00     0.176 HD
ENDBRANCH  22  24
ENDBRANCH  19  21
ENDBRANCH  16  17
ENDBRANCH   3  16
TORSDOF 7
