REMARK  13 active torsions:
REMARK  status: ('A' for Active; 'I' for Inactive)
REMARK    1  A    between atoms: C2_2  and  C18_40 
REMARK    2  A    between atoms: N1_3  and  C3_5 
REMARK    3  A    between atoms: C3_5  and  N2_6 
REMARK    4  A    between atoms: C3_5  and  C4_10 
REMARK    5  A    between atoms: N2_6  and  N3_7 
REMARK       I    between atoms: C4_10  and  N4_12 
REMARK    6  A    between atoms: N4_12  and  C5_14 
REMARK    7  A    between atoms: C5_14  and  C6_15 
REMARK    8  A    between atoms: C5_14  and  C16_34 
REMARK       I    between atoms: C6_15  and  N5_17 
REMARK    9  A    between atoms: N5_17  and  C7_19 
REMARK   10  A    between atoms: C7_19  and  C8_20 
REMARK       I    between atoms: C8_20  and  N6_22 
REMARK   11  A    between atoms: N6_22  and  C9_24 
REMARK   12  A    between atoms: C9_24  and  C11_26 
REMARK       I    between atoms: C11_26  and  N7_28 
REMARK   13  A    between atoms: C16_34  and  N8_36 
ROOT
HETATM    1  C5  UNL     1      -2.183  -1.027  -0.383  1.00  0.00     0.206 C 
ENDROOT
BRANCH   1   2
HETATM    2  N4  UNL     1      -3.506  -0.583  -0.024  1.00  0.00    -0.343 N 
HETATM    3  C4  UNL     1      -4.331  -1.047   0.997  1.00  0.00     0.258 C 
HETATM    4  O1  UNL     1      -3.969  -1.962   1.766  1.00  0.00    -0.270 OA
ATOM      5  H4  UNL     1      -3.889   0.172  -0.594  1.00  0.00     0.163 HD
BRANCH   3   6
HETATM    6  C3  UNL     1      -5.697  -0.419   1.175  1.00  0.00     0.289 C 
BRANCH   6   7
HETATM    7  N1  UNL     1      -5.806   0.767   0.417  1.00  0.00    -0.362 N 
HETATM    8  C2  UNL     1      -6.799   1.441   0.022  1.00  0.00     0.068 C 
HETATM    9  C1  UNL     1      -6.558   2.694  -0.794  1.00  0.00     0.073 C 
ATOM     10  H1  UNL     1      -4.907   1.156   0.132  1.00  0.00     0.161 HD
BRANCH   8  11
HETATM   11  C18 UNL     1      -8.191   1.133   0.289  1.00  0.00     0.276 C 
HETATM   12  N9  UNL     1      -9.276   1.952  -0.205  1.00  0.00    -0.056 NA
HETATM   13  O6  UNL     1      -8.548   0.123   0.975  1.00  0.00    -0.270 OA
ENDBRANCH   8  11
ENDBRANCH   6   7
BRANCH   6  14
HETATM   14  N2  UNL     1      -6.076  -0.334   2.564  1.00  0.00    -0.113 NA
BRANCH  14  15
HETATM   15  N3  UNL     1      -5.297   0.633   3.243  1.00  0.00    -0.346 N 
ATOM     16  H32 UNL     1      -4.568   1.188   2.795  1.00  0.00     0.172 HD
ATOM     17  H31 UNL     1      -5.565   0.693   4.225  1.00  0.00     0.172 HD
ENDBRANCH  14  15
ENDBRANCH   6  14
ENDBRANCH   3   6
ENDBRANCH   1   2
BRANCH   1  18
HETATM   18  C6  UNL     1      -1.169  -0.071   0.182  1.00  0.00     0.242 C 
HETATM   19  O2  UNL     1      -1.563   0.853   0.901  1.00  0.00    -0.271 OA
HETATM   20  N5  UNL     1       0.202  -0.237  -0.112  1.00  0.00    -0.350 N 
ATOM     21  H5  UNL     1       0.516  -0.993  -0.721  1.00  0.00     0.163 HD
BRANCH  20  22
HETATM   22  C7  UNL     1       1.154   0.688   0.469  1.00  0.00     0.225 C 
BRANCH  22  23
HETATM   23  C8  UNL     1       2.546   0.423   0.083  1.00  0.00     0.236 C 
HETATM   24  O3  UNL     1       2.879  -0.465  -0.711  1.00  0.00    -0.272 OA
HETATM   25  N6  UNL     1       3.554   1.248   0.669  1.00  0.00    -0.347 N 
ATOM     26  H6  UNL     1       3.279   1.972   1.333  1.00  0.00     0.163 HD
BRANCH  25  27
HETATM   27  C9  UNL     1       4.963   1.083   0.344  1.00  0.00     0.172 C 
HETATM   28  C10 UNL     1       5.683   2.329   0.772  1.00  0.00     0.042 C 
BRANCH  27  29
HETATM   29  C11 UNL     1       5.504  -0.124   1.054  1.00  0.00     0.242 C 
HETATM   30  O4  UNL     1       4.726  -0.742   1.821  1.00  0.00    -0.271 OA
HETATM   31  N7  UNL     1       6.824  -0.583   0.897  1.00  0.00    -0.346 N 
HETATM   32  C12 UNL     1       7.276  -1.785   1.618  1.00  0.00     0.152 C 
HETATM   33  C15 UNL     1       7.847   0.011   0.057  1.00  0.00     0.152 C 
HETATM   34  C13 UNL     1       7.721  -2.738   0.490  1.00  0.00     0.187 C 
HETATM   35  O5  UNL     1       8.745  -2.131  -0.249  1.00  0.00    -0.388 OA
HETATM   36  C14 UNL     1       8.225  -1.053  -0.973  1.00  0.00     0.187 C 
ENDBRANCH  27  29
ENDBRANCH  25  27
ENDBRANCH  22  23
ENDBRANCH  20  22
ENDBRANCH   1  18
BRANCH   1  37
HETATM   37  C16 UNL     1      -2.003  -1.157  -1.860  1.00  0.00     0.211 C 
HETATM   38  C17 UNL     1      -2.996  -2.179  -2.410  1.00  0.00     0.042 C 
BRANCH  37  39
HETATM   39  N8  UNL     1      -2.288   0.108  -2.528  1.00  0.00    -0.073 N 
ATOM     40  H83 UNL     1      -3.215   0.461  -2.290  1.00  0.00     0.274 HD
ATOM     41  H82 UNL     1      -1.730   0.872  -2.145  1.00  0.00     0.274 HD
ATOM     42  H81 UNL     1      -2.165   0.019  -3.537  1.00  0.00     0.274 HD
ENDBRANCH  37  39
ENDBRANCH   1  37
TORSDOF 13
