REMARK  1 active torsions:
REMARK  status: ('A' for Active; 'I' for Inactive)
REMARK    1  A    between atoms: C4_4  and  N1_5 
ROOT
HETATM    1  N1  UNL     1       1.952   0.708  -0.209  1.00  0.00    -0.323 N 
ATOM      2  H1  UNL     1       2.648   0.004   0.037  1.00  0.00     0.172 HD
HETATM    3  C5  UNL     1       2.273   2.045   0.048  1.00  0.00     0.177 C 
HETATM    4  N2  UNL     1       2.552   3.136   0.267  1.00  0.00    -0.172 NA
ENDROOT
BRANCH   1   5
HETATM    5  C4  UNL     1       0.733   0.248  -0.786  1.00  0.00     0.109 A 
HETATM    6  C2  UNL     1      -0.596   0.467  -0.205  1.00  0.00    -0.017 A 
HETATM    7  C1  UNL     1      -0.834   1.406   0.949  1.00  0.00     0.018 C 
HETATM    8  C3  UNL     1      -1.756   0.447  -1.199  1.00  0.00     0.018 C 
HETATM    9  C6  UNL     1       0.047  -0.841   0.053  1.00  0.00    -0.017 A 
HETATM   10  C7  UNL     1       0.552  -1.092   1.442  1.00  0.00     0.018 C 
HETATM   11  C8  UNL     1      -0.339  -2.077  -0.708  1.00  0.00     0.018 C 
ENDBRANCH   1   5
TORSDOF 1
