REMARK  13 active torsions:
REMARK  status: ('A' for Active; 'I' for Inactive)
REMARK       I    between atoms: C1_4  and  N2_5 
REMARK       I    between atoms: C1_4  and  N11_42 
REMARK    1  A    between atoms: N2_5  and  C2_7 
REMARK    2  A    between atoms: C4_12  and  O2_13 
REMARK    3  A    between atoms: N4_16  and  C6_17 
REMARK    4  A    between atoms: C6_17  and  O3_18 
REMARK    5  A    between atoms: C6_17  and  C7_20 
REMARK    6  A    between atoms: C7_20  and  O4_21 
REMARK    7  A    between atoms: C7_20  and  C8_23 
REMARK    8  A    between atoms: C8_23  and  C9_25 
REMARK    9  A    between atoms: C9_25  and  N5_26 
REMARK   10  A    between atoms: C9_25  and  N6_30 
REMARK   11  A    between atoms: N6_30  and  N7_31 
REMARK   12  A    between atoms: N7_31  and  C10_33 
REMARK   13  A    between atoms: N11_42  and  N12_44 
ROOT
HETATM    1  C6  UNL     1       1.897   0.422  -1.825  1.00  0.00     0.278 C 
ENDROOT
BRANCH   1   2
HETATM    2  N4  UNL     1       2.020  -0.691  -0.918  1.00  0.00    -0.160 N 
HETATM    3  C2  UNL     1       3.231  -0.907  -0.330  1.00  0.00     0.704 A 
HETATM    4  N3  UNL     1       3.459  -1.930   0.527  1.00  0.00    -0.153 N 
HETATM    5  C3  UNL     1       2.477  -2.787   0.833  1.00  0.00     0.294 A 
ATOM      6  H3  UNL     1       4.383  -2.048   0.942  1.00  0.00     0.187 HD
HETATM    7  O1  UNL     1       2.687  -3.730   1.623  1.00  0.00    -0.265 OA
HETATM    8  C4  UNL     1       1.243  -2.606   0.262  1.00  0.00     0.151 A 
HETATM    9  C5  UNL     1       1.024  -1.540  -0.625  1.00  0.00     0.154 A 
BRANCH   3  10
HETATM   10  N2  UNL     1       4.181  -0.092  -0.637  1.00  0.00    -0.021 N 
HETATM   11  C1  UNL     1       5.469  -0.276  -0.070  1.00  0.00     0.704 C 
HETATM   12  N1  UNL     1       6.396  -1.006  -0.589  1.00  0.00    -0.233 N 
HETATM   13  N11 UNL     1       5.809   0.375   1.164  1.00  0.00    -0.139 N 
ATOM     14  H12 UNL     1       6.154  -1.468  -1.466  1.00  0.00     0.174 HD
ATOM     15  H11 UNL     1       7.322  -1.138  -0.182  1.00  0.00     0.174 HD
ATOM     16  H11 UNL     1       6.107  -0.197   1.955  1.00  0.00     0.205 HD
ATOM     17  H2  UNL     1       4.009   0.679  -1.282  1.00  0.00     0.203 HD
BRANCH  13  18
HETATM   18  N12 UNL     1       5.748   1.746   1.321  1.00  0.00    -0.331 N 
ATOM     19 2H12 UNL     1       5.448   2.302   0.520  1.00  0.00     0.177 HD
ATOM     20 1H12 UNL     1       5.990   2.208   2.198  1.00  0.00     0.177 HD
ENDBRANCH  13  18
ENDBRANCH   3  10
BRANCH   8  21
HETATM   21  O2  UNL     1       0.194  -3.463   0.544  1.00  0.00    -0.355 OA
ATOM     22  H2  UNL     1      -0.661  -3.338   0.149  1.00  0.00     0.218 HD
ENDBRANCH   8  21
ENDBRANCH   1   2
BRANCH   1  23
HETATM   23  O3  UNL     1       3.189   0.841  -2.231  1.00  0.00    -0.373 OA
ATOM     24  H3  UNL     1       3.108   1.575  -2.829  1.00  0.00     0.212 HD
ENDBRANCH   1  23
BRANCH   1  25
HETATM   25  C7  UNL     1       1.269   1.611  -1.185  1.00  0.00     0.240 C 
BRANCH  25  26
HETATM   26  O4  UNL     1       1.897   2.060  -0.053  1.00  0.00    -0.383 OA
ATOM     27  H4  UNL     1       1.496   2.818   0.355  1.00  0.00     0.210 HD
ENDBRANCH  25  26
BRANCH  25  28
HETATM   28  C8  UNL     1      -0.194   1.568  -0.991  1.00  0.00     0.207 C 
HETATM   29  O5  UNL     1      -0.905   1.113  -1.910  1.00  0.00    -0.291 OA
BRANCH  28  30
HETATM   30  C9  UNL     1      -0.907   2.030   0.218  1.00  0.00     0.367 C 
BRANCH  30  31
HETATM   31  N5  UNL     1      -0.441   1.274   1.360  1.00  0.00    -0.053 N 
ATOM     32  H53 UNL     1      -0.527   0.267   1.220  1.00  0.00     0.276 HD
ATOM     33  H52 UNL     1       0.572   1.318   1.467  1.00  0.00     0.276 HD
ATOM     34  H51 UNL     1      -0.933   1.593   2.195  1.00  0.00     0.276 HD
ENDBRANCH  30  31
BRANCH  30  35
HETATM   35  N6  UNL     1      -2.331   1.835   0.017  1.00  0.00    -0.099 NA
BRANCH  35  36
HETATM   36  N7  UNL     1      -2.676   0.508  -0.105  1.00  0.00    -0.290 N 
ATOM     37  H7  UNL     1      -1.942  -0.199  -0.139  1.00  0.00     0.183 HD
BRANCH  36  38
HETATM   38  C10 UNL     1      -4.072   0.095  -0.187  1.00  0.00     0.096 A 
HETATM   39  N8  UNL     1      -4.998   0.913   0.109  1.00  0.00    -0.319 N 
HETATM   40  C11 UNL     1      -6.377   0.565   0.048  1.00  0.00     0.189 A 
ATOM     41  H8  UNL     1      -4.743   1.856   0.402  1.00  0.00     0.169 HD
HETATM   42  N9  UNL     1      -7.364   1.516   0.387  1.00  0.00    -0.064 NA
HETATM   43  N10 UNL     1      -6.652  -0.631  -0.323  1.00  0.00    -0.364 N 
HETATM   44  C12 UNL     1      -5.746  -1.664  -0.685  1.00  0.00     0.130 A 
ATOM     45  H10 UNL     1      -7.643  -0.870  -0.363  1.00  0.00     0.162 HD
HETATM   46  C13 UNL     1      -4.323  -1.275  -0.622  1.00  0.00     0.097 A 
ENDBRANCH  36  38
ENDBRANCH  35  36
ENDBRANCH  30  35
ENDBRANCH  28  30
ENDBRANCH  25  28
ENDBRANCH   1  25
TORSDOF 13
