REMARK  16 active torsions:
REMARK  status: ('A' for Active; 'I' for Inactive)
REMARK    1  A    between atoms: N1_2  and  N2_3 
REMARK    2  A    between atoms: N1_2  and  C2_6 
REMARK    3  A    between atoms: C2_6  and  O1_7 
REMARK    4  A    between atoms: C2_6  and  C3_9 
REMARK    5  A    between atoms: C3_9  and  O2_10 
REMARK    6  A    between atoms: C3_9  and  N3_12 
REMARK       I    between atoms: N3_12  and  C4_14 
REMARK    7  A    between atoms: C4_14  and  C5_16 
REMARK    8  A    between atoms: C5_16  and  N4_17 
REMARK    9  A    between atoms: C7_22  and  O4_23 
REMARK   10  A    between atoms: C8_25  and  O5_26 
REMARK   11  A    between atoms: C9_28  and  N5_29 
REMARK   12  A    between atoms: N6_31  and  C10_33 
REMARK   13  A    between atoms: C10_33  and  N7_34 
REMARK   14  A    between atoms: C11_38  and  O6_39 
REMARK   15  A    between atoms: C13_44  and  N9_45 
REMARK   16  A    between atoms: C14_49  and  O7_50 
ROOT
HETATM    1  C5  UNL     1       0.413  -1.480  -0.500  1.00  0.00     0.264 C 
HETATM    2  C6  UNL     1      -0.794  -0.692  -0.363  1.00  0.00     0.055 A 
HETATM    3  C7  UNL     1      -0.893   0.591  -0.909  1.00  0.00     0.113 A 
HETATM    4  C8  UNL     1      -2.069   1.291  -0.740  1.00  0.00     0.131 A 
HETATM    5  C9  UNL     1      -3.134   0.778  -0.063  1.00  0.00     0.119 A 
HETATM    6  C11 UNL     1      -3.043  -0.496   0.481  1.00  0.00     0.124 A 
HETATM    7  C12 UNL     1      -1.879  -1.198   0.317  1.00  0.00     0.078 A 
HETATM    8  N8  UNL     1      -1.852  -2.516   0.884  1.00  0.00    -0.358 N 
ATOM      9  H8  UNL     1      -2.596  -2.842   1.501  1.00  0.00     0.162 HD
HETATM   10  C13 UNL     1      -0.709  -3.380   0.542  1.00  0.00     0.314 C 
HETATM   11  C14 UNL     1       0.554  -2.508   0.574  1.00  0.00     0.218 C 
ENDROOT
BRANCH   1  12
HETATM   12  C4  UNL     1       1.663  -0.665  -0.637  1.00  0.00     0.267 C 
HETATM   13  N3  UNL     1       2.087   0.208   0.375  1.00  0.00    -0.305 N 
ATOM     14  H3  UNL     1       1.462   0.228   1.181  1.00  0.00     0.170 HD
HETATM   15  O3  UNL     1       2.289  -0.816  -1.690  1.00  0.00    -0.270 OA
BRANCH  13  16
HETATM   16  C3  UNL     1       3.176   1.046   0.505  1.00  0.00     0.164 C 
BRANCH  16  17
HETATM   17  C2  UNL     1       4.328   1.341  -0.352  1.00  0.00     0.286 C 
BRANCH  17  18
HETATM   18  N1  UNL     1       5.588   1.156   0.391  1.00  0.00    -0.206 NA
HETATM   19  C1  UNL     1       5.675   2.122   1.447  1.00  0.00     0.139 C 
BRANCH  18  20
HETATM   20  N2  UNL     1       6.644   1.333  -0.500  1.00  0.00    -0.361 NA
ATOM     21  H22 UNL     1       7.516   1.205   0.014  1.00  0.00     0.171 HD
ATOM     22  H21 UNL     1       6.582   0.646  -1.251  1.00  0.00     0.171 HD
ENDBRANCH  18  20
ENDBRANCH  17  18
BRANCH  17  23
HETATM   23  O1  UNL     1       4.401   0.667  -1.530  1.00  0.00    -0.372 OA
ATOM     24  H1  UNL     1       3.589   0.786  -2.009  1.00  0.00     0.212 HD
ENDBRANCH  17  23
ENDBRANCH  16  17
BRANCH  16  25
HETATM   25  O2  UNL     1       3.160   1.717   1.650  1.00  0.00    -0.346 OA
ATOM     26  H2  UNL     1       2.413   1.526   2.205  1.00  0.00     0.219 HD
ENDBRANCH  16  25
ENDBRANCH  13  16
ENDBRANCH   1  12
BRANCH   1  27
HETATM   27  N4  UNL     1       0.274  -2.236  -1.757  1.00  0.00    -0.054 N 
ATOM     28  H43 UNL     1       0.284  -1.645  -2.589  1.00  0.00     0.276 HD
ATOM     29  H42 UNL     1       1.097  -2.792  -1.989  1.00  0.00     0.276 HD
ATOM     30  H41 UNL     1      -0.577  -2.791  -1.664  1.00  0.00     0.276 HD
ENDBRANCH   1  27
BRANCH  11  31
HETATM   31  O7  UNL     1       0.758  -2.031   1.842  1.00  0.00    -0.388 OA
ATOM     32  H7  UNL     1       0.848  -2.685   2.525  1.00  0.00     0.210 HD
ENDBRANCH  11  31
BRANCH   3  33
HETATM   33  O4  UNL     1       0.144   1.177  -1.611  1.00  0.00    -0.357 OA
ATOM     34  H4  UNL     1       0.077   2.049  -1.982  1.00  0.00     0.217 HD
ENDBRANCH   3  33
BRANCH  10  35
HETATM   35  N9  UNL     1      -0.615  -4.521   1.396  1.00  0.00    -0.056 N 
ATOM     36  H93 UNL     1      -0.586  -4.245   2.377  1.00  0.00     0.276 HD
ATOM     37  H92 UNL     1      -1.487  -5.050   1.401  1.00  0.00     0.276 HD
ATOM     38  H91 UNL     1       0.176  -5.119   1.159  1.00  0.00     0.276 HD
ENDBRANCH  10  35
BRANCH   4  39
HETATM   39  O5  UNL     1      -2.154   2.583  -1.294  1.00  0.00    -0.356 OA
ATOM     40  H5  UNL     1      -2.964   3.065  -1.178  1.00  0.00     0.218 HD
ENDBRANCH   4  39
BRANCH   6  41
HETATM   41  O6  UNL     1      -4.149  -0.966   1.155  1.00  0.00    -0.356 OA
ATOM     42  H6  UNL     1      -4.087  -1.838   1.527  1.00  0.00     0.218 HD
ENDBRANCH   6  41
BRANCH   5  43
HETATM   43  N5  UNL     1      -4.325   1.524   0.093  1.00  0.00    -0.298 N 
HETATM   44  N6  UNL     1      -5.202   1.653  -0.820  1.00  0.00    -0.311 N 
ATOM     45  H6  UNL     1      -5.065   1.203  -1.725  1.00  0.00     0.182 HD
ATOM     46  H5  UNL     1      -4.491   1.985   0.988  1.00  0.00     0.186 HD
BRANCH  44  47
HETATM   47  C10 UNL     1      -6.403   2.443  -0.574  1.00  0.00     0.368 C 
BRANCH  47  48
HETATM   48  N7  UNL     1      -7.482   1.634  -0.069  1.00  0.00    -0.062 N 
ATOM     49  H73 UNL     1      -7.676   0.846  -0.687  1.00  0.00     0.276 HD
ATOM     50  H72 UNL     1      -7.200   1.118   0.764  1.00  0.00     0.276 HD
ATOM     51  H71 UNL     1      -8.322   2.187   0.103  1.00  0.00     0.276 HD
ENDBRANCH  47  48
ENDBRANCH  44  47
ENDBRANCH   5  43
TORSDOF 16
