REMARK  6 active torsions:
REMARK  status: ('A' for Active; 'I' for Inactive)
REMARK    1  A    between atoms: C3_5  and  C4_6 
REMARK    2  A    between atoms: C4_6  and  N2_7 
REMARK    3  A    between atoms: C5_11  and  C6_12 
REMARK       I    between atoms: C6_12  and  N3_14 
REMARK    4  A    between atoms: C7_16  and  N4_17 
REMARK    5  A    between atoms: N4_17  and  N5_19 
REMARK    6  A    between atoms: C8_22  and  N6_23 
REMARK       I    between atoms: N6_23  and  C9_25 
REMARK       I    between atoms: C9_25  and  N7_26 
REMARK       I    between atoms: C9_25  and  N8_30 
ROOT
HETATM    1  C1  UNL     1      -3.120  -2.566   0.182  1.00  0.00     0.089 C 
HETATM    2  C2  UNL     1      -1.921  -1.697   0.126  1.00  0.00     0.078 A 
HETATM    3  N1  UNL     1      -0.671  -2.154   0.207  1.00  0.00    -0.347 N 
ATOM      4  H1  UNL     1      -0.525  -3.158   0.314  1.00  0.00     0.167 HD
HETATM    5  C3  UNL     1       0.428  -1.334   0.153  1.00  0.00     0.055 A 
HETATM    6  C5  UNL     1       0.205   0.012   0.010  1.00  0.00     0.100 A 
HETATM    7  C8  UNL     1      -1.119   0.501  -0.077  1.00  0.00     0.123 A 
HETATM    8  N9  UNL     1      -2.119  -0.377  -0.015  1.00  0.00    -0.332 N 
ATOM      9  H9  UNL     1      -3.077  -0.031  -0.077  1.00  0.00     0.168 HD
ENDROOT
BRANCH   7  10
HETATM   10  N6  UNL     1      -1.281   1.751  -0.209  1.00  0.00    -0.326 N 
HETATM   11  C9  UNL     1      -2.509   2.472  -0.317  1.00  0.00     0.481 C 
HETATM   12  N7  UNL     1      -3.346   2.405   0.852  1.00  0.00    -0.033 N 
HETATM   13  N8  UNL     1      -3.269   2.150  -1.516  1.00  0.00    -0.033 N 
ATOM     14  H73 UNL     1      -3.526   1.433   1.104  1.00  0.00     0.278 HD
ATOM     15  H72 UNL     1      -2.828   2.707   1.677  1.00  0.00     0.278 HD
ATOM     16  H71 UNL     1      -4.223   2.920   0.775  1.00  0.00     0.278 HD
ATOM     17  H83 UNL     1      -2.698   2.282  -2.351  1.00  0.00     0.278 HD
ATOM     18  H82 UNL     1      -3.434   1.145  -1.580  1.00  0.00     0.278 HD
ATOM     19  H81 UNL     1      -4.146   2.665  -1.593  1.00  0.00     0.278 HD
ATOM     20  H6  UNL     1      -0.429   2.311  -0.242  1.00  0.00     0.164 HD
ENDBRANCH   7  10
BRANCH   6  21
HETATM   21  C6  UNL     1       1.308   0.947  -0.049  1.00  0.00     0.262 C 
HETATM   22  O1  UNL     1       1.024   2.186  -0.187  1.00  0.00    -0.267 OA
HETATM   23  N3  UNL     1       2.649   0.594   0.033  1.00  0.00    -0.318 N 
HETATM   24  C7  UNL     1       3.625   1.242  -0.512  1.00  0.00     0.199 C 
ATOM     25  H3  UNL     1       2.882  -0.244   0.566  1.00  0.00     0.169 HD
BRANCH  24  26
HETATM   26  N4  UNL     1       4.957   0.820  -0.383  1.00  0.00    -0.303 N 
ATOM     27  H4  UNL     1       5.498   0.596  -1.218  1.00  0.00     0.187 HD
BRANCH  26  28
HETATM   28  N5  UNL     1       5.548   0.703   0.872  1.00  0.00    -0.344 N 
ATOM     29  H52 UNL     1       4.993   0.930   1.697  1.00  0.00     0.176 HD
ATOM     30  H51 UNL     1       6.516   0.396   0.966  1.00  0.00     0.176 HD
ENDBRANCH  26  28
ENDBRANCH  24  26
ENDBRANCH   6  21
BRANCH   5  31
HETATM   31  C4  UNL     1       1.774  -1.915   0.244  1.00  0.00     0.287 C 
BRANCH  31  32
HETATM   32  N2  UNL     1       1.586  -3.384   0.397  1.00  0.00    -0.074 N 
ATOM     33  H23 UNL     1       0.983  -3.636   1.180  1.00  0.00     0.274 HD
ATOM     34  H22 UNL     1       1.015  -3.798  -0.340  1.00  0.00     0.274 HD
ATOM     35  H21 UNL     1       2.521  -3.787   0.460  1.00  0.00     0.274 HD
ENDBRANCH  31  32
ENDBRANCH   5  31
TORSDOF 6
