REMARK  3 active torsions:
REMARK  status: ('A' for Active; 'I' for Inactive)
REMARK    1  A    between atoms: N1_1  and  N2_4 
REMARK    2  A    between atoms: N3_6  and  C1_8 
REMARK    3  A    between atoms: C1_8  and  N4_9 
ROOT
HETATM    1  C1  UNL     1      -0.980  -0.020  -0.261  1.00  0.00     0.120 C 
HETATM    2  C7  UNL     1      -1.607  -1.139   0.587  1.00  0.00     0.055 C 
HETATM    3  C8  UNL     1      -2.752  -0.465   1.330  1.00  0.00     0.004 C 
HETATM    4  C9  UNL     1      -3.802   0.061   0.429  1.00  0.00     0.000 C 
HETATM    5  C10 UNL     1      -3.335   0.693  -0.829  1.00  0.00     0.004 C 
HETATM    6  C11 UNL     1      -2.025   0.236  -1.357  1.00  0.00     0.055 C 
ENDROOT
BRANCH   1   7
HETATM    7  N3  UNL     1      -0.852   1.118   0.593  1.00  0.00    -0.294 N 
HETATM    8  N2  UNL     1      -1.081   2.284   0.272  1.00  0.00    -0.252 N 
ATOM      9  H2  UNL     1      -2.100   2.332   0.284  1.00  0.00     0.207 HD
ATOM     10  H3  UNL     1      -0.544   0.950   1.551  1.00  0.00     0.184 HD
BRANCH   8  11
HETATM   11  N1  UNL     1      -0.748   3.436  -0.059  1.00  0.00    -0.331 N 
ATOM     12  H12 UNL     1       0.268   3.347  -0.059  1.00  0.00     0.178 HD
ATOM     13  H11 UNL     1      -0.938   4.402  -0.325  1.00  0.00     0.178 HD
ENDBRANCH   8  11
ENDBRANCH   1   7
BRANCH   1  14
HETATM   14  N4  UNL     1       0.200  -0.442  -0.915  1.00  0.00    -0.352 N 
HETATM   15  C2  UNL     1       1.401  -0.423  -0.511  1.00  0.00     0.074 C 
HETATM   16  C3  UNL     1       1.734   0.094   0.822  1.00  0.00     0.076 C 
HETATM   17  N5  UNL     1       2.457  -0.906  -1.347  1.00  0.00    -0.380 N 
HETATM   18  C4  UNL     1       3.179  -0.242   1.213  1.00  0.00     0.009 C 
HETATM   19  C5  UNL     1       4.019   0.275   0.036  1.00  0.00     0.020 C 
HETATM   20  C6  UNL     1       3.862  -0.760  -1.056  1.00  0.00     0.121 C 
ATOM     21  H5  UNL     1       2.198  -1.387  -2.208  1.00  0.00     0.160 HD
ATOM     22  H4  UNL     1       0.064  -0.818  -1.853  1.00  0.00     0.163 HD
ENDBRANCH   1  14
TORSDOF 3
