REMARK  4 active torsions:
REMARK  status: ('A' for Active; 'I' for Inactive)
REMARK       I    between atoms: C1_2  and  N1_3 
REMARK    1  A    between atoms: C1_2  and  O3_13 
REMARK    2  A    between atoms: N1_3  and  C2_5 
REMARK    3  A    between atoms: C2_5  and  C3_6 
REMARK    4  A    between atoms: O3_13  and  C9_14 
ROOT
HETATM    1  O1  UNL     1       1.587   1.485   0.649  1.00  0.00    -0.239 OA
HETATM    2  C1  UNL     1       1.412   0.272   0.481  1.00  0.00     0.361 C 
HETATM    3  N1  UNL     1       0.137  -0.351   0.575  1.00  0.00    -0.334 N 
ATOM      4  H1  UNL     1       0.030  -1.355   0.430  1.00  0.00     0.164 HD
ENDROOT
BRANCH   3   5
HETATM    5  C2  UNL     1      -0.986   0.470   0.878  1.00  0.00     0.169 C 
BRANCH   5   6
HETATM    6  C3  UNL     1      -2.282  -0.373   0.939  1.00  0.00     0.211 C 
HETATM    7  C4  UNL     1      -3.458   0.309   1.311  1.00  0.00    -0.149 C 
HETATM    8  C5  UNL     1      -4.684   0.989   1.436  1.00  0.00     0.086 C 
HETATM    9  C6  UNL     1      -5.461   0.779   0.091  1.00  0.00     0.040 C 
HETATM   10  C7  UNL     1      -4.866  -0.379  -0.708  1.00  0.00    -0.002 C 
HETATM   11  C8  UNL     1      -3.481  -0.418  -1.101  1.00  0.00     0.132 C 
HETATM   12  O2  UNL     1      -2.470  -0.991  -0.343  1.00  0.00    -0.345 OA
ENDBRANCH   5   6
ENDBRANCH   3   5
BRANCH   2  13
HETATM   13  O3  UNL     1       2.500  -0.518   0.188  1.00  0.00    -0.299 OA
BRANCH  13  14
HETATM   14  C9  UNL     1       3.818  -0.078   0.058  1.00  0.00     0.133 C 
HETATM   15  C10 UNL     1       4.789  -0.733   0.977  1.00  0.00     0.032 C 
HETATM   16  C11 UNL     1       6.134  -0.457   0.337  1.00  0.00     0.002 C 
HETATM   17  C12 UNL     1       5.863   0.086  -1.037  1.00  0.00     0.002 C 
HETATM   18  C13 UNL     1       4.411  -0.340  -1.304  1.00  0.00     0.032 C 
ENDBRANCH  13  14
ENDBRANCH   2  13
TORSDOF 4
