REMARK  2 active torsions:
REMARK  status: ('A' for Active; 'I' for Inactive)
REMARK    1  A    between atoms: C2_2  and  O1_3 
REMARK    2  A    between atoms: O1_3  and  C3_4 
ROOT
HETATM    1  C3  UNL     1       2.251   0.223  -0.289  1.00  0.00     0.260 C 
HETATM    2  C4  UNL     1       1.660  -1.040  -0.925  1.00  0.00     0.068 C 
HETATM    3  C5  UNL     1       0.273  -0.590  -1.237  1.00  0.00     0.029 C 
HETATM    4  C6  UNL     1      -0.806  -1.418  -0.574  1.00  0.00     0.026 C 
HETATM    5  C7  UNL     1      -0.663  -1.557   0.886  1.00  0.00     0.009 C 
HETATM    6  C8  UNL     1      -1.381  -0.541   1.716  1.00  0.00     0.008 C 
HETATM    7  C9  UNL     1      -1.014   0.871   1.434  1.00  0.00     0.018 C 
HETATM    8  C10 UNL     1      -2.072   1.759   2.101  1.00  0.00     0.013 C 
HETATM    9  C11 UNL     1      -1.172   1.104  -0.070  1.00  0.00     0.088 C 
HETATM   10  C12 UNL     1      -1.455   2.601  -0.277  1.00  0.00     0.049 C 
HETATM   11  O2  UNL     1      -2.263   0.436  -0.488  1.00  0.00    -0.367 OA
HETATM   12  C13 UNL     1      -2.112  -0.801  -1.016  1.00  0.00     0.059 C 
HETATM   13  C14 UNL     1      -3.236  -1.760  -0.751  1.00  0.00     0.046 C 
HETATM   14  C15 UNL     1      -2.053  -0.633  -2.543  1.00  0.00     0.046 C 
HETATM   15  C16 UNL     1       0.129   0.808  -0.711  1.00  0.00     0.164 C 
HETATM   16  O3  UNL     1       1.161   0.915   0.218  1.00  0.00    -0.353 OA
ENDROOT
BRANCH   1  17
HETATM   17  O1  UNL     1       3.131  -0.192   0.677  1.00  0.00    -0.362 OA
BRANCH  17  18
HETATM   18  C2  UNL     1       4.383   0.321   0.406  1.00  0.00     0.166 C 
HETATM   19  C1  UNL     1       5.419  -0.089   1.425  1.00  0.00     0.033 C 
ENDBRANCH  17  18
ENDBRANCH   1  17
TORSDOF 2
