REMARK  13 active torsions:
REMARK  status: ('A' for Active; 'I' for Inactive)
REMARK    1  A    between atoms: C3_8  and  C4_9 
REMARK    2  A    between atoms: C4_9  and  C5_10 
REMARK    3  A    between atoms: C4_9  and  N4_14 
REMARK    4  A    between atoms: C5_10  and  C6_11 
REMARK    5  A    between atoms: C6_11  and  O1_12 
REMARK    6  A    between atoms: N6_18  and  C8_20 
REMARK    7  A    between atoms: C9_23  and  N8_24 
REMARK    8  A    between atoms: C12_36  and  C13_37 
REMARK    9  A    between atoms: C13_37  and  N12_38 
REMARK   10  A    between atoms: C13_37  and  C14_42 
REMARK   11  A    between atoms: C14_42  and  O2_43 
REMARK   12  A    between atoms: C14_42  and  C15_45 
REMARK   13  A    between atoms: C15_45  and  O3_46 
ROOT
HETATM    1  N4  UNL     1      -1.331  -0.027  -0.196  1.00  0.00    -0.262 N 
HETATM    2  N5  UNL     1      -0.436   0.937  -0.336  1.00  0.00    -0.280 N 
ATOM      3  H5  UNL     1      -0.670   1.926  -0.420  1.00  0.00     0.189 HD
HETATM    4  C7  UNL     1       0.799   0.464  -0.354  1.00  0.00     0.151 A 
HETATM    5  N6  UNL     1       1.927   1.076  -0.465  1.00  0.00    -0.173 N 
ATOM      6  H6  UNL     1       2.790   0.532  -0.459  1.00  0.00     0.186 HD
HETATM    7  C11 UNL     1       0.710  -0.928  -0.214  1.00  0.00     0.080 A 
HETATM    8  C12 UNL     1       1.637  -1.948  -0.160  1.00  0.00     0.061 A 
HETATM    9  N13 UNL     1       1.182  -3.206  -0.009  1.00  0.00    -0.353 N 
ATOM     10  H13 UNL     1       1.850  -3.976   0.035  1.00  0.00     0.166 HD
HETATM   11  C16 UNL     1      -0.126  -3.469   0.084  1.00  0.00     0.182 A 
HETATM   12  N14 UNL     1      -1.018  -2.475   0.030  1.00  0.00    -0.337 N 
ATOM     13  H14 UNL     1      -2.009  -2.703   0.104  1.00  0.00     0.168 HD
HETATM   14  C17 UNL     1      -0.664  -1.189  -0.118  1.00  0.00     0.140 A 
ENDROOT
BRANCH   5  15
HETATM   15  C8  UNL     1       2.001   2.487  -0.596  1.00  0.00     0.713 A 
HETATM   16  N7  UNL     1       1.382   3.357   0.221  1.00  0.00    -0.021 N 
HETATM   17  C9  UNL     1       1.467   4.688   0.083  1.00  0.00     0.705 A 
ATOM     18  H7  UNL     1       0.818   2.985   0.986  1.00  0.00     0.203 HD
HETATM   19  N9  UNL     1       2.195   5.216  -0.905  1.00  0.00    -0.022 N 
HETATM   20  C10 UNL     1       2.833   4.388  -1.748  1.00  0.00     0.705 A 
ATOM     21  H9  UNL     1       2.265   6.227  -1.017  1.00  0.00     0.203 HD
HETATM   22  N10 UNL     1       3.535   4.909  -2.700  1.00  0.00    -0.234 N 
HETATM   23  N11 UNL     1       2.737   3.057  -1.596  1.00  0.00    -0.021 N 
ATOM     24 2H10 UNL     1       3.608   5.920  -2.815  1.00  0.00     0.174 HD
ATOM     25 1H10 UNL     1       4.020   4.280  -3.340  1.00  0.00     0.174 HD
ATOM     26  H11 UNL     1       3.231   2.450  -2.250  1.00  0.00     0.203 HD
BRANCH  17  27
HETATM   27  N8  UNL     1       0.841   5.495   0.905  1.00  0.00    -0.234 N 
ATOM     28  H82 UNL     1       0.285   5.092   1.659  1.00  0.00     0.174 HD
ATOM     29  H81 UNL     1       0.906   6.508   0.800  1.00  0.00     0.174 HD
ENDBRANCH  17  27
ENDBRANCH   5  15
BRANCH   1  30
HETATM   30  C4  UNL     1      -2.780   0.116  -0.133  1.00  0.00     0.181 C 
BRANCH  30  31
HETATM   31  C3  UNL     1      -3.267  -0.360   1.171  1.00  0.00     0.124 A 
HETATM   32  N1  UNL     1      -4.076  -1.373   1.504  1.00  0.00    -0.333 N 
HETATM   33  C1  UNL     1      -4.720  -2.275   0.579  1.00  0.00     0.158 C 
HETATM   34  C2  UNL     1      -4.204  -1.409   2.837  1.00  0.00     0.200 A 
HETATM   35  N2  UNL     1      -3.466  -0.406   3.341  1.00  0.00    -0.295 N 
HETATM   36  N3  UNL     1      -2.902   0.226   2.338  1.00  0.00    -0.286 N 
ATOM     37  H2  UNL     1      -3.362  -0.176   4.329  1.00  0.00     0.187 HD
ATOM     38  H3  UNL     1      -2.284   1.033   2.423  1.00  0.00     0.188 HD
ENDBRANCH  30  31
BRANCH  30  39
HETATM   39  C5  UNL     1      -3.167   1.535  -0.457  1.00  0.00     0.061 C 
BRANCH  39  40
HETATM   40  C6  UNL     1      -4.672   1.693  -0.485  1.00  0.00     0.166 C 
BRANCH  40  41
HETATM   41  O1  UNL     1      -5.237   1.375   0.738  1.00  0.00    -0.401 OA
ATOM     42  H1  UNL     1      -6.182   1.474   0.720  1.00  0.00     0.209 HD
ENDBRANCH  40  41
ENDBRANCH  39  40
ENDBRANCH  30  39
ENDBRANCH   1  30
BRANCH   8  43
HETATM   43  C13 UNL     1       3.067  -1.628  -0.283  1.00  0.00     0.264 C 
BRANCH  43  44
HETATM   44  N12 UNL     1       3.363  -1.333  -1.691  1.00  0.00    -0.067 N 
ATOM     45 3H12 UNL     1       3.076  -2.086  -2.316  1.00  0.00     0.275 HD
ATOM     46 2H12 UNL     1       2.765  -0.599  -2.070  1.00  0.00     0.275 HD
ATOM     47 1H12 UNL     1       4.355  -1.111  -1.776  1.00  0.00     0.275 HD
ENDBRANCH  43  44
BRANCH  43  48
HETATM   48  C14 UNL     1       3.955  -2.820   0.030  1.00  0.00     0.178 C 
BRANCH  48  49
HETATM   49  O2  UNL     1       3.713  -3.928  -0.732  1.00  0.00    -0.391 OA
ATOM     50  H2  UNL     1       4.268  -4.673  -0.536  1.00  0.00     0.210 HD
ENDBRANCH  48  49
BRANCH  48  51
HETATM   51  C15 UNL     1       3.891  -3.205   1.491  1.00  0.00     0.198 C 
BRANCH  51  52
HETATM   52  O3  UNL     1       4.892  -4.189   1.671  1.00  0.00    -0.398 OA
ATOM     53  H3  UNL     1       4.852  -4.431   2.589  1.00  0.00     0.209 HD
ENDBRANCH  51  52
ENDBRANCH  48  51
ENDBRANCH  43  48
ENDBRANCH   8  43
TORSDOF 13
