REMARK  7 active torsions:
REMARK  status: ('A' for Active; 'I' for Inactive)
REMARK    1  A    between atoms: O1_2  and  C2_3 
REMARK    2  A    between atoms: C2_3  and  N1_5 
REMARK    3  A    between atoms: N1_5  and  C3_7 
REMARK    4  A    between atoms: C3_7  and  C5_9 
REMARK    5  A    between atoms: C6_10  and  C7_11 
REMARK    6  A    between atoms: C9_15  and  O2_16 
REMARK    7  A    between atoms: O2_16  and  C10_17 
ROOT
HETATM    1  C7  UNL     1       1.364  -0.805  -0.310  1.00  0.00     0.077 A 
HETATM    2  C8  UNL     1       0.645  -1.516  -1.239  1.00  0.00     0.119 A 
HETATM    3  N2  UNL     1      -0.485  -1.011  -1.632  1.00  0.00    -0.339 N 
ATOM      4  H2  UNL     1      -1.054  -1.505  -2.320  1.00  0.00     0.167 HD
HETATM    5  C9  UNL     1      -0.897   0.145  -1.138  1.00  0.00     0.193 A 
HETATM    6  S2  UNL     1       0.362   0.553  -0.061  1.00  0.00    -0.036 SA
ENDROOT
BRANCH   5   7
HETATM    7  O2  UNL     1      -2.095   0.817  -1.465  1.00  0.00    -0.287 OA
BRANCH   7   8
HETATM    8  C10 UNL     1      -3.189   0.597  -0.612  1.00  0.00     0.085 A 
HETATM    9  C11 UNL     1      -3.111  -0.229   0.487  1.00  0.00     0.046 A 
HETATM   10  C12 UNL     1      -4.223  -0.414   1.301  1.00  0.00    -0.037 A 
HETATM   11  C13 UNL     1      -4.150  -1.306   2.494  1.00  0.00     0.050 C 
HETATM   12  C14 UNL     1      -5.396   0.251   0.973  1.00  0.00     0.046 A 
HETATM   13 CL1  UNL     1      -6.829   0.057   1.961  1.00  0.00    -0.083 Cl
HETATM   14  C15 UNL     1      -5.488   1.079  -0.123  1.00  0.00    -0.031 A 
HETATM   15  C16 UNL     1      -6.758   1.796  -0.472  1.00  0.00     0.050 C 
HETATM   16  C17 UNL     1      -4.378   1.251  -0.917  1.00  0.00    -0.020 A 
HETATM   17  C18 UNL     1      -4.446   2.140  -2.108  1.00  0.00     0.052 C 
ENDBRANCH   7   8
ENDBRANCH   5   7
BRANCH   1  18
HETATM   18  C6  UNL     1       2.647  -1.144   0.291  1.00  0.00    -0.056 C 
HETATM   19  C5  UNL     1       3.710  -1.404   0.796  1.00  0.00    -0.075 C 
BRANCH  19  20
HETATM   20  C3  UNL     1       5.016  -1.739   1.415  1.00  0.00     0.160 C 
HETATM   21  C4  UNL     1       5.699  -2.850   0.683  1.00  0.00     0.046 C 
BRANCH  20  22
HETATM   22  N1  UNL     1       5.764  -0.518   1.476  1.00  0.00    -0.347 N 
ATOM     23  H1  UNL     1       6.031  -0.134   2.382  1.00  0.00     0.163 HD
BRANCH  22  24
HETATM   24  C2  UNL     1       6.136   0.160   0.289  1.00  0.00     0.210 C 
HETATM   25  S1  UNL     1       5.736  -0.408  -1.180  1.00  0.00    -0.033 SA
BRANCH  24  26
HETATM   26  O1  UNL     1       6.861   1.342   0.371  1.00  0.00    -0.332 OA
HETATM   27  C1  UNL     1       6.824   2.257  -0.704  1.00  0.00     0.212 C 
ENDBRANCH  24  26
ENDBRANCH  22  24
ENDBRANCH  20  22
ENDBRANCH  19  20
ENDBRANCH   1  18
TORSDOF 7
