REMARK  4 active torsions:
REMARK  status: ('A' for Active; 'I' for Inactive)
REMARK    1  A    between atoms: C2_2  and  C4_4 
REMARK    2  A    between atoms: N1_7  and  C7_8 
REMARK    3  A    between atoms: C10_11  and  N2_12 
REMARK    4  A    between atoms: N2_12  and  C11_14 
ROOT
HETATM    1  C4  UNL     1       0.616  -0.665   0.158  1.00  0.00     0.018 A 
HETATM    2  C5  UNL     1      -0.568  -0.160  -0.446  1.00  0.00    -0.017 A 
HETATM    3  C6  UNL     1      -0.267   1.051  -0.997  1.00  0.00     0.021 A 
HETATM    4  N1  UNL     1       0.999   1.351  -0.781  1.00  0.00    -0.331 N 
HETATM    5  C10 UNL     1       1.585   0.303  -0.067  1.00  0.00     0.115 A 
HETATM    6  C15 UNL     1      -1.310   1.831  -1.789  1.00  0.00     0.058 C 
HETATM    7  C16 UNL     1      -2.606   1.617  -1.046  1.00  0.00     0.013 C 
HETATM    8  C17 UNL     1      -2.915   0.148  -1.221  1.00  0.00     0.017 C 
HETATM    9  C18 UNL     1      -1.945  -0.703  -0.419  1.00  0.00     0.027 C 
HETATM   10  C19 UNL     1      -2.514  -0.621   1.016  1.00  0.00     0.010 C 
HETATM   11  C20 UNL     1      -3.679  -1.556   1.038  1.00  0.00     0.002 C 
HETATM   12  C21 UNL     1      -4.630  -1.336  -0.103  1.00  0.00     0.026 C 
HETATM   13  C22 UNL     1      -4.349  -0.073  -0.882  1.00  0.00     0.037 C 
HETATM   14  C23 UNL     1      -5.036   1.062  -0.180  1.00  0.00     0.033 C 
HETATM   15 CL1  UNL     1      -5.221  -0.301  -2.443  1.00  0.00    -0.119 Cl
ENDROOT
BRANCH   5  16
HETATM   16  N2  UNL     1       2.951   0.391   0.230  1.00  0.00    -0.371 N 
ATOM     17  H2  UNL     1       3.368   1.239  -0.155  1.00  0.00     0.161 HD
BRANCH  16  18
HETATM   18  C11 UNL     1       3.898  -0.388   0.922  1.00  0.00     0.083 A 
HETATM   19  C12 UNL     1       5.290   0.322   0.997  1.00  0.00     0.025 A 
HETATM   20  C13 UNL     1       5.911  -0.843   0.326  1.00  0.00     0.004 A 
HETATM   21  C14 UNL     1       4.598  -1.511   0.205  1.00  0.00     0.025 A 
ENDBRANCH  16  18
ENDBRANCH   5  16
BRANCH   1  22
HETATM   22  C2  UNL     1       0.769  -2.025   0.687  1.00  0.00    -0.073 C 
HETATM   23  C1  UNL     1       1.393  -2.277   1.992  1.00  0.00     0.044 C 
HETATM   24  C3  UNL     1      -0.155  -3.099   0.171  1.00  0.00     0.044 C 
ENDBRANCH   1  22
BRANCH   4  25
HETATM   25  C7  UNL     1       1.612   2.585  -1.193  1.00  0.00     0.091 A 
HETATM   26  C8  UNL     1       2.336   3.483  -0.261  1.00  0.00     0.028 A 
HETATM   27  C9  UNL     1       0.932   3.856  -0.650  1.00  0.00     0.028 A 
ENDBRANCH   4  25
TORSDOF 4
