REMARK  5 active torsions:
REMARK  status: ('A' for Active; 'I' for Inactive)
REMARK    1  A    between atoms: C6_8  and  C7_9 
REMARK    2  A    between atoms: C7_9  and  C8_10 
REMARK    3  A    between atoms: C18_20  and  C20_22 
REMARK    4  A    between atoms: C20_22  and  O1_23 
REMARK    5  A    between atoms: C20_22  and  O2_25 
ROOT
HETATM    1  C8  UNL     1      -0.920  -0.028  -0.336  1.00  0.00     0.123 C 
HETATM    2  C9  UNL     1      -0.244  -1.318  -0.626  1.00  0.00     0.032 C 
HETATM    3  C10 UNL     1       1.243  -0.977  -0.851  1.00  0.00     0.011 C 
HETATM    4  C11 UNL     1       1.768  -0.580   0.510  1.00  0.00     0.033 C 
HETATM    5  C12 UNL     1       0.818   0.301   1.216  1.00  0.00     0.062 C 
HETATM    6  C13 UNL     1       0.195  -0.328   2.457  1.00  0.00     0.046 C 
HETATM    7  C14 UNL     1       1.501   1.564   1.783  1.00  0.00     0.038 C 
HETATM    8  C15 UNL     1       2.190   2.162   0.612  1.00  0.00     0.008 C 
HETATM    9  C16 UNL     1       3.443   1.292   0.381  1.00  0.00    -0.005 C 
HETATM   10  C17 UNL     1       4.022   1.834  -0.880  1.00  0.00     0.011 C 
HETATM   11  C18 UNL     1       3.218  -0.149   0.512  1.00  0.00     0.015 C 
HETATM   12  C19 UNL     1       3.728  -0.554   1.920  1.00  0.00     0.021 C 
HETATM   13  O3  UNL     1      -0.200   0.824   0.445  1.00  0.00    -0.375 OA
ENDROOT
BRANCH   1  14
HETATM   14  C7  UNL     1      -2.339  -0.155   0.135  1.00  0.00     0.043 C 
BRANCH  14  15
HETATM   15  C6  UNL     1      -3.287  -0.803  -0.797  1.00  0.00     0.068 C 
HETATM   16  C5  UNL     1      -3.501  -0.164  -2.118  1.00  0.00     0.248 C 
HETATM   17  C4  UNL     1      -3.801   1.311  -2.038  1.00  0.00     0.084 C 
HETATM   18  F1  UNL     1      -2.549  -0.373  -3.067  1.00  0.00    -0.206 F 
HETATM   19  F2  UNL     1      -4.677  -0.739  -2.638  1.00  0.00    -0.206 F 
HETATM   20  C3  UNL     1      -4.753   1.683  -0.969  1.00  0.00     0.039 C 
HETATM   21  C2  UNL     1      -4.995   0.651   0.068  1.00  0.00    -0.085 C 
HETATM   22  C1  UNL     1      -5.542   1.062   1.196  1.00  0.00     0.014 C 
HETATM   23  C22 UNL     1      -4.660  -0.787  -0.105  1.00  0.00     0.019 C 
HETATM   24  C23 UNL     1      -4.616  -1.502   1.216  1.00  0.00     0.015 C 
ENDBRANCH  14  15
ENDBRANCH   1  14
BRANCH  11  25
HETATM   25  C20 UNL     1       4.022  -1.033  -0.383  1.00  0.00     0.265 C 
BRANCH  25  26
HETATM   26  O1  UNL     1       3.878  -2.399   0.140  1.00  0.00    -0.370 OA
ATOM     27  H1  UNL     1       4.390  -2.962  -0.430  1.00  0.00     0.212 HD
ENDBRANCH  25  26
BRANCH  25  28
HETATM   28  O2  UNL     1       3.793  -1.047  -1.706  1.00  0.00    -0.365 OA
HETATM   29  C21 UNL     1       4.939  -1.079  -2.442  1.00  0.00     0.204 C 
ENDBRANCH  25  28
ENDBRANCH  11  25
TORSDOF 5
