REMARK  5 active torsions:
REMARK  status: ('A' for Active; 'I' for Inactive)
REMARK    1  A    between atoms: N1_2  and  C2_3 
REMARK    2  A    between atoms: N1_2  and  C14_18 
REMARK    3  A    between atoms: C2_3  and  C3_4 
REMARK       I    between atoms: C3_4  and  N2_6 
REMARK    4  A    between atoms: N2_6  and  C4_8 
REMARK    5  A    between atoms: C14_18  and  C15_19 
ROOT
HETATM    1  C15 UNL     1       4.366  -0.537  -0.340  1.00  0.00     0.065 C 
HETATM    2  C16 UNL     1       3.878  -1.427   0.719  1.00  0.00     0.071 C 
HETATM    3  N3  UNL     1       3.504  -2.146   1.550  1.00  0.00    -0.196 NA
HETATM    4  C17 UNL     1       5.389  -1.327  -1.132  1.00  0.00     0.026 C 
HETATM    5  C18 UNL     1       6.663  -0.513  -1.160  1.00  0.00     0.002 C 
HETATM    6  C19 UNL     1       6.613   0.142   0.227  1.00  0.00     0.002 C 
HETATM    7  C20 UNL     1       5.168   0.610   0.229  1.00  0.00     0.026 C 
ENDROOT
BRANCH   1   8
HETATM    8  C14 UNL     1       3.275  -0.139  -1.255  1.00  0.00     0.146 C 
BRANCH   8   9
HETATM    9  N1  UNL     1       2.169   0.562  -0.720  1.00  0.00    -0.388 N 
HETATM   10  C1  UNL     1       2.384   1.874  -0.268  1.00  0.00     0.149 C 
BRANCH   9  11
HETATM   11  C2  UNL     1       1.178  -0.195  -0.070  1.00  0.00     0.160 C 
BRANCH  11  12
HETATM   12  C3  UNL     1      -0.224   0.223  -0.294  1.00  0.00     0.257 C 
HETATM   13  O1  UNL     1      -0.462   1.183  -1.036  1.00  0.00    -0.267 OA
HETATM   14  N2  UNL     1      -1.257  -0.484   0.345  1.00  0.00    -0.347 N 
ATOM     15  H2  UNL     1      -0.969  -1.263   0.937  1.00  0.00     0.163 HD
BRANCH  14  16
HETATM   16  C4  UNL     1      -2.663  -0.241   0.263  1.00  0.00     0.034 C 
HETATM   17  C5  UNL     1      -2.972   1.130   0.769  1.00  0.00     0.035 C 
HETATM   18  C6  UNL     1      -4.452   1.419   0.627  1.00  0.00    -0.012 C 
HETATM   19  C7  UNL     1      -5.197   0.419   1.481  1.00  0.00     0.009 C 
HETATM   20  C11 UNL     1      -4.903   1.266  -0.792  1.00  0.00     0.009 C 
HETATM   21  C8  UNL     1      -4.902  -0.970   1.006  1.00  0.00    -0.012 C 
HETATM   22  C9  UNL     1      -5.389  -1.107  -0.428  1.00  0.00     0.009 C 
HETATM   23  C13 UNL     1      -3.449  -1.309   1.008  1.00  0.00     0.035 C 
HETATM   24  C10 UNL     1      -4.616  -0.147  -1.271  1.00  0.00    -0.012 C 
HETATM   25  C12 UNL     1      -3.117  -0.336  -1.181  1.00  0.00     0.035 C 
ENDBRANCH  14  16
ENDBRANCH  11  12
ENDBRANCH   9  11
ENDBRANCH   8   9
ENDBRANCH   1   8
TORSDOF 5
