REMARK  7 active torsions:
REMARK  status: ('A' for Active; 'I' for Inactive)
REMARK    1  A    between atoms: C2_2  and  N1_3 
REMARK    2  A    between atoms: N1_3  and  C3_4 
REMARK    3  A    between atoms: N1_3  and  C5_6 
REMARK    4  A    between atoms: C5_6  and  C6_7 
REMARK    5  A    between atoms: C6_7  and  C7_8 
REMARK    6  A    between atoms: N2_13  and  C12_14 
REMARK    7  A    between atoms: C22_26  and  N4_27 
ROOT
HETATM    1  C7  UNL     1      -1.838   0.496  -0.246  1.00  0.00     0.030 C 
HETATM    2  C8  UNL     1      -0.499  -0.086   0.220  1.00  0.00     0.020 C 
HETATM    3  C9  UNL     1       0.658   0.668  -0.389  1.00  0.00    -0.031 C 
HETATM    4  C10 UNL     1       1.649   1.099   0.651  1.00  0.00     0.040 C 
HETATM    5  C11 UNL     1       3.075   1.179   0.135  1.00  0.00     0.273 C 
HETATM    6  N2  UNL     1       3.533  -0.009  -0.497  1.00  0.00     0.093 N 
HETATM    7  C18 UNL     1       2.493  -0.988  -0.587  1.00  0.00     0.273 C 
HETATM    8  C19 UNL     1       1.344  -0.292  -1.336  1.00  0.00     0.040 C 
HETATM    9  C20 UNL     1       0.212   1.864  -1.185  1.00  0.00     0.067 C 
HETATM   10  C21 UNL     1      -0.711   2.688  -0.298  1.00  0.00     0.025 A 
HETATM   11  N3  UNL     1      -0.653   3.924   0.064  1.00  0.00    -0.340 N 
ATOM     12  H3  UNL     1       0.111   4.518  -0.258  1.00  0.00     0.168 HD
HETATM   13  C22 UNL     1      -1.597   4.419   0.860  1.00  0.00     0.142 A 
HETATM   14  S1  UNL     1      -2.623   3.075   1.113  1.00  0.00    -0.057 SA
HETATM   15  C23 UNL     1      -1.779   1.932   0.178  1.00  0.00     0.013 A 
ENDROOT
BRANCH   1  16
HETATM   16  C6  UNL     1      -2.927  -0.294   0.334  1.00  0.00     0.040 C 
BRANCH  16  17
HETATM   17  C5  UNL     1      -4.328   0.134  -0.001  1.00  0.00     0.273 C 
BRANCH  17  18
HETATM   18  N1  UNL     1      -5.319  -0.734   0.581  1.00  0.00     0.087 N 
BRANCH  18  19
HETATM   19  C2  UNL     1      -5.341  -2.030  -0.036  1.00  0.00     0.268 C 
HETATM   20  C1  UNL     1      -5.657  -1.956  -1.519  1.00  0.00     0.037 C 
ENDBRANCH  18  19
BRANCH  18  21
HETATM   21  C3  UNL     1      -6.621  -0.142   0.622  1.00  0.00     0.268 C 
HETATM   22  C4  UNL     1      -7.530  -0.905   1.566  1.00  0.00     0.037 C 
ENDBRANCH  18  21
ENDBRANCH  17  18
ENDBRANCH  16  17
ENDBRANCH   1  16
BRANCH   6  23
HETATM   23  C12 UNL     1       4.811  -0.483  -0.107  1.00  0.00     0.223 C 
HETATM   24  C13 UNL     1       5.147  -1.746  -0.875  1.00  0.00     0.036 C 
HETATM   25  C14 UNL     1       6.653  -1.903  -0.813  1.00  0.00     0.002 C 
HETATM   26  C15 UNL     1       7.249  -1.130   0.325  1.00  0.00     0.000 C 
HETATM   27  C16 UNL     1       6.419  -1.164   1.578  1.00  0.00     0.002 C 
HETATM   28  C17 UNL     1       4.970  -0.813   1.351  1.00  0.00     0.036 C 
ENDBRANCH   6  23
BRANCH  13  29
HETATM   29  N4  UNL     1      -1.681   5.652   1.315  1.00  0.00    -0.380 N 
ATOM     30  H42 UNL     1      -1.069   6.454   1.164  1.00  0.00     0.158 HD
ATOM     31  H41 UNL     1      -2.405   6.032   1.925  1.00  0.00     0.158 HD
ENDBRANCH  13  29
TORSDOF 7
