REMARK  2 active torsions:
REMARK  status: ('A' for Active; 'I' for Inactive)
REMARK    1  A    between atoms: C10_11  and  C11_12 
REMARK       I    between atoms: C11_12  and  N1_14 
REMARK    2  A    between atoms: N1_14  and  C12_16 
ROOT
HETATM    1  C1  UNL     1      -0.252   1.881   2.635  1.00  0.00     0.011 C 
HETATM    2  C2  UNL     1      -0.245   0.985   1.444  1.00  0.00    -0.002 C 
HETATM    3  C3  UNL     1      -1.693   0.751   0.992  1.00  0.00     0.043 C 
HETATM    4  C4  UNL     1      -1.748  -0.284  -0.096  1.00  0.00     0.062 C 
HETATM    5  C5  UNL     1      -2.609   0.144  -1.259  1.00  0.00     0.038 C 
HETATM    6  C6  UNL     1      -4.032  -0.382  -1.128  1.00  0.00     0.005 C 
HETATM    7  C7  UNL     1      -4.036  -1.877  -1.114  1.00  0.00     0.026 C 
HETATM    8  C8  UNL     1      -2.716  -2.341  -0.538  1.00  0.00     0.168 C 
HETATM    9  O1  UNL     1      -2.337  -1.437   0.437  1.00  0.00    -0.380 OA
HETATM   10  C9  UNL     1      -0.389  -0.660  -0.588  1.00  0.00     0.053 C 
HETATM   11  C10 UNL     1       0.496   0.560  -0.860  1.00  0.00     0.093 C 
HETATM   12  C15 UNL     1       0.493   1.526   0.268  1.00  0.00     0.018 C 
HETATM   13  C16 UNL     1       0.086   2.941  -0.147  1.00  0.00     0.180 C 
HETATM   14  O3  UNL     1       1.420   3.080  -0.592  1.00  0.00    -0.389 OA
HETATM   15  C17 UNL     1       1.759   2.267   0.518  1.00  0.00     0.180 C 
ENDROOT
BRANCH  11  16
HETATM   16  C11 UNL     1       1.843   0.025  -1.170  1.00  0.00     0.223 C 
HETATM   17  O2  UNL     1       2.358   0.279  -2.279  1.00  0.00    -0.273 OA
HETATM   18  N1  UNL     1       2.555  -0.764  -0.236  1.00  0.00    -0.356 N 
ATOM     19  H1  UNL     1       2.125  -0.964   0.667  1.00  0.00     0.162 HD
BRANCH  18  20
HETATM   20  C12 UNL     1       3.859  -1.293  -0.513  1.00  0.00     0.084 A 
HETATM   21  C13 UNL     1       4.342  -2.548   0.103  1.00  0.00     0.027 A 
HETATM   22  C14 UNL     1       4.803  -1.260   0.671  1.00  0.00     0.027 A 
ENDBRANCH  18  20
ENDBRANCH  11  16
TORSDOF 2
