REMARK  5 active torsions:
REMARK  status: ('A' for Active; 'I' for Inactive)
REMARK    1  A    between atoms: N1_2  and  C3_4 
REMARK    2  A    between atoms: C3_4  and  C4_5 
REMARK    3  A    between atoms: C4_5  and  O1_6 
REMARK    4  A    between atoms: O1_6  and  C5_7 
REMARK    5  A    between atoms: C14_16  and  O2_17 
ROOT
HETATM    1  C5  UNL     1       1.878  -0.200   0.471  1.00  0.00     0.051 C 
HETATM    2  C6  UNL     1       1.929   0.903   1.194  1.00  0.00     0.007 C 
HETATM    3  C7  UNL     1       0.527   1.329   1.573  1.00  0.00     0.035 C 
HETATM    4  C8  UNL     1      -0.165   0.798   0.342  1.00  0.00     0.008 C 
HETATM    5  C9  UNL     1      -1.623   0.841   0.290  1.00  0.00    -0.005 C 
HETATM    6  C10 UNL     1      -2.333   1.273   1.536  1.00  0.00     0.006 C 
HETATM    7  C11 UNL     1      -3.800   0.845   1.402  1.00  0.00     0.005 C 
HETATM    8  C12 UNL     1      -4.210   0.987  -0.052  1.00  0.00    -0.008 C 
HETATM    9  C13 UNL     1      -5.697   0.790  -0.151  1.00  0.00     0.036 C 
HETATM   10  C14 UNL     1      -5.917  -0.632  -0.614  1.00  0.00     0.118 C 
HETATM   11  C15 UNL     1      -4.544  -1.236  -0.754  1.00  0.00     0.037 C 
HETATM   12  C16 UNL     1      -3.557  -0.109  -0.866  1.00  0.00    -0.004 C 
HETATM   13  C17 UNL     1      -2.216  -0.453  -0.221  1.00  0.00    -0.005 C 
HETATM   14  C18 UNL     1      -1.374  -1.152  -1.228  1.00  0.00     0.006 C 
HETATM   15  C19 UNL     1       0.099  -1.176  -0.985  1.00  0.00     0.017 C 
HETATM   16  C20 UNL     1       0.456  -0.572   0.331  1.00  0.00     0.009 C 
HETATM   17  C21 UNL     1       0.122  -1.427   1.509  1.00  0.00     0.023 C 
ENDROOT
BRANCH   1  18
HETATM   18  O1  UNL     1       3.001  -0.855  -0.040  1.00  0.00    -0.353 OA
BRANCH  18  19
HETATM   19  C4  UNL     1       4.259  -0.180  -0.056  1.00  0.00     0.205 C 
BRANCH  19  20
HETATM   20  C3  UNL     1       5.338  -1.028  -0.631  1.00  0.00     0.297 C 
BRANCH  20  21
HETATM   21  N1  UNL     1       6.599  -0.360  -0.650  1.00  0.00     0.082 N 
HETATM   22  C1  UNL     1       6.591   0.724  -1.588  1.00  0.00     0.309 C 
HETATM   23  C2  UNL     1       7.025   0.133   0.627  1.00  0.00     0.309 C 
ENDBRANCH  20  21
ENDBRANCH  19  20
ENDBRANCH  18  19
ENDBRANCH   1  18
BRANCH  10  24
HETATM   24  O2  UNL     1      -6.543  -0.679  -1.859  1.00  0.00    -0.396 OA
ATOM     25  H2  UNL     1      -6.681  -1.573  -2.150  1.00  0.00     0.210 HD
ENDBRANCH  10  24
TORSDOF 5
