REMARK  5 active torsions:
REMARK  status: ('A' for Active; 'I' for Inactive)
REMARK    1  A    between atoms: C2_2  and  C3_3 
REMARK    2  A    between atoms: C3_3  and  C5_5 
REMARK    3  A    between atoms: C9_9  and  O1_10 
REMARK    4  A    between atoms: C11_14  and  O3_15 
REMARK    5  A    between atoms: O3_15  and  O4_16 
ROOT
HETATM    1  C5  UNL     1      -2.315  -0.080  -0.017  1.00  0.00     0.000 C 
HETATM    2  C6  UNL     1      -3.372  -1.169  -0.148  1.00  0.00     0.006 C 
HETATM    3  C7  UNL     1      -2.682  -2.401  -0.609  1.00  0.00     0.004 C 
HETATM    4  C8  UNL     1      -1.417  -2.752   0.049  1.00  0.00     0.041 C 
HETATM    5  C9  UNL     1      -0.595  -1.647   0.605  1.00  0.00     0.092 C 
HETATM    6  C10 UNL     1       0.533  -1.223  -0.295  1.00  0.00     0.167 C 
HETATM    7  O2  UNL     1       1.443  -2.245  -0.498  1.00  0.00    -0.346 OA
HETATM    8  C11 UNL     1       2.663  -1.656  -0.821  1.00  0.00     0.334 C 
HETATM    9  C12 UNL     1       2.635  -0.239  -0.230  1.00  0.00     0.144 C 
HETATM   10  C13 UNL     1       2.595   0.721  -1.387  1.00  0.00     0.215 C 
HETATM   11  O5  UNL     1       3.366   1.777  -0.917  1.00  0.00    -0.353 OA
HETATM   12  C14 UNL     1       4.335   1.194  -0.100  1.00  0.00     0.158 C 
HETATM   13  C15 UNL     1       4.713   2.234   0.938  1.00  0.00     0.078 C 
HETATM   14  C16 UNL     1       5.582   0.839  -0.881  1.00  0.00     0.078 C 
HETATM   15  O6  UNL     1       3.788   0.060   0.455  1.00  0.00    -0.337 OA
HETATM   16  C17 UNL     1       1.400  -0.290   0.569  1.00  0.00     0.060 C 
HETATM   17  C18 UNL     1       0.628   0.960   0.734  1.00  0.00     0.011 C 
HETATM   18  C19 UNL     1      -0.537   0.579   1.663  1.00  0.00     0.013 C 
HETATM   19  C20 UNL     1      -1.429  -0.464   1.097  1.00  0.00    -0.006 C 
HETATM   20  C21 UNL     1      -2.196  -1.080   2.281  1.00  0.00     0.019 C 
ENDROOT
BRANCH   8  21
HETATM   21  O3  UNL     1       3.650  -2.358  -0.101  1.00  0.00    -0.207 OA
BRANCH  21  22
HETATM   22  O4  UNL     1       4.583  -2.827  -0.874  1.00  0.00    -0.248 OA
ATOM     23  H4  UNL     1       5.248  -3.300  -0.389  1.00  0.00     0.253 HD
ENDBRANCH  21  22
ENDBRANCH   8  21
BRANCH   5  24
HETATM   24  O1  UNL     1       0.031  -2.149   1.775  1.00  0.00    -0.386 OA
ATOM     25  H1  UNL     1       0.557  -1.442   2.131  1.00  0.00     0.210 HD
ENDBRANCH   5  24
BRANCH   1  26
HETATM   26  C3  UNL     1      -2.856   1.287  -0.082  1.00  0.00    -0.014 C 
HETATM   27  C4  UNL     1      -3.592   1.395  -1.435  1.00  0.00     0.010 C 
BRANCH  26  28
HETATM   28  C2  UNL     1      -3.867   1.672   0.951  1.00  0.00     0.000 C 
HETATM   29  C1  UNL     1      -4.377   3.104   0.709  1.00  0.00     0.005 C 
ENDBRANCH  26  28
ENDBRANCH   1  26
TORSDOF 5
