REMARK  5 active torsions:
REMARK  status: ('A' for Active; 'I' for Inactive)
REMARK    1  A    between atoms: O1_1  and  C1_3 
REMARK    2  A    between atoms: C4_6  and  O2_7 
REMARK    3  A    between atoms: N1_9  and  C5_10 
REMARK    4  A    between atoms: N2_13  and  C8_14 
REMARK    5  A    between atoms: C8_14  and  C9_15 
ROOT
HETATM    1  C1  UNL     1      -1.172   1.298  -0.985  1.00  0.00     0.153 A 
HETATM    2  C2  UNL     1      -2.555   1.163  -1.046  1.00  0.00     0.028 A 
HETATM    3  C3  UNL     1      -2.940   0.034  -0.360  1.00  0.00     0.016 A 
HETATM    4  C4  UNL     1      -1.764  -0.506   0.115  1.00  0.00     0.152 A 
HETATM    5  N1  UNL     1      -0.720   0.280  -0.280  1.00  0.00    -0.301 N 
HETATM    6  C17 UNL     1      -4.374  -0.287  -0.307  1.00  0.00     0.013 C 
HETATM    7  C18 UNL     1      -4.674  -1.256  -1.445  1.00  0.00     0.017 C 
HETATM    8  C19 UNL     1      -5.949  -1.921  -0.988  1.00  0.00     0.001 C 
HETATM    9  C20 UNL     1      -6.089  -1.676   0.485  1.00  0.00     0.001 C 
HETATM   10  C21 UNL     1      -4.757  -1.063   0.929  1.00  0.00     0.017 C 
HETATM   11  C22 UNL     1      -5.237   0.914  -0.433  1.00  0.00     0.182 C 
HETATM   12  O3  UNL     1      -4.620   2.098  -0.722  1.00  0.00    -0.385 OA
HETATM   13  C23 UNL     1      -3.620   1.988  -1.688  1.00  0.00     0.211 C 
ENDROOT
BRANCH   5  14
HETATM   14  C5  UNL     1       0.634  -0.036   0.070  1.00  0.00     0.115 C 
HETATM   15  C6  UNL     1       0.875   0.084   1.555  1.00  0.00     0.047 C 
HETATM   16  C7  UNL     1       2.085   0.953   1.886  1.00  0.00     0.124 C 
HETATM   17  N2  UNL     1       3.199   0.340   1.214  1.00  0.00    -0.388 N 
HETATM   18  C15 UNL     1       3.089   0.346  -0.197  1.00  0.00     0.144 C 
HETATM   19  C16 UNL     1       1.671   0.731  -0.662  1.00  0.00     0.123 C 
HETATM   20 CL3  UNL     1       1.666   0.271  -2.405  1.00  0.00    -0.121 Cl
BRANCH  17  21
HETATM   21  C8  UNL     1       4.467   0.535   1.794  1.00  0.00     0.097 C 
BRANCH  21  22
HETATM   22  C9  UNL     1       5.506  -0.161   0.991  1.00  0.00    -0.019 A 
HETATM   23  C10 UNL     1       6.232   0.505   0.025  1.00  0.00     0.014 A 
HETATM   24  C11 UNL     1       7.186  -0.137  -0.709  1.00  0.00     0.026 A 
HETATM   25  C12 UNL     1       7.454  -1.471  -0.509  1.00  0.00     0.055 A 
HETATM   26 CL1  UNL     1       8.699  -2.230  -1.495  1.00  0.00    -0.083 Cl
HETATM   27  C13 UNL     1       6.744  -2.152   0.446  1.00  0.00     0.056 A 
HETATM   28 CL2  UNL     1       7.097  -3.849   0.690  1.00  0.00    -0.083 Cl
HETATM   29  C14 UNL     1       5.783  -1.489   1.180  1.00  0.00     0.038 A 
ENDBRANCH  21  22
ENDBRANCH  17  21
ENDBRANCH   5  14
BRANCH   1  30
HETATM   30  O1  UNL     1      -0.475   2.352  -1.589  1.00  0.00    -0.345 OA
ATOM     31  H1  UNL     1       0.470   2.444  -1.547  1.00  0.00     0.219 HD
ENDBRANCH   1  30
BRANCH   4  32
HETATM   32  O2  UNL     1      -1.676  -1.667   0.872  1.00  0.00    -0.345 OA
ATOM     33  H2  UNL     1      -0.866  -2.039   1.199  1.00  0.00     0.219 HD
ENDBRANCH   4  32
TORSDOF 5
