REMARK  4 active torsions:
REMARK  status: ('A' for Active; 'I' for Inactive)
REMARK    1  A    between atoms: C3_3  and  O1_4 
REMARK    2  A    between atoms: O1_4  and  S1_5 
REMARK    3  A    between atoms: N1_14  and  O5_16 
REMARK    4  A    between atoms: C11_20  and  C12_21 
ROOT
HETATM    1  C1  UNL     1      -1.496   1.893  -1.718  1.00  0.00     0.017 C 
HETATM    2  C2  UNL     1      -1.807   0.984  -0.815  1.00  0.00    -0.054 C 
HETATM    3  C3  UNL     1      -3.123   1.047  -0.161  1.00  0.00     0.173 C 
HETATM    4  C4  UNL     1      -2.989   0.338   1.170  1.00  0.00     0.039 C 
HETATM    5  C5  UNL     1      -2.554  -1.084   0.970  1.00  0.00     0.018 C 
HETATM    6  C6  UNL     1      -1.345  -1.279   0.128  1.00  0.00     0.004 C 
HETATM    7  C7  UNL     1      -1.746  -2.234  -1.011  1.00  0.00     0.022 C 
HETATM    8  C8  UNL     1      -0.290  -2.000   0.881  1.00  0.00     0.019 C 
HETATM    9  N1  UNL     1      -0.440  -2.196   2.141  1.00  0.00    -0.277 N 
ATOM     10  H1  UNL     1      -1.287  -1.846   2.588  1.00  0.00     0.193 HD
HETATM   11  C9  UNL     1       0.980  -2.558   0.359  1.00  0.00     0.056 C 
HETATM   12  C10 UNL     1       1.707  -1.416  -0.329  1.00  0.00     0.013 C 
HETATM   13  C11 UNL     1       1.530  -0.194   0.491  1.00  0.00     0.024 C 
HETATM   14  C17 UNL     1       0.320   0.610   0.240  1.00  0.00     0.018 C 
HETATM   15  C18 UNL     1      -0.784  -0.058  -0.520  1.00  0.00     0.030 C 
ENDROOT
BRANCH  13  16
HETATM   16  C12 UNL     1       2.764   0.692   0.355  1.00  0.00     0.205 C 
HETATM   17  O6  UNL     1       2.970   1.076  -0.987  1.00  0.00    -0.308 OA
HETATM   18  C13 UNL     1       4.180   1.669  -1.310  1.00  0.00     0.259 C 
HETATM   19  O7  UNL     1       4.363   2.161  -2.475  1.00  0.00    -0.265 OA
HETATM   20  C14 UNL     1       5.282   1.747  -0.317  1.00  0.00     0.118 C 
HETATM   21  C15 UNL     1       5.304   0.458   0.486  1.00  0.00     0.091 C 
HETATM   22  C16 UNL     1       3.961   0.066   0.943  1.00  0.00     0.157 C 
HETATM   23  O8  UNL     1       3.824  -0.773   1.807  1.00  0.00    -0.295 OA
ENDBRANCH  13  16
BRANCH   9  24
HETATM   24  O5  UNL     1       0.476  -2.848   2.911  1.00  0.00    -0.290 OA
ATOM     25  H5  UNL     1       0.365  -2.993   3.843  1.00  0.00     0.244 HD
ENDBRANCH   9  24
BRANCH   3  26
HETATM   26  O1  UNL     1      -4.133   0.499  -0.940  1.00  0.00    -0.247 OA
BRANCH  26  27
HETATM   27  S1  UNL     1      -5.356   1.626  -1.153  1.00  0.00     0.252 S 
HETATM   28  O2  UNL     1      -5.187   2.351  -2.479  1.00  0.00    -0.572 OA
HETATM   29  O3  UNL     1      -6.715   0.960  -1.233  1.00  0.00    -0.572 OA
HETATM   30  O4  UNL     1      -5.358   2.735   0.099  1.00  0.00    -0.572 OA
ENDBRANCH  26  27
ENDBRANCH   3  26
TORSDOF 4
