REMARK  7 active torsions:
REMARK  status: ('A' for Active; 'I' for Inactive)
REMARK    1  A    between atoms: O1_2  and  C2_3 
REMARK       I    between atoms: C2_3  and  N1_5 
REMARK    2  A    between atoms: C4_9  and  C5_10 
REMARK    3  A    between atoms: C6_11  and  C7_12 
REMARK    4  A    between atoms: C7_12  and  O4_15 
REMARK    5  A    between atoms: C17_25  and  O6_26 
REMARK    6  A    between atoms: O6_26  and  C18_27 
REMARK    7  A    between atoms: C20_30  and  O8_32 
ROOT
HETATM    1  C2  UNL     1      -1.446   2.598  -2.390  1.00  0.00     0.366 C 
HETATM    2  O2  UNL     1      -1.203   2.165  -3.539  1.00  0.00    -0.238 OA
HETATM    3  N1  UNL     1      -1.976   1.757  -1.412  1.00  0.00    -0.284 N 
ATOM      4  H1  UNL     1      -2.976   1.836  -1.228  1.00  0.00     0.173 HD
HETATM    5  C3  UNL     1      -1.331   0.902  -0.728  1.00  0.00     0.158 C 
HETATM    6  O3  UNL     1      -2.024   0.151   0.203  1.00  0.00    -0.295 OA
HETATM    7  C4  UNL     1      -1.679  -0.742   1.204  1.00  0.00     0.074 C 
HETATM    8  C10 UNL     1      -0.403  -0.959   1.584  1.00  0.00     0.019 C 
HETATM    9  C11 UNL     1       0.889  -0.395   1.126  1.00  0.00     0.057 C 
HETATM   10  C12 UNL     1       0.736   0.876   0.434  1.00  0.00     0.068 C 
HETATM   11  C13 UNL     1       0.130   0.746  -0.955  1.00  0.00     0.205 C 
HETATM   12  O5  UNL     1       0.848   1.870  -1.280  1.00  0.00    -0.366 OA
HETATM   13  C14 UNL     1       1.845   1.364  -0.405  1.00  0.00     0.068 C 
HETATM   14  C15 UNL     1       2.574   2.511   0.221  1.00  0.00     0.047 C 
HETATM   15  C16 UNL     1       2.654   0.335  -1.090  1.00  0.00     0.074 C 
HETATM   16  C17 UNL     1       2.858  -0.954  -0.356  1.00  0.00     0.169 C 
HETATM   17  C20 UNL     1       1.679  -1.446   0.426  1.00  0.00     0.088 C 
HETATM   18  C21 UNL     1       2.240  -2.392   1.499  1.00  0.00     0.049 C 
ENDROOT
BRANCH   7  19
HETATM   19  C5  UNL     1      -2.696  -1.499   1.900  1.00  0.00     0.036 C 
HETATM   20  C6  UNL     1      -3.981  -1.499   1.754  1.00  0.00     0.012 C 
BRANCH  20  21
HETATM   21  C7  UNL     1      -4.781  -0.702   0.807  1.00  0.00     0.068 C 
HETATM   22  C8  UNL     1      -4.651  -1.118  -0.627  1.00  0.00     0.050 C 
HETATM   23  C9  UNL     1      -6.272  -0.960   1.170  1.00  0.00     0.050 C 
BRANCH  21  24
HETATM   24  O4  UNL     1      -4.628   0.673   1.009  1.00  0.00    -0.387 OA
ATOM     25  H4  UNL     1      -5.144   1.187   0.399  1.00  0.00     0.211 HD
ENDBRANCH  21  24
ENDBRANCH  20  21
ENDBRANCH   7  19
BRANCH  17  26
HETATM   26  O8  UNL     1       0.829  -2.228  -0.345  1.00  0.00    -0.387 OA
ATOM     27  H8  UNL     1       1.333  -2.898  -0.791  1.00  0.00     0.210 HD
ENDBRANCH  17  26
BRANCH   1  28
HETATM   28  O1  UNL     1      -1.182   3.928  -2.097  1.00  0.00    -0.309 OA
HETATM   29  C1  UNL     1      -0.640   4.818  -3.068  1.00  0.00     0.215 C 
ENDBRANCH   1  28
BRANCH  16  30
HETATM   30  O6  UNL     1       4.025  -0.842   0.431  1.00  0.00    -0.313 OA
BRANCH  30  31
HETATM   31  C18 UNL     1       5.113  -1.643   0.136  1.00  0.00     0.255 C 
HETATM   32  C19 UNL     1       6.388  -1.607   0.897  1.00  0.00     0.126 C 
HETATM   33  O7  UNL     1       5.050  -2.469  -0.838  1.00  0.00    -0.266 OA
ENDBRANCH  30  31
ENDBRANCH  16  30
TORSDOF 7
