REMARK  5 active torsions:
REMARK  status: ('A' for Active; 'I' for Inactive)
REMARK    1  A    between atoms: C4_6  and  N2_7 
REMARK    2  A    between atoms: N2_7  and  C5_9 
REMARK    3  A    between atoms: N3_12  and  C8_13 
REMARK    4  A    between atoms: C8_13  and  C9_14 
REMARK    5  A    between atoms: N5_21  and  C13_22 
ROOT
HETATM    1  C5  UNL     1       2.735   0.313   0.933  1.00  0.00     0.097 C 
HETATM    2  C6  UNL     1       2.129   1.633   0.592  1.00  0.00     0.041 C 
HETATM    3  C7  UNL     1       0.794   1.537   1.307  1.00  0.00     0.097 C 
HETATM    4  N3  UNL     1       0.347   0.174   0.923  1.00  0.00    -0.289 NA
HETATM    5  C21 UNL     1       1.520  -0.618   0.994  1.00  0.00     0.120 C 
ENDROOT
BRANCH   4   6
HETATM    6  C8  UNL     1      -0.792  -0.189   1.692  1.00  0.00     0.086 C 
BRANCH   6   7
HETATM    7  C9  UNL     1      -1.583  -1.370   1.438  1.00  0.00     0.044 C 
HETATM    8  C10 UNL     1      -0.711  -2.615   1.562  1.00  0.00     0.289 C 
HETATM    9  N4  UNL     1      -1.506  -3.827   1.713  1.00  0.00    -0.068 N 
HETATM   10  C11 UNL     1      -2.587  -3.924   0.796  1.00  0.00     0.252 C 
ATOM     11  H42 UNL     1      -0.913  -4.655   1.657  1.00  0.00     0.277 HD
ATOM     12  H41 UNL     1      -1.840  -3.920   2.672  1.00  0.00     0.277 HD
HETATM   13  C12 UNL     1      -3.398  -2.676   0.834  1.00  0.00     0.150 C 
HETATM   14  N5  UNL     1      -2.501  -1.560   0.434  1.00  0.00    -0.376 N 
BRANCH  14  15
HETATM   15  C13 UNL     1      -3.250  -0.614  -0.264  1.00  0.00     0.084 C 
HETATM   16  C14 UNL     1      -2.463   0.256  -1.147  1.00  0.00     0.025 C 
HETATM   17  C15 UNL     1      -2.507   1.735  -0.909  1.00  0.00     0.002 C 
HETATM   18  C16 UNL     1      -3.651   2.393  -1.658  1.00  0.00     0.000 C 
HETATM   19  C17 UNL     1      -4.936   2.437  -0.905  1.00  0.00     0.000 C 
HETATM   20  C18 UNL     1      -5.685   1.152  -1.177  1.00  0.00     0.000 C 
HETATM   21  C19 UNL     1      -5.625   0.225  -0.005  1.00  0.00     0.002 C 
HETATM   22  C20 UNL     1      -4.254   0.121   0.613  1.00  0.00     0.025 C 
ENDBRANCH  14  15
ENDBRANCH   6   7
ENDBRANCH   4   6
BRANCH   1  23
HETATM   23  N2  UNL     1       3.710  -0.182   0.022  1.00  0.00    -0.370 N 
ATOM     24  H2  UNL     1       3.451  -1.005  -0.522  1.00  0.00     0.161 HD
BRANCH  23  25
HETATM   25  C4  UNL     1       4.989   0.345  -0.204  1.00  0.00     0.105 A 
HETATM   26  C3  UNL     1       5.814  -0.278  -1.146  1.00  0.00     0.096 A 
HETATM   27  C2  UNL     1       7.082   0.187  -1.400  1.00  0.00     0.104 A 
HETATM   28  N1  UNL     1       7.807  -0.398  -2.263  1.00  0.00    -0.381 N 
HETATM   29  N7  UNL     1       7.522   1.254  -0.726  1.00  0.00    -0.339 N 
HETATM   30  C1  UNL     1       9.146   0.038  -2.577  1.00  0.00     0.147 C 
ATOM     31  H1  UNL     1       7.428  -1.208  -2.753  1.00  0.00     0.160 HD
HETATM   32  C22 UNL     1       6.755   1.877   0.187  1.00  0.00     0.183 A 
ATOM     33  H7  UNL     1       8.462   1.605  -0.908  1.00  0.00     0.168 HD
HETATM   34  N6  UNL     1       5.503   1.403   0.425  1.00  0.00    -0.339 N 
ATOM     35  H6  UNL     1       4.928   1.880   1.119  1.00  0.00     0.168 HD
ENDBRANCH  23  25
ENDBRANCH   1  23
TORSDOF 5
