REMARK  4 active torsions:
REMARK  status: ('A' for Active; 'I' for Inactive)
REMARK    1  A    between atoms: C2_2  and  N1_5 
REMARK    2  A    between atoms: C8_12  and  C9_13 
REMARK    3  A    between atoms: C9_13  and  S1_14 
REMARK    4  A    between atoms: S1_14  and  C10_15 
ROOT
HETATM    1  N1  UNL     1      -2.374   0.580   0.901  1.00  0.00    -0.368 N 
ATOM      2  H1  UNL     1      -2.700   1.169   1.667  1.00  0.00     0.161 HD
HETATM    3  C5  UNL     1      -1.212   0.084   1.046  1.00  0.00     0.104 A 
HETATM    4  C6  UNL     1      -0.521   0.386   2.204  1.00  0.00     0.065 A 
HETATM    5  C7  UNL     1       0.737  -0.157   2.350  1.00  0.00     0.093 A 
HETATM    6  N2  UNL     1       1.291  -0.960   1.403  1.00  0.00    -0.355 N 
ATOM      7  H2  UNL     1       2.224  -1.349   1.538  1.00  0.00     0.166 HD
HETATM    8  C8  UNL     1       0.597  -1.235   0.290  1.00  0.00     0.092 A 
HETATM    9  N6  UNL     1      -0.636  -0.709   0.135  1.00  0.00    -0.332 N 
ATOM     10  H6  UNL     1      -1.153  -0.926  -0.717  1.00  0.00     0.168 HD
ENDROOT
BRANCH   8  11
HETATM   11  C9  UNL     1       1.225  -2.116  -0.724  1.00  0.00     0.158 C 
BRANCH  11  12
HETATM   12  S1  UNL     1       2.165  -1.195  -1.932  1.00  0.00    -0.096 SA
BRANCH  12  13
HETATM   13  C10 UNL     1       3.607  -0.389  -1.250  1.00  0.00     0.130 A 
HETATM   14  N3  UNL     1       4.851  -0.818  -1.111  1.00  0.00    -0.286 N 
HETATM   15  N4  UNL     1       5.736  -0.072  -0.595  1.00  0.00    -0.279 N 
ATOM     16  H3  UNL     1       5.100  -1.757  -1.422  1.00  0.00     0.188 HD
HETATM   17  C11 UNL     1       5.393   1.156  -0.193  1.00  0.00     0.159 A 
ATOM     18  H4  UNL     1       6.695  -0.403  -0.488  1.00  0.00     0.189 HD
HETATM   19  N5  UNL     1       6.155   2.069   0.359  1.00  0.00    -0.379 N 
HETATM   20  S2  UNL     1       3.720   1.184  -0.596  1.00  0.00    -0.027 SA
ATOM     21  H52 UNL     1       7.147   2.052   0.598  1.00  0.00     0.158 HD
ATOM     22  H51 UNL     1       5.893   3.006   0.666  1.00  0.00     0.158 HD
ENDBRANCH  12  13
ENDBRANCH  11  12
ENDBRANCH   8  11
BRANCH   1  23
HETATM   23  C2  UNL     1      -3.282   0.426  -0.183  1.00  0.00     0.021 C 
HETATM   24  C1  UNL     1      -3.663  -0.975  -0.527  1.00  0.00     0.037 C 
HETATM   25  C3  UNL     1      -4.559   1.207   0.161  1.00  0.00     0.037 C 
HETATM   26  C4  UNL     1      -2.692   1.082  -1.419  1.00  0.00     0.037 C 
ENDBRANCH   1  23
TORSDOF 4
