REMARK  2 active torsions:
REMARK  status: ('A' for Active; 'I' for Inactive)
REMARK    1  A    between atoms: C3_6  and  N2_7 
REMARK    2  A    between atoms: C5_13  and  C6_14 
ROOT
HETATM    1  N2  UNL     1      -4.032   2.224   0.721  1.00  0.00    -0.126 N 
ATOM      2  H2  UNL     1      -4.505   2.403   1.607  1.00  0.00     0.197 HD
HETATM    3  C4  UNL     1      -4.010   3.211  -0.271  1.00  0.00     0.196 C 
HETATM    4  N3  UNL     1      -3.996   4.055  -1.091  1.00  0.00    -0.171 NA
ENDROOT
BRANCH   1   5
HETATM    5  C3  UNL     1      -3.392   0.962   0.495  1.00  0.00     0.693 C 
HETATM    6  N1  UNL     1      -4.146  -0.078   0.613  1.00  0.00    -0.164 N 
HETATM    7  S1  UNL     1      -3.412  -1.641   0.347  1.00  0.00    -0.032 SA
ATOM      8  H1  UNL     1      -5.134   0.009   0.853  1.00  0.00     0.192 HD
HETATM    9  C2  UNL     1      -1.871  -1.447  -0.568  1.00  0.00     0.094 C 
HETATM   10  C1  UNL     1      -0.858  -2.392   0.053  1.00  0.00     0.026 C 
HETATM   11  C5  UNL     1      -1.396  -0.052  -0.702  1.00  0.00     0.164 C 
HETATM   12  N4  UNL     1      -2.017   0.902   0.166  1.00  0.00    -0.214 N 
ATOM     13  H4  UNL     1      -1.411   1.606   0.588  1.00  0.00     0.178 HD
BRANCH  11  14
HETATM   14  C6  UNL     1       0.068  -0.039  -0.445  1.00  0.00     0.035 A 
HETATM   15  C7  UNL     1       0.705  -0.025   0.802  1.00  0.00     0.041 A 
HETATM   16  C8  UNL     1       2.067  -0.014   0.624  1.00  0.00    -0.007 A 
HETATM   17  C9  UNL     1       3.080   0.000   1.539  1.00  0.00     0.014 A 
HETATM   18  C13 UNL     1       2.249  -0.022  -0.746  1.00  0.00     0.042 A 
HETATM   19  C10 UNL     1       4.387   0.008   1.053  1.00  0.00     0.001 A 
HETATM   20  C11 UNL     1       4.616   0.001  -0.319  1.00  0.00     0.002 A 
HETATM   21  C12 UNL     1       3.559  -0.014  -1.190  1.00  0.00     0.030 A 
HETATM   22  N5  UNL     1       1.043  -0.037  -1.363  1.00  0.00    -0.357 N 
ATOM     23  H5  UNL     1       0.899  -0.045  -2.373  1.00  0.00     0.166 HD
ENDBRANCH  11  14
ENDBRANCH   1   5
TORSDOF 2
