REMARK  4 active torsions:
REMARK  status: ('A' for Active; 'I' for Inactive)
REMARK    1  A    between atoms: C4_4  and  N1_5 
REMARK    2  A    between atoms: C5_10  and  N3_11 
REMARK    3  A    between atoms: C6_12  and  C7_13 
REMARK    4  A    between atoms: C12_23  and  O1_24 
ROOT
HETATM    1  C1  UNL     1      -3.377   2.177   0.028  1.00  0.00     0.051 C 
HETATM    2  C2  UNL     1      -2.700   0.849   0.053  1.00  0.00    -0.021 A 
HETATM    3  C3  UNL     1      -3.364  -0.203   0.620  1.00  0.00     0.057 A 
HETATM    4  C4  UNL     1      -2.744  -1.460   0.642  1.00  0.00     0.100 A 
HETATM    5  N2  UNL     1      -1.515  -1.566   0.097  1.00  0.00    -0.326 N 
ATOM      6  H2  UNL     1      -1.075  -2.486   0.121  1.00  0.00     0.169 HD
HETATM    7  C5  UNL     1      -0.817  -0.569  -0.475  1.00  0.00     0.151 A 
HETATM    8  C12 UNL     1      -1.444   0.659  -0.484  1.00  0.00     0.116 A 
ENDROOT
BRANCH   7   9
HETATM    9  N3  UNL     1       0.438  -0.775  -1.082  1.00  0.00    -0.257 N 
HETATM   10  C6  UNL     1       1.637  -0.494  -0.679  1.00  0.00     0.114 A 
HETATM   11  N4  UNL     1       2.521  -0.907  -1.645  1.00  0.00    -0.286 N 
HETATM   12  N5  UNL     1       1.854  -1.436  -2.633  1.00  0.00    -0.274 N 
ATOM     13  H4  UNL     1       3.536  -0.815  -1.598  1.00  0.00     0.188 HD
HETATM   14  C11 UNL     1       0.566  -1.373  -2.322  1.00  0.00     0.200 A 
ATOM     15  H5  UNL     1       2.250  -1.827  -3.488  1.00  0.00     0.189 HD
HETATM   16  S1  UNL     1      -0.698  -1.896  -3.202  1.00  0.00    -0.039 SA
BRANCH  10  17
HETATM   17  C7  UNL     1       2.149   0.140   0.525  1.00  0.00     0.009 C 
HETATM   18  C8  UNL     1       3.338  -0.729   0.998  1.00  0.00     0.023 C 
HETATM   19  C9  UNL     1       1.246   0.335   1.667  1.00  0.00     0.023 C 
HETATM   20  C10 UNL     1       2.809   1.489   0.193  1.00  0.00     0.023 C 
ENDBRANCH  10  17
ENDBRANCH   7   9
BRANCH   8  21
HETATM   21  O1  UNL     1      -0.797   1.730  -1.048  1.00  0.00    -0.357 OA
ATOM     22  H1  UNL     1       0.068   1.599  -1.418  1.00  0.00     0.218 HD
ENDBRANCH   8  21
BRANCH   4  23
HETATM   23  N1  UNL     1      -3.331  -2.409   1.132  1.00  0.00    -0.385 N 
ATOM     24  H12 UNL     1      -4.261  -2.329   1.544  1.00  0.00     0.157 HD
ATOM     25  H11 UNL     1      -2.880  -3.324   1.148  1.00  0.00     0.157 HD
ENDBRANCH   4  23
TORSDOF 4
