REMARK  4 active torsions:
REMARK  status: ('A' for Active; 'I' for Inactive)
REMARK    1  A    between atoms: C2_2  and  O1_3 
REMARK    2  A    between atoms: C6_11  and  O2_12 
REMARK    3  A    between atoms: C8_15  and  C9_16 
REMARK    4  A    between atoms: N2_22  and  O4_24 
ROOT
HETATM    1  C1  UNL     1      -1.968  -1.126  -0.585  1.00  0.00     0.047 C 
HETATM    2  C2  UNL     1      -1.809  -0.688   0.868  1.00  0.00     0.066 C 
HETATM    3  C3  UNL     1      -2.950   0.189   1.242  1.00  0.00     0.044 C 
HETATM    4  C4  UNL     1      -2.683   1.663   1.130  1.00  0.00     0.058 C 
HETATM    5  C5  UNL     1      -1.469   2.004   0.385  1.00  0.00     0.015 C 
HETATM    6  N1  UNL     1      -1.471   2.957  -0.446  1.00  0.00    -0.403 N 
ATOM      7  H11 UNL     1      -0.626   3.194  -0.965  1.00  0.00     0.155 HD
ATOM      8  H12 UNL     1      -2.330   3.487  -0.594  1.00  0.00     0.155 HD
HETATM    9  C6  UNL     1      -0.230   1.239   0.599  1.00  0.00     0.108 C 
HETATM   10  C7  UNL     1       0.506   1.091  -0.690  1.00  0.00     0.060 C 
HETATM   11  C8  UNL     1       0.978  -0.333  -0.785  1.00  0.00     0.072 C 
HETATM   12  C13 UNL     1       0.569  -0.996   0.498  1.00  0.00     0.029 C 
HETATM   13  N2  UNL     1       1.059  -2.100   0.882  1.00  0.00    -0.276 N 
ATOM     14  H2  UNL     1       1.755  -2.522   0.267  1.00  0.00     0.193 HD
HETATM   15  C14 UNL     1      -0.457  -0.138   1.165  1.00  0.00     0.108 C 
ENDROOT
BRANCH  11  16
HETATM   16  C9  UNL     1       2.470  -0.396  -0.898  1.00  0.00    -0.024 A 
HETATM   17  C10 UNL     1       3.191  -1.044  -1.877  1.00  0.00     0.034 A 
HETATM   18  C11 UNL     1       4.541  -0.843  -1.593  1.00  0.00     0.142 A 
HETATM   19  O3  UNL     1       4.627  -0.116  -0.505  1.00  0.00    -0.334 OA
HETATM   20  C12 UNL     1       3.410   0.168  -0.065  1.00  0.00     0.149 A 
ENDBRANCH  11  16
BRANCH   9  21
HETATM   21  O2  UNL     1       0.592   1.960   1.485  1.00  0.00    -0.383 OA
ATOM     22  H2  UNL     1       1.392   1.466   1.623  1.00  0.00     0.211 HD
ENDBRANCH   9  21
BRANCH  13  23
HETATM   23  O4  UNL     1       0.767  -2.785   2.013  1.00  0.00    -0.290 OA
ATOM     24  H4  UNL     1       1.134  -3.613   2.301  1.00  0.00     0.244 HD
ENDBRANCH  13  23
BRANCH   2  25
HETATM   25  O1  UNL     1      -1.946  -1.876   1.625  1.00  0.00    -0.389 OA
ATOM     26  H1  UNL     1      -1.847  -1.603   2.530  1.00  0.00     0.210 HD
ENDBRANCH   2  25
TORSDOF 4
