REMARK  3 active torsions:
REMARK  status: ('A' for Active; 'I' for Inactive)
REMARK    1  A    between atoms: C4_4  and  C5_5 
REMARK    2  A    between atoms: C9_9  and  N1_10 
REMARK    3  A    between atoms: N1_10  and  C10_12 
ROOT
HETATM    1  N1  UNL     1      -1.151  -0.090  -1.090  1.00  0.00    -0.355 N 
ATOM      2  H1  UNL     1      -1.371  -0.830  -1.756  1.00  0.00     0.166 HD
ENDROOT
BRANCH   1   3
HETATM    3  C9  UNL     1       0.166   0.481  -1.072  1.00  0.00     0.033 A 
HETATM    4  C8  UNL     1       0.366   1.705  -1.674  1.00  0.00     0.029 A 
HETATM    5  C7  UNL     1       1.638   2.236  -1.645  1.00  0.00     0.003 A 
HETATM    6  C6  UNL     1       2.663   1.547  -1.027  1.00  0.00     0.012 A 
HETATM    7  C5  UNL     1       2.484   0.324  -0.420  1.00  0.00    -0.024 A 
HETATM    8  C19 UNL     1       1.209  -0.199  -0.454  1.00  0.00     0.041 A 
BRANCH   7   9
HETATM    9  C4  UNL     1       3.612  -0.355   0.216  1.00  0.00    -0.026 A 
HETATM   10  C3  UNL     1       3.466  -1.171   1.307  1.00  0.00     0.012 A 
HETATM   11  C2  UNL     1       4.580  -1.774   1.845  1.00  0.00     0.001 A 
HETATM   12  C1  UNL     1       5.843  -1.586   1.325  1.00  0.00     0.000 A 
HETATM   13  C21 UNL     1       6.002  -0.766   0.228  1.00  0.00     0.001 A 
HETATM   14  C20 UNL     1       4.877  -0.172  -0.298  1.00  0.00     0.012 A 
ENDBRANCH   7   9
ENDBRANCH   1   3
BRANCH   1  15
HETATM   15  C10 UNL     1      -2.058   0.323  -0.273  1.00  0.00     0.046 A 
HETATM   16  C11 UNL     1      -1.813   1.314   0.641  1.00  0.00     0.047 A 
HETATM   17  C12 UNL     1      -2.817   1.736   1.509  1.00  0.00     0.090 A 
HETATM   18  N2  UNL     1      -4.043   1.177   1.464  1.00  0.00    -0.365 N 
HETATM   19  C13 UNL     1      -4.265   0.210   0.565  1.00  0.00     0.044 A 
ATOM     20  H2  UNL     1      -4.782   1.483   2.098  1.00  0.00     0.165 HD
HETATM   21  C14 UNL     1      -5.522  -0.370   0.510  1.00  0.00     0.030 A 
HETATM   22  C18 UNL     1      -3.309  -0.244  -0.316  1.00  0.00     0.017 A 
HETATM   23  C15 UNL     1      -5.825  -1.365  -0.382  1.00  0.00     0.002 A 
HETATM   24  C16 UNL     1      -4.864  -1.801  -1.246  1.00  0.00     0.001 A 
HETATM   25  C17 UNL     1      -3.616  -1.259  -1.227  1.00  0.00     0.016 A 
ENDBRANCH   1  15
TORSDOF 3
