REMARK  3 active torsions:
REMARK  status: ('A' for Active; 'I' for Inactive)
REMARK    1  A    between atoms: O1_2  and  C2_3 
REMARK    2  A    between atoms: C5_6  and  C6_7 
REMARK    3  A    between atoms: C6_7  and  C7_8 
ROOT
HETATM    1  C2  UNL     1      -2.267  -0.851   1.068  1.00  0.00     0.068 A 
HETATM    2  C3  UNL     1      -1.190  -1.033   1.932  1.00  0.00     0.037 A 
HETATM    3  C4  UNL     1      -0.044  -0.277   1.773  1.00  0.00     0.010 A 
HETATM    4  C5  UNL     1       0.069   0.661   0.777  1.00  0.00    -0.054 A 
HETATM    5  C11 UNL     1      -1.004   0.827  -0.066  1.00  0.00     0.010 A 
HETATM    6  C12 UNL     1      -2.168   0.087   0.063  1.00  0.00     0.037 A 
ENDROOT
BRANCH   4   7
HETATM    7  C6  UNL     1       1.272   1.462   0.602  1.00  0.00     0.078 C 
BRANCH   7   8
HETATM    8  C7  UNL     1       2.276   0.862  -0.293  1.00  0.00    -0.037 A 
HETATM    9  C8  UNL     1       2.388   1.023  -1.653  1.00  0.00     0.025 A 
HETATM   10  C9  UNL     1       3.477   0.280  -2.113  1.00  0.00     0.088 A 
HETATM   11  N1  UNL     1       3.999  -0.314  -1.027  1.00  0.00    -0.375 N 
HETATM   12  C10 UNL     1       3.298   0.020   0.069  1.00  0.00     0.095 A 
ATOM     13  H1  UNL     1       4.812  -0.931  -1.034  1.00  0.00     0.164 HD
ENDBRANCH   7   8
ENDBRANCH   4   7
BRANCH   1  14
HETATM   14  O1  UNL     1      -3.413  -1.611   1.232  1.00  0.00    -0.356 OA
HETATM   15  C1  UNL     1      -4.489  -1.403   0.339  1.00  0.00     0.210 C 
ENDBRANCH   1  14
TORSDOF 3
