REMARK  16 active torsions:
REMARK  status: ('A' for Active; 'I' for Inactive)
REMARK    1  A    between atoms: C2_2  and  C3_3 
REMARK    2  A    between atoms: C3_3  and  C4_4 
REMARK    3  A    between atoms: C4_4  and  O2_6 
REMARK    4  A    between atoms: O2_6  and  C5_7 
REMARK    5  A    between atoms: C5_7  and  C6_8 
REMARK    6  A    between atoms: C10_12  and  O3_13 
REMARK    7  A    between atoms: C13_17  and  O4_18 
REMARK    8  A    between atoms: C13_17  and  C14_20 
REMARK    9  A    between atoms: C14_20  and  O5_22 
REMARK   10  A    between atoms: C16_24  and  C17_25 
REMARK   11  A    between atoms: C17_25  and  C18_26 
REMARK   12  A    between atoms: C18_26  and  N1_27 
REMARK   13  A    between atoms: C18_26  and  C19_31 
REMARK   14  A    between atoms: C21_35  and  O8_36 
REMARK   15  A    between atoms: C25_41  and  O9_42 
REMARK   16  A    between atoms: N2_44  and  O10_46 
ROOT
HETATM    1  C6  UNL     1       2.629  -1.083  -0.582  1.00  0.00    -0.030 C 
HETATM    2  C7  UNL     1       1.836  -2.089  -0.377  1.00  0.00    -0.007 C 
HETATM    3  C8  UNL     1       0.326  -2.029  -0.330  1.00  0.00     0.010 C 
HETATM    4  C9  UNL     1      -0.046  -3.430  -0.804  1.00  0.00     0.023 C 
HETATM    5  C10 UNL     1      -0.037  -1.939   1.099  1.00  0.00     0.131 C 
HETATM    6  C11 UNL     1      -1.183  -1.006   1.452  1.00  0.00     0.043 C 
HETATM    7  C12 UNL     1      -2.162  -1.041   0.377  1.00  0.00     0.060 C 
HETATM    8  C13 UNL     1      -3.406  -0.137   0.562  1.00  0.00     0.093 C 
HETATM    9  C16 UNL     1      -2.872   1.197   0.406  1.00  0.00     0.028 C 
HETATM   10  C20 UNL     1      -1.621   1.010  -0.509  1.00  0.00     0.047 C 
HETATM   11  C21 UNL     1      -1.542  -0.423  -0.852  1.00  0.00     0.073 C 
HETATM   12  C22 UNL     1      -0.201  -0.957  -1.232  1.00  0.00     0.003 C 
HETATM   13  C23 UNL     1      -0.435  -1.695  -2.568  1.00  0.00     0.020 C 
HETATM   14  C24 UNL     1       0.776   0.120  -1.584  1.00  0.00     0.049 C 
HETATM   15  C25 UNL     1       1.992   0.243  -0.776  1.00  0.00     0.150 C 
ENDROOT
BRANCH   1  16
HETATM   16  C5  UNL     1       4.116  -1.256  -0.610  1.00  0.00     0.215 C 
BRANCH  16  17
HETATM   17  O2  UNL     1       4.734  -0.473   0.395  1.00  0.00    -0.317 OA
BRANCH  17  18
HETATM   18  C4  UNL     1       6.109  -0.440   0.542  1.00  0.00     0.264 C 
HETATM   19  O1  UNL     1       6.864  -1.113  -0.227  1.00  0.00    -0.265 OA
BRANCH  18  20
HETATM   20  C3  UNL     1       6.696   0.403   1.619  1.00  0.00     0.165 C 
BRANCH  20  21
HETATM   21  C2  UNL     1       7.619   1.349   0.924  1.00  0.00     0.015 C 
HETATM   22  C1  UNL     1       7.079   2.293  -0.086  1.00  0.00     0.066 C 
HETATM   23  N2  UNL     1       8.861   1.322   1.218  1.00  0.00    -0.277 N 
ATOM     24  H2  UNL     1       9.492   1.968   0.744  1.00  0.00     0.193 HD
BRANCH  23  25
HETATM   25  O10 UNL     1       9.372   0.465   2.138  1.00  0.00    -0.290 OA
ATOM     26  H10 UNL     1      10.296   0.445   2.357  1.00  0.00     0.244 HD
ENDBRANCH  23  25
ENDBRANCH  20  21
ENDBRANCH  18  20
ENDBRANCH  17  18
ENDBRANCH  16  17
ENDBRANCH   1  16
BRANCH  15  27
HETATM   27  O9  UNL     1       1.898   0.838   0.467  1.00  0.00    -0.391 OA
ATOM     28  H9  UNL     1       1.490   1.687   0.343  1.00  0.00     0.210 HD
ENDBRANCH  15  27
BRANCH   5  29
HETATM   29  O3  UNL     1      -0.427  -3.195   1.633  1.00  0.00    -0.394 OA
ATOM     30  H3  UNL     1      -0.660  -3.137   2.552  1.00  0.00     0.210 HD
ENDBRANCH   5  29
BRANCH  11  31
HETATM   31  O8  UNL     1      -2.521  -0.629  -1.866  1.00  0.00    -0.389 OA
ATOM     32  H8  UNL     1      -2.131  -0.240  -2.640  1.00  0.00     0.210 HD
ENDBRANCH  11  31
BRANCH   8  33
HETATM   33  O4  UNL     1      -4.388  -0.597  -0.274  1.00  0.00    -0.386 OA
ATOM     34  H4  UNL     1      -5.151  -0.043  -0.161  1.00  0.00     0.210 HD
ENDBRANCH   8  33
BRANCH   8  35
HETATM   35  C14 UNL     1      -3.971  -0.386   1.980  1.00  0.00     0.149 C 
HETATM   36  C15 UNL     1      -5.420  -0.010   2.090  1.00  0.00     0.042 C 
BRANCH  35  37
HETATM   37  O5  UNL     1      -3.175   0.131   2.968  1.00  0.00    -0.393 OA
ATOM     38  H5  UNL     1      -3.522  -0.022   3.839  1.00  0.00     0.210 HD
ENDBRANCH  35  37
ENDBRANCH   8  35
BRANCH   9  39
HETATM   39  C17 UNL     1      -3.590   2.398   0.066  1.00  0.00     0.052 C 
BRANCH  39  40
HETATM   40  C18 UNL     1      -4.319   2.774  -1.111  1.00  0.00     0.283 C 
BRANCH  40  41
HETATM   41  N1  UNL     1      -4.833   4.192  -0.838  1.00  0.00    -0.065 N 
ATOM     42  H13 UNL     1      -5.374   4.274   0.023  1.00  0.00     0.275 HD
ATOM     43  H12 UNL     1      -4.099   4.852  -0.582  1.00  0.00     0.275 HD
ATOM     44  H11 UNL     1      -5.351   4.459  -1.675  1.00  0.00     0.275 HD
ENDBRANCH  40  41
BRANCH  40  45
HETATM   45  C19 UNL     1      -5.543   2.082  -1.491  1.00  0.00     0.204 C 
HETATM   46  O6  UNL     1      -6.647   2.313  -0.877  1.00  0.00    -0.646 OA
HETATM   47  O7  UNL     1      -5.673   1.142  -2.519  1.00  0.00    -0.646 OA
ENDBRANCH  40  45
ENDBRANCH  39  40
ENDBRANCH   9  39
TORSDOF 16
