REMARK  17 active torsions:
REMARK  status: ('A' for Active; 'I' for Inactive)
REMARK    1  A    between atoms: C2_2  and  C22_35 
REMARK    2  A    between atoms: C3_3  and  C4_4 
REMARK    3  A    between atoms: C4_4  and  C5_5 
REMARK    4  A    between atoms: C6_6  and  O1_7 
REMARK    5  A    between atoms: O1_7  and  C7_8 
REMARK    6  A    between atoms: C8_9  and  O2_10 
REMARK    7  A    between atoms: C9_12  and  O3_13 
REMARK    8  A    between atoms: C10_15  and  O4_16 
REMARK    9  A    between atoms: C11_18  and  O5_19 
REMARK   10  A    between atoms: C12_21  and  O6_23 
REMARK   11  A    between atoms: C20_31  and  O7_33 
REMARK   12  A    between atoms: N1_37  and  O8_39 
REMARK   13  A    between atoms: O8_39  and  C24_40 
REMARK   14  A    between atoms: C24_40  and  C25_41 
REMARK   15  A    between atoms: C25_41  and  O9_42 
REMARK   16  A    between atoms: C25_41  and  C26_44 
REMARK   17  A    between atoms: C26_44  and  O10_45 
ROOT
HETATM    1  C5  UNL     1      -0.311  -2.546  -0.139  1.00  0.00     0.053 C 
HETATM    2  C6  UNL     1      -1.067  -1.542   0.693  1.00  0.00     0.137 C 
HETATM    3  C14 UNL     1      -1.518  -2.224   1.967  1.00  0.00     0.044 C 
HETATM    4  C15 UNL     1      -2.777  -1.721   2.578  1.00  0.00     0.015 C 
HETATM    5  C16 UNL     1      -3.042  -2.810   3.617  1.00  0.00     0.028 C 
HETATM    6  C17 UNL     1      -2.643  -4.000   2.816  1.00  0.00    -0.023 C 
HETATM    7  C18 UNL     1      -1.756  -3.658   1.854  1.00  0.00    -0.074 C 
HETATM    8  C19 UNL     1      -1.153  -4.587   0.890  1.00  0.00     0.072 C 
HETATM    9  C20 UNL     1      -1.012  -3.820  -0.429  1.00  0.00     0.064 C 
HETATM   10  C21 UNL     1      -0.084  -4.746  -1.235  1.00  0.00     0.046 C 
ENDROOT
BRANCH   2  11
HETATM   11  O1  UNL     1      -2.111  -0.888   0.174  1.00  0.00    -0.374 OA
BRANCH  11  12
HETATM   12  C7  UNL     1      -2.151   0.410  -0.135  1.00  0.00     0.190 C 
HETATM   13  C8  UNL     1      -2.310   0.536  -1.635  1.00  0.00     0.181 C 
HETATM   14  C9  UNL     1      -3.433   1.443  -2.080  1.00  0.00     0.180 C 
HETATM   15  C10 UNL     1      -3.370   2.804  -1.478  1.00  0.00     0.181 C 
HETATM   16  C11 UNL     1      -2.721   2.765  -0.151  1.00  0.00     0.186 C 
HETATM   17  C12 UNL     1      -2.907   1.436   0.615  1.00  0.00     0.111 C 
HETATM   18  C13 UNL     1      -4.318   1.307   0.940  1.00  0.00     0.051 C 
BRANCH  13  19
HETATM   19  O2  UNL     1      -2.569  -0.699  -2.255  1.00  0.00    -0.390 OA
ATOM     20  H2  UNL     1      -2.669  -0.620  -3.196  1.00  0.00     0.210 HD
ENDBRANCH  13  19
BRANCH  14  21
HETATM   21  O3  UNL     1      -4.680   0.848  -2.081  1.00  0.00    -0.390 OA
ATOM     22  H3  UNL     1      -5.386   1.418  -2.361  1.00  0.00     0.210 HD
ENDBRANCH  14  21
BRANCH  15  23
HETATM   23  O4  UNL     1      -4.623   3.434  -1.511  1.00  0.00    -0.390 OA
ATOM     24  H4  UNL     1      -4.583   4.302  -1.127  1.00  0.00     0.210 HD
ENDBRANCH  15  23
BRANCH  16  25
HETATM   25  O5  UNL     1      -3.204   3.820   0.619  1.00  0.00    -0.390 OA
ATOM     26  H5  UNL     1      -2.787   3.795   1.472  1.00  0.00     0.210 HD
ENDBRANCH  16  25
BRANCH  17  27
HETATM   27  O6  UNL     1      -2.236   1.757   1.842  1.00  0.00    -0.385 OA
ATOM     28  H6  UNL     1      -2.722   2.416   2.324  1.00  0.00     0.210 HD
ENDBRANCH  17  27
ENDBRANCH  11  12
ENDBRANCH   2  11
BRANCH   1  29
HETATM   29  C4  UNL     1       0.608  -2.112  -1.186  1.00  0.00     0.037 C 
BRANCH  29  30
HETATM   30  C3  UNL     1       1.730  -1.303  -0.652  1.00  0.00    -0.018 C 
HETATM   31  C2  UNL     1       2.177  -0.153  -0.997  1.00  0.00    -0.042 C 
HETATM   32  C1  UNL     1       1.605   0.653  -2.096  1.00  0.00     0.050 C 
BRANCH  31  33
HETATM   33  C22 UNL     1       3.330   0.475  -0.307  1.00  0.00     0.034 C 
HETATM   34  C23 UNL     1       3.997  -0.240   0.821  1.00  0.00     0.070 C 
HETATM   35  N1  UNL     1       3.786   1.624  -0.642  1.00  0.00    -0.271 N 
ATOM     36  H1  UNL     1       3.331   2.113  -1.412  1.00  0.00     0.194 HD
BRANCH  35  37
HETATM   37  O8  UNL     1       4.838   2.231  -0.035  1.00  0.00    -0.278 OA
BRANCH  37  38
HETATM   38  C24 UNL     1       4.867   3.636   0.033  1.00  0.00     0.235 C 
BRANCH  38  39
HETATM   39  C25 UNL     1       6.126   4.089   0.749  1.00  0.00     0.167 C 
BRANCH  39  40
HETATM   40  O9  UNL     1       6.191   5.462   0.836  1.00  0.00    -0.391 OA
ATOM     41  H9  UNL     1       6.979   5.746   1.284  1.00  0.00     0.210 HD
ENDBRANCH  39  40
BRANCH  39  42
HETATM   42  C26 UNL     1       7.354   3.515   0.047  1.00  0.00     0.198 C 
BRANCH  42  43
HETATM   43  O10 UNL     1       7.217   2.135  -0.003  1.00  0.00    -0.398 OA
ATOM     44  H10 UNL     1       7.981   1.778  -0.440  1.00  0.00     0.209 HD
ENDBRANCH  42  43
ENDBRANCH  39  42
ENDBRANCH  38  39
ENDBRANCH  37  38
ENDBRANCH  35  37
ENDBRANCH  31  33
ENDBRANCH  29  30
ENDBRANCH   1  29
BRANCH   9  45
HETATM   45  O7  UNL     1      -2.185  -3.762  -1.116  1.00  0.00    -0.389 OA
ATOM     46  H7  UNL     1      -2.634  -4.578  -1.302  1.00  0.00     0.210 HD
ENDBRANCH   9  45
TORSDOF 17
