REMARK  15 active torsions:
REMARK  status: ('A' for Active; 'I' for Inactive)
REMARK    1  A    between atoms: O1_2  and  N1_3 
REMARK    2  A    between atoms: N1_3  and  C2_5 
REMARK    3  A    between atoms: C3_6  and  N2_7 
REMARK    4  A    between atoms: N2_7  and  N3_9 
REMARK    5  A    between atoms: C4_10  and  O2_11 
REMARK    6  A    between atoms: C5_13  and  C6_14 
REMARK    7  A    between atoms: C6_14  and  O3_15 
REMARK    8  A    between atoms: C6_14  and  O4_17 
REMARK    9  A    between atoms: C9_21  and  N4_22 
REMARK   10  A    between atoms: C10_23  and  N5_24 
REMARK   11  A    between atoms: C11_29  and  N7_30 
REMARK   12  A    between atoms: C16_42  and  N11_43 
REMARK   13  A    between atoms: C17_47  and  O6_48 
REMARK   14  A    between atoms: C18_50  and  O7_51 
REMARK   15  A    between atoms: O7_51  and  C19_52 
ROOT
HETATM    1  N3  UNL     1       0.245  -1.090  -0.270  1.00  0.00    -0.219 N 
HETATM    2  C4  UNL     1       0.236  -2.479  -0.481  1.00  0.00     0.175 A 
HETATM    3  C5  UNL     1       1.496  -2.980  -0.398  1.00  0.00     0.063 A 
HETATM    4  C7  UNL     1       2.292  -1.901  -0.136  1.00  0.00     0.030 A 
HETATM    5  C8  UNL     1       3.612  -1.559   0.068  1.00  0.00     0.067 A 
HETATM    6  C9  UNL     1       3.674  -0.210   0.268  1.00  0.00     0.152 A 
HETATM    7  N9  UNL     1       2.393   0.269   0.187  1.00  0.00    -0.214 N 
HETATM    8  C13 UNL     1       2.143   1.626   0.323  1.00  0.00     0.192 C 
HETATM    9  N10 UNL     1       1.958   2.759   0.448  1.00  0.00    -0.171 NA
HETATM   10  C14 UNL     1       1.526  -0.729  -0.056  1.00  0.00     0.158 A 
ENDROOT
BRANCH   6  11
HETATM   11  N4  UNL     1       4.867   0.505   0.510  1.00  0.00    -0.079 N 
HETATM   12  C10 UNL     1       5.499   1.155  -0.493  1.00  0.00     0.702 A 
HETATM   13  N6  UNL     1       6.648   1.842  -0.259  1.00  0.00    -0.022 N 
HETATM   14  C11 UNL     1       7.192   1.902   0.964  1.00  0.00     0.694 A 
ATOM     15  H6  UNL     1       7.107   2.323  -1.032  1.00  0.00     0.203 HD
HETATM   16  N8  UNL     1       6.575   1.263   1.962  1.00  0.00    -0.140 N 
HETATM   17  C12 UNL     1       5.439   0.582   1.732  1.00  0.00     0.361 A 
ATOM     18  H8  UNL     1       6.968   1.292   2.903  1.00  0.00     0.189 HD
HETATM   19  O5  UNL     1       4.882  -0.010   2.700  1.00  0.00    -0.245 OA
BRANCH  12  20
HETATM   20  N5  UNL     1       5.041   1.150  -1.713  1.00  0.00    -0.233 N 
ATOM     21  H52 UNL     1       4.179   0.634  -1.889  1.00  0.00     0.174 HD
ATOM     22  H51 UNL     1       5.518   1.640  -2.470  1.00  0.00     0.174 HD
ENDBRANCH  12  20
BRANCH  14  23
HETATM   23  N7  UNL     1       8.285   2.567   1.139  1.00  0.00    -0.234 N 
ATOM     24  H72 UNL     1       8.756   3.055   0.377  1.00  0.00     0.174 HD
ATOM     25  H71 UNL     1       8.699   2.613   2.070  1.00  0.00     0.174 HD
ENDBRANCH  14  23
ENDBRANCH   6  11
BRANCH   1  26
HETATM   26  N2  UNL     1      -0.905  -0.385  -0.349  1.00  0.00    -0.319 N 
ATOM     27  H2  UNL     1      -1.673  -0.932  -0.738  1.00  0.00     0.181 HD
BRANCH  26  28
HETATM   28  C3  UNL     1      -1.289   0.926  -0.020  1.00  0.00     0.129 C 
HETATM   29  C2  UNL     1      -2.644   1.305  -0.632  1.00  0.00     0.162 C 
HETATM   30  C18 UNL     1      -3.666   1.440   0.438  1.00  0.00     0.189 C 
HETATM   31  C17 UNL     1      -3.673   0.328   1.451  1.00  0.00     0.180 C 
HETATM   32  C16 UNL     1      -2.341   0.264   2.166  1.00  0.00     0.216 C 
HETATM   33  C15 UNL     1      -1.330   1.162   1.483  1.00  0.00     0.064 C 
BRANCH  29  34
HETATM   34  N1  UNL     1      -3.097   0.422  -1.649  1.00  0.00    -0.294 N 
ATOM     35  H1  UNL     1      -3.953  -0.126  -1.559  1.00  0.00     0.188 HD
BRANCH  34  36
HETATM   36  O1  UNL     1      -2.308   0.363  -2.744  1.00  0.00    -0.289 OA
HETATM   37  C1  UNL     1      -2.972  -0.501  -3.644  1.00  0.00     0.237 C 
ENDBRANCH  34  36
ENDBRANCH  29  34
BRANCH  30  38
HETATM   38  O7  UNL     1      -4.943   1.564  -0.175  1.00  0.00    -0.311 OA
BRANCH  38  39
HETATM   39  C19 UNL     1      -5.675   2.745   0.015  1.00  0.00     0.255 C 
HETATM   40  C20 UNL     1      -7.008   2.890  -0.617  1.00  0.00     0.126 C 
HETATM   41  O8  UNL     1      -5.163   3.644   0.724  1.00  0.00    -0.266 OA
ENDBRANCH  38  39
ENDBRANCH  30  38
BRANCH  31  42
HETATM   42  O6  UNL     1      -4.016  -0.907   0.959  1.00  0.00    -0.391 OA
ATOM     43  H6  UNL     1      -4.852  -0.867   0.510  1.00  0.00     0.210 HD
ENDBRANCH  31  42
BRANCH  32  44
HETATM   44  N11 UNL     1      -1.858  -1.088   2.361  1.00  0.00    -0.072 N 
ATOM     45 3H11 UNL     1      -1.548  -1.494   1.478  1.00  0.00     0.274 HD
ATOM     46 2H11 UNL     1      -0.972  -1.088   2.866  1.00  0.00     0.274 HD
ATOM     47 1H11 UNL     1      -2.539  -1.693   2.821  1.00  0.00     0.274 HD
ENDBRANCH  32  44
ENDBRANCH  26  28
ENDBRANCH   1  26
BRANCH   2  48
HETATM   48  O2  UNL     1      -0.870  -3.267  -0.739  1.00  0.00    -0.344 OA
ATOM     49  H2  UNL     1      -0.876  -4.206  -0.882  1.00  0.00     0.219 HD
ENDBRANCH   2  48
BRANCH   3  50
HETATM   50  C6  UNL     1       1.888  -4.413  -0.564  1.00  0.00     0.293 C 
BRANCH  50  51
HETATM   51  O3  UNL     1       1.241  -4.974  -1.678  1.00  0.00    -0.367 OA
ATOM     52  H3  UNL     1       1.490  -5.885  -1.783  1.00  0.00     0.213 HD
ENDBRANCH  50  51
BRANCH  50  53
HETATM   53  O4  UNL     1       1.661  -5.156   0.568  1.00  0.00    -0.367 OA
ATOM     54  H4  UNL     1       1.910  -6.067   0.463  1.00  0.00     0.213 HD
ENDBRANCH  50  53
ENDBRANCH   3  50
TORSDOF 15
