REMARK  8 active torsions:
REMARK  status: ('A' for Active; 'I' for Inactive)
REMARK    1  A    between atoms: C2_2  and  C3_3 
REMARK    2  A    between atoms: C3_3  and  C4_4 
REMARK    3  A    between atoms: C4_4  and  C5_5 
REMARK    4  A    between atoms: C5_5  and  N1_6 
REMARK    5  A    between atoms: N1_6  and  C6_8 
REMARK    6  A    between atoms: C8_13  and  N3_14 
REMARK    7  A    between atoms: N3_14  and  C9_16 
REMARK    8  A    between atoms: C9_16  and  C10_17 
ROOT
HETATM    1  C6  UNL     1       1.906   0.754   0.583  1.00  0.00     0.119 A 
HETATM    2  N2  UNL     1       1.399   1.233   1.769  1.00  0.00    -0.311 N 
ATOM      3  H2  UNL     1       1.830   1.902   2.407  1.00  0.00     0.176 HD
HETATM    4  S1  UNL     1      -0.073   0.478   1.928  1.00  0.00    -0.009 SA
HETATM    5  C7  UNL     1      -0.080  -0.457   0.503  1.00  0.00     0.079 A 
HETATM    6  C8  UNL     1      -1.004  -1.362  -0.058  1.00  0.00     0.120 A 
HETATM    7  N5  UNL     1      -0.725  -1.962  -1.225  1.00  0.00    -0.351 N 
ATOM      8  H5  UNL     1      -1.375  -2.621  -1.653  1.00  0.00     0.166 HD
HETATM    9  C16 UNL     1       0.433  -1.661  -1.799  1.00  0.00     0.090 A 
HETATM   10  C17 UNL     1       1.369  -0.784  -1.292  1.00  0.00     0.034 A 
HETATM   11  C18 UNL     1       1.114  -0.135  -0.069  1.00  0.00     0.032 A 
ENDROOT
BRANCH   6  12
HETATM   12  N3  UNL     1      -2.061  -1.538   0.617  1.00  0.00    -0.375 N 
ATOM     13  H3  UNL     1      -2.122  -1.006   1.485  1.00  0.00     0.161 HD
BRANCH  12  14
HETATM   14  C9  UNL     1      -3.171  -2.373   0.331  1.00  0.00     0.127 C 
BRANCH  14  15
HETATM   15  C10 UNL     1      -4.425  -1.559   0.054  1.00  0.00     0.021 C 
HETATM   16  C11 UNL     1      -4.242  -0.633  -1.131  1.00  0.00     0.013 C 
HETATM   17  C12 UNL     1      -5.551   0.134  -1.277  1.00  0.00     0.045 C 
HETATM   18  C13 UNL     1      -5.821   0.943  -0.056  1.00  0.00     0.057 C 
HETATM   19  N4  UNL     1      -5.166   0.532   1.123  1.00  0.00    -0.397 N 
HETATM   20  C14 UNL     1      -4.183   1.414   1.647  1.00  0.00     0.148 C 
HETATM   21  C15 UNL     1      -4.922  -0.851   1.280  1.00  0.00     0.127 C 
ENDBRANCH  14  15
ENDBRANCH  12  14
ENDBRANCH   6  12
BRANCH   1  22
HETATM   22  N1  UNL     1       3.066   1.190   0.214  1.00  0.00    -0.375 N 
ATOM     23  H1  UNL     1       3.440   1.852   0.894  1.00  0.00     0.161 HD
BRANCH  22  24
HETATM   24  C5  UNL     1       3.935   1.016  -0.829  1.00  0.00     0.121 C 
BRANCH  24  25
HETATM   25  C4  UNL     1       5.165   1.916  -0.642  1.00  0.00     0.020 C 
BRANCH  25  26
HETATM   26  C3  UNL     1       5.879   1.580   0.644  1.00  0.00     0.001 C 
BRANCH  26  27
HETATM   27  C2  UNL     1       6.351   0.143   0.657  1.00  0.00    -0.004 C 
HETATM   28  C1  UNL     1       7.296  -0.092  -0.481  1.00  0.00     0.005 C 
ENDBRANCH  26  27
ENDBRANCH  25  26
ENDBRANCH  24  25
ENDBRANCH  22  24
ENDBRANCH   1  22
TORSDOF 8
