REMARK  3 active torsions:
REMARK  status: ('A' for Active; 'I' for Inactive)
REMARK    1  A    between atoms: C2_2  and  N1_4 
REMARK    2  A    between atoms: C4_6  and  C6_9 
REMARK    3  A    between atoms: C6_9  and  C7_13 
ROOT
HETATM    1  N1  UNL     1       2.478  -0.821   1.218  1.00  0.00    -0.376 N 
ATOM      2  H1  UNL     1       2.350  -0.127   1.954  1.00  0.00     0.160 HD
HETATM    3  C4  UNL     1       1.414  -1.236   0.585  1.00  0.00     0.133 C 
HETATM    4  C5  UNL     1       1.674  -2.204  -0.429  1.00  0.00     0.119 C 
HETATM    5  N2  UNL     1       1.914  -3.003  -1.238  1.00  0.00    -0.190 NA
ENDROOT
BRANCH   3   6
HETATM    6  C6  UNL     1       0.114  -0.748   0.943  1.00  0.00     0.057 C 
HETATM    7  N3  UNL     1       0.059   0.091   1.920  1.00  0.00    -0.399 N 
ATOM      8  H32 UNL     1       0.908   0.364   2.414  1.00  0.00     0.156 HD
ATOM      9  H31 UNL     1      -0.866   0.438   2.175  1.00  0.00     0.156 HD
BRANCH   6  10
HETATM   10  C7  UNL     1      -1.106  -1.140   0.233  1.00  0.00     0.152 C 
HETATM   11  C8  UNL     1      -1.206  -0.637  -1.163  1.00  0.00    -0.002 C 
HETATM   12  N4  UNL     1      -1.169  -1.429  -2.137  1.00  0.00    -0.405 N 
HETATM   13  C9  UNL     1      -1.382   0.826  -1.419  1.00  0.00     0.062 C 
ATOM     14  H42 UNL     1      -1.049  -2.427  -1.962  1.00  0.00     0.155 HD
ATOM     15  H41 UNL     1      -1.238  -1.084  -3.094  1.00  0.00     0.155 HD
HETATM   16  C10 UNL     1      -2.566   1.351  -0.635  1.00  0.00    -0.036 C 
HETATM   17  C11 UNL     1      -2.119   2.585   0.110  1.00  0.00     0.015 C 
HETATM   18  C12 UNL     1      -3.658   1.840  -1.611  1.00  0.00     0.015 C 
HETATM   19  C13 UNL     1      -3.206   0.349   0.260  1.00  0.00     0.088 C 
HETATM   20  C14 UNL     1      -2.342  -0.630   0.919  1.00  0.00     0.143 C 
HETATM   21  O1  UNL     1      -2.668  -1.014   2.044  1.00  0.00    -0.297 OA
ENDBRANCH   6  10
ENDBRANCH   3   6
BRANCH   1  22
HETATM   22  C2  UNL     1       3.814  -1.271   0.953  1.00  0.00     0.074 C 
HETATM   23  C1  UNL     1       4.700  -0.704   2.049  1.00  0.00     0.031 C 
HETATM   24  C3  UNL     1       4.328  -0.810  -0.389  1.00  0.00     0.031 C 
ENDBRANCH   1  22
TORSDOF 3
