REMARK  4 active torsions:
REMARK  status: ('A' for Active; 'I' for Inactive)
REMARK    1  A    between atoms: C2_3  and  S1_4 
REMARK    2  A    between atoms: S1_4  and  C3_5 
REMARK    3  A    between atoms: C5_8  and  C6_9 
REMARK    4  A    between atoms: C10_13  and  N2_14 
ROOT
HETATM    1  N1  UNL     1       6.487   1.679  -0.990  1.00  0.00    -0.197 NA
HETATM    2  C1  UNL     1       6.350   0.606  -0.576  1.00  0.00     0.069 C 
HETATM    3  C2  UNL     1       6.175  -0.748  -0.033  1.00  0.00     0.204 C 
ENDROOT
BRANCH   3   4
HETATM    4  S1  UNL     1       4.639  -1.408  -0.662  1.00  0.00    -0.098 SA
BRANCH   4   5
HETATM    5  C3  UNL     1       3.254  -0.447   0.024  1.00  0.00     0.077 A 
HETATM    6  C4  UNL     1       3.438   0.605   0.883  1.00  0.00     0.088 A 
HETATM    7  S2  UNL     1       1.830   1.094   1.177  1.00  0.00    -0.085 SA
HETATM    8  C5  UNL     1       1.032  -0.055   0.202  1.00  0.00     0.055 A 
HETATM    9  N3  UNL     1       2.029  -0.752  -0.298  1.00  0.00    -0.348 N 
ATOM     10  H3  UNL     1       1.844  -1.527  -0.935  1.00  0.00     0.167 HD
BRANCH   8  11
HETATM   11  C6  UNL     1      -0.445  -0.213  -0.018  1.00  0.00     0.043 C 
HETATM   12  C7  UNL     1      -1.160  -0.513   1.253  1.00  0.00     0.011 C 
HETATM   13  C8  UNL     1      -2.436   0.244   1.454  1.00  0.00     0.003 C 
HETATM   14  C9  UNL     1      -3.542  -0.201   0.528  1.00  0.00     0.033 C 
HETATM   15  C10 UNL     1      -3.093  -0.387  -0.889  1.00  0.00     0.183 C 
HETATM   16  C11 UNL     1      -2.291   0.756  -1.420  1.00  0.00     0.033 C 
HETATM   17  C12 UNL     1      -1.009   1.008  -0.705  1.00  0.00     0.013 C 
BRANCH  15  18
HETATM   18  N2  UNL     1      -4.297  -0.493  -1.715  1.00  0.00    -0.075 N 
ATOM     19  H23 UNL     1      -4.935  -1.224  -1.399  1.00  0.00     0.274 HD
ATOM     20  H22 UNL     1      -4.932   0.296  -1.598  1.00  0.00     0.274 HD
ATOM     21  H21 UNL     1      -3.991  -0.620  -2.680  1.00  0.00     0.274 HD
ENDBRANCH  15  18
ENDBRANCH   8  11
ENDBRANCH   4   5
ENDBRANCH   3   4
TORSDOF 4
