REMARK  6 active torsions:
REMARK  status: ('A' for Active; 'I' for Inactive)
REMARK    1  A    between atoms: C3_3  and  N1_6 
REMARK    2  A    between atoms: N1_6  and  C6_8 
REMARK    3  A    between atoms: C6_8  and  C7_9 
REMARK    4  A    between atoms: C8_10  and  C9_11 
REMARK    5  A    between atoms: C12_14  and  O1_15 
REMARK    6  A    between atoms: N2_20  and  O2_22 
ROOT
HETATM    1  C1  UNL     1      -4.926  -1.526   0.183  1.00  0.00     0.099 C 
HETATM    2  C2  UNL     1      -4.352  -0.479  -0.077  1.00  0.00    -0.157 C 
HETATM    3  C3  UNL     1      -3.671   0.777  -0.415  1.00  0.00     0.076 C 
HETATM    4  C4  UNL     1      -2.837   0.567  -1.649  1.00  0.00     0.051 C 
HETATM    5  C5  UNL     1      -4.753   1.820  -0.706  1.00  0.00     0.051 C 
ENDROOT
BRANCH   3   6
HETATM    6  N1  UNL     1      -2.811   1.221   0.657  1.00  0.00    -0.356 N 
ATOM      7  H1  UNL     1      -2.996   2.136   1.069  1.00  0.00     0.162 HD
BRANCH   6   8
HETATM    8  C6  UNL     1      -1.732   0.472   1.171  1.00  0.00     0.122 C 
HETATM    9  N2  UNL     1      -1.855  -0.174   2.273  1.00  0.00    -0.253 N 
ATOM     10  H2  UNL     1      -1.066  -0.712   2.633  1.00  0.00     0.196 HD
BRANCH   8  11
HETATM   11  C7  UNL     1      -0.459   0.418   0.470  1.00  0.00     0.051 C 
HETATM   12  C8  UNL     1       0.546  -0.281   0.948  1.00  0.00     0.015 C 
BRANCH  12  13
HETATM   13  C9  UNL     1       1.831  -0.361   0.281  1.00  0.00    -0.035 A 
HETATM   14  C10 UNL     1       2.876  -1.104   0.803  1.00  0.00     0.014 A 
HETATM   15  C11 UNL     1       4.095  -1.179   0.169  1.00  0.00     0.039 A 
HETATM   16  C12 UNL     1       4.347  -0.526  -1.012  1.00  0.00     0.085 A 
HETATM   17  C14 UNL     1       3.325   0.219  -1.551  1.00  0.00     0.045 A 
HETATM   18 BR1  UNL     1       3.651   1.135  -3.190  1.00  0.00    -0.048 Br
HETATM   19  C15 UNL     1       2.085   0.292  -0.902  1.00  0.00     0.033 A 
BRANCH  16  20
HETATM   20  O1  UNL     1       5.563  -0.607  -1.635  1.00  0.00    -0.355 OA
HETATM   21  C13 UNL     1       6.664  -1.329  -1.179  1.00  0.00     0.210 C 
ENDBRANCH  16  20
ENDBRANCH  12  13
ENDBRANCH   8  11
BRANCH   9  22
HETATM   22  O2  UNL     1      -3.029  -0.150   2.969  1.00  0.00    -0.288 OA
ATOM     23  H2  UNL     1      -3.120  -0.628   3.785  1.00  0.00     0.244 HD
ENDBRANCH   9  22
ENDBRANCH   6   8
ENDBRANCH   3   6
TORSDOF 6
