REMARK  7 active torsions:
REMARK  status: ('A' for Active; 'I' for Inactive)
REMARK    1  A    between atoms: N1_1  and  S1_4 
REMARK    2  A    between atoms: S1_4  and  C1_7 
REMARK    3  A    between atoms: C4_10  and  C5_11 
REMARK    4  A    between atoms: C5_11  and  C6_12 
REMARK    5  A    between atoms: C6_12  and  N2_13 
REMARK       I    between atoms: N2_13  and  C7_15 
REMARK    6  A    between atoms: C7_15  and  C8_17 
REMARK    7  A    between atoms: C8_17  and  N3_18 
ROOT
HETATM    1  N2  UNL     1       1.326   2.266  -0.147  1.00  0.00    -0.359 N 
ATOM      2  H2  UNL     1       1.449   3.278  -0.123  1.00  0.00     0.162 HD
HETATM    3  C7  UNL     1       0.024   1.720  -0.099  1.00  0.00     0.236 C 
HETATM    4  O3  UNL     1      -0.205   0.497  -0.127  1.00  0.00    -0.272 OA
ENDROOT
BRANCH   3   5
HETATM    5  C8  UNL     1      -1.115   2.662  -0.012  1.00  0.00     0.247 C 
BRANCH   5   6
HETATM    6  N3  UNL     1      -2.364   1.921   0.026  1.00  0.00    -0.228 N 
HETATM    7  C9  UNL     1      -3.051   1.587  -1.168  1.00  0.00     0.268 A 
HETATM    8  O4  UNL     1      -2.490   1.980  -2.254  1.00  0.00    -0.266 OA
HETATM    9  C10 UNL     1      -4.306   0.852  -1.224  1.00  0.00     0.045 A 
HETATM   10  C11 UNL     1      -4.881   0.587  -2.462  1.00  0.00     0.018 A 
HETATM   11  C19 UNL     1      -4.981   0.390  -0.107  1.00  0.00     0.013 A 
HETATM   12  C12 UNL     1      -6.061  -0.096  -2.621  1.00  0.00     0.002 A 
HETATM   13  C13 UNL     1      -6.740  -0.561  -1.514  1.00  0.00     0.012 A 
HETATM   14  C14 UNL     1      -6.172  -0.300  -0.271  1.00  0.00    -0.023 A 
HETATM   15  C15 UNL     1      -6.915  -0.799   0.796  1.00  0.00     0.012 A 
HETATM   16  C16 UNL     1      -6.446  -0.597   2.064  1.00  0.00     0.002 A 
HETATM   17  C17 UNL     1      -5.273   0.080   2.269  1.00  0.00     0.026 A 
HETATM   18  C18 UNL     1      -4.532   0.578   1.191  1.00  0.00     0.092 A 
HETATM   19  S2  UNL     1      -3.047   1.426   1.526  1.00  0.00     0.268 S 
HETATM   20  O5  UNL     1      -3.395   2.663   2.306  1.00  0.00    -0.200 OA
HETATM   21  O6  UNL     1      -2.077   0.567   2.285  1.00  0.00    -0.200 OA
ENDBRANCH   5   6
ENDBRANCH   3   5
BRANCH   1  22
HETATM   22  C6  UNL     1       2.480   1.412  -0.229  1.00  0.00     0.127 C 
BRANCH  22  23
HETATM   23  C5  UNL     1       2.621   0.494   0.946  1.00  0.00     0.058 C 
BRANCH  23  24
HETATM   24  C4  UNL     1       3.806  -0.376   0.854  1.00  0.00    -0.057 A 
HETATM   25  C3  UNL     1       3.684  -1.604   0.242  1.00  0.00     0.009 A 
HETATM   26  C2  UNL     1       4.766  -2.467   0.124  1.00  0.00     0.026 A 
HETATM   27  C1  UNL     1       5.988  -2.097   0.627  1.00  0.00     0.079 A 
HETATM   28  C21 UNL     1       6.102  -0.870   1.237  1.00  0.00     0.026 A 
HETATM   29  C20 UNL     1       5.018   0.006   1.359  1.00  0.00     0.009 A 
BRANCH  27  30
HETATM   30  S1  UNL     1       7.361  -3.188   0.480  1.00  0.00     0.256 S 
HETATM   31  O1  UNL     1       6.848  -4.600   0.487  1.00  0.00    -0.201 OA
HETATM   32  O2  UNL     1       8.253  -2.968   1.662  1.00  0.00    -0.201 OA
BRANCH  30  33
HETATM   33  N1  UNL     1       8.201  -2.880  -0.994  1.00  0.00    -0.324 N 
ATOM     34  H12 UNL     1       8.323  -3.565  -1.740  1.00  0.00     0.169 HD
ATOM     35  H11 UNL     1       8.549  -1.921  -0.999  1.00  0.00     0.169 HD
ENDBRANCH  30  33
ENDBRANCH  27  30
ENDBRANCH  23  24
ENDBRANCH  22  23
ENDBRANCH   1  22
TORSDOF 7
