REMARK  6 active torsions:
REMARK  status: ('A' for Active; 'I' for Inactive)
REMARK    1  A    between atoms: C1_2  and  C2_4 
REMARK    2  A    between atoms: C5_8  and  N2_9 
REMARK       I    between atoms: N2_9  and  C6_11 
REMARK    3  A    between atoms: C6_11  and  C7_13 
REMARK    4  A    between atoms: C7_13  and  N3_14 
REMARK       I    between atoms: N3_14  and  C8_16 
REMARK    5  A    between atoms: C8_16  and  C9_18 
REMARK    6  A    between atoms: C10_22  and  C11_23 
ROOT
HETATM    1  N3  UNL     1      -0.410   1.432  -1.659  1.00  0.00    -0.347 N 
ATOM      2  H3  UNL     1      -0.005   1.488  -2.593  1.00  0.00     0.163 HD
HETATM    3  C8  UNL     1       0.326   0.857  -0.618  1.00  0.00     0.272 C 
HETATM    4  O3  UNL     1      -0.118   0.756   0.574  1.00  0.00    -0.266 OA
ENDROOT
BRANCH   1   5
HETATM    5  C7  UNL     1      -1.734   1.945  -1.424  1.00  0.00     0.226 C 
BRANCH   5   6
HETATM    6  C6  UNL     1      -2.699   0.938  -0.963  1.00  0.00     0.240 C 
HETATM    7  N2  UNL     1      -4.038   1.325  -0.680  1.00  0.00    -0.319 N 
ATOM      8  H2  UNL     1      -4.327   2.296  -0.800  1.00  0.00     0.169 HD
HETATM    9  O2  UNL     1      -2.378  -0.257  -0.811  1.00  0.00    -0.271 OA
BRANCH   7  10
HETATM   10  C5  UNL     1      -4.987   0.336  -0.222  1.00  0.00     0.091 A 
HETATM   11  C2  UNL     1      -6.299   0.422   0.119  1.00  0.00     0.063 A 
HETATM   12  C3  UNL     1      -6.911  -0.707   0.517  1.00  0.00     0.026 A 
HETATM   13  C4  UNL     1      -6.172  -1.854   0.550  1.00  0.00     0.053 A 
HETATM   14  S1  UNL     1      -4.642  -1.346   0.028  1.00  0.00    -0.083 SA
BRANCH  11  15
HETATM   15  C1  UNL     1      -7.025   1.722   0.054  1.00  0.00     0.267 C 
HETATM   16  N1  UNL     1      -8.414   1.803   0.419  1.00  0.00    -0.057 NA
HETATM   17  O1  UNL     1      -6.504   2.786  -0.305  1.00  0.00    -0.271 OA
ENDBRANCH  11  15
ENDBRANCH   7  10
ENDBRANCH   5   6
ENDBRANCH   1   5
BRANCH   3  18
HETATM   18  C9  UNL     1       1.682   0.317  -0.803  1.00  0.00     0.146 A 
HETATM   19  N4  UNL     1       2.394   0.320  -1.945  1.00  0.00    -0.254 N 
HETATM   20  O4  UNL     1       3.549  -0.231  -1.771  1.00  0.00    -0.240 OA
ATOM     21  H4  UNL     1       2.065   0.706  -2.830  1.00  0.00     0.195 HD
HETATM   22  C10 UNL     1       3.677  -0.632  -0.517  1.00  0.00     0.104 A 
HETATM   23  C16 UNL     1       2.513  -0.296   0.107  1.00  0.00     0.100 A 
HETATM   24 CL1  UNL     1       2.081  -0.567   1.776  1.00  0.00    -0.079 Cl
BRANCH  22  25
HETATM   25  C11 UNL     1       4.833  -1.307   0.103  1.00  0.00     0.047 C 
HETATM   26  C12 UNL     1       6.004  -1.444  -0.803  1.00  0.00     0.011 C 
HETATM   27  C13 UNL     1       7.140  -1.750   0.155  1.00  0.00     0.001 C 
HETATM   28  C14 UNL     1       6.722  -1.221   1.495  1.00  0.00     0.001 C 
HETATM   29  C15 UNL     1       5.396  -0.524   1.270  1.00  0.00     0.011 C 
ENDBRANCH  22  25
ENDBRANCH   3  18
TORSDOF 6
