REMARK  14 active torsions:
REMARK  status: ('A' for Active; 'I' for Inactive)
REMARK    1  A    between atoms: O1_2  and  C2_3 
REMARK    2  A    between atoms: C4_5  and  C5_6 
REMARK    3  A    between atoms: C6_7  and  C7_8 
REMARK    4  A    between atoms: C7_8  and  O2_9 
REMARK    5  A    between atoms: C9_12  and  O3_13 
REMARK    6  A    between atoms: O3_13  and  C10_14 
REMARK    7  A    between atoms: C11_16  and  C12_17 
REMARK    8  A    between atoms: C12_17  and  O5_18 
REMARK    9  A    between atoms: C13_20  and  O6_21 
REMARK   10  A    between atoms: C14_23  and  O7_24 
REMARK   11  A    between atoms: O7_24  and  C15_25 
REMARK   12  A    between atoms: C18_28  and  O8_29 
REMARK   13  A    between atoms: C19_31  and  O9_32 
REMARK   14  A    between atoms: C21_35  and  O10_36 
ROOT
HETATM    1  C10 UNL     1      -0.085  -0.887  -1.828  1.00  0.00     0.298 C 
HETATM    2  O4  UNL     1       0.049  -1.521  -3.063  1.00  0.00    -0.348 OA
HETATM    3  C11 UNL     1      -1.180  -1.918  -3.510  1.00  0.00     0.179 C 
HETATM    4  C13 UNL     1      -2.049  -0.733  -3.059  1.00  0.00     0.183 C 
HETATM    5  C14 UNL     1      -1.593  -0.656  -1.620  1.00  0.00     0.208 C 
ENDROOT
BRANCH   1   6
HETATM    6  O3  UNL     1       0.475  -1.588  -0.787  1.00  0.00    -0.315 OA
BRANCH   6   7
HETATM    7  C9  UNL     1       1.534  -1.168  -0.041  1.00  0.00     0.109 A 
HETATM    8  C8  UNL     1       2.248  -0.002  -0.176  1.00  0.00     0.051 A 
HETATM    9  C4  UNL     1       3.316   0.370   0.614  1.00  0.00    -0.031 A 
HETATM   10  C3  UNL     1       3.677  -0.534   1.624  1.00  0.00     0.051 A 
HETATM   11  C2  UNL     1       3.020  -1.706   1.820  1.00  0.00     0.105 A 
HETATM   12  C21 UNL     1       1.972  -2.014   1.004  1.00  0.00     0.135 A 
BRANCH   9  13
HETATM   13  C5  UNL     1       4.058   1.607   0.455  1.00  0.00     0.009 C 
HETATM   14  C6  UNL     1       3.762   2.482  -0.473  1.00  0.00    -0.000 C 
BRANCH  14  15
HETATM   15  C7  UNL     1       4.563   3.757  -0.598  1.00  0.00     0.191 C 
BRANCH  15  16
HETATM   16  O2  UNL     1       5.561   3.789   0.370  1.00  0.00    -0.397 OA
ATOM     17  H2  UNL     1       6.065   4.591   0.291  1.00  0.00     0.209 HD
ENDBRANCH  15  16
ENDBRANCH  14  15
ENDBRANCH   9  13
BRANCH  11  18
HETATM   18  O1  UNL     1       3.407  -2.587   2.839  1.00  0.00    -0.353 OA
HETATM   19  C1  UNL     1       4.479  -2.315   3.698  1.00  0.00     0.210 C 
ENDBRANCH  11  18
BRANCH  12  20
HETATM   20  O10 UNL     1       1.306  -3.200   1.200  1.00  0.00    -0.351 OA
HETATM   21  C22 UNL     1       0.193  -3.241   2.078  1.00  0.00     0.210 C 
ENDBRANCH  12  20
ENDBRANCH   6   7
ENDBRANCH   1   6
BRANCH   5  22
HETATM   22  O7  UNL     1      -1.756   0.566  -1.051  1.00  0.00    -0.373 OA
BRANCH  22  23
HETATM   23  C15 UNL     1      -2.347   0.575   0.192  1.00  0.00     0.124 C 
HETATM   24  C16 UNL     1      -1.605   1.295   1.259  1.00  0.00     0.034 C 
HETATM   25  C17 UNL     1      -2.286   1.005   2.588  1.00  0.00     0.036 C 
HETATM   26  C18 UNL     1      -3.765   1.276   2.530  1.00  0.00     0.147 C 
HETATM   27  C19 UNL     1      -4.216   1.902   1.252  1.00  0.00     0.149 C 
HETATM   28  C20 UNL     1      -3.709   1.258   0.012  1.00  0.00     0.066 C 
BRANCH  26  29
HETATM   29  O8  UNL     1      -4.058   2.186   3.571  1.00  0.00    -0.393 OA
ATOM     30  H8  UNL     1      -4.992   2.357   3.534  1.00  0.00     0.210 HD
ENDBRANCH  26  29
BRANCH  27  31
HETATM   31  O9  UNL     1      -3.988   3.299   1.248  1.00  0.00    -0.393 OA
ATOM     32  H9  UNL     1      -4.275   3.697   0.435  1.00  0.00     0.210 HD
ENDBRANCH  27  31
ENDBRANCH  22  23
ENDBRANCH   5  22
BRANCH   3  33
HETATM   33  C12 UNL     1      -1.253  -2.095  -5.001  1.00  0.00     0.198 C 
BRANCH  33  34
HETATM   34  O5  UNL     1      -2.560  -2.506  -5.308  1.00  0.00    -0.398 OA
ATOM     35  H5  UNL     1      -2.606  -2.618  -6.250  1.00  0.00     0.209 HD
ENDBRANCH  33  34
ENDBRANCH   3  33
BRANCH   4  36
HETATM   36  O6  UNL     1      -3.395  -1.030  -3.187  1.00  0.00    -0.390 OA
ATOM     37  H6  UNL     1      -3.932  -0.298  -2.908  1.00  0.00     0.210 HD
ENDBRANCH   4  36
TORSDOF 14
