REMARK  6 active torsions:
REMARK  status: ('A' for Active; 'I' for Inactive)
REMARK    1  A    between atoms: C2_3  and  N1_4 
REMARK    2  A    between atoms: C6_8  and  N2_9 
REMARK    3  A    between atoms: N2_9  and  C7_11 
REMARK    4  A    between atoms: C7_11  and  C8_12 
REMARK    5  A    between atoms: C17_28  and  N6_29 
REMARK    6  A    between atoms: N6_29  and  C18_31 
ROOT
HETATM    1 CL1  UNL     1       3.362  -1.178  -2.024  1.00  0.00    -0.076 Cl
HETATM    2  C1  UNL     1       3.732   0.004  -0.792  1.00  0.00     0.121 A 
HETATM    3  C2  UNL     1       2.758   0.796  -0.254  1.00  0.00     0.130 A 
HETATM    4  N4  UNL     1       3.230   1.700   0.684  1.00  0.00    -0.337 N 
ATOM      5  H4  UNL     1       2.553   2.323   1.125  1.00  0.00     0.168 HD
HETATM    6  C16 UNL     1       4.498   1.811   1.048  1.00  0.00     0.183 A 
HETATM    7  N5  UNL     1       5.449   1.022   0.510  1.00  0.00    -0.337 N 
ATOM      8  H5  UNL     1       6.427   1.104   0.788  1.00  0.00     0.168 HD
HETATM    9  C17 UNL     1       5.055   0.123  -0.408  1.00  0.00     0.132 A 
ENDROOT
BRANCH   3  10
HETATM   10  N1  UNL     1       1.375   0.762  -0.510  1.00  0.00    -0.364 N 
HETATM   11  C3  UNL     1       0.601   1.942  -0.017  1.00  0.00     0.124 C 
HETATM   12  C4  UNL     1      -0.215   1.421   1.155  1.00  0.00     0.022 C 
HETATM   13  C5  UNL     1      -0.158  -0.098   1.253  1.00  0.00     0.028 C 
HETATM   14  C6  UNL     1      -0.508  -0.715  -0.097  1.00  0.00     0.094 C 
HETATM   15  C15 UNL     1       0.548  -0.224  -1.122  1.00  0.00     0.149 C 
BRANCH  14  16
HETATM   16  N2  UNL     1      -1.835  -0.470  -0.520  1.00  0.00    -0.413 N 
ATOM     17  H2  UNL     1      -2.045   0.088  -1.347  1.00  0.00     0.153 HD
BRANCH  16  18
HETATM   18  C7  UNL     1      -2.855  -1.048   0.276  1.00  0.00     0.153 C 
BRANCH  18  19
HETATM   19  C8  UNL     1      -4.258  -0.686  -0.052  1.00  0.00     0.141 C 
HETATM   20  C9  UNL     1      -4.507   0.821   0.083  1.00  0.00     0.041 C 
HETATM   21  C10 UNL     1      -5.992   0.992   0.412  1.00  0.00     0.009 C 
HETATM   22  C11 UNL     1      -6.718  -0.116  -0.370  1.00  0.00     0.011 C 
HETATM   23  C12 UNL     1      -6.608  -1.369   0.501  1.00  0.00     0.009 C 
HETATM   24  C14 UNL     1      -5.955  -0.395  -1.654  1.00  0.00     0.238 C 
HETATM   25  C13 UNL     1      -5.154  -1.440   0.937  1.00  0.00     0.041 C 
HETATM   26  N3  UNL     1      -4.670  -1.032  -1.387  1.00  0.00    -0.064 N 
ATOM     27  H32 UNL     1      -3.965  -0.800  -2.087  1.00  0.00     0.278 HD
ATOM     28  H31 UNL     1      -4.693  -2.040  -1.541  1.00  0.00     0.278 HD
ENDBRANCH  18  19
ENDBRANCH  16  18
ENDBRANCH  14  16
ENDBRANCH   3  10
BRANCH   9  29
HETATM   29  N6  UNL     1       5.957  -0.659  -0.938  1.00  0.00    -0.339 N 
ATOM     30  H6  UNL     1       5.667  -1.349  -1.632  1.00  0.00     0.167 HD
BRANCH  29  31
HETATM   31  C18 UNL     1       7.337  -0.578  -0.576  1.00  0.00     0.064 A 
HETATM   32  C19 UNL     1       7.862  -1.487   0.358  1.00  0.00     0.119 A 
HETATM   33  N7  UNL     1       9.155  -1.394   0.692  1.00  0.00    -0.360 N 
HETATM   34  C20 UNL     1       9.996  -0.474   0.185  1.00  0.00     0.180 A 
ATOM     35  H7  UNL     1       9.524  -2.060   1.371  1.00  0.00     0.166 HD
HETATM   36  N8  UNL     1       9.484   0.388  -0.706  1.00  0.00    -0.360 N 
HETATM   37  C21 UNL     1       8.202   0.357  -1.089  1.00  0.00     0.119 A 
ATOM     38  H8  UNL     1      10.097   1.097  -1.108  1.00  0.00     0.166 HD
ENDBRANCH  29  31
ENDBRANCH   9  29
TORSDOF 6
