REMARK  7 active torsions:
REMARK  status: ('A' for Active; 'I' for Inactive)
REMARK       I    between atoms: N1_5  and  C5_6 
REMARK    1  A    between atoms: C5_6  and  O2_8 
REMARK    2  A    between atoms: O2_8  and  C6_9 
REMARK    3  A    between atoms: C6_9  and  N2_11 
REMARK    4  A    between atoms: N2_11  and  C7_13 
REMARK    5  A    between atoms: C9_18  and  S2_19 
REMARK    6  A    between atoms: S2_19  and  C10_20 
REMARK    7  A    between atoms: C10_20  and  C11_21 
ROOT
HETATM    1  C7  UNL     1       0.023   0.416   0.234  1.00  0.00     0.145 A 
HETATM    2  C8  UNL     1      -0.623   0.081  -0.931  1.00  0.00     0.150 A 
HETATM    3  N3  UNL     1       0.132  -0.356  -2.035  1.00  0.00    -0.080 NA
HETATM    4  N4  UNL     1      -1.988   0.194  -0.952  1.00  0.00    -0.323 N 
ATOM      5  H4  UNL     1      -2.488  -0.049  -1.807  1.00  0.00     0.169 HD
HETATM    6  C9  UNL     1      -2.680   0.606   0.094  1.00  0.00     0.148 A 
HETATM    7  N5  UNL     1      -2.046   0.932   1.229  1.00  0.00    -0.302 N 
ATOM      8  H5  UNL     1      -2.586   1.250   2.033  1.00  0.00     0.171 HD
HETATM    9  C17 UNL     1      -0.690   0.844   1.323  1.00  0.00     0.277 A 
HETATM   10  O3  UNL     1      -0.119   1.153   2.391  1.00  0.00    -0.266 OA
ENDROOT
BRANCH   1  11
HETATM   11  N2  UNL     1       1.428   0.322   0.322  1.00  0.00    -0.320 N 
ATOM     12  H2  UNL     1       1.981   1.140   0.066  1.00  0.00     0.169 HD
BRANCH  11  13
HETATM   13  C6  UNL     1       2.112  -0.838   0.743  1.00  0.00     0.224 C 
HETATM   14  S1  UNL     1       1.268  -2.156   1.157  1.00  0.00    -0.032 SA
BRANCH  13  15
HETATM   15  O2  UNL     1       3.483  -0.854   0.803  1.00  0.00    -0.233 OA
BRANCH  15  16
HETATM   16  C5  UNL     1       4.311  -1.223  -0.223  1.00  0.00     0.369 C 
HETATM   17  N1  UNL     1       5.721  -1.207  -0.067  1.00  0.00    -0.328 N 
HETATM   18  C4  UNL     1       6.639  -1.588  -1.120  1.00  0.00     0.128 C 
HETATM   19  C18 UNL     1       6.279  -0.792   1.202  1.00  0.00     0.128 C 
HETATM   20  C3  UNL     1       7.830  -0.655  -1.059  1.00  0.00     0.024 C 
HETATM   21  C2  UNL     1       7.358   0.661  -0.513  1.00  0.00    -0.015 C 
HETATM   22  C1  UNL     1       8.444   1.726  -0.607  1.00  0.00     0.010 C 
HETATM   23  C19 UNL     1       7.035   0.488   0.964  1.00  0.00     0.024 C 
HETATM   24  O1  UNL     1       3.754  -1.574  -1.302  1.00  0.00    -0.238 OA
ENDBRANCH  15  16
ENDBRANCH  13  15
ENDBRANCH  11  13
ENDBRANCH   1  11
BRANCH   6  25
HETATM   25  S2  UNL     1      -4.448   0.737   0.022  1.00  0.00    -0.093 SA
BRANCH  25  26
HETATM   26  C10 UNL     1      -5.157  -0.827   0.538  1.00  0.00     0.087 C 
BRANCH  26  27
HETATM   27  C11 UNL     1      -6.667  -0.854   0.524  1.00  0.00    -0.005 C 
HETATM   28  C12 UNL     1      -7.280   0.165   1.421  1.00  0.00     0.005 C 
HETATM   29  C13 UNL     1      -8.328   1.008   0.743  1.00  0.00     0.000 C 
HETATM   30  C14 UNL     1      -7.844   1.566  -0.575  1.00  0.00     0.000 C 
HETATM   31  C15 UNL     1      -7.281   0.529  -1.490  1.00  0.00     0.000 C 
HETATM   32  C16 UNL     1      -7.159  -0.826  -0.886  1.00  0.00     0.005 C 
ENDBRANCH  26  27
ENDBRANCH  25  26
ENDBRANCH   6  25
TORSDOF 7
