REMARK  6 active torsions:
REMARK  status: ('A' for Active; 'I' for Inactive)
REMARK    1  A    between atoms: C2_2  and  O1_4 
REMARK    2  A    between atoms: C2_2  and  C4_6 
REMARK    3  A    between atoms: C6_10  and  C7_11 
REMARK    4  A    between atoms: N2_17  and  C12_18 
REMARK    5  A    between atoms: C12_18  and  O2_19 
REMARK    6  A    between atoms: N3_21  and  O3_23 
ROOT
HETATM    1  C7  UNL     1      -1.177  -0.327   0.698  1.00  0.00     0.053 C 
HETATM    2  C8  UNL     1      -1.124  -1.676  -0.022  1.00  0.00     0.097 C 
HETATM    3  C9  UNL     1      -2.359  -2.077  -0.710  1.00  0.00     0.177 C 
HETATM    4  F1  UNL     1      -2.347  -3.486  -0.745  1.00  0.00    -0.249 F 
HETATM    5  C10 UNL     1      -3.512  -1.714   0.202  1.00  0.00     0.058 C 
HETATM    6  C11 UNL     1      -3.600  -0.235   0.212  1.00  0.00     0.135 C 
HETATM    7  N2  UNL     1      -2.280   0.467   0.381  1.00  0.00    -0.313 N 
ENDROOT
BRANCH   1   8
HETATM    8  C6  UNL     1       0.184   0.228   0.726  1.00  0.00     0.116 A 
HETATM    9  C5  UNL     1       0.679   1.418   1.179  1.00  0.00     0.129 A 
HETATM   10  N1  UNL     1       2.035   1.374   0.971  1.00  0.00    -0.345 N 
HETATM   11  C4  UNL     1       2.338   0.206   0.420  1.00  0.00     0.158 A 
ATOM     12  H1  UNL     1       2.698   2.114   1.201  1.00  0.00     0.167 HD
HETATM   13  O4  UNL     1       1.244  -0.453   0.286  1.00  0.00    -0.291 OA
BRANCH  11  14
HETATM   14  C2  UNL     1       3.758  -0.164   0.067  1.00  0.00     0.115 C 
HETATM   15  C1  UNL     1       3.856  -1.380  -0.792  1.00  0.00     0.054 C 
HETATM   16  C3  UNL     1       4.546   0.977  -0.432  1.00  0.00     0.054 C 
BRANCH  14  17
HETATM   17  O1  UNL     1       4.388  -0.572   1.297  1.00  0.00    -0.382 OA
ATOM     18  H1  UNL     1       4.326   0.202   1.844  1.00  0.00     0.211 HD
ENDBRANCH  14  17
ENDBRANCH  11  14
ENDBRANCH   1   8
BRANCH   7  19
HETATM   19  C12 UNL     1      -2.470   1.837   0.234  1.00  0.00     0.243 C 
HETATM   20  N3  UNL     1      -2.618   2.370  -0.935  1.00  0.00    -0.232 N 
ATOM     21  H3  UNL     1      -2.587   1.779  -1.766  1.00  0.00     0.198 HD
BRANCH  19  22
HETATM   22  O2  UNL     1      -2.519   2.640   1.343  1.00  0.00    -0.331 OA
ATOM     23  H2  UNL     1      -2.649   3.576   1.243  1.00  0.00     0.221 HD
ENDBRANCH  19  22
BRANCH  20  24
HETATM   24  O3  UNL     1      -2.819   3.742  -1.073  1.00  0.00    -0.287 OA
ATOM     25  H3  UNL     1      -2.928   4.134  -1.932  1.00  0.00     0.244 HD
ENDBRANCH  20  24
ENDBRANCH   7  19
TORSDOF 6
