REMARK  7 active torsions:
REMARK  status: ('A' for Active; 'I' for Inactive)
REMARK    1  A    between atoms: C2_2  and  O1_4 
REMARK    2  A    between atoms: O1_4  and  C4_5 
REMARK    3  A    between atoms: C4_5  and  C5_7 
REMARK    4  A    between atoms: N3_12  and  C6_13 
REMARK    5  A    between atoms: C6_13  and  N4_15 
REMARK    6  A    between atoms: N4_15  and  C7_17 
REMARK    7  A    between atoms: C11_21  and  N5_22 
ROOT
HETATM    1  C5  UNL     1       1.538   0.346  -0.030  1.00  0.00     0.170 A 
HETATM    2  N1  UNL     1       1.271   1.368   0.837  1.00  0.00    -0.277 N 
ATOM      3  H1  UNL     1       1.974   1.886   1.364  1.00  0.00     0.189 HD
HETATM    4  N2  UNL     1      -0.029   1.586   0.893  1.00  0.00    -0.231 N 
ATOM      5  H2  UNL     1      -0.484   2.296   1.467  1.00  0.00     0.209 HD
HETATM    6  N3  UNL     1      -0.644   0.748   0.095  1.00  0.00    -0.197 N 
HETATM    7  C11 UNL     1       0.302  -0.039  -0.495  1.00  0.00     0.159 A 
ENDROOT
BRANCH   6   8
HETATM    8  C6  UNL     1      -2.033   0.640  -0.143  1.00  0.00     0.197 C 
HETATM    9  S1  UNL     1      -2.747   1.529  -1.300  1.00  0.00    -0.039 SA
BRANCH   8  10
HETATM   10  N4  UNL     1      -2.810  -0.243   0.628  1.00  0.00    -0.357 N 
ATOM     11  H4  UNL     1      -2.361  -0.800   1.355  1.00  0.00     0.162 HD
BRANCH  10  12
HETATM   12  C7  UNL     1      -4.237  -0.377   0.409  1.00  0.00     0.021 C 
HETATM   13  C8  UNL     1      -4.456  -0.849  -1.003  1.00  0.00     0.037 C 
HETATM   14  C9  UNL     1      -4.928   0.945   0.604  1.00  0.00     0.037 C 
HETATM   15  C10 UNL     1      -4.784  -1.368   1.422  1.00  0.00     0.037 C 
ENDBRANCH  10  12
ENDBRANCH   8  10
ENDBRANCH   6   8
BRANCH   7  16
HETATM   16  N5  UNL     1       0.049  -0.967  -1.334  1.00  0.00    -0.382 N 
ATOM     17  H52 UNL     1       0.756  -1.555  -1.775  1.00  0.00     0.157 HD
ATOM     18  H51 UNL     1      -0.868  -1.252  -1.679  1.00  0.00     0.157 HD
ENDBRANCH   7  16
BRANCH   1  19
HETATM   19  C4  UNL     1       2.858  -0.171  -0.345  1.00  0.00     0.315 C 
HETATM   20  O2  UNL     1       3.024  -1.101  -1.143  1.00  0.00    -0.257 OA
BRANCH  19  21
HETATM   21  O1  UNL     1       3.972   0.391   0.262  1.00  0.00    -0.312 OA
BRANCH  21  22
HETATM   22  C2  UNL     1       5.242  -0.134  -0.066  1.00  0.00     0.124 C 
HETATM   23  C1  UNL     1       6.059   1.044  -0.607  1.00  0.00     0.040 C 
HETATM   24  C3  UNL     1       5.899  -0.542   1.236  1.00  0.00     0.040 C 
ENDBRANCH  21  22
ENDBRANCH  19  21
ENDBRANCH   1  19
TORSDOF 7
