REMARK  11 active torsions:
REMARK  status: ('A' for Active; 'I' for Inactive)
REMARK    1  A    between atoms: O1_2  and  C2_3 
REMARK    2  A    between atoms: C5_6  and  N1_7 
REMARK    3  A    between atoms: N1_7  and  C6_9 
REMARK    4  A    between atoms: C9_14  and  N3_15 
REMARK    5  A    between atoms: N3_15  and  C10_17 
REMARK    6  A    between atoms: C10_17  and  C11_18 
REMARK    7  A    between atoms: C11_18  and  N4_19 
REMARK    8  A    between atoms: N4_19  and  C12_21 
REMARK    9  A    between atoms: C12_21  and  C13_22 
REMARK   10  A    between atoms: C13_22  and  N5_23 
REMARK   11  A    between atoms: N5_23  and  C14_25 
ROOT
HETATM    1  C6  UNL     1      -3.045  -0.222  -0.002  1.00  0.00     0.050 A 
HETATM    2  C7  UNL     1      -3.087  -1.588  -0.136  1.00  0.00     0.117 A 
HETATM    3  N2  UNL     1      -2.090  -2.400   0.274  1.00  0.00    -0.371 N 
ATOM      4  H2  UNL     1      -2.192  -3.406   0.142  1.00  0.00     0.164 HD
HETATM    5  C8  UNL     1      -0.976  -1.938   0.846  1.00  0.00     0.116 A 
HETATM    6  C9  UNL     1      -0.877  -0.549   1.008  1.00  0.00     0.046 A 
HETATM    7  C20 UNL     1      -1.885   0.293   0.596  1.00  0.00     0.061 A 
ENDROOT
BRANCH   6   8
HETATM    8  N3  UNL     1       0.288  -0.070   1.631  1.00  0.00    -0.384 N 
ATOM      9  H3  UNL     1       0.894  -0.744   2.099  1.00  0.00     0.160 HD
BRANCH   8  10
HETATM   10  C10 UNL     1       0.672   1.304   1.647  1.00  0.00     0.164 C 
BRANCH  10  11
HETATM   11  C11 UNL     1       1.085   1.879   0.331  1.00  0.00     0.079 C 
BRANCH  11  12
HETATM   12  N4  UNL     1       2.132   1.304  -0.379  1.00  0.00    -0.379 N 
ATOM     13  H4  UNL     1       1.909   0.831  -1.255  1.00  0.00     0.164 HD
BRANCH  12  14
HETATM   14  C12 UNL     1       3.467   1.329   0.024  1.00  0.00     0.079 C 
BRANCH  14  15
HETATM   15  C13 UNL     1       3.892   0.502   1.186  1.00  0.00     0.164 C 
BRANCH  15  16
HETATM   16  N5  UNL     1       5.332   0.681   1.390  1.00  0.00    -0.385 N 
ATOM     17  H5  UNL     1       5.645   1.196   2.213  1.00  0.00     0.160 HD
BRANCH  16  18
HETATM   18  C14 UNL     1       6.309   0.174   0.501  1.00  0.00     0.028 A 
HETATM   19  C15 UNL     1       6.051  -0.706  -0.524  1.00  0.00     0.031 A 
HETATM   20  C16 UNL     1       7.027  -1.172  -1.377  1.00  0.00     0.029 A 
HETATM   21  C17 UNL     1       8.331  -0.754  -1.218  1.00  0.00     0.046 A 
HETATM   22  N6  UNL     1       9.384  -1.199  -2.063  1.00  0.00    -0.102 NA
HETATM   23  C18 UNL     1       8.590   0.120  -0.199  1.00  0.00     0.029 A 
HETATM   24  C19 UNL     1       7.636   0.603   0.669  1.00  0.00     0.031 A 
ENDBRANCH  16  18
ENDBRANCH  15  16
ENDBRANCH  14  15
ENDBRANCH  12  14
ENDBRANCH  11  12
ENDBRANCH  10  11
ENDBRANCH   8  10
ENDBRANCH   6   8
BRANCH   1  25
HETATM   25  N1  UNL     1      -4.074   0.670  -0.383  1.00  0.00    -0.355 N 
ATOM     26  H1  UNL     1      -3.794   1.622  -0.619  1.00  0.00     0.166 HD
BRANCH  25  27
HETATM   27  C5  UNL     1      -5.456   0.370  -0.469  1.00  0.00     0.032 A 
HETATM   28  C4  UNL     1      -6.067  -0.646   0.226  1.00  0.00     0.032 A 
HETATM   29  C3  UNL     1      -7.436  -0.906   0.073  1.00  0.00     0.039 A 
HETATM   30  C2  UNL     1      -8.229  -0.163  -0.773  1.00  0.00     0.068 A 
HETATM   31  C22 UNL     1      -7.625   0.856  -1.473  1.00  0.00     0.039 A 
HETATM   32  C21 UNL     1      -6.280   1.114  -1.324  1.00  0.00     0.032 A 
BRANCH  30  33
HETATM   33  O1  UNL     1      -9.591  -0.422  -0.927  1.00  0.00    -0.356 OA
HETATM   34  C1  UNL     1     -10.236  -1.466  -0.219  1.00  0.00     0.210 C 
ENDBRANCH  30  33
ENDBRANCH  25  27
ENDBRANCH   1  25
TORSDOF 11
