REMARK  13 active torsions:
REMARK  status: ('A' for Active; 'I' for Inactive)
REMARK    1  A    between atoms: O1_2  and  C2_3 
REMARK    2  A    between atoms: C4_5  and  O2_6 
REMARK    3  A    between atoms: O2_6  and  C5_7 
REMARK    4  A    between atoms: C7_9  and  C8_10 
REMARK    5  A    between atoms: C13_15  and  O3_16 
REMARK    6  A    between atoms: C15_18  and  O4_19 
REMARK    7  A    between atoms: O4_19  and  C16_20 
REMARK    8  A    between atoms: C16_20  and  C17_21 
REMARK    9  A    between atoms: C17_21  and  C18_22 
REMARK   10  A    between atoms: C17_21  and  N1_27 
REMARK   11  A    between atoms: C18_22  and  C19_23 
REMARK   12  A    between atoms: N2_30  and  S1_31 
REMARK   13  A    between atoms: S1_31  and  C25_34 
ROOT
HETATM    1  C17 UNL     1       0.839  -1.799  -2.401  1.00  0.00     0.112 C 
ENDROOT
BRANCH   1   2
HETATM    2  C16 UNL     1      -0.105  -2.456  -1.387  1.00  0.00     0.201 C 
BRANCH   2   3
HETATM    3  O4  UNL     1      -0.958  -1.529  -0.782  1.00  0.00    -0.346 OA
BRANCH   3   4
HETATM    4  C15 UNL     1      -1.872  -2.038   0.161  1.00  0.00     0.103 A 
HETATM    5  C4  UNL     1      -2.746  -1.157   0.811  1.00  0.00     0.112 A 
HETATM    6  C3  UNL     1      -3.629  -1.660   1.725  1.00  0.00     0.077 A 
HETATM    7  C2  UNL     1      -3.656  -3.012   2.001  1.00  0.00     0.076 A 
HETATM    8  C32 UNL     1      -2.815  -3.910   1.385  1.00  0.00    -0.026 A 
HETATM    9  C31 UNL     1      -1.932  -3.382   0.466  1.00  0.00     0.049 A 
HETATM   10  C33 UNL     1      -2.824  -5.368   1.663  1.00  0.00     0.051 C 
BRANCH   5  11
HETATM   11  O2  UNL     1      -2.643   0.167   0.467  1.00  0.00    -0.305 OA
BRANCH  11  12
HETATM   12  C5  UNL     1      -3.411   1.210   0.925  1.00  0.00     0.110 A 
HETATM   13  C6  UNL     1      -2.835   2.245   1.666  1.00  0.00     0.047 A 
HETATM   14  C7  UNL     1      -3.596   3.291   2.126  1.00  0.00    -0.052 A 
HETATM   15  C11 UNL     1      -4.956   3.333   1.860  1.00  0.00     0.010 A 
HETATM   16  C12 UNL     1      -5.528   2.313   1.128  1.00  0.00     0.040 A 
HETATM   17  C13 UNL     1      -4.758   1.249   0.658  1.00  0.00     0.102 A 
BRANCH  14  18
HETATM   18  C8  UNL     1      -2.996   4.395   2.910  1.00  0.00     0.010 C 
HETATM   19  C9  UNL     1      -2.182   3.937   4.079  1.00  0.00     0.015 C 
HETATM   20  C10 UNL     1      -2.134   5.179   1.911  1.00  0.00     0.015 C 
ENDBRANCH  14  18
BRANCH  17  21
HETATM   21  O3  UNL     1      -5.325   0.224  -0.079  1.00  0.00    -0.353 OA
HETATM   22  C14 UNL     1      -6.713   0.280  -0.344  1.00  0.00     0.210 C 
ENDBRANCH  17  21
ENDBRANCH  11  12
ENDBRANCH   5  11
BRANCH   7  23
HETATM   23  O1  UNL     1      -4.555  -3.562   2.937  1.00  0.00    -0.355 OA
HETATM   24  C1  UNL     1      -5.460  -2.725   3.632  1.00  0.00     0.210 C 
ENDBRANCH   7  23
ENDBRANCH   3   4
ENDBRANCH   2   3
ENDBRANCH   1   2
BRANCH   1  25
HETATM   25  C18 UNL     1       1.637  -2.928  -2.967  1.00  0.00     0.036 C 
BRANCH  25  26
HETATM   26  C19 UNL     1       2.617  -2.668  -4.029  1.00  0.00    -0.050 C 
HETATM   27  C20 UNL     1       3.228  -4.060  -4.379  1.00  0.00     0.014 C 
HETATM   28  C21 UNL     1       3.781  -1.796  -3.775  1.00  0.00     0.014 C 
HETATM   29  C22 UNL     1       1.949  -2.240  -5.339  1.00  0.00     0.014 C 
ENDBRANCH  25  26
ENDBRANCH   1  25
BRANCH   1  30
HETATM   30  N1  UNL     1       1.626  -0.797  -1.667  1.00  0.00    -0.339 N 
HETATM   31  C23 UNL     1       2.380  -1.213  -0.504  1.00  0.00     0.147 C 
HETATM   32  C24 UNL     1       2.874   0.069   0.190  1.00  0.00     0.161 C 
HETATM   33  N2  UNL     1       3.540   0.838  -0.783  1.00  0.00    -0.274 N 
HETATM   34  C29 UNL     1       2.793   1.413  -1.826  1.00  0.00     0.177 C 
HETATM   35  C30 UNL     1       1.593   0.577  -2.065  1.00  0.00     0.260 C 
HETATM   36  O8  UNL     1       0.554   1.026  -2.601  1.00  0.00    -0.267 OA
BRANCH  33  37
HETATM   37  S1  UNL     1       5.160   1.176  -0.620  1.00  0.00     0.282 S 
HETATM   38  O5  UNL     1       5.929  -0.143  -0.609  1.00  0.00    -0.198 OA
HETATM   39  O6  UNL     1       5.633   1.860  -1.899  1.00  0.00    -0.198 OA
BRANCH  37  40
HETATM   40  C25 UNL     1       5.630   2.091   0.777  1.00  0.00     0.176 A 
HETATM   41  N3  UNL     1       6.459   1.730   1.769  1.00  0.00    -0.296 N 
HETATM   42  C26 UNL     1       6.571   2.712   2.674  1.00  0.00     0.325 A 
ATOM     43  H3  UNL     1       6.938   0.831   1.826  1.00  0.00     0.171 HD
HETATM   44  O7  UNL     1       7.248   2.760   3.739  1.00  0.00    -0.247 OA
HETATM   45  N4  UNL     1       5.797   3.722   2.248  1.00  0.00    -0.310 N 
HETATM   46  C27 UNL     1       5.214   3.361   1.091  1.00  0.00     0.050 A 
ATOM     47  H4  UNL     1       5.672   4.616   2.723  1.00  0.00     0.170 HD
HETATM   48  C28 UNL     1       4.293   4.275   0.364  1.00  0.00     0.071 C 
ENDBRANCH  37  40
ENDBRANCH  33  37
ENDBRANCH   1  30
TORSDOF 13
