REMARK  18 active torsions:
REMARK  status: ('A' for Active; 'I' for Inactive)
REMARK    1  A    between atoms: O1_1  and  C1_3 
REMARK    2  A    between atoms: C1_3  and  C2_4 
REMARK    3  A    between atoms: C1_3  and  N1_17 
REMARK    4  A    between atoms: C2_4  and  C3_5 
REMARK    5  A    between atoms: C7_9  and  C8_10 
REMARK    6  A    between atoms: N1_17  and  C15_18 
REMARK    7  A    between atoms: C16_23  and  C17_24 
REMARK    8  A    between atoms: C17_24  and  C18_25 
REMARK    9  A    between atoms: C18_25  and  C19_26 
REMARK   10  A    between atoms: C19_26  and  C20_27 
REMARK   11  A    between atoms: C20_27  and  C21_28 
REMARK   12  A    between atoms: C22_33  and  N6_34 
REMARK   13  A    between atoms: N6_34  and  C23_35 
REMARK   14  A    between atoms: C23_35  and  O2_36 
REMARK   15  A    between atoms: C23_35  and  C24_38 
REMARK   16  A    between atoms: C27_41  and  C28_42 
REMARK   17  A    between atoms: C28_42  and  C29_43 
REMARK   18  A    between atoms: C29_43  and  C30_45 
ROOT
HETATM    1  C19 UNL     1      -1.259  -2.015   0.965  1.00  0.00     0.008 C 
ENDROOT
BRANCH   1   2
HETATM    2  C18 UNL     1      -1.383  -1.670  -0.488  1.00  0.00     0.007 C 
BRANCH   2   3
HETATM    3  C17 UNL     1      -0.863  -0.291  -0.802  1.00  0.00     0.066 C 
BRANCH   3   4
HETATM    4  C16 UNL     1       0.597  -0.287  -0.407  1.00  0.00     0.070 A 
HETATM    5  N3  UNL     1       1.144   0.033   0.746  1.00  0.00    -0.295 N 
HETATM    6  N2  UNL     1       2.371  -0.016   0.940  1.00  0.00    -0.267 N 
ATOM      7  H3  UNL     1       0.538   0.333   1.510  1.00  0.00     0.187 HD
HETATM    8  C15 UNL     1       3.193  -0.422  -0.089  1.00  0.00     0.241 A 
ATOM      9  H2  UNL     1       2.763   0.240   1.846  1.00  0.00     0.190 HD
HETATM   10  S1  UNL     1       1.971  -0.703  -1.311  1.00  0.00    -0.023 SA
BRANCH   8  11
HETATM   11  N1  UNL     1       4.381  -0.542  -0.090  1.00  0.00    -0.358 NA
BRANCH  11  12
HETATM   12  C1  UNL     1       5.662  -0.681  -0.122  1.00  0.00     0.197 C 
BRANCH  12  13
HETATM   13  O1  UNL     1       6.282  -0.849  -1.255  1.00  0.00    -0.339 OA
ATOM     14  H1  UNL     1       5.686  -0.852  -1.995  1.00  0.00     0.220 HD
ENDBRANCH  12  13
BRANCH  12  15
HETATM   15  C2  UNL     1       6.617  -0.676   1.065  1.00  0.00     0.138 C 
BRANCH  15  16
HETATM   16  C3  UNL     1       7.984  -0.899   0.561  1.00  0.00    -0.049 A 
HETATM   17  C4  UNL     1       8.516  -2.156   0.407  1.00  0.00     0.007 A 
HETATM   18  C5  UNL     1       9.798  -2.302  -0.062  1.00  0.00     0.001 A 
HETATM   19  C6  UNL     1      10.594  -1.228  -0.392  1.00  0.00     0.012 A 
HETATM   20  C7  UNL     1      10.018   0.026  -0.221  1.00  0.00    -0.025 A 
HETATM   21  C14 UNL     1       8.751   0.196   0.242  1.00  0.00     0.020 A 
BRANCH  20  22
HETATM   22  C8  UNL     1      10.836   1.206  -0.558  1.00  0.00    -0.026 A 
HETATM   23  C9  UNL     1      12.205   1.150  -0.379  1.00  0.00     0.012 A 
HETATM   24  C10 UNL     1      12.963   2.262  -0.700  1.00  0.00     0.001 A 
HETATM   25  C11 UNL     1      12.395   3.419  -1.192  1.00  0.00     0.000 A 
HETATM   26  C12 UNL     1      11.024   3.453  -1.363  1.00  0.00     0.001 A 
HETATM   27  C13 UNL     1      10.237   2.344  -1.046  1.00  0.00     0.012 A 
ENDBRANCH  20  22
ENDBRANCH  15  16
ENDBRANCH  12  15
ENDBRANCH  11  12
ENDBRANCH   8  11
ENDBRANCH   3   4
ENDBRANCH   2   3
ENDBRANCH   1   2
BRANCH   1  28
HETATM   28  C20 UNL     1      -2.024  -1.090   1.874  1.00  0.00     0.078 C 
BRANCH  28  29
HETATM   29  C21 UNL     1      -3.477  -1.132   1.586  1.00  0.00     0.096 A 
HETATM   30  N4  UNL     1      -4.234  -2.022   2.254  1.00  0.00    -0.287 N 
HETATM   31  N5  UNL     1      -5.528  -2.119   2.052  1.00  0.00    -0.271 N 
ATOM     32  H4  UNL     1      -3.791  -2.638   2.936  1.00  0.00     0.188 HD
HETATM   33  C22 UNL     1      -6.203  -1.325   1.148  1.00  0.00     0.219 A 
ATOM     34  H5  UNL     1      -6.056  -2.810   2.585  1.00  0.00     0.189 HD
HETATM   35  C27 UNL     1      -5.400  -0.401   0.458  1.00  0.00     0.078 A 
HETATM   36  N7  UNL     1      -4.095  -0.344   0.701  1.00  0.00    -0.344 N 
ATOM     37  H7  UNL     1      -3.536   0.336   0.186  1.00  0.00     0.167 HD
BRANCH  33  38
HETATM   38  N6  UNL     1      -7.375  -1.475   1.024  1.00  0.00    -0.363 NA
BRANCH  38  39
HETATM   39  C23 UNL     1      -8.667  -1.580   0.829  1.00  0.00     0.196 C 
BRANCH  39  40
HETATM   40  O2  UNL     1      -9.458  -0.728   1.415  1.00  0.00    -0.339 OA
ATOM     41  H2  UNL     1     -10.394  -0.804   1.274  1.00  0.00     0.220 HD
ENDBRANCH  39  40
BRANCH  39  42
HETATM   42  C24 UNL     1      -9.397  -2.587  -0.010  1.00  0.00     0.075 A 
HETATM   43  C25 UNL     1      -8.717  -2.777  -1.383  1.00  0.00     0.015 A 
HETATM   44  C26 UNL     1      -8.745  -3.858  -0.370  1.00  0.00     0.015 A 
ENDBRANCH  39  42
ENDBRANCH  38  39
ENDBRANCH  33  38
BRANCH  35  45
HETATM   45  C28 UNL     1      -6.021   0.494  -0.529  1.00  0.00     0.146 C 
BRANCH  45  46
HETATM   46  C29 UNL     1      -6.751   1.590   0.179  1.00  0.00     0.165 C 
HETATM   47  O3  UNL     1      -6.795   1.699   1.427  1.00  0.00    -0.292 OA
BRANCH  46  48
HETATM   48  C30 UNL     1      -7.453   2.592  -0.617  1.00  0.00     0.010 A 
HETATM   49  C31 UNL     1      -8.142   3.632  -0.031  1.00  0.00     0.015 A 
HETATM   50  C32 UNL     1      -8.812   4.583  -0.778  1.00  0.00     0.001 A 
HETATM   51  C33 UNL     1      -8.822   4.533  -2.155  1.00  0.00     0.000 A 
HETATM   52  C34 UNL     1      -8.128   3.483  -2.750  1.00  0.00     0.001 A 
HETATM   53  C35 UNL     1      -7.459   2.535  -2.006  1.00  0.00     0.015 A 
ENDBRANCH  46  48
ENDBRANCH  45  46
ENDBRANCH  35  45
ENDBRANCH  28  29
ENDBRANCH   1  28
TORSDOF 18
