REMARK  3 active torsions:
REMARK  status: ('A' for Active; 'I' for Inactive)
REMARK    1  A    between atoms: O1_2  and  C2_3 
REMARK    2  A    between atoms: C2_3  and  C3_8 
REMARK    3  A    between atoms: N1_4  and  O2_6 
ROOT
HETATM    1  C3  UNL     1      -0.091   0.266  -0.619  1.00  0.00     0.149 C 
HETATM    2  C4  UNL     1      -0.457   1.413  -1.524  1.00  0.00     0.058 C 
HETATM    3  O3  UNL     1      -0.626  -0.934  -0.994  1.00  0.00    -0.284 OA
HETATM    4  N2  UNL     1      -1.746  -1.165  -0.339  1.00  0.00    -0.199 NA
HETATM    5  C5  UNL     1      -1.901  -2.574   0.055  1.00  0.00     0.143 C 
HETATM    6  C6  UNL     1      -1.793  -0.386   0.851  1.00  0.00     0.128 C 
HETATM    7  C7  UNL     1      -0.562   0.513   0.793  1.00  0.00     0.041 C 
HETATM    8  C8  UNL     1      -1.019   1.920   1.019  1.00  0.00     0.015 C 
ENDROOT
BRANCH   1   9
HETATM    9  C2  UNL     1       1.396   0.102  -0.573  1.00  0.00     0.175 C 
HETATM   10  N1  UNL     1       1.989  -0.965  -0.934  1.00  0.00    -0.248 N 
ATOM     11  H1  UNL     1       3.006  -0.969  -0.862  1.00  0.00     0.196 HD
BRANCH   9  12
HETATM   12  O1  UNL     1       2.203   1.152  -0.115  1.00  0.00    -0.340 OA
HETATM   13  C1  UNL     1       3.516   0.839   0.336  1.00  0.00     0.211 C 
ENDBRANCH   9  12
BRANCH  10  14
HETATM   14  O2  UNL     1       1.410  -2.095  -1.404  1.00  0.00    -0.288 OA
ATOM     15  H2  UNL     1       1.853  -2.891  -1.673  1.00  0.00     0.244 HD
ENDBRANCH  10  14
ENDBRANCH   1   9
TORSDOF 3
