REMARK  11 active torsions:
REMARK  status: ('A' for Active; 'I' for Inactive)
REMARK    1  A    between atoms: C2_2  and  C3_3 
REMARK    2  A    between atoms: C3_3  and  C4_4 
REMARK    3  A    between atoms: C5_5  and  C6_6 
REMARK    4  A    between atoms: C7_7  and  C8_8 
REMARK    5  A    between atoms: C8_8  and  C9_9 
REMARK    6  A    between atoms: C12_14  and  N1_15 
REMARK    7  A    between atoms: C13_18  and  O3_19 
REMARK    8  A    between atoms: C14_21  and  C15_22 
REMARK    9  A    between atoms: C17_24  and  O4_25 
REMARK   10  A    between atoms: C19_27  and  O5_28 
REMARK   11  A    between atoms: C21_30  and  O6_31 
ROOT
HETATM    1  C6  UNL     1      -1.035  -0.913   0.275  1.00  0.00     0.038 A 
HETATM    2  C7  UNL     1      -2.149  -1.707   0.389  1.00  0.00    -0.030 A 
HETATM    3  C11 UNL     1      -2.070  -3.084   0.465  1.00  0.00     0.047 A 
HETATM    4  C12 UNL     1      -0.829  -3.710   0.424  1.00  0.00     0.137 A 
HETATM    5  C13 UNL     1       0.295  -2.930   0.307  1.00  0.00     0.111 A 
HETATM    6  C14 UNL     1       0.180  -1.534   0.233  1.00  0.00     0.029 A 
ENDROOT
BRANCH   6   7
HETATM    7  C15 UNL     1       1.362  -0.701   0.102  1.00  0.00    -0.016 A 
HETATM    8  C16 UNL     1       1.814   0.036   1.186  1.00  0.00     0.052 A 
HETATM    9  C17 UNL     1       2.930   0.836   1.108  1.00  0.00     0.105 A 
HETATM   10  C19 UNL     1       3.611   0.886  -0.118  1.00  0.00     0.135 A 
HETATM   11  C21 UNL     1       3.197   0.170  -1.220  1.00  0.00     0.105 A 
HETATM   12  C23 UNL     1       2.071  -0.612  -1.076  1.00  0.00     0.052 A 
BRANCH   9  13
HETATM   13  O4  UNL     1       3.428   1.597   2.158  1.00  0.00    -0.353 OA
HETATM   14  C18 UNL     1       2.745   1.552   3.394  1.00  0.00     0.210 C 
ENDBRANCH   9  13
BRANCH  10  15
HETATM   15  O5  UNL     1       4.740   1.688  -0.217  1.00  0.00    -0.351 OA
HETATM   16  C20 UNL     1       6.050   1.269   0.063  1.00  0.00     0.210 C 
ENDBRANCH  10  15
BRANCH  11  17
HETATM   17  O6  UNL     1       3.906   0.264  -2.382  1.00  0.00    -0.353 OA
HETATM   18  C22 UNL     1       3.600  -0.410  -3.579  1.00  0.00     0.210 C 
ENDBRANCH  11  17
ENDBRANCH   6   7
BRANCH   1  19
HETATM   19  C5  UNL     1      -1.113   0.547   0.263  1.00  0.00    -0.066 C 
HETATM   20  C4  UNL     1      -1.152   1.764   0.281  1.00  0.00    -0.101 C 
BRANCH  20  21
HETATM   21  C3  UNL     1      -1.169   3.227   0.314  1.00  0.00     0.094 C 
BRANCH  21  22
HETATM   22  C2  UNL     1      -2.508   3.717   0.752  1.00  0.00     0.007 C 
HETATM   23  C1  UNL     1      -3.544   3.223  -0.238  1.00  0.00     0.006 C 
ENDBRANCH  21  22
ENDBRANCH  20  21
ENDBRANCH   1  19
BRANCH   5  24
HETATM   24  O3  UNL     1       1.560  -3.442   0.252  1.00  0.00    -0.357 OA
ATOM     25  H3  UNL     1       2.338  -2.902   0.171  1.00  0.00     0.217 HD
ENDBRANCH   5  24
BRANCH   2  26
HETATM   26  C8  UNL     1      -3.509  -1.075   0.370  1.00  0.00     0.118 C 
BRANCH  26  27
HETATM   27  C9  UNL     1      -3.970  -0.949  -1.056  1.00  0.00     0.244 C 
HETATM   28  C10 UNL     1      -5.346  -0.304  -1.140  1.00  0.00     0.090 C 
HETATM   29  F1  UNL     1      -3.093  -0.324  -1.889  1.00  0.00    -0.206 F 
HETATM   30  F2  UNL     1      -4.195  -2.265  -1.541  1.00  0.00    -0.206 F 
ENDBRANCH  26  27
ENDBRANCH   2  26
BRANCH   4  31
HETATM   31  N1  UNL     1      -0.782  -5.137   0.498  1.00  0.00    -0.113 N 
HETATM   32  O1  UNL     1       0.111  -5.773   1.051  1.00  0.00    -0.532 OA
HETATM   33  O2  UNL     1      -1.857  -5.816  -0.086  1.00  0.00    -0.532 OA
ENDBRANCH   4  31
TORSDOF 11
