REMARK  10 active torsions:
REMARK  status: ('A' for Active; 'I' for Inactive)
REMARK    1  A    between atoms: C2_2  and  O1_3 
REMARK    2  A    between atoms: O1_3  and  C3_4 
REMARK    3  A    between atoms: C3_4  and  C4_6 
REMARK    4  A    between atoms: C5_10  and  N2_11 
REMARK    5  A    between atoms: N2_11  and  C6_13 
REMARK    6  A    between atoms: C6_13  and  N3_15 
REMARK       I    between atoms: N3_15  and  C7_16 
REMARK    7  A    between atoms: C7_16  and  C8_18 
REMARK    8  A    between atoms: C8_18  and  C9_19 
REMARK    9  A    between atoms: C9_19  and  N4_20 
REMARK       I    between atoms: N4_20  and  C10_22 
REMARK   10  A    between atoms: C10_22  and  C11_24 
ROOT
HETATM    1  N3  UNL     1       0.865   0.909  -0.424  1.00  0.00    -0.341 NA
HETATM    2  C7  UNL     1      -0.291   0.811  -0.982  1.00  0.00     0.295 C 
HETATM    3  O3  UNL     1      -1.421   0.526  -0.445  1.00  0.00    -0.257 OA
ENDROOT
BRANCH   1   4
HETATM    4  C6  UNL     1       2.110   1.007   0.215  1.00  0.00     0.254 C 
HETATM    5  S2  UNL     1       3.302   1.425  -0.871  1.00  0.00    -0.025 SA
BRANCH   4   6
HETATM    6  N2  UNL     1       2.371   0.861   1.544  1.00  0.00    -0.313 N 
ATOM      7  H2  UNL     1       1.488   0.695   2.028  1.00  0.00     0.170 HD
BRANCH   6   8
HETATM    8  C5  UNL     1       3.403   0.854   2.495  1.00  0.00     0.127 A 
HETATM    9  C4  UNL     1       4.726   0.835   2.699  1.00  0.00     0.150 A 
HETATM   10  N1  UNL     1       4.675   0.939   4.046  1.00  0.00    -0.317 N 
HETATM   11  S1  UNL     1       3.084   0.988   4.234  1.00  0.00     0.007 SA
ATOM     12  H1  UNL     1       5.425   0.975   4.736  1.00  0.00     0.175 HD
BRANCH   9  13
HETATM   13  C3  UNL     1       5.931   0.751   1.835  1.00  0.00     0.313 C 
HETATM   14  O2  UNL     1       5.975   0.706   0.628  1.00  0.00    -0.257 OA
BRANCH  13  15
HETATM   15  O1  UNL     1       7.219   0.706   2.463  1.00  0.00    -0.317 OA
BRANCH  15  16
HETATM   16  C2  UNL     1       8.368   0.654   1.612  1.00  0.00     0.175 C 
HETATM   17  C1  UNL     1       9.561   0.360   2.495  1.00  0.00     0.034 C 
ENDBRANCH  15  16
ENDBRANCH  13  15
ENDBRANCH   9  13
ENDBRANCH   6   8
ENDBRANCH   4   6
ENDBRANCH   1   4
BRANCH   2  18
HETATM   18  C8  UNL     1      -0.511   1.023  -2.499  1.00  0.00     0.139 C 
BRANCH  18  19
HETATM   19  C9  UNL     1      -1.844   1.613  -2.776  1.00  0.00     0.133 C 
BRANCH  19  20
HETATM   20  N4  UNL     1      -2.998   0.966  -2.282  1.00  0.00    -0.360 N 
HETATM   21  C10 UNL     1      -3.445  -0.300  -2.561  1.00  0.00     0.221 C 
HETATM   22  O4  UNL     1      -2.796  -1.078  -3.345  1.00  0.00    -0.273 OA
ATOM     23  H4  UNL     1      -3.571   1.509  -1.636  1.00  0.00     0.162 HD
BRANCH  21  24
HETATM   24  C11 UNL     1      -4.710  -0.898  -2.006  1.00  0.00     0.078 C 
HETATM   25  C12 UNL     1      -4.511  -2.376  -1.854  1.00  0.00     0.014 C 
HETATM   26  C13 UNL     1      -5.382  -2.928  -0.730  1.00  0.00     0.001 C 
HETATM   27  C14 UNL     1      -6.649  -2.090  -0.625  1.00  0.00     0.000 C 
HETATM   28  C15 UNL     1      -6.340  -0.704  -0.097  1.00  0.00     0.001 C 
HETATM   29  C16 UNL     1      -5.088  -0.161  -0.777  1.00  0.00     0.014 C 
ENDBRANCH  21  24
ENDBRANCH  19  20
ENDBRANCH  18  19
ENDBRANCH   2  18
TORSDOF 10
