REMARK  14 active torsions:
REMARK  status: ('A' for Active; 'I' for Inactive)
REMARK    1  A    between atoms: C4_4  and  C5_5 
REMARK    2  A    between atoms: C7_11  and  C8_12 
REMARK    3  A    between atoms: C10_16  and  S1_17 
REMARK    4  A    between atoms: S1_17  and  C11_18 
REMARK    5  A    between atoms: C11_18  and  C12_19 
REMARK    6  A    between atoms: C12_19  and  C13_20 
REMARK    7  A    between atoms: C13_20  and  C14_21 
REMARK    8  A    between atoms: C14_21  and  C15_22 
REMARK    9  A    between atoms: C15_22  and  N4_23 
REMARK   10  A    between atoms: C18_26  and  N5_27 
REMARK   11  A    between atoms: N5_27  and  C19_29 
REMARK   12  A    between atoms: C19_29  and  O1_30 
REMARK   13  A    between atoms: C19_29  and  N6_32 
REMARK   14  A    between atoms: N6_32  and  O2_34 
ROOT
HETATM    1  S1  UNL     1      -1.055  -2.145   3.224  1.00  0.00    -0.094 SA
ENDROOT
BRANCH   1   2
HETATM    2  C10 UNL     1      -1.905  -0.873   2.400  1.00  0.00     0.144 A 
HETATM    3  N3  UNL     1      -1.595   0.406   2.226  1.00  0.00    -0.344 N 
HETATM    4  C9  UNL     1      -2.578   1.002   1.512  1.00  0.00     0.120 A 
ATOM      5  H3  UNL     1      -0.753   0.865   2.574  1.00  0.00     0.167 HD
HETATM    6  C8  UNL     1      -3.543   0.069   1.222  1.00  0.00     0.060 A 
HETATM    7  N7  UNL     1      -3.112  -1.065   1.773  1.00  0.00    -0.335 N 
ATOM      8  H7  UNL     1      -3.610  -1.954   1.734  1.00  0.00     0.168 HD
BRANCH   6   9
HETATM    9  C7  UNL     1      -4.768   0.306   0.469  1.00  0.00    -0.007 A 
HETATM   10  C6  UNL     1      -5.064   1.556  -0.029  1.00  0.00     0.028 A 
HETATM   11  C4  UNL     1      -6.232   1.732  -0.734  1.00  0.00     0.006 A 
HETATM   12  C3  UNL     1      -7.078   0.634  -0.921  1.00  0.00     0.021 A 
HETATM   13  C2  UNL     1      -6.791  -0.601  -0.433  1.00  0.00    -0.060 A 
HETATM   14  C1  UNL     1      -7.674  -1.798  -0.612  1.00  0.00     0.048 C 
HETATM   15  C21 UNL     1      -5.625  -0.759   0.267  1.00  0.00     0.020 A 
BRANCH  11  16
HETATM   16  C5  UNL     1      -6.618   3.011  -1.287  1.00  0.00     0.120 C 
HETATM   17  N1  UNL     1      -5.884   4.044  -1.145  1.00  0.00    -0.387 N 
ATOM     18  H12 UNL     1      -5.008   3.959  -0.629  1.00  0.00     0.157 HD
ATOM     19  H11 UNL     1      -6.156   4.946  -1.535  1.00  0.00     0.157 HD
HETATM   20  N2  UNL     1      -7.836   3.129  -2.004  1.00  0.00    -0.082 NA
ENDBRANCH  11  16
ENDBRANCH   6   9
ENDBRANCH   1   2
BRANCH   1  21
HETATM   21  C11 UNL     1      -0.060  -3.280   2.353  1.00  0.00     0.082 C 
BRANCH  21  22
HETATM   22  C12 UNL     1       1.220  -2.801   1.825  1.00  0.00     0.010 C 
BRANCH  22  23
HETATM   23  C13 UNL     1       1.149  -1.691   0.824  1.00  0.00     0.002 C 
BRANCH  23  24
HETATM   24  C14 UNL     1       2.608  -1.439   0.402  1.00  0.00     0.020 C 
BRANCH  24  25
HETATM   25  C15 UNL     1       2.707  -0.334  -0.603  1.00  0.00     0.126 C 
BRANCH  25  26
HETATM   26  N4  UNL     1       4.101  -0.158  -0.948  1.00  0.00    -0.350 N 
HETATM   27  C16 UNL     1       4.840  -0.798  -2.019  1.00  0.00     0.128 C 
HETATM   28  C17 UNL     1       6.167  -1.090  -1.370  1.00  0.00     0.054 C 
HETATM   29  C18 UNL     1       6.423   0.132  -0.525  1.00  0.00     0.179 C 
HETATM   30  C20 UNL     1       5.055   0.684  -0.315  1.00  0.00     0.242 C 
HETATM   31  O3  UNL     1       4.788   1.724   0.319  1.00  0.00    -0.271 OA
BRANCH  29  32
HETATM   32  N5  UNL     1       7.269   1.092  -1.163  1.00  0.00    -0.342 N 
ATOM     33  H5  UNL     1       7.626   0.909  -2.101  1.00  0.00     0.164 HD
BRANCH  32  34
HETATM   34  C19 UNL     1       7.613   2.288  -0.505  1.00  0.00     0.237 C 
BRANCH  34  35
HETATM   35  O1  UNL     1       8.346   2.261   0.657  1.00  0.00    -0.331 OA
ATOM     36  H1  UNL     1       8.578   3.068   1.101  1.00  0.00     0.221 HD
ENDBRANCH  34  35
BRANCH  34  37
HETATM   37  N6  UNL     1       7.237   3.410  -0.999  1.00  0.00    -0.233 N 
ATOM     38  H6  UNL     1       7.495   4.267  -0.510  1.00  0.00     0.198 HD
BRANCH  37  39
HETATM   39  O2  UNL     1       6.503   3.513  -2.157  1.00  0.00    -0.287 OA
ATOM     40  H2  UNL     1       6.224   4.344  -2.523  1.00  0.00     0.244 HD
ENDBRANCH  37  39
ENDBRANCH  34  37
ENDBRANCH  32  34
ENDBRANCH  29  32
ENDBRANCH  25  26
ENDBRANCH  24  25
ENDBRANCH  23  24
ENDBRANCH  22  23
ENDBRANCH  21  22
ENDBRANCH   1  21
TORSDOF 14
