REMARK  12 active torsions:
REMARK  status: ('A' for Active; 'I' for Inactive)
REMARK    1  A    between atoms: C3_3  and  N1_4 
REMARK    2  A    between atoms: N1_4  and  C4_5 
REMARK    3  A    between atoms: N1_4  and  C11_16 
REMARK    4  A    between atoms: C7_8  and  C8_9 
REMARK    5  A    between atoms: C17_24  and  S1_25 
REMARK    6  A    between atoms: S1_25  and  C18_26 
REMARK    7  A    between atoms: C18_26  and  C19_27 
REMARK    8  A    between atoms: C19_27  and  C20_28 
REMARK    9  A    between atoms: C20_28  and  N5_29 
REMARK   10  A    between atoms: N5_29  and  C21_32 
REMARK   11  A    between atoms: C21_32  and  C22_33 
REMARK   12  A    between atoms: C25_36  and  N6_37 
ROOT
HETATM    1  C1  UNL     1      -5.473   0.318   4.424  1.00  0.00     0.014 C 
HETATM    2  C2  UNL     1      -4.870  -0.465   3.737  1.00  0.00    -0.097 C 
HETATM    3  C3  UNL     1      -4.117  -1.446   2.907  1.00  0.00     0.240 C 
ENDROOT
BRANCH   3   4
HETATM    4  N1  UNL     1      -3.832  -0.893   1.623  1.00  0.00    -0.172 N 
BRANCH   4   5
HETATM    5  C4  UNL     1      -4.923  -0.517   0.793  1.00  0.00     0.052 A 
HETATM    6  C5  UNL     1      -5.504  -1.398  -0.093  1.00  0.00     0.031 A 
HETATM    7  C6  UNL     1      -6.570  -1.000  -0.896  1.00  0.00     0.017 A 
HETATM    8  C7  UNL     1      -7.102   0.264  -0.863  1.00  0.00     0.005 A 
HETATM    9  C9  UNL     1      -6.498   1.148   0.045  1.00  0.00     0.017 A 
HETATM   10  C10 UNL     1      -5.448   0.778   0.846  1.00  0.00     0.031 A 
BRANCH   8  11
HETATM   11  C8  UNL     1      -8.207   0.710  -1.684  1.00  0.00     0.120 C 
HETATM   12  N2  UNL     1      -8.772  -0.060  -2.513  1.00  0.00    -0.387 N 
ATOM     13  H22 UNL     1      -8.438  -1.019  -2.605  1.00  0.00     0.157 HD
ATOM     14  H21 UNL     1      -9.551   0.254  -3.092  1.00  0.00     0.157 HD
HETATM   15  N3  UNL     1      -8.669   2.038  -1.556  1.00  0.00    -0.082 NA
ENDBRANCH   8  11
ENDBRANCH   4   5
BRANCH   4  16
HETATM   16  C11 UNL     1      -2.519  -0.706   1.156  1.00  0.00     0.687 A 
HETATM   17  N4  UNL     1      -2.372  -0.185  -0.097  1.00  0.00    -0.190 N 
HETATM   18  C12 UNL     1      -1.197   0.054  -0.685  1.00  0.00     0.064 A 
ATOM     19  H4  UNL     1      -3.219   0.037  -0.621  1.00  0.00     0.184 HD
HETATM   20  C13 UNL     1      -1.126   0.587  -1.970  1.00  0.00     0.031 A 
HETATM   21  C24 UNL     1      -0.065  -0.244   0.017  1.00  0.00     0.053 A 
HETATM   22  C14 UNL     1       0.111   0.792  -2.481  1.00  0.00     0.010 A 
HETATM   23  C15 UNL     1       1.263   0.495  -1.781  1.00  0.00    -0.044 A 
HETATM   24  C16 UNL     1       2.542   0.794  -2.473  1.00  0.00     0.049 C 
HETATM   25  C17 UNL     1       1.229  -0.029  -0.520  1.00  0.00     0.022 A 
HETATM   26  C25 UNL     1      -0.201  -0.772   1.285  1.00  0.00     0.128 A 
HETATM   27  N7  UNL     1      -1.409  -1.005   1.858  1.00  0.00    -0.176 N 
ATOM     28  H7  UNL     1      -1.475  -1.397   2.797  1.00  0.00     0.186 HD
BRANCH  25  29
HETATM   29  S1  UNL     1       2.591  -0.473   0.485  1.00  0.00    -0.128 SA
BRANCH  29  30
HETATM   30  C18 UNL     1       4.230  -0.308  -0.146  1.00  0.00     0.081 C 
BRANCH  30  31
HETATM   31  C19 UNL     1       5.282  -0.615   0.928  1.00  0.00     0.038 C 
BRANCH  31  32
HETATM   32  C20 UNL     1       6.664  -0.491   0.420  1.00  0.00     0.233 C 
BRANCH  32  33
HETATM   33  N5  UNL     1       7.030   0.793  -0.085  1.00  0.00    -0.072 N 
ATOM     34  H52 UNL     1       6.378   1.091  -0.810  1.00  0.00     0.277 HD
ATOM     35  H51 UNL     1       6.854   1.515   0.613  1.00  0.00     0.277 HD
BRANCH  33  36
HETATM   36  C21 UNL     1       8.382   0.873  -0.561  1.00  0.00     0.259 C 
BRANCH  36  37
HETATM   37  C22 UNL     1       9.382   0.769   0.526  1.00  0.00    -0.010 C 
HETATM   38  C23 UNL     1      10.257  -0.220   0.500  1.00  0.00     0.008 C 
ENDBRANCH  36  37
ENDBRANCH  33  36
ENDBRANCH  32  33
ENDBRANCH  31  32
ENDBRANCH  30  31
ENDBRANCH  29  30
ENDBRANCH  25  29
BRANCH  26  39
HETATM   39  N6  UNL     1       0.861  -1.061   1.965  1.00  0.00    -0.384 N 
ATOM     40  H62 UNL     1       1.769  -0.886   1.534  1.00  0.00     0.157 HD
ATOM     41  H61 UNL     1       0.760  -1.451   2.902  1.00  0.00     0.157 HD
ENDBRANCH  26  39
ENDBRANCH   4  16
ENDBRANCH   3   4
TORSDOF 12
