REMARK  14 active torsions:
REMARK  status: ('A' for Active; 'I' for Inactive)
REMARK    1  A    between atoms: O1_1  and  C1_3 
REMARK    2  A    between atoms: C1_3  and  C2_4 
REMARK    3  A    between atoms: C3_5  and  O2_6 
REMARK    4  A    between atoms: C4_8  and  O3_9 
REMARK    5  A    between atoms: C5_11  and  O4_12 
REMARK    6  A    between atoms: C6_14  and  O5_15 
REMARK    7  A    between atoms: N1_17  and  C7_18 
REMARK    8  A    between atoms: C7_18  and  C8_19 
REMARK    9  A    between atoms: C8_19  and  C9_20 
REMARK   10  A    between atoms: C9_20  and  C10_21 
REMARK   11  A    between atoms: C10_21  and  C11_22 
REMARK   12  A    between atoms: C11_22  and  C12_23 
REMARK   13  A    between atoms: C12_23  and  C13_24 
REMARK   14  A    between atoms: C13_24  and  C14_25 
ROOT
HETATM    1  C2  UNL     1      -3.264  -0.869  -0.138  1.00  0.00     0.280 C 
HETATM    2  C3  UNL     1      -4.642  -1.372   0.265  1.00  0.00     0.185 C 
HETATM    3  C4  UNL     1      -5.719  -0.386  -0.115  1.00  0.00     0.182 C 
HETATM    4  C5  UNL     1      -5.383   0.979   0.396  1.00  0.00     0.208 C 
HETATM    5  C6  UNL     1      -3.982   1.426   0.190  1.00  0.00     0.388 C 
HETATM    6  N1  UNL     1      -2.968   0.412   0.397  1.00  0.00     0.129 N 
ENDROOT
BRANCH   6   7
HETATM    7  C7  UNL     1      -2.467   0.407   1.727  1.00  0.00     0.276 C 
BRANCH   7   8
HETATM    8  C8  UNL     1      -1.121  -0.123   1.988  1.00  0.00     0.030 C 
BRANCH   8   9
HETATM    9  C9  UNL     1       0.027   0.624   1.366  1.00  0.00     0.002 C 
BRANCH   9  10
HETATM   10  C10 UNL     1       0.046   0.698  -0.094  1.00  0.00     0.000 C 
BRANCH  10  11
HETATM   11  C11 UNL     1       1.198   1.366  -0.751  1.00  0.00     0.000 C 
BRANCH  11  12
HETATM   12  C12 UNL     1       2.508   0.719  -0.686  1.00  0.00     0.000 C 
BRANCH  12  13
HETATM   13  C13 UNL     1       3.179   0.406   0.580  1.00  0.00     0.004 C 
BRANCH  13  14
HETATM   14  C14 UNL     1       4.593  -0.169   0.363  1.00  0.00    -0.014 C 
HETATM   15  C15 UNL     1       4.594  -1.435  -0.414  1.00  0.00     0.004 C 
HETATM   16  C16 UNL     1       5.578  -1.375  -1.579  1.00  0.00     0.000 C 
HETATM   17  C17 UNL     1       6.943  -0.980  -1.049  1.00  0.00     0.000 C 
HETATM   18  C18 UNL     1       6.902   0.270  -0.211  1.00  0.00     0.000 C 
HETATM   19  C19 UNL     1       5.484   0.865  -0.280  1.00  0.00     0.004 C 
ENDBRANCH  13  14
ENDBRANCH  12  13
ENDBRANCH  11  12
ENDBRANCH  10  11
ENDBRANCH   9  10
ENDBRANCH   8   9
ENDBRANCH   7   8
ENDBRANCH   6   7
BRANCH   1  20
HETATM   20  C1  UNL     1      -3.040  -1.047  -1.617  1.00  0.00     0.203 C 
BRANCH  20  21
HETATM   21  O1  UNL     1      -3.775  -0.233  -2.431  1.00  0.00    -0.399 OA
ATOM     22  H1  UNL     1      -3.634  -0.345  -3.364  1.00  0.00     0.209 HD
ENDBRANCH  20  21
ENDBRANCH   1  20
BRANCH   5  23
HETATM   23  O5  UNL     1      -3.785   2.182  -0.964  1.00  0.00    -0.366 OA
ATOM     24  H5  UNL     1      -2.889   2.468  -1.096  1.00  0.00     0.212 HD
ENDBRANCH   5  23
BRANCH   2  25
HETATM   25  O2  UNL     1      -4.832  -2.587  -0.364  1.00  0.00    -0.391 OA
ATOM     26  H2  UNL     1      -5.693  -2.901  -0.112  1.00  0.00     0.210 HD
ENDBRANCH   2  25
BRANCH   4  27
HETATM   27  O4  UNL     1      -5.744   1.143   1.739  1.00  0.00    -0.388 OA
ATOM     28  H4  UNL     1      -5.531   2.010   2.064  1.00  0.00     0.210 HD
ENDBRANCH   4  27
BRANCH   3  29
HETATM   29  O3  UNL     1      -6.896  -0.802   0.527  1.00  0.00    -0.390 OA
ATOM     30  H3  UNL     1      -7.574  -0.181   0.288  1.00  0.00     0.210 HD
ENDBRANCH   3  29
TORSDOF 14
