REMARK  14 active torsions:
REMARK  status: ('A' for Active; 'I' for Inactive)
REMARK    1  A    between atoms: O1_1  and  C1_3 
REMARK    2  A    between atoms: C1_3  and  C2_4 
REMARK    3  A    between atoms: C3_5  and  O2_6 
REMARK    4  A    between atoms: C4_8  and  O3_9 
REMARK    5  A    between atoms: C5_11  and  O4_12 
REMARK    6  A    between atoms: N1_15  and  C7_16 
REMARK    7  A    between atoms: C7_16  and  C8_17 
REMARK    8  A    between atoms: C8_17  and  C9_18 
REMARK    9  A    between atoms: C9_18  and  C10_19 
REMARK   10  A    between atoms: C10_19  and  C11_20 
REMARK   11  A    between atoms: C11_20  and  C12_21 
REMARK   12  A    between atoms: C12_21  and  C13_22 
REMARK   13  A    between atoms: C13_22  and  C14_23 
REMARK   14  A    between atoms: C19_28  and  O5_29 
ROOT
HETATM    1  C2  UNL     1      -3.827  -1.212  -0.138  1.00  0.00     0.277 C 
HETATM    2  C3  UNL     1      -5.112  -1.374   0.592  1.00  0.00     0.184 C 
HETATM    3  C4  UNL     1      -6.131  -0.303   0.341  1.00  0.00     0.179 C 
HETATM    4  C5  UNL     1      -5.522   1.056   0.235  1.00  0.00     0.177 C 
HETATM    5  C6  UNL     1      -4.261   1.126  -0.560  1.00  0.00     0.307 C 
HETATM    6  N1  UNL     1      -3.295   0.129  -0.140  1.00  0.00     0.100 N 
ENDROOT
BRANCH   6   7
HETATM    7  C7  UNL     1      -2.814   0.532   1.164  1.00  0.00     0.273 C 
BRANCH   7   8
HETATM    8  C8  UNL     1      -1.606  -0.194   1.642  1.00  0.00     0.030 C 
BRANCH   8   9
HETATM    9  C9  UNL     1      -0.392  -0.058   0.756  1.00  0.00     0.002 C 
BRANCH   9  10
HETATM   10  C10 UNL     1      -0.025   1.382   0.653  1.00  0.00     0.000 C 
BRANCH  10  11
HETATM   11  C11 UNL     1       1.173   1.547  -0.217  1.00  0.00     0.000 C 
BRANCH  11  12
HETATM   12  C12 UNL     1       2.403   0.809   0.314  1.00  0.00     0.000 C 
BRANCH  12  13
HETATM   13  C13 UNL     1       3.502   1.095  -0.678  1.00  0.00     0.007 C 
BRANCH  13  14
HETATM   14  C14 UNL     1       4.798   0.479  -0.319  1.00  0.00     0.014 C 
HETATM   15  C15 UNL     1       4.716  -1.018  -0.240  1.00  0.00     0.007 C 
HETATM   16  C16 UNL     1       5.971  -1.475   0.510  1.00  0.00     0.001 C 
HETATM   17  C17 UNL     1       7.177  -1.008  -0.216  1.00  0.00     0.002 C 
HETATM   18  C18 UNL     1       6.943  -0.170  -1.425  1.00  0.00     0.032 C 
HETATM   19  C19 UNL     1       5.926   0.917  -1.243  1.00  0.00     0.122 C 
BRANCH  19  20
HETATM   20  O5  UNL     1       6.541   2.084  -0.841  1.00  0.00    -0.395 OA
ATOM     21  H5  UNL     1       7.245   2.357  -1.418  1.00  0.00     0.210 HD
ENDBRANCH  19  20
ENDBRANCH  13  14
ENDBRANCH  12  13
ENDBRANCH  11  12
ENDBRANCH  10  11
ENDBRANCH   9  10
ENDBRANCH   8   9
ENDBRANCH   7   8
ENDBRANCH   6   7
BRANCH   1  22
HETATM   22  C1  UNL     1      -3.829  -1.816  -1.522  1.00  0.00     0.202 C 
BRANCH  22  23
HETATM   23  O1  UNL     1      -4.575  -1.130  -2.446  1.00  0.00    -0.399 OA
ATOM     24  H1  UNL     1      -4.576  -1.510  -3.317  1.00  0.00     0.209 HD
ENDBRANCH  22  23
ENDBRANCH   1  22
BRANCH   2  25
HETATM   25  O2  UNL     1      -5.631  -2.628   0.295  1.00  0.00    -0.391 OA
ATOM     26  H2  UNL     1      -6.452  -2.732   0.761  1.00  0.00     0.210 HD
ENDBRANCH   2  25
BRANCH   4  27
HETATM   27  O4  UNL     1      -6.474   1.901  -0.340  1.00  0.00    -0.391 OA
ATOM     28  H4  UNL     1      -6.086   2.766  -0.407  1.00  0.00     0.210 HD
ENDBRANCH   4  27
BRANCH   3  29
HETATM   29  O3  UNL     1      -6.961  -0.275   1.488  1.00  0.00    -0.390 OA
ATOM     30  H3  UNL     1      -7.607   0.404   1.329  1.00  0.00     0.210 HD
ENDBRANCH   3  29
TORSDOF 14
