REMARK  14 active torsions:
REMARK  status: ('A' for Active; 'I' for Inactive)
REMARK    1  A    between atoms: C9_11  and  N2_12 
REMARK    2  A    between atoms: C10_17  and  N4_18 
REMARK    3  A    between atoms: N4_18  and  C11_20 
REMARK    4  A    between atoms: C11_20  and  C12_21 
REMARK    5  A    between atoms: C12_21  and  C13_22 
REMARK    6  A    between atoms: C13_22  and  C14_23 
REMARK    7  A    between atoms: C14_23  and  C15_24 
REMARK    8  A    between atoms: C15_24  and  C16_25 
REMARK    9  A    between atoms: C16_25  and  C17_26 
REMARK   10  A    between atoms: C17_26  and  N5_27 
REMARK   11  A    between atoms: N5_27  and  C18_30 
REMARK   12  A    between atoms: C18_30  and  C19_31 
REMARK   13  A    between atoms: C19_31  and  C20_32 
REMARK   14  A    between atoms: C20_32  and  N6_33 
ROOT
HETATM    1  C1  UNL     1      -3.773  -1.370  -3.984  1.00  0.00     0.011 C 
HETATM    2  C2  UNL     1      -4.277  -0.888  -2.658  1.00  0.00    -0.000 C 
HETATM    3  C3  UNL     1      -5.632  -1.434  -2.365  1.00  0.00     0.008 C 
HETATM    4  C4  UNL     1      -5.890  -1.718  -0.913  1.00  0.00     0.026 C 
HETATM    5  C5  UNL     1      -5.303  -0.586  -0.098  1.00  0.00     0.088 C 
HETATM    6  C6  UNL     1      -5.521  -0.751   1.366  1.00  0.00     0.031 C 
HETATM    7  C7  UNL     1      -5.562   0.484   2.186  1.00  0.00     0.061 C 
HETATM    8  C8  UNL     1      -4.301   1.254   2.252  1.00  0.00     0.046 A 
HETATM    9  N1  UNL     1      -4.394   2.211   3.197  1.00  0.00    -0.195 N 
ATOM     10  H1  UNL     1      -5.242   2.311   3.755  1.00  0.00     0.184 HD
HETATM   11  C9  UNL     1      -3.350   3.028   3.388  1.00  0.00     0.677 A 
HETATM   12  N3  UNL     1      -2.232   2.898   2.654  1.00  0.00    -0.176 N 
ATOM     13  H3  UNL     1      -1.458   3.539   2.829  1.00  0.00     0.186 HD
HETATM   14  C10 UNL     1      -2.084   1.953   1.690  1.00  0.00     0.134 A 
HETATM   15  C21 UNL     1      -3.153   1.115   1.497  1.00  0.00     0.099 A 
HETATM   16  C22 UNL     1      -2.919   0.048   0.499  1.00  0.00     0.259 C 
HETATM   17  O1  UNL     1      -1.716  -0.318   0.459  1.00  0.00    -0.267 OA
HETATM   18  N7  UNL     1      -3.879  -0.555  -0.355  1.00  0.00    -0.343 N 
HETATM   19  C23 UNL     1      -3.280  -1.141  -1.525  1.00  0.00     0.130 C 
ENDROOT
BRANCH  14  20
HETATM   20  N4  UNL     1      -0.981   1.890   0.843  1.00  0.00    -0.375 N 
ATOM     21  H4  UNL     1      -0.984   1.283   0.023  1.00  0.00     0.161 HD
BRANCH  20  22
HETATM   22  C11 UNL     1       0.191   2.723   1.163  1.00  0.00     0.121 C 
BRANCH  22  23
HETATM   23  C12 UNL     1       0.935   2.242   2.366  1.00  0.00     0.020 C 
BRANCH  23  24
HETATM   24  C13 UNL     1       1.436   0.838   2.163  1.00  0.00     0.002 C 
BRANCH  24  25
HETATM   25  C14 UNL     1       2.386   0.708   0.976  1.00  0.00     0.000 C 
BRANCH  25  26
HETATM   26  C15 UNL     1       2.796  -0.729   0.913  1.00  0.00     0.002 C 
BRANCH  26  27
HETATM   27  C16 UNL     1       3.726  -1.004  -0.231  1.00  0.00     0.027 C 
BRANCH  27  28
HETATM   28  C17 UNL     1       4.980  -0.220  -0.136  1.00  0.00     0.232 C 
BRANCH  28  29
HETATM   29  N5  UNL     1       5.873  -0.502  -1.237  1.00  0.00    -0.075 N 
ATOM     30  H52 UNL     1       5.416  -0.334  -2.134  1.00  0.00     0.277 HD
ATOM     31  H51 UNL     1       6.614   0.196  -1.298  1.00  0.00     0.277 HD
BRANCH  29  32
HETATM   32  C18 UNL     1       6.416  -1.829  -1.173  1.00  0.00     0.233 C 
BRANCH  32  33
HETATM   33  C19 UNL     1       7.380  -2.176  -2.257  1.00  0.00     0.055 C 
BRANCH  33  34
HETATM   34  C20 UNL     1       8.603  -1.318  -2.313  1.00  0.00     0.231 C 
BRANCH  34  35
HETATM   35  N6  UNL     1       8.297   0.071  -2.540  1.00  0.00    -0.079 N 
ATOM     36  H63 UNL     1       7.729   0.188  -3.379  1.00  0.00     0.274 HD
ATOM     37  H62 UNL     1       7.637   0.419  -1.844  1.00  0.00     0.274 HD
ATOM     38  H61 UNL     1       9.131   0.656  -2.578  1.00  0.00     0.274 HD
ENDBRANCH  34  35
ENDBRANCH  33  34
ENDBRANCH  32  33
ENDBRANCH  29  32
ENDBRANCH  28  29
ENDBRANCH  27  28
ENDBRANCH  26  27
ENDBRANCH  25  26
ENDBRANCH  24  25
ENDBRANCH  23  24
ENDBRANCH  22  23
ENDBRANCH  20  22
ENDBRANCH  14  20
BRANCH  11  39
HETATM   39  N2  UNL     1      -3.419   3.968   4.306  1.00  0.00    -0.234 N 
ATOM     40  H22 UNL     1      -4.268   4.067   4.863  1.00  0.00     0.174 HD
ATOM     41  H21 UNL     1      -2.624   4.590   4.451  1.00  0.00     0.174 HD
ENDBRANCH  11  39
TORSDOF 14
