REMARK  20 active torsions:
REMARK  status: ('A' for Active; 'I' for Inactive)
REMARK    1  A    between atoms: C2_2  and  C3_3 
REMARK    2  A    between atoms: C3_3  and  C4_4 
REMARK    3  A    between atoms: C4_4  and  C5_5 
REMARK    4  A    between atoms: C5_5  and  N1_6 
REMARK    5  A    between atoms: C5_5  and  C18_38 
REMARK    6  A    between atoms: N1_6  and  C6_8 
REMARK    7  A    between atoms: C6_8  and  N2_9 
REMARK    8  A    between atoms: C6_8  and  C11_14 
REMARK    9  A    between atoms: N2_9  and  C7_10 
REMARK   10  A    between atoms: N3_16  and  N4_18 
REMARK   11  A    between atoms: N4_18  and  N5_20 
REMARK   12  A    between atoms: N5_20  and  N6_21 
REMARK   13  A    between atoms: C15_29  and  O1_30 
REMARK   14  A    between atoms: C15_29  and  C16_32 
REMARK   15  A    between atoms: C16_32  and  N9_33 
REMARK       I    between atoms: N9_33  and  C17_35 
REMARK       I    between atoms: C18_38  and  N12_40 
REMARK   16  A    between atoms: N12_40  and  C19_41 
REMARK   17  A    between atoms: N12_40  and  C22_44 
REMARK   18  A    between atoms: C19_41  and  C20_42 
REMARK   19  A    between atoms: C22_44  and  C23_45 
REMARK   20  A    between atoms: C23_45  and  C24_46 
ROOT
HETATM    1  C11 UNL     1       2.409  -0.023  -0.824  1.00  0.00     0.237 C 
HETATM    2  C12 UNL     1       3.531  -0.904  -1.098  1.00  0.00     0.126 C 
HETATM    3  N3  UNL     1       3.716  -2.116  -0.738  1.00  0.00    -0.261 N 
ATOM      4  H3  UNL     1       3.005  -2.582  -0.175  1.00  0.00     0.191 HD
HETATM    5  N7  UNL     1       4.562  -0.335  -1.902  1.00  0.00    -0.375 N 
ATOM      6  H7  UNL     1       5.184  -0.976  -2.394  1.00  0.00     0.160 HD
HETATM    7  C13 UNL     1       4.793   1.083  -2.073  1.00  0.00     0.141 C 
HETATM    8  C14 UNL     1       3.676   1.919  -1.509  1.00  0.00     0.146 C 
HETATM    9  N8  UNL     1       3.041   1.235  -0.386  1.00  0.00    -0.340 N 
HETATM   10  C15 UNL     1       3.038   1.761   0.864  1.00  0.00     0.154 C 
ENDROOT
BRANCH   1  11
HETATM   11  C6  UNL     1       1.258  -0.453  -0.076  1.00  0.00     0.177 C 
BRANCH  11  12
HETATM   12  N1  UNL     1       0.070   0.368  -0.330  1.00  0.00    -0.354 N 
ATOM     13  H1  UNL     1       0.192   1.373  -0.456  1.00  0.00     0.162 HD
BRANCH  12  14
HETATM   14  C5  UNL     1      -1.274  -0.182  -0.411  1.00  0.00     0.176 C 
BRANCH  14  15
HETATM   15  C4  UNL     1      -1.137  -1.292  -1.439  1.00  0.00     0.035 C 
BRANCH  15  16
HETATM   16  C3  UNL     1      -2.325  -2.092  -1.744  1.00  0.00     0.002 C 
BRANCH  16  17
HETATM   17  C2  UNL     1      -2.910  -2.909  -0.629  1.00  0.00    -0.004 C 
HETATM   18  C1  UNL     1      -4.133  -3.679  -1.071  1.00  0.00     0.005 C 
ENDBRANCH  16  17
ENDBRANCH  15  16
ENDBRANCH  14  15
BRANCH  14  19
HETATM   19  C18 UNL     1      -2.092   0.905  -1.095  1.00  0.00     0.242 C 
HETATM   20  O2  UNL     1      -1.521   1.515  -2.084  1.00  0.00    -0.271 OA
HETATM   21  N12 UNL     1      -3.372   1.321  -0.791  1.00  0.00    -0.350 N 
BRANCH  21  22
HETATM   22  C19 UNL     1      -4.049   2.312  -1.596  1.00  0.00     0.125 C 
BRANCH  22  23
HETATM   23  C20 UNL     1      -4.847   1.754  -2.721  1.00  0.00     0.015 C 
HETATM   24  C21 UNL     1      -5.943   0.818  -2.319  1.00  0.00     0.006 C 
ENDBRANCH  22  23
ENDBRANCH  21  22
BRANCH  21  25
HETATM   25  C22 UNL     1      -4.074   0.845   0.363  1.00  0.00     0.126 C 
BRANCH  25  26
HETATM   26  C23 UNL     1      -3.842   1.763   1.568  1.00  0.00     0.020 C 
BRANCH  26  27
HETATM   27  C24 UNL     1      -4.589   1.250   2.764  1.00  0.00    -0.003 C 
HETATM   28  C25 UNL     1      -4.385   2.147   3.978  1.00  0.00     0.005 C 
ENDBRANCH  26  27
ENDBRANCH  25  26
ENDBRANCH  21  25
ENDBRANCH  14  19
ENDBRANCH  12  14
ENDBRANCH  11  12
BRANCH  11  29
HETATM   29  N2  UNL     1       1.161  -1.354   0.706  1.00  0.00    -0.422 NA
BRANCH  29  30
HETATM   30  C7  UNL     1       1.065  -2.365   1.579  1.00  0.00     0.084 C 
HETATM   31  C8  UNL     1      -0.227  -2.296   2.467  1.00  0.00     0.053 C 
HETATM   32  C9  UNL     1       0.897  -3.800   1.023  1.00  0.00     0.053 C 
HETATM   33  C10 UNL     1       2.176  -2.401   2.627  1.00  0.00     0.053 C 
ENDBRANCH  29  30
ENDBRANCH  11  29
ENDBRANCH   1  11
BRANCH   3  34
HETATM   34  N4  UNL     1       4.857  -2.810  -1.093  1.00  0.00    -0.155 N 
ATOM     35  H4  UNL     1       5.764  -2.393  -0.883  1.00  0.00     0.225 HD
BRANCH  34  36
HETATM   36  N5  UNL     1       4.831  -3.906  -1.650  1.00  0.00    -0.228 NA
BRANCH  36  37
HETATM   37  N6  UNL     1       4.936  -5.084  -2.020  1.00  0.00    -0.259 N 
ATOM     38  H62 UNL     1       5.480  -5.296  -1.184  1.00  0.00     0.193 HD
ATOM     39  H61 UNL     1       4.914  -5.993  -2.482  1.00  0.00     0.193 HD
ENDBRANCH  36  37
ENDBRANCH  34  36
ENDBRANCH   3  34
BRANCH  10  40
HETATM   40  O1  UNL     1       2.252   1.089   1.690  1.00  0.00    -0.345 OA
ATOM     41  H1  UNL     1       2.250   1.457   2.566  1.00  0.00     0.219 HD
ENDBRANCH  10  40
BRANCH  10  42
HETATM   42  C16 UNL     1       3.659   2.859   1.565  1.00  0.00     0.146 C 
BRANCH  42  43
HETATM   43  N9  UNL     1       4.601   3.719   0.942  1.00  0.00    -0.339 N 
HETATM   44  C17 UNL     1       5.840   3.487   0.769  1.00  0.00     0.201 C 
HETATM   45  N10 UNL     1       6.652   4.446   0.129  1.00  0.00    -0.067 NA
HETATM   46  N11 UNL     1       6.395   2.274   1.227  1.00  0.00    -0.067 NA
ATOM     47  H9  UNL     1       4.249   4.613   0.599  1.00  0.00     0.167 HD
ENDBRANCH  42  43
ENDBRANCH  10  42
TORSDOF 20
