REMARK  8 active torsions:
REMARK  status: ('A' for Active; 'I' for Inactive)
REMARK    1  A    between atoms: C3_3  and  C4_4 
REMARK    2  A    between atoms: N2_11  and  C11_13 
REMARK    3  A    between atoms: C11_13  and  C12_14 
REMARK    4  A    between atoms: C12_14  and  N3_16 
REMARK       I    between atoms: N3_16  and  C14_18 
REMARK    5  A    between atoms: C14_18  and  C15_20 
REMARK    6  A    between atoms: C19_25  and  O2_26 
REMARK    7  A    between atoms: C20_28  and  C21_29 
REMARK    8  A    between atoms: C21_29  and  O3_31 
ROOT
HETATM    1  C1  UNL     1      -2.250   3.446   1.233  1.00  0.00     0.012 C 
HETATM    2  C2  UNL     1      -2.092   2.436   0.594  1.00  0.00    -0.115 C 
HETATM    3  C3  UNL     1      -1.885   1.201  -0.217  1.00  0.00     0.128 C 
ENDROOT
BRANCH   3   4
HETATM    4  C4  UNL     1      -3.000   0.241   0.135  1.00  0.00     0.232 C 
HETATM    5  C5  UNL     1      -4.284   0.991  -0.220  1.00  0.00     0.271 C 
HETATM    6  N1  UNL     1      -5.473   0.322   0.211  1.00  0.00    -0.071 N 
HETATM    7  C6  UNL     1      -5.617   0.521   1.649  1.00  0.00     0.272 C 
HETATM    8  C7  UNL     1      -6.609   0.966  -0.420  1.00  0.00     0.272 C 
HETATM    9  C8  UNL     1      -5.475  -1.077  -0.145  1.00  0.00     0.265 C 
HETATM   10  C9  UNL     1      -4.184  -1.745  -0.062  1.00  0.00     0.271 C 
HETATM   11  N2  UNL     1      -3.013  -0.983  -0.582  1.00  0.00    -0.041 N 
HETATM   12  C10 UNL     1      -3.342  -0.808  -1.999  1.00  0.00     0.279 C 
BRANCH  11  13
HETATM   13  C11 UNL     1      -1.981  -1.928  -0.343  1.00  0.00     0.227 C 
BRANCH  13  14
HETATM   14  C12 UNL     1      -0.616  -1.701  -0.699  1.00  0.00     0.031 C 
HETATM   15  C13 UNL     1      -0.171  -1.298  -2.038  1.00  0.00     0.070 C 
BRANCH  14  16
HETATM   16  N3  UNL     1       0.295  -1.887   0.199  1.00  0.00    -0.328 N 
HETATM   17  C14 UNL     1       1.666  -1.705  -0.003  1.00  0.00     0.256 C 
HETATM   18  O1  UNL     1       2.263  -2.463  -0.802  1.00  0.00    -0.271 OA
ATOM     19  H3  UNL     1      -0.009  -2.189   1.124  1.00  0.00     0.168 HD
BRANCH  17  20
HETATM   20  C15 UNL     1       2.433  -0.655   0.692  1.00  0.00     0.329 C 
HETATM   21  C16 UNL     1       2.538  -1.116   2.156  1.00  0.00     0.103 C 
HETATM   22 BR1  UNL     1       1.701   0.198   3.298  1.00  0.00    -0.088 Br
HETATM   23  C17 UNL     1       4.040  -1.080   2.476  1.00  0.00     0.057 C 
HETATM   24  C18 UNL     1       4.474  -0.105   1.448  1.00  0.00     0.254 C 
HETATM   25  C19 UNL     1       5.869  -0.202   0.953  1.00  0.00     0.159 C 
HETATM   26  N4  UNL     1       3.776  -0.673   0.272  1.00  0.00     0.111 N 
HETATM   27  C20 UNL     1       5.673   0.315  -0.479  1.00  0.00     0.073 C 
HETATM   28  C23 UNL     1       4.173   0.321  -0.701  1.00  0.00     0.283 C 
BRANCH  25  29
HETATM   29  O2  UNL     1       6.240  -1.527   0.856  1.00  0.00    -0.393 OA
ATOM     30  H2  UNL     1       7.133  -1.589   0.539  1.00  0.00     0.210 HD
ENDBRANCH  25  29
BRANCH  27  31
HETATM   31  C21 UNL     1       6.287   1.671  -0.620  1.00  0.00     0.122 C 
HETATM   32  C22 UNL     1       5.731   2.718   0.283  1.00  0.00     0.040 C 
BRANCH  31  33
HETATM   33  O3  UNL     1       7.671   1.625  -0.469  1.00  0.00    -0.395 OA
ATOM     34  H3  UNL     1       8.061   2.487  -0.559  1.00  0.00     0.210 HD
ENDBRANCH  31  33
ENDBRANCH  27  31
ENDBRANCH  17  20
ENDBRANCH  14  16
ENDBRANCH  13  14
ENDBRANCH  11  13
ENDBRANCH   3   4
TORSDOF 8
