REMARK  8 active torsions:
REMARK  status: ('A' for Active; 'I' for Inactive)
REMARK    1  A    between atoms: C2_2  and  C4_4 
REMARK    2  A    between atoms: C6_6  and  C7_7 
REMARK    3  A    between atoms: C7_7  and  N1_10 
REMARK       I    between atoms: N1_10  and  C8_12 
REMARK       I    between atoms: C8_12  and  N2_14 
REMARK    4  A    between atoms: N2_14  and  C9_16 
REMARK    5  A    between atoms: N3_23  and  C16_24 
REMARK    6  A    between atoms: C16_24  and  C17_25 
REMARK    7  A    between atoms: C17_25  and  C18_26 
REMARK    8  A    between atoms: C18_26  and  O2_27 
ROOT
HETATM    1  C7  UNL     1      -1.179   0.542  -1.323  1.00  0.00     0.369 C 
HETATM    2  F1  UNL     1      -0.959   1.872  -1.257  1.00  0.00    -0.176 F 
HETATM    3  F2  UNL     1      -1.372   0.270  -2.701  1.00  0.00    -0.176 F 
ENDROOT
BRANCH   1   4
HETATM    4  C6  UNL     1      -2.324   0.032  -0.554  1.00  0.00     0.107 A 
HETATM    5  C5  UNL     1      -2.701  -1.317  -0.560  1.00  0.00     0.042 A 
HETATM    6  C4  UNL     1      -3.787  -1.488   0.268  1.00  0.00    -0.037 A 
HETATM    7  C19 UNL     1      -4.057  -0.240   0.770  1.00  0.00     0.098 A 
HETATM    8  N3  UNL     1      -3.167   0.670   0.266  1.00  0.00    -0.353 N 
BRANCH   6   9
HETATM    9  C2  UNL     1      -4.491  -2.790   0.520  1.00  0.00     0.012 C 
HETATM   10  C1  UNL     1      -3.474  -3.825   0.911  1.00  0.00     0.015 C 
HETATM   11  C3  UNL     1      -5.059  -3.255  -0.830  1.00  0.00     0.015 C 
ENDBRANCH   6   9
BRANCH   8  12
HETATM   12  C16 UNL     1      -3.158   2.079   0.589  1.00  0.00     0.130 C 
BRANCH  12  13
HETATM   13  C17 UNL     1      -4.030   2.911  -0.318  1.00  0.00     0.046 C 
BRANCH  13  14
HETATM   14  C18 UNL     1      -3.975   4.379   0.050  1.00  0.00     0.165 C 
BRANCH  14  15
HETATM   15  O2  UNL     1      -4.384   4.651   1.331  1.00  0.00    -0.401 OA
ATOM     16  H2  UNL     1      -4.349   5.572   1.562  1.00  0.00     0.209 HD
ENDBRANCH  14  15
ENDBRANCH  13  14
ENDBRANCH  12  13
ENDBRANCH   8  12
ENDBRANCH   1   4
BRANCH   1  17
HETATM   17  N1  UNL     1       0.051  -0.170  -1.011  1.00  0.00    -0.275 N 
HETATM   18  C8  UNL     1       1.255   0.454  -0.623  1.00  0.00     0.321 C 
HETATM   19  O1  UNL     1       1.270   1.717  -0.555  1.00  0.00    -0.247 OA
HETATM   20  N2  UNL     1       2.462  -0.216  -0.300  1.00  0.00    -0.338 N 
ATOM     21  H2  UNL     1       2.497  -1.235  -0.332  1.00  0.00     0.164 HD
ATOM     22  H1  UNL     1       0.042  -1.188  -1.077  1.00  0.00     0.170 HD
BRANCH  20  23
HETATM   23  C9  UNL     1       3.661   0.539   0.080  1.00  0.00     0.086 C 
HETATM   24  C10 UNL     1       4.028   0.396   1.514  1.00  0.00     0.025 C 
HETATM   25  C11 UNL     1       4.774  -0.823   1.904  1.00  0.00     0.002 C 
HETATM   26  C12 UNL     1       5.907  -1.235   1.040  1.00  0.00     0.000 C 
HETATM   27  C13 UNL     1       6.746  -0.120   0.503  1.00  0.00     0.000 C 
HETATM   28  C14 UNL     1       6.075   0.789  -0.461  1.00  0.00     0.002 C 
HETATM   29  C15 UNL     1       4.743   0.268  -0.906  1.00  0.00     0.025 C 
ENDBRANCH  20  23
ENDBRANCH   1  17
TORSDOF 8
