REMARK  9 active torsions:
REMARK  status: ('A' for Active; 'I' for Inactive)
REMARK       I    between atoms: C1_2  and  N1_3 
REMARK    1  A    between atoms: C1_2  and  C8_17 
REMARK    2  A    between atoms: N1_3  and  C2_5 
REMARK    3  A    between atoms: C2_5  and  C3_6 
REMARK    4  A    between atoms: C3_6  and  C4_7 
REMARK    5  A    between atoms: C4_7  and  C5_8 
REMARK    6  A    between atoms: C5_8  and  C6_9 
REMARK    7  A    between atoms: C6_9  and  C7_10 
REMARK    8  A    between atoms: C7_10  and  O2_11 
REMARK    9  A    between atoms: N2_13  and  O3_15 
ROOT
HETATM    1  O1  UNL     1      -1.181  -2.553  -0.285  1.00  0.00    -0.272 OA
HETATM    2  C1  UNL     1      -1.075  -1.317   0.074  1.00  0.00     0.238 C 
HETATM    3  N1  UNL     1       0.251  -0.912   0.369  1.00  0.00    -0.359 N 
ATOM      4  H1  UNL     1       0.412   0.052   0.661  1.00  0.00     0.162 HD
ENDROOT
BRANCH   2   5
HETATM    5  C8  UNL     1      -2.264  -0.578   0.118  1.00  0.00     0.083 A 
HETATM    6  C9  UNL     1      -2.576   0.044   1.518  1.00  0.00     0.037 C 
HETATM    7  C10 UNL     1      -3.627   1.205   1.521  1.00  0.00    -0.009 C 
HETATM    8  C11 UNL     1      -4.835   0.317   1.365  1.00  0.00     0.029 C 
HETATM    9  C15 UNL     1      -3.914   2.060   0.237  1.00  0.00     0.030 C 
HETATM   10  C12 UNL     1      -4.141  -0.021   0.099  1.00  0.00     0.028 A 
HETATM   11 CL1  UNL     1      -2.371   1.237   0.223  1.00  0.00    -0.195 Cl
HETATM   12  C13 UNL     1      -4.772   0.471  -1.142  1.00  0.00     0.050 C 
HETATM   13  C17 UNL     1      -3.555  -1.372   0.036  1.00  0.00     0.056 A 
HETATM   14  C14 UNL     1      -3.559   1.379  -1.132  1.00  0.00     0.041 C 
HETATM   15 CL2  UNL     1      -3.357   2.505  -2.351  1.00  0.00    -0.119 Cl
HETATM   16  C16 UNL     1      -2.508   0.215  -1.211  1.00  0.00     0.058 C 
ENDBRANCH   2   5
BRANCH   3  17
HETATM   17  C2  UNL     1       1.390  -1.806   0.275  1.00  0.00     0.122 C 
BRANCH  17  18
HETATM   18  C3  UNL     1       2.678  -1.154   0.633  1.00  0.00     0.020 C 
BRANCH  18  19
HETATM   19  C4  UNL     1       3.017   0.025  -0.250  1.00  0.00     0.002 C 
BRANCH  19  20
HETATM   20  C5  UNL     1       4.329   0.606   0.197  1.00  0.00     0.008 C 
BRANCH  20  21
HETATM   21  C6  UNL     1       5.484  -0.335   0.134  1.00  0.00     0.086 C 
BRANCH  21  22
HETATM   22  C7  UNL     1       6.690   0.378   0.601  1.00  0.00     0.135 C 
HETATM   23  N2  UNL     1       7.703   0.520  -0.170  1.00  0.00    -0.251 N 
ATOM     24  H2  UNL     1       8.526   1.017   0.171  1.00  0.00     0.196 HD
BRANCH  22  25
HETATM   25  O2  UNL     1       6.732   0.898   1.875  1.00  0.00    -0.348 OA
ATOM     26  H2  UNL     1       7.508   1.357   2.175  1.00  0.00     0.219 HD
ENDBRANCH  22  25
BRANCH  23  27
HETATM   27  O3  UNL     1       7.701   0.020  -1.437  1.00  0.00    -0.288 OA
ATOM     28  H3  UNL     1       8.452   0.125  -2.009  1.00  0.00     0.244 HD
ENDBRANCH  23  27
ENDBRANCH  21  22
ENDBRANCH  20  21
ENDBRANCH  19  20
ENDBRANCH  18  19
ENDBRANCH  17  18
ENDBRANCH   3  17
TORSDOF 9
