REMARK  9 active torsions:
REMARK  status: ('A' for Active; 'I' for Inactive)
REMARK    1  A    between atoms: N1_1  and  N2_4 
REMARK    2  A    between atoms: N2_4  and  C1_6 
REMARK    3  A    between atoms: C2_11  and  O1_12 
REMARK    4  A    between atoms: C3_14  and  N5_15 
REMARK    5  A    between atoms: N5_15  and  C4_17 
REMARK    6  A    between atoms: C5_20  and  O2_21 
REMARK    7  A    between atoms: C6_23  and  C7_24 
REMARK    8  A    between atoms: N7_25  and  C8_27 
REMARK    9  A    between atoms: C8_27  and  C9_28 
ROOT
HETATM    1  C4  UNL     1      -1.141  -0.914   0.187  1.00  0.00     0.178 C 
HETATM    2  N6  UNL     1      -0.016  -1.637  -0.064  1.00  0.00    -0.318 N 
ATOM      3  H6  UNL     1      -0.164  -2.617  -0.304  1.00  0.00     0.169 HD
HETATM    4  C5  UNL     1       1.280  -1.226  -0.037  1.00  0.00     0.159 C 
HETATM    5  C6  UNL     1       1.760   0.059   0.134  1.00  0.00     0.098 C 
HETATM    6  C11 UNL     1       1.034   1.213   0.382  1.00  0.00     0.264 C 
HETATM    7  O4  UNL     1       1.678   2.287   0.284  1.00  0.00    -0.267 OA
HETATM    8  N8  UNL     1      -0.275   1.345   0.716  1.00  0.00    -0.286 N 
ATOM      9  H8  UNL     1      -0.607   2.282   0.946  1.00  0.00     0.172 HD
HETATM   10  C12 UNL     1      -1.186   0.326   0.770  1.00  0.00     0.292 C 
HETATM   11  O5  UNL     1      -2.217   0.538   1.445  1.00  0.00    -0.264 OA
ENDROOT
BRANCH   1  12
HETATM   12  N5  UNL     1      -2.222  -1.439  -0.153  1.00  0.00    -0.320 N 
ATOM     13  H5  UNL     1      -2.116  -2.358  -0.582  1.00  0.00     0.169 HD
BRANCH  12  14
HETATM   14  C3  UNL     1      -3.540  -1.014  -0.060  1.00  0.00     0.175 A 
HETATM   15  C2  UNL     1      -4.408  -1.556   0.864  1.00  0.00     0.201 A 
HETATM   16  N4  UNL     1      -5.685  -1.149   0.953  1.00  0.00    -0.263 N 
HETATM   17  N3  UNL     1      -6.098  -0.207   0.127  1.00  0.00    -0.129 N 
ATOM     18  H4  UNL     1      -6.318  -1.557   1.641  1.00  0.00     0.189 HD
HETATM   19  C1  UNL     1      -5.304   0.362  -0.796  1.00  0.00     0.712 A 
ATOM     20  H3  UNL     1      -7.067   0.105   0.192  1.00  0.00     0.205 HD
HETATM   21  N9  UNL     1      -4.032  -0.058  -0.869  1.00  0.00    -0.170 N 
ATOM     22  H9  UNL     1      -3.415   0.363  -1.564  1.00  0.00     0.186 HD
BRANCH  15  23
HETATM   23  O1  UNL     1      -4.008  -2.557   1.759  1.00  0.00    -0.342 OA
ATOM     24  H1  UNL     1      -3.105  -2.845   1.696  1.00  0.00     0.219 HD
ENDBRANCH  15  23
BRANCH  19  25
HETATM   25  N2  UNL     1      -5.759   1.295  -1.597  1.00  0.00    -0.137 N 
ATOM     26  H2  UNL     1      -5.149   1.721  -2.295  1.00  0.00     0.205 HD
BRANCH  25  27
HETATM   27  N1  UNL     1      -7.092   1.697  -1.480  1.00  0.00    -0.331 N 
ATOM     28  H12 UNL     1      -7.689   1.261  -0.777  1.00  0.00     0.177 HD
ATOM     29  H11 UNL     1      -7.446   2.423  -2.103  1.00  0.00     0.177 HD
ENDBRANCH  25  27
ENDBRANCH  19  25
ENDBRANCH  12  14
ENDBRANCH   1  12
BRANCH   4  30
HETATM   30  O2  UNL     1       2.224  -2.230  -0.202  1.00  0.00    -0.345 OA
ATOM     31  H2  UNL     1       3.129  -1.943  -0.183  1.00  0.00     0.219 HD
ENDBRANCH   4  30
BRANCH   5  32
HETATM   32  C7  UNL     1       3.201   0.253   0.049  1.00  0.00     0.104 C 
HETATM   33  N7  UNL     1       4.019  -0.721  -0.177  1.00  0.00    -0.395 N 
ATOM     34  H7  UNL     1       3.638  -1.659  -0.299  1.00  0.00     0.159 HD
BRANCH  33  35
HETATM   35  C8  UNL     1       5.448  -0.540  -0.265  1.00  0.00     0.153 C 
BRANCH  35  36
HETATM   36  C9  UNL     1       5.887   0.671   0.537  1.00  0.00     0.163 A 
HETATM   37  C10 UNL     1       6.388   1.853  -0.213  1.00  0.00     0.201 A 
HETATM   38  O3  UNL     1       7.238   0.953   0.534  1.00  0.00    -0.380 OA
ENDBRANCH  35  36
ENDBRANCH  33  35
ENDBRANCH   5  32
TORSDOF 9
