REMARK  7 active torsions:
REMARK  status: ('A' for Active; 'I' for Inactive)
REMARK    1  A    between atoms: N2_5  and  C3_6 
REMARK    2  A    between atoms: C3_6  and  C4_7 
REMARK    3  A    between atoms: C11_14  and  N3_15 
REMARK    4  A    between atoms: C12_16  and  C13_17 
REMARK    5  A    between atoms: C16_22  and  C17_23 
REMARK    6  A    between atoms: C17_23  and  O1_24 
REMARK    7  A    between atoms: C19_28  and  C20_29 
ROOT
HETATM    1  C1  UNL     1       0.064   2.860  -3.354  1.00  0.00     0.071 C 
HETATM    2  C2  UNL     1       0.115   1.716  -2.365  1.00  0.00     0.038 A 
HETATM    3  N1  UNL     1       1.142   0.864  -2.241  1.00  0.00    -0.300 N 
ATOM      4  H1  UNL     1       1.995   0.924  -2.797  1.00  0.00     0.187 HD
HETATM    5  N2  UNL     1       0.932  -0.063  -1.321  1.00  0.00    -0.275 N 
HETATM    6  C11 UNL     1      -0.295   0.188  -0.813  1.00  0.00     0.147 A 
HETATM    7  C19 UNL     1      -0.825   1.302  -1.455  1.00  0.00     0.060 A 
ENDROOT
BRANCH   6   8
HETATM    8  N3  UNL     1      -0.937  -0.600   0.198  1.00  0.00    -0.258 N 
HETATM    9  C12 UNL     1      -1.448  -1.854   0.033  1.00  0.00     0.095 A 
HETATM   10  N4  UNL     1      -1.965  -2.287   1.194  1.00  0.00    -0.343 N 
HETATM   11  C16 UNL     1      -1.810  -1.344   2.135  1.00  0.00     0.091 A 
ATOM     12  H4  UNL     1      -2.408  -3.194   1.338  1.00  0.00     0.167 HD
HETATM   13  C18 UNL     1      -1.166  -0.303   1.484  1.00  0.00     0.222 A 
HETATM   14  F1  UNL     1      -0.860   0.845   2.136  1.00  0.00    -0.183 F 
BRANCH   9  15
HETATM   15  C13 UNL     1      -1.459  -2.625  -1.225  1.00  0.00     0.046 C 
HETATM   16  C14 UNL     1      -2.901  -2.892  -1.671  1.00  0.00     0.017 C 
HETATM   17  C15 UNL     1      -0.791  -3.968  -1.058  1.00  0.00     0.017 C 
ENDBRANCH   9  15
BRANCH  11  18
HETATM   18  C17 UNL     1      -2.241  -1.422   3.549  1.00  0.00     0.226 C 
BRANCH  18  19
HETATM   19  O1  UNL     1      -2.850  -2.642   3.793  1.00  0.00    -0.395 OA
ATOM     20  H1  UNL     1      -3.127  -2.692   4.700  1.00  0.00     0.209 HD
ENDBRANCH  18  19
ENDBRANCH  11  18
ENDBRANCH   6   8
BRANCH   5  21
HETATM   21  C3  UNL     1       1.919  -1.085  -0.949  1.00  0.00     0.155 C 
BRANCH  21  22
HETATM   22  C4  UNL     1       2.991  -0.482  -0.109  1.00  0.00     0.005 C 
HETATM   23  C5  UNL     1       2.565   0.144   1.178  1.00  0.00     0.007 C 
HETATM   24  C6  UNL     1       3.801   0.855   1.751  1.00  0.00     0.005 C 
HETATM   25  C7  UNL     1       4.732  -0.216   2.265  1.00  0.00    -0.019 C 
HETATM   26  C8  UNL     1       6.140   0.251   2.045  1.00  0.00     0.010 C 
HETATM   27  C9  UNL     1       4.452  -1.561   1.645  1.00  0.00     0.005 C 
HETATM   28  C10 UNL     1       4.095  -1.482   0.197  1.00  0.00     0.007 C 
ENDBRANCH  21  22
ENDBRANCH   5  21
BRANCH   7  29
HETATM   29  C20 UNL     1      -2.104   1.991  -1.220  1.00  0.00     0.050 A 
HETATM   30  C21 UNL     1      -2.401   3.294  -1.490  1.00  0.00     0.047 A 
HETATM   31  C22 UNL     1      -3.666   3.561  -1.061  1.00  0.00     0.026 A 
HETATM   32  C23 UNL     1      -4.452   4.706  -1.087  1.00  0.00     0.104 A 
HETATM   33  C25 UNL     1      -4.181   2.436  -0.518  1.00  0.00     0.118 A 
HETATM   34  N5  UNL     1      -5.693   4.647  -0.571  1.00  0.00    -0.361 N 
HETATM   35  C24 UNL     1      -6.183   3.508  -0.033  1.00  0.00     0.181 A 
ATOM     36  H5  UNL     1      -6.278   5.482  -0.586  1.00  0.00     0.166 HD
HETATM   37  N6  UNL     1      -5.440   2.383   0.004  1.00  0.00    -0.338 N 
ATOM     38  H6  UNL     1      -5.807   1.522   0.409  1.00  0.00     0.168 HD
HETATM   39  N7  UNL     1      -3.220   1.499  -0.625  1.00  0.00    -0.341 N 
ATOM     40  H7  UNL     1      -3.319   0.538  -0.299  1.00  0.00     0.167 HD
ENDBRANCH   7  29
TORSDOF 7
