REMARK  5 active torsions:
REMARK  status: ('A' for Active; 'I' for Inactive)
REMARK    1  A    between atoms: N2_5  and  C3_6 
REMARK    2  A    between atoms: N3_11  and  O1_12 
REMARK    3  A    between atoms: C8_14  and  N4_15 
REMARK    4  A    between atoms: C9_18  and  C10_19 
REMARK    5  A    between atoms: C10_19  and  C11_20 
ROOT
HETATM    1  C1  UNL     1      -1.273  -0.572   2.067  1.00  0.00     0.045 C 
HETATM    2  C2  UNL     1      -0.464  -0.178   1.112  1.00  0.00     0.053 A 
HETATM    3  N1  UNL     1       0.885  -0.298   1.161  1.00  0.00    -0.291 N 
ATOM      4  H1  UNL     1       1.394  -0.706   1.945  1.00  0.00     0.187 HD
HETATM    5  N2  UNL     1       1.461   0.176   0.074  1.00  0.00    -0.221 N 
HETATM    6  C8  UNL     1       0.492   0.612  -0.700  1.00  0.00     0.135 A 
HETATM    7  C9  UNL     1      -0.765   0.416  -0.095  1.00  0.00     0.039 A 
ENDROOT
BRANCH   5   8
HETATM    8  C3  UNL     1       2.861   0.166  -0.117  1.00  0.00     0.155 A 
HETATM    9  C4  UNL     1       3.575   1.339  -0.223  1.00  0.00     0.053 A 
HETATM   10  C5  UNL     1       4.929   1.252  -0.408  1.00  0.00     0.005 A 
HETATM   11  C6  UNL     1       5.609   0.051  -0.492  1.00  0.00     0.020 A 
HETATM   12  C7  UNL     1       4.850  -1.097  -0.379  1.00  0.00     0.125 A 
HETATM   13  N3  UNL     1       3.515  -1.020  -0.198  1.00  0.00    -0.217 N 
BRANCH  13  14
HETATM   14  O1  UNL     1       2.834  -2.226  -0.096  1.00  0.00    -0.281 OA
ATOM     15  H1  UNL     1       3.292  -3.056  -0.153  1.00  0.00     0.245 HD
ENDBRANCH  13  14
ENDBRANCH   5   8
BRANCH   6  16
HETATM   16  N4  UNL     1       0.617   1.151  -1.856  1.00  0.00    -0.383 N 
ATOM     17  H42 UNL     1       1.527   1.293  -2.294  1.00  0.00     0.157 HD
ATOM     18  H41 UNL     1      -0.135   1.489  -2.457  1.00  0.00     0.157 HD
ENDBRANCH   6  16
BRANCH   7  19
HETATM   19  C10 UNL     1      -1.902   0.744  -0.614  1.00  0.00     0.049 C 
BRANCH  19  20
HETATM   20  C11 UNL     1      -3.248   0.602  -0.109  1.00  0.00     0.057 A 
HETATM   21  N5  UNL     1      -3.973   1.460   0.668  1.00  0.00    -0.364 N 
HETATM   22  C12 UNL     1      -5.190   0.995   0.899  1.00  0.00     0.090 A 
ATOM     23  H5  UNL     1      -3.620   2.348   1.025  1.00  0.00     0.165 HD
HETATM   24  C13 UNL     1      -5.332  -0.221   0.271  1.00  0.00     0.046 A 
HETATM   25  C14 UNL     1      -4.127  -0.464  -0.354  1.00  0.00     0.074 A 
HETATM   26  N6  UNL     1      -3.773  -1.598  -1.136  1.00  0.00    -0.100 NA
ENDBRANCH  19  20
ENDBRANCH   7  19
TORSDOF 5
