REMARK  6 active torsions:
REMARK  status: ('A' for Active; 'I' for Inactive)
REMARK    1  A    between atoms: O1_2  and  C2_3 
REMARK    2  A    between atoms: C2_3  and  C3_4 
REMARK    3  A    between atoms: C4_7  and  C5_8 
REMARK    4  A    between atoms: C5_8  and  C6_9 
REMARK    5  A    between atoms: C13_20  and  N4_21 
REMARK    6  A    between atoms: N4_21  and  N5_23 
ROOT
HETATM    1  C3  UNL     1       2.637  -0.302  -0.433  1.00  0.00     0.129 A 
HETATM    2  N1  UNL     1       1.351   0.036  -0.258  1.00  0.00    -0.338 N 
ATOM      3  H1  UNL     1       0.971   0.612   0.493  1.00  0.00     0.167 HD
HETATM    4  C4  UNL     1       0.652  -0.534  -1.269  1.00  0.00     0.080 A 
HETATM    5  C13 UNL     1       1.528  -1.219  -2.054  1.00  0.00     0.148 A 
HETATM    6  N6  UNL     1       2.781  -1.069  -1.521  1.00  0.00    -0.324 N 
ATOM      7  H6  UNL     1       3.650  -1.463  -1.881  1.00  0.00     0.169 HD
ENDROOT
BRANCH   4   8
HETATM    8  C5  UNL     1      -0.653  -0.409  -1.411  1.00  0.00     0.048 C 
BRANCH   8   9
HETATM    9  C6  UNL     1      -1.447   0.372  -0.464  1.00  0.00     0.011 A 
HETATM   10  C7  UNL     1      -1.409   1.726  -0.223  1.00  0.00     0.102 A 
HETATM   11  N2  UNL     1      -2.304   2.043   0.729  1.00  0.00    -0.363 N 
HETATM   12  C8  UNL     1      -2.941   0.932   1.131  1.00  0.00     0.059 A 
ATOM     13  H2  UNL     1      -2.473   2.982   1.090  1.00  0.00     0.165 HD
HETATM   14  C9  UNL     1      -3.928   0.670   2.055  1.00  0.00     0.033 A 
HETATM   15  C12 UNL     1      -2.410  -0.122   0.388  1.00  0.00     0.070 A 
HETATM   16  C10 UNL     1      -4.352  -0.624   2.208  1.00  0.00     0.019 A 
HETATM   17  C11 UNL     1      -3.828  -1.674   1.472  1.00  0.00     0.088 A 
HETATM   18  N3  UNL     1      -2.859  -1.372   0.575  1.00  0.00    -0.363 N 
ATOM     19  H3  UNL     1      -2.454  -2.126   0.019  1.00  0.00     0.165 HD
ENDBRANCH   8   9
ENDBRANCH   4   8
BRANCH   5  20
HETATM   20  N4  UNL     1       1.372  -1.914  -3.112  1.00  0.00    -0.290 N 
ATOM     21  H4  UNL     1       2.211  -2.332  -3.514  1.00  0.00     0.188 HD
BRANCH  20  22
HETATM   22  N5  UNL     1       0.191  -2.156  -3.762  1.00  0.00    -0.344 N 
ATOM     23  H52 UNL     1      -0.637  -1.730  -3.345  1.00  0.00     0.176 HD
ATOM     24  H51 UNL     1       0.066  -2.712  -4.608  1.00  0.00     0.176 HD
ENDBRANCH  20  22
ENDBRANCH   5  20
BRANCH   1  25
HETATM   25  C2  UNL     1       3.625   0.065   0.352  1.00  0.00     0.182 C 
BRANCH  25  26
HETATM   26  O1  UNL     1       3.368   0.858   1.450  1.00  0.00    -0.364 OA
HETATM   27  C1  UNL     1       4.339   1.798   1.919  1.00  0.00     0.209 C 
ENDBRANCH  25  26
ENDBRANCH   1  25
TORSDOF 6
