REMARK  4 active torsions:
REMARK  status: ('A' for Active; 'I' for Inactive)
REMARK    1  A    between atoms: C3_3  and  O1_4 
REMARK    2  A    between atoms: N1_12  and  C10_14 
REMARK    3  A    between atoms: C11_19  and  C13_21 
REMARK    4  A    between atoms: C13_21  and  O3_23 
ROOT
HETATM    1  C1  UNL     1      -2.614   0.289   1.966  1.00  0.00     0.017 C 
HETATM    2  C2  UNL     1      -1.846   0.170   0.908  1.00  0.00    -0.048 C 
HETATM    3  C3  UNL     1      -2.439   0.331  -0.439  1.00  0.00     0.150 C 
HETATM    4  C4  UNL     1      -1.930  -0.660  -1.435  1.00  0.00     0.015 C 
HETATM    5  C5  UNL     1      -2.823  -1.878  -1.375  1.00  0.00     0.012 C 
HETATM    6  C6  UNL     1      -0.471  -1.028  -1.270  1.00  0.00     0.016 C 
HETATM    7  C7  UNL     1       0.160  -0.029  -0.407  1.00  0.00     0.039 C 
HETATM    8  C8  UNL     1      -0.433  -0.115   1.020  1.00  0.00     0.098 C 
HETATM    9  C9  UNL     1       0.391   0.932   1.643  1.00  0.00     0.128 C 
HETATM   10  N1  UNL     1      -0.021   1.731   2.561  1.00  0.00    -0.336 N 
ATOM     11  H1  UNL     1      -0.984   1.636   2.882  1.00  0.00     0.168 HD
HETATM   12  O2  UNL     1       1.628   0.838   1.029  1.00  0.00    -0.325 OA
HETATM   13  C11 UNL     1       1.590  -0.139  -0.047  1.00  0.00     0.095 C 
HETATM   14  C12 UNL     1       2.000  -1.447   0.548  1.00  0.00     0.050 C 
ENDROOT
BRANCH  10  15
HETATM   15  C10 UNL     1       0.781   2.735   3.153  1.00  0.00     0.175 C 
HETATM   16  N2  UNL     1       1.117   3.819   2.529  1.00  0.00    -0.395 N 
ATOM     17  H22 UNL     1       0.782   3.938   1.573  1.00  0.00     0.156 HD
ATOM     18  H21 UNL     1       1.695   4.543   2.956  1.00  0.00     0.156 HD
ENDBRANCH  10  15
BRANCH  13  19
HETATM   19  C13 UNL     1       2.542   0.363  -1.112  1.00  0.00     0.149 C 
HETATM   20  C14 UNL     1       2.600  -0.663  -2.222  1.00  0.00     0.042 C 
BRANCH  19  21
HETATM   21  O3  UNL     1       3.838   0.522  -0.554  1.00  0.00    -0.393 OA
ATOM     22  H3  UNL     1       4.435   0.837  -1.222  1.00  0.00     0.210 HD
ENDBRANCH  19  21
ENDBRANCH  13  19
BRANCH   3  23
HETATM   23  O1  UNL     1      -3.833   0.359  -0.379  1.00  0.00    -0.391 OA
ATOM     24  H1  UNL     1      -4.214   0.462  -1.243  1.00  0.00     0.210 HD
ENDBRANCH   3  23
TORSDOF 4
