REMARK  4 active torsions:
REMARK  status: ('A' for Active; 'I' for Inactive)
REMARK    1  A    between atoms: C3_5  and  N2_6 
REMARK    2  A    between atoms: N2_6  and  C4_8 
REMARK    3  A    between atoms: C12_23  and  C13_24 
REMARK    4  A    between atoms: C13_24  and  O2_25 
ROOT
HETATM    1  C1  UNL     1      -3.833  -1.887   0.372  1.00  0.00     0.044 C 
HETATM    2  C2  UNL     1      -2.750  -1.197   0.186  1.00  0.00     0.057 A 
HETATM    3  N1  UNL     1      -1.553  -1.727   0.566  1.00  0.00    -0.191 N 
ATOM      4  H1  UNL     1      -1.555  -2.656   0.986  1.00  0.00     0.184 HD
HETATM    5  C3  UNL     1      -0.380  -1.110   0.424  1.00  0.00     0.700 A 
HETATM    6  N5  UNL     1      -0.344   0.110  -0.124  1.00  0.00    -0.155 N 
ATOM      7  H5  UNL     1       0.541   0.602  -0.243  1.00  0.00     0.187 HD
HETATM    8  C11 UNL     1      -1.491   0.668  -0.511  1.00  0.00     0.274 A 
HETATM    9  O1  UNL     1      -1.454   1.821  -1.028  1.00  0.00    -0.267 OA
HETATM   10  C12 UNL     1      -2.750   0.059  -0.382  1.00  0.00     0.081 A 
ENDROOT
BRANCH   5  11
HETATM   11  N2  UNL     1       0.710  -1.703   0.820  1.00  0.00    -0.022 N 
ATOM     12  H2  UNL     1       0.685  -2.633   1.238  1.00  0.00     0.203 HD
BRANCH  11  13
HETATM   13  C4  UNL     1       1.933  -1.006   0.648  1.00  0.00     0.697 A 
HETATM   14  N3  UNL     1       2.428  -0.058   1.454  1.00  0.00    -0.189 N 
HETATM   15  C5  UNL     1       3.602   0.340   0.931  1.00  0.00     0.076 A 
ATOM     16  H3  UNL     1       1.995   0.297   2.307  1.00  0.00     0.184 HD
HETATM   17  C6  UNL     1       4.533   1.287   1.348  1.00  0.00     0.032 A 
HETATM   18  C10 UNL     1       3.843  -0.385  -0.240  1.00  0.00     0.076 A 
HETATM   19  C7  UNL     1       5.665   1.475   0.584  1.00  0.00     0.002 A 
HETATM   20  C8  UNL     1       5.904   0.760  -0.570  1.00  0.00     0.002 A 
HETATM   21  C9  UNL     1       4.984  -0.185  -0.995  1.00  0.00     0.032 A 
HETATM   22  N4  UNL     1       2.784  -1.202  -0.370  1.00  0.00    -0.189 N 
ATOM     23  H4  UNL     1       2.648  -1.870  -1.128  1.00  0.00     0.184 HD
ENDBRANCH  11  13
ENDBRANCH   5  11
BRANCH  10  24
HETATM   24  C13 UNL     1      -3.809   0.713  -0.802  1.00  0.00     0.153 C 
BRANCH  24  25
HETATM   25  O2  UNL     1      -5.094   0.259  -0.747  1.00  0.00    -0.367 OA
HETATM   26  C14 UNL     1      -6.141   1.177  -0.483  1.00  0.00     0.208 C 
ENDBRANCH  24  25
ENDBRANCH  10  24
TORSDOF 4
