REMARK  0 active torsions:
REMARK  status: ('A' for Active; 'I' for Inactive)
ROOT
HETATM    1  C1  UNL     1       1.869   0.409   0.363  1.00  0.00     0.010 C 
HETATM    2  C2  UNL     1       0.566   0.540  -0.404  1.00  0.00    -0.018 C 
HETATM    3  C3  UNL     1       0.187  -0.845  -0.868  1.00  0.00     0.004 C 
HETATM    4  C4  UNL     1      -0.887  -1.221   0.159  1.00  0.00     0.000 C 
HETATM    5  C5  UNL     1      -1.686   0.086   0.115  1.00  0.00     0.000 C 
HETATM    6  C6  UNL     1      -0.549   1.063   0.439  1.00  0.00     0.004 C 
ENDROOT
TORSDOF 0
