REMARK  18 active torsions:
REMARK  status: ('A' for Active; 'I' for Inactive)
REMARK    1  A    between atoms: N1_2  and  C3_4 
REMARK    2  A    between atoms: C3_4  and  N2_6 
REMARK    3  A    between atoms: N2_6  and  C4_8 
REMARK    4  A    between atoms: C4_8  and  C5_9 
REMARK    5  A    between atoms: C5_9  and  N3_10 
REMARK    6  A    between atoms: N3_10  and  C6_12 
REMARK    7  A    between atoms: C6_12  and  C7_13 
REMARK    8  A    between atoms: C7_13  and  C8_14 
REMARK    9  A    between atoms: C8_14  and  C9_15 
REMARK   10  A    between atoms: C9_15  and  N4_16 
REMARK   11  A    between atoms: N4_16  and  C10_19 
REMARK   12  A    between atoms: C10_19  and  C11_20 
REMARK   13  A    between atoms: C11_20  and  C12_21 
REMARK   14  A    between atoms: C12_21  and  N5_22 
REMARK   15  A    between atoms: N5_22  and  C13_24 
REMARK   16  A    between atoms: C13_24  and  C14_25 
REMARK   17  A    between atoms: C14_25  and  N6_26 
REMARK   18  A    between atoms: N6_26  and  C15_28 
ROOT
HETATM    1  N4  UNL     1       1.200   1.004   0.098  1.00  0.00    -0.075 N 
ATOM      2  H41 UNL     1       1.818   1.809   0.194  1.00  0.00     0.277 HD
ATOM      3  H42 UNL     1       1.675   0.551  -0.683  1.00  0.00     0.277 HD
ENDROOT
BRANCH   1   4
HETATM    4  C9  UNL     1      -0.169   1.390  -0.232  1.00  0.00     0.232 C 
BRANCH   4   5
HETATM    5  C8  UNL     1      -0.648   2.409   0.738  1.00  0.00     0.029 C 
BRANCH   5   6
HETATM    6  C7  UNL     1      -2.088   2.864   0.494  1.00  0.00     0.021 C 
BRANCH   6   7
HETATM    7  C6  UNL     1      -3.001   1.680   0.702  1.00  0.00     0.113 C 
BRANCH   7   8
HETATM    8  N3  UNL     1      -4.343   2.099   0.490  1.00  0.00    -0.420 N 
ATOM      9  H3  UNL     1      -5.003   2.188   1.262  1.00  0.00     0.153 HD
BRANCH   8  10
HETATM   10  C5  UNL     1      -4.724   2.391  -0.860  1.00  0.00     0.133 C 
BRANCH  10  11
HETATM   11  C4  UNL     1      -4.740   1.017  -1.570  1.00  0.00     0.141 C 
BRANCH  11  12
HETATM   12  N2  UNL     1      -5.686   0.202  -0.821  1.00  0.00    -0.366 N 
ATOM     13  H2  UNL     1      -6.207   0.600  -0.039  1.00  0.00     0.161 HD
BRANCH  12  14
HETATM   14  C3  UNL     1      -5.872  -1.151  -1.194  1.00  0.00     0.169 C 
HETATM   15  S1  UNL     1      -5.037  -1.756  -2.461  1.00  0.00    -0.041 SA
BRANCH  14  16
HETATM   16  N1  UNL     1      -6.786  -1.930  -0.450  1.00  0.00    -0.367 N 
HETATM   17  C1  UNL     1      -7.505  -1.326   0.649  1.00  0.00     0.151 C 
HETATM   18  C2  UNL     1      -6.985  -3.314  -0.775  1.00  0.00     0.151 C 
ENDBRANCH  14  16
ENDBRANCH  12  14
ENDBRANCH  11  12
ENDBRANCH  10  11
ENDBRANCH   8  10
ENDBRANCH   7   8
ENDBRANCH   6   7
ENDBRANCH   5   6
ENDBRANCH   4   5
ENDBRANCH   1   4
BRANCH   1  19
HETATM   19  C10 UNL     1       1.183   0.181   1.282  1.00  0.00     0.234 C 
BRANCH  19  20
HETATM   20  C11 UNL     1       2.575  -0.187   1.662  1.00  0.00     0.047 C 
BRANCH  20  21
HETATM   21  C12 UNL     1       3.351  -0.900   0.555  1.00  0.00     0.120 C 
BRANCH  21  22
HETATM   22  N5  UNL     1       3.485  -0.053  -0.569  1.00  0.00    -0.401 N 
ATOM     23  H5  UNL     1       3.061   0.874  -0.554  1.00  0.00     0.158 HD
BRANCH  22  24
HETATM   24  C13 UNL     1       4.197  -0.474  -1.709  1.00  0.00     0.075 C 
BRANCH  24  25
HETATM   25  C14 UNL     1       5.677  -0.624  -1.577  1.00  0.00     0.165 C 
BRANCH  25  26
HETATM   26  N6  UNL     1       6.127  -1.607  -0.643  1.00  0.00    -0.370 N 
ATOM     27  H6  UNL     1       5.550  -2.439  -0.519  1.00  0.00     0.161 HD
BRANCH  26  28
HETATM   28  C15 UNL     1       7.220  -1.520   0.063  1.00  0.00     0.117 A 
HETATM   29  C16 UNL     1       7.631  -2.499   0.967  1.00  0.00     0.068 A 
HETATM   30  C17 UNL     1       8.805  -2.042   1.506  1.00  0.00     0.111 A 
HETATM   31  N7  UNL     1       9.111  -0.842   0.966  1.00  0.00    -0.310 N 
HETATM   32  N8  UNL     1       8.146  -0.565   0.113  1.00  0.00    -0.286 N 
ATOM     33  H7  UNL     1       9.926  -0.266   1.177  1.00  0.00     0.186 HD
ATOM     34  H8  UNL     1       8.112   0.287  -0.447  1.00  0.00     0.188 HD
ENDBRANCH  26  28
ENDBRANCH  25  26
ENDBRANCH  24  25
ENDBRANCH  22  24
ENDBRANCH  21  22
ENDBRANCH  20  21
ENDBRANCH  19  20
ENDBRANCH   1  19
TORSDOF 18
