REMARK  7 active torsions:
REMARK  status: ('A' for Active; 'I' for Inactive)
REMARK    1  A    between atoms: C3_5  and  C4_6 
REMARK       I    between atoms: C4_6  and  N2_8 
REMARK    2  A    between atoms: N2_8  and  C5_10 
REMARK    3  A    between atoms: C5_10  and  C6_11 
REMARK    4  A    between atoms: C6_11  and  S2_12 
REMARK    5  A    between atoms: S2_12  and  N3_15 
REMARK    6  A    between atoms: C13_22  and  S3_23 
REMARK    7  A    between atoms: S3_23  and  N4_26 
ROOT
HETATM    1  N1  UNL     1       5.238  -4.527  -2.815  1.00  0.00    -0.191 NA
HETATM    2  C1  UNL     1       4.428  -3.835  -2.360  1.00  0.00     0.108 C 
HETATM    3  C2  UNL     1       3.391  -2.978  -1.794  1.00  0.00     0.109 A 
HETATM    4  S1  UNL     1       1.716  -3.257  -1.698  1.00  0.00    -0.072 SA
HETATM    5  C3  UNL     1       1.240  -1.811  -0.920  1.00  0.00     0.075 A 
HETATM    6  C12 UNL     1       2.430  -1.149  -0.760  1.00  0.00     0.052 A 
HETATM    7  C13 UNL     1       3.538  -1.743  -1.207  1.00  0.00     0.109 A 
ENDROOT
BRANCH   7   8
HETATM    8  S3  UNL     1       5.163  -1.023  -1.088  1.00  0.00     0.266 S 
HETATM    9  O4  UNL     1       5.984  -1.969  -0.276  1.00  0.00    -0.200 OA
HETATM   10  O5  UNL     1       5.747  -0.830  -2.456  1.00  0.00    -0.200 OA
BRANCH   8  11
HETATM   11  N4  UNL     1       5.128   0.495  -0.290  1.00  0.00    -0.285 N 
HETATM   12  C14 UNL     1       4.670   0.405   1.035  1.00  0.00     0.086 C 
HETATM   13  C15 UNL     1       5.692   0.838   2.077  1.00  0.00     0.119 C 
HETATM   14  S4  UNL     1       6.153   2.598   1.701  1.00  0.00    -0.162 SA
HETATM   15  C16 UNL     1       5.928   2.766  -0.141  1.00  0.00     0.095 C 
HETATM   16  C17 UNL     1       6.208   1.337  -0.626  1.00  0.00     0.151 C 
ENDBRANCH   8  11
ENDBRANCH   7   8
BRANCH   5  17
HETATM   17  C4  UNL     1      -0.122  -1.382  -0.519  1.00  0.00     0.258 C 
HETATM   18  O1  UNL     1      -1.062  -2.176  -0.779  1.00  0.00    -0.267 OA
HETATM   19  N2  UNL     1      -0.258  -0.137   0.112  1.00  0.00    -0.355 N 
ATOM     20  H2  UNL     1       0.575   0.429   0.271  1.00  0.00     0.162 HD
BRANCH  19  21
HETATM   21  C5  UNL     1      -1.539   0.369   0.543  1.00  0.00     0.139 C 
BRANCH  21  22
HETATM   22  C6  UNL     1      -2.202  -0.521   1.563  1.00  0.00     0.182 C 
BRANCH  22  23
HETATM   23  S2  UNL     1      -3.746   0.058   2.140  1.00  0.00     0.230 S 
HETATM   24  O2  UNL     1      -4.278  -0.874   3.225  1.00  0.00    -0.206 OA
HETATM   25  O3  UNL     1      -3.488   1.371   2.878  1.00  0.00    -0.206 OA
BRANCH  23  26
HETATM   26  N3  UNL     1      -4.963   0.262   0.997  1.00  0.00    -0.311 N 
HETATM   27  C7  UNL     1      -4.743   1.203  -0.045  1.00  0.00     0.135 C 
HETATM   28  C8  UNL     1      -6.085   1.922  -0.253  1.00  0.00     0.021 C 
HETATM   29  C9  UNL     1      -7.164   0.882  -0.266  1.00  0.00     0.003 C 
HETATM   30  C10 UNL     1      -6.650  -0.520  -0.482  1.00  0.00     0.021 C 
HETATM   31  C11 UNL     1      -5.625  -0.921   0.556  1.00  0.00     0.135 C 
ENDBRANCH  23  26
ENDBRANCH  22  23
ENDBRANCH  21  22
ENDBRANCH  19  21
ENDBRANCH   5  17
TORSDOF 7
