REMARK  11 active torsions:
REMARK  status: ('A' for Active; 'I' for Inactive)
REMARK    1  A    between atoms: O1_2  and  C2_3 
REMARK    2  A    between atoms: C2_3  and  C3_4 
REMARK    3  A    between atoms: C3_4  and  C4_5 
REMARK    4  A    between atoms: C6_8  and  O2_9 
REMARK    5  A    between atoms: C6_8  and  C7_11 
REMARK    6  A    between atoms: C8_12  and  O3_13 
REMARK    7  A    between atoms: C9_15  and  O4_16 
REMARK    8  A    between atoms: C10_18  and  C11_19 
REMARK    9  A    between atoms: C12_20  and  O5_21 
REMARK   10  A    between atoms: C18_36  and  C19_37 
REMARK   11  A    between atoms: C20_40  and  O12_41 
ROOT
HETATM    1  C4  UNL     1      -5.326   0.774   1.812  1.00  0.00     0.130 C 
HETATM    2  C5  UNL     1      -4.089   1.172   2.460  1.00  0.00     0.059 C 
HETATM    3  N1  UNL     1      -3.120   1.496   3.001  1.00  0.00    -0.197 NA
ENDROOT
BRANCH   1   4
HETATM    4  C3  UNL     1      -5.447   1.045   0.370  1.00  0.00     0.081 C 
BRANCH   4   5
HETATM    5  C2  UNL     1      -4.408   0.319  -0.518  1.00  0.00     0.080 C 
HETATM    6  C6  UNL     1      -3.154   1.017  -0.556  1.00  0.00     0.110 C 
BRANCH   5   7
HETATM    7  O1  UNL     1      -4.540  -0.989  -0.333  1.00  0.00    -0.357 OA
HETATM    8  C1  UNL     1      -5.204  -1.655  -1.406  1.00  0.00     0.209 C 
ENDBRANCH   5   7
BRANCH   6   9
HETATM    9  O2  UNL     1      -3.344   2.325  -0.885  1.00  0.00    -0.357 OA
ATOM     10  H2  UNL     1      -2.514   2.787  -0.910  1.00  0.00     0.217 HD
ENDBRANCH   6   9
BRANCH   6  11
HETATM   11  C7  UNL     1      -1.758   0.732  -0.350  1.00  0.00     0.070 A 
HETATM   12  C8  UNL     1      -0.807   1.757  -0.537  1.00  0.00     0.115 A 
HETATM   13  C9  UNL     1       0.514   1.535  -0.325  1.00  0.00     0.112 A 
HETATM   14  C10 UNL     1       0.994   0.281   0.087  1.00  0.00     0.039 A 
HETATM   15  C18 UNL     1       0.106  -0.726   0.276  1.00  0.00     0.089 A 
HETATM   16  C20 UNL     1      -1.277  -0.518   0.062  1.00  0.00     0.099 A 
BRANCH  12  17
HETATM   17  O3  UNL     1      -1.284   2.984  -0.941  1.00  0.00    -0.357 OA
ATOM     18  H3  UNL     1      -0.644   3.674  -1.067  1.00  0.00     0.217 HD
ENDBRANCH  12  17
BRANCH  13  19
HETATM   19  O4  UNL     1       1.447   2.526  -0.504  1.00  0.00    -0.357 OA
ATOM     20  H4  UNL     1       2.372   2.370  -0.355  1.00  0.00     0.217 HD
ENDBRANCH  13  19
BRANCH  14  21
HETATM   21  C11 UNL     1       2.422   0.130   0.291  1.00  0.00     0.089 A 
HETATM   22  C12 UNL     1       3.214  -0.260  -0.789  1.00  0.00     0.112 A 
HETATM   23  C13 UNL     1       4.571  -0.381  -0.656  1.00  0.00     0.110 A 
HETATM   24  N2  UNL     1       5.377  -0.755  -1.671  1.00  0.00    -0.303 N 
HETATM   25  C16 UNL     1       5.112  -0.098   0.605  1.00  0.00     0.177 A 
HETATM   26  C14 UNL     1       6.701  -0.864  -1.506  1.00  0.00     0.327 A 
ATOM     27  H2  UNL     1       4.969  -0.959  -2.583  1.00  0.00     0.171 HD
HETATM   28  O6  UNL     1       7.452  -1.220  -2.481  1.00  0.00    -0.247 OA
HETATM   29  N3  UNL     1       7.217  -0.592  -0.298  1.00  0.00    -0.273 N 
HETATM   30  C15 UNL     1       6.471  -0.216   0.749  1.00  0.00     0.285 A 
ATOM     31  H3  UNL     1       8.226  -0.675  -0.171  1.00  0.00     0.173 HD
HETATM   32  O7  UNL     1       6.955   0.040   1.886  1.00  0.00    -0.265 OA
HETATM   33  O8  UNL     1       4.340   0.264   1.592  1.00  0.00    -0.267 OA
HETATM   34  C17 UNL     1       3.041   0.390   1.499  1.00  0.00     0.302 A 
HETATM   35  O9  UNL     1       2.327   0.747   2.494  1.00  0.00    -0.259 OA
BRANCH  22  36
HETATM   36  O5  UNL     1       2.626  -0.526  -2.004  1.00  0.00    -0.357 OA
ATOM     37  H5  UNL     1       3.165  -0.792  -2.740  1.00  0.00     0.217 HD
ENDBRANCH  22  36
ENDBRANCH  14  21
BRANCH  15  38
HETATM   38  C19 UNL     1       0.592  -2.022   0.704  1.00  0.00     0.213 C 
HETATM   39  O10 UNL     1      -0.201  -2.977   0.892  1.00  0.00    -0.644 OA
HETATM   40  O11 UNL     1       1.938  -2.318   0.940  1.00  0.00    -0.644 OA
ENDBRANCH  15  38
BRANCH  16  41
HETATM   41  O12 UNL     1      -2.121  -1.530   0.261  1.00  0.00    -0.358 OA
ATOM     42  H12 UNL     1      -1.795  -2.377   0.540  1.00  0.00     0.217 HD
ENDBRANCH  16  41
ENDBRANCH   6  11
ENDBRANCH   4   5
ENDBRANCH   1   4
TORSDOF 11
