REMARK  4 active torsions:
REMARK  status: ('A' for Active; 'I' for Inactive)
REMARK    1  A    between atoms: O1_2  and  C2_3 
REMARK    2  A    between atoms: C5_13  and  N3_14 
REMARK    3  A    between atoms: C5_13  and  N4_18 
REMARK    4  A    between atoms: N4_18  and  N5_19 
ROOT
HETATM    1  C2  UNL     1      -1.765   0.356  -0.391  1.00  0.00     0.287 C 
HETATM    2  N1  UNL     1      -2.914  -0.199   0.294  1.00  0.00    -0.326 N 
ATOM      3  H1  UNL     1      -3.667   0.428   0.577  1.00  0.00     0.165 HD
HETATM    4  C3  UNL     1      -3.032  -1.580   0.586  1.00  0.00     0.222 C 
HETATM    5  N2  UNL     1      -3.790  -1.937   1.554  1.00  0.00    -0.365 N 
ATOM      6  H21 UNL     1      -3.875  -2.931   1.764  1.00  0.00     0.159 HD
ATOM      7  H22 UNL     1      -4.320  -1.288   2.135  1.00  0.00     0.159 HD
HETATM    8  O2  UNL     1      -2.309  -2.466  -0.207  1.00  0.00    -0.243 OA
HETATM    9  C4  UNL     1      -1.540  -1.928  -1.207  1.00  0.00     0.325 C 
HETATM   10  O3  UNL     1      -1.440  -2.508  -2.296  1.00  0.00    -0.260 OA
HETATM   11  C5  UNL     1      -0.839  -0.660  -0.971  1.00  0.00     0.337 C 
ENDROOT
BRANCH  11  12
HETATM   12  N3  UNL     1      -0.392  -0.142  -2.267  1.00  0.00    -0.040 N 
ATOM     13  H33 UNL     1      -1.163   0.099  -2.890  1.00  0.00     0.277 HD
ATOM     14  H32 UNL     1       0.022   0.788  -2.206  1.00  0.00     0.277 HD
ATOM     15  H31 UNL     1       0.241  -0.837  -2.664  1.00  0.00     0.277 HD
ENDBRANCH  11  12
BRANCH  11  16
HETATM   16  N4  UNL     1       0.289  -0.967  -0.122  1.00  0.00    -0.111 NA
BRANCH  16  17
HETATM   17  N5  UNL     1       1.092   0.106   0.165  1.00  0.00    -0.228 NA
HETATM   18  C6  UNL     1       1.501   0.014   1.555  1.00  0.00     0.135 C 
HETATM   19  C7  UNL     1       2.989  -0.208   1.690  1.00  0.00     0.183 C 
HETATM   20  O4  UNL     1       3.738   0.786   1.101  1.00  0.00    -0.389 OA
HETATM   21  C8  UNL     1       3.291   1.126  -0.156  1.00  0.00     0.183 C 
HETATM   22  C9  UNL     1       2.305   0.090  -0.631  1.00  0.00     0.135 C 
ENDBRANCH  16  17
ENDBRANCH  11  16
BRANCH   1  23
HETATM   23  O1  UNL     1      -1.158   1.240   0.468  1.00  0.00    -0.367 OA
HETATM   24  C1  UNL     1      -1.327   2.534  -0.007  1.00  0.00     0.204 C 
ENDBRANCH   1  23
TORSDOF 4
