REMARK  11 active torsions:
REMARK  status: ('A' for Active; 'I' for Inactive)
REMARK    1  A    between atoms: O1_2  and  C2_3 
REMARK    2  A    between atoms: C3_5  and  C4_6 
REMARK    3  A    between atoms: C4_6  and  N1_7 
REMARK    4  A    between atoms: N1_7  and  N2_8 
REMARK    5  A    between atoms: C6_12  and  O3_13 
REMARK    6  A    between atoms: O3_13  and  C7_14 
REMARK    7  A    between atoms: C10_21  and  O5_22 
REMARK    8  A    between atoms: O5_22  and  C11_23 
REMARK    9  A    between atoms: C13_25  and  N4_26 
REMARK   10  A    between atoms: C15_31  and  N5_32 
REMARK   11  A    between atoms: C16_36  and  O6_37 
ROOT
HETATM    1  C2  UNL     1      -0.468  -1.754   0.029  1.00  0.00     0.290 C 
HETATM    2  O2  UNL     1      -1.320  -1.452  -1.092  1.00  0.00    -0.352 OA
HETATM    3  C3  UNL     1      -2.542  -1.360  -0.483  1.00  0.00     0.143 C 
HETATM    4  C5  UNL     1      -2.708  -0.229   0.414  1.00  0.00     0.068 C 
HETATM    5  C6  UNL     1      -1.353   0.439   0.791  1.00  0.00     0.162 C 
HETATM    6  C10 UNL     1      -0.166  -0.402   0.644  1.00  0.00     0.206 C 
ENDROOT
BRANCH   6   7
HETATM    7  O5  UNL     1       0.725   0.299  -0.161  1.00  0.00    -0.370 OA
BRANCH   7   8
HETATM    8  C11 UNL     1       2.032   0.136   0.162  1.00  0.00     0.155 C 
HETATM    9  C12 UNL     1       2.608   1.391   0.891  1.00  0.00     0.067 C 
HETATM   10  C13 UNL     1       4.048   1.146   1.155  1.00  0.00     0.188 C 
HETATM   11  C14 UNL     1       4.853   0.787  -0.066  1.00  0.00     0.068 C 
HETATM   12  C15 UNL     1       4.187  -0.342  -0.876  1.00  0.00     0.216 C 
HETATM   13  C16 UNL     1       2.800   0.147  -1.147  1.00  0.00     0.177 C 
BRANCH  10  14
HETATM   14  N4  UNL     1       4.240   0.181   2.196  1.00  0.00    -0.075 N 
ATOM     15  H43 UNL     1       3.746   0.449   3.047  1.00  0.00     0.274 HD
ATOM     16  H42 UNL     1       3.746  -0.688   1.993  1.00  0.00     0.274 HD
ATOM     17  H41 UNL     1       5.230   0.013   2.377  1.00  0.00     0.274 HD
ENDBRANCH  10  14
BRANCH  12  18
HETATM   18  N5  UNL     1       4.958  -0.455  -2.110  1.00  0.00    -0.072 N 
ATOM     19  H53 UNL     1       5.038   0.423  -2.623  1.00  0.00     0.274 HD
ATOM     20  H52 UNL     1       5.956  -0.598  -1.956  1.00  0.00     0.274 HD
ATOM     21  H51 UNL     1       4.517  -1.202  -2.646  1.00  0.00     0.274 HD
ENDBRANCH  12  18
BRANCH  13  22
HETATM   22  O6  UNL     1       2.157  -0.412  -2.215  1.00  0.00    -0.391 OA
ATOM     23  H6  UNL     1       2.638  -0.405  -3.034  1.00  0.00     0.210 HD
ENDBRANCH  13  22
ENDBRANCH   7   8
ENDBRANCH   6   7
BRANCH   1  24
HETATM   24  O1  UNL     1       0.548  -2.522  -0.358  1.00  0.00    -0.363 OA
HETATM   25  C1  UNL     1       0.434  -3.845   0.182  1.00  0.00     0.204 C 
ENDBRANCH   1  24
BRANCH   5  26
HETATM   26  O3  UNL     1      -1.328   1.620  -0.006  1.00  0.00    -0.331 OA
BRANCH  26  27
HETATM   27  C7  UNL     1      -2.041   2.620   0.630  1.00  0.00     0.469 C 
HETATM   28  N3  UNL     1      -3.144   2.970  -0.357  1.00  0.00    -0.023 N 
HETATM   29  C8  UNL     1      -3.705   4.138   0.258  1.00  0.00     0.264 C 
ATOM     30  H32 UNL     1      -2.844   3.086  -1.325  1.00  0.00     0.283 HD
ATOM     31  H31 UNL     1      -3.806   2.220  -0.557  1.00  0.00     0.283 HD
HETATM   32  C9  UNL     1      -2.504   4.744   0.946  1.00  0.00     0.200 C 
HETATM   33  O4  UNL     1      -1.439   3.831   0.770  1.00  0.00    -0.337 OA
ENDBRANCH  26  27
ENDBRANCH   5  26
BRANCH   3  34
HETATM   34  C4  UNL     1      -3.709  -1.768  -1.326  1.00  0.00     0.166 C 
BRANCH  34  35
HETATM   35  N1  UNL     1      -3.470  -3.142  -1.708  1.00  0.00    -0.146 NA
BRANCH  35  36
HETATM   36  N2  UNL     1      -4.461  -3.973  -1.335  1.00  0.00    -0.348 N 
ATOM     37  H22 UNL     1      -5.289  -3.651  -0.835  1.00  0.00     0.172 HD
ATOM     38  H21 UNL     1      -4.292  -4.942  -1.604  1.00  0.00     0.172 HD
ENDBRANCH  35  36
ENDBRANCH  34  35
ENDBRANCH   3  34
TORSDOF 11
