REMARK  13 active torsions:
REMARK  status: ('A' for Active; 'I' for Inactive)
REMARK    1  A    between atoms: C2_2  and  C3_3 
REMARK    2  A    between atoms: N2_5  and  C4_7 
REMARK    3  A    between atoms: C4_7  and  C5_8 
REMARK    4  A    between atoms: C5_8  and  C6_9 
REMARK    5  A    between atoms: C6_9  and  C7_10 
REMARK    6  A    between atoms: C13_19  and  N4_20 
REMARK    7  A    between atoms: N4_20  and  S1_22 
REMARK    8  A    between atoms: C18_32  and  C19_33 
REMARK    9  A    between atoms: C19_33  and  C20_34 
REMARK   10  A    between atoms: C24_41  and  C25_42 
REMARK   11  A    between atoms: C25_42  and  C26_43 
REMARK   12  A    between atoms: N7_48  and  C30_49 
REMARK   13  A    between atoms: C30_49  and  C31_50 
ROOT
HETATM    1  C7  UNL     1       2.357   0.418  -0.274  1.00  0.00     0.179 C 
HETATM    2  C8  UNL     1       1.171   1.140   0.166  1.00  0.00     0.240 C 
HETATM    3  O1  UNL     1       1.131   1.502   1.395  1.00  0.00    -0.271 OA
HETATM    4  N3  UNL     1       0.040   1.503  -0.610  1.00  0.00    -0.358 N 
ATOM      5  H3  UNL     1      -0.826   1.704  -0.111  1.00  0.00     0.162 HD
HETATM    6  C9  UNL     1       0.017   1.611  -2.049  1.00  0.00     0.134 C 
HETATM    7  C10 UNL     1      -0.855   2.825  -2.387  1.00  0.00     0.113 C 
HETATM    8  C11 UNL     1      -2.057   2.893  -1.672  1.00  0.00    -0.103 C 
HETATM    9  C12 UNL     1      -3.012   2.968  -1.089  1.00  0.00    -0.080 C 
HETATM   10  C13 UNL     1      -4.216   3.098  -0.342  1.00  0.00     0.184 C 
HETATM   11  C15 UNL     1      -4.760   1.737   0.020  1.00  0.00     0.109 C 
HETATM   12  C16 UNL     1      -6.271   1.813  -0.065  1.00  0.00     0.023 C 
HETATM   13  C17 UNL     1      -4.288   0.639  -0.858  1.00  0.00     0.229 C 
HETATM   14  O4  UNL     1      -4.981   0.538  -1.945  1.00  0.00    -0.273 OA
HETATM   15  N5  UNL     1      -3.247  -0.271  -0.700  1.00  0.00    -0.322 N 
ATOM     16  H5  UNL     1      -2.525  -0.188  -1.415  1.00  0.00     0.169 HD
HETATM   17  C18 UNL     1      -2.981  -1.300   0.260  1.00  0.00     0.099 C 
HETATM   18  C23 UNL     1      -2.011  -0.894   1.329  1.00  0.00     0.268 C 
HETATM   19  O5  UNL     1      -2.362   0.018   2.176  1.00  0.00    -0.266 OA
HETATM   20  N6  UNL     1      -0.718  -1.402   1.530  1.00  0.00    -0.342 N 
ATOM     21  H6  UNL     1      -0.290  -1.220   2.438  1.00  0.00     0.163 HD
HETATM   22  C24 UNL     1       0.089  -2.177   0.554  1.00  0.00     0.177 C 
HETATM   23  C29 UNL     1       1.511  -1.829   0.681  1.00  0.00     0.243 C 
HETATM   24  O6  UNL     1       2.086  -2.371   1.710  1.00  0.00    -0.271 OA
HETATM   25  N7  UNL     1       2.370  -1.017  -0.103  1.00  0.00    -0.337 N 
ENDROOT
BRANCH   1  26
HETATM   26  C6  UNL     1       3.612   1.077   0.330  1.00  0.00     0.037 C 
BRANCH  26  27
HETATM   27  C5  UNL     1       3.712   2.523  -0.111  1.00  0.00     0.022 C 
BRANCH  27  28
HETATM   28  C4  UNL     1       4.973   3.166   0.486  1.00  0.00     0.120 C 
BRANCH  28  29
HETATM   29  N2  UNL     1       6.154   2.462   0.034  1.00  0.00    -0.382 N 
HETATM   30  C3  UNL     1       7.145   2.233   0.811  1.00  0.00     0.088 C 
HETATM   31  N1  UNL     1       7.078   2.684   2.150  1.00  0.00    -0.088 NA
ATOM     32  H2  UNL     1       6.198   2.139  -0.932  1.00  0.00     0.160 HD
BRANCH  30  33
HETATM   33  C2  UNL     1       8.365   1.516   0.372  1.00  0.00     0.068 C 
HETATM   34  C1  UNL     1       9.591   2.419   0.515  1.00  0.00     0.012 C 
ENDBRANCH  30  33
ENDBRANCH  28  29
ENDBRANCH  27  28
ENDBRANCH  26  27
ENDBRANCH   1  26
BRANCH  25  35
HETATM   35  C30 UNL     1       3.478  -1.683  -0.820  1.00  0.00     0.130 C 
BRANCH  35  36
HETATM   36  C31 UNL     1       3.138  -2.197  -2.165  1.00  0.00    -0.005 C 
HETATM   37  C32 UNL     1       4.369  -2.870  -2.805  1.00  0.00     0.011 C 
HETATM   38  C33 UNL     1       2.622  -1.256  -3.181  1.00  0.00     0.011 C 
ENDBRANCH  35  36
ENDBRANCH  25  35
BRANCH  22  39
HETATM   39  C25 UNL     1      -0.273  -3.595   0.871  1.00  0.00     0.038 C 
BRANCH  39  40
HETATM   40  C26 UNL     1       0.292  -4.716   0.104  1.00  0.00    -0.020 C 
HETATM   41  C27 UNL     1      -0.403  -6.017   0.683  1.00  0.00     0.009 C 
HETATM   42  C28 UNL     1       1.751  -5.050   0.344  1.00  0.00     0.009 C 
ENDBRANCH  39  40
ENDBRANCH  22  39
BRANCH  17  43
HETATM   43  C19 UNL     1      -4.073  -2.165   0.699  1.00  0.00     0.012 C 
BRANCH  43  44
HETATM   44  C20 UNL     1      -5.288  -1.741   1.363  1.00  0.00     0.002 C 
HETATM   45  C21 UNL     1      -6.081  -3.068   1.583  1.00  0.00     0.013 C 
HETATM   46  C22 UNL     1      -5.178  -1.189   2.758  1.00  0.00     0.013 C 
ENDBRANCH  43  44
ENDBRANCH  17  43
BRANCH  10  47
HETATM   47  N4  UNL     1      -5.164   3.855  -1.121  1.00  0.00    -0.303 N 
ATOM     48  H4  UNL     1      -5.501   3.540  -2.031  1.00  0.00     0.173 HD
BRANCH  47  49
HETATM   49  S1  UNL     1      -5.678   5.311  -0.410  1.00  0.00     0.223 S 
HETATM   50  C14 UNL     1      -6.512   5.056   1.132  1.00  0.00     0.186 C 
HETATM   51  O2  UNL     1      -6.668   5.968  -1.339  1.00  0.00    -0.206 OA
HETATM   52  O3  UNL     1      -4.560   6.299  -0.227  1.00  0.00    -0.206 OA
ENDBRANCH  47  49
ENDBRANCH  10  47
TORSDOF 13
