REMARK  17 active torsions:
REMARK  status: ('A' for Active; 'I' for Inactive)
REMARK    1  A    between atoms: C2_2  and  C3_3 
REMARK    2  A    between atoms: C3_3  and  C4_4 
REMARK    3  A    between atoms: C6_7  and  N1_8 
REMARK    4  A    between atoms: C9_11  and  N2_12 
REMARK       I    between atoms: N2_12  and  C10_13 
REMARK    5  A    between atoms: C10_13  and  C11_15 
REMARK    6  A    between atoms: C11_15  and  C12_16 
REMARK    7  A    between atoms: C12_16  and  C13_17 
REMARK    8  A    between atoms: C13_17  and  C14_18 
REMARK    9  A    between atoms: C14_18  and  C15_19 
REMARK   10  A    between atoms: C15_19  and  C16_20 
REMARK   11  A    between atoms: C17_21  and  C18_22 
REMARK   12  A    between atoms: C21_27  and  N4_28 
REMARK   13  A    between atoms: N4_28  and  O3_30 
REMARK   14  A    between atoms: O3_30  and  C22_31 
REMARK   15  A    between atoms: C22_31  and  C23_32 
REMARK   16  A    between atoms: C27_36  and  O4_37 
REMARK   17  A    between atoms: C28_39  and  O5_40 
ROOT
HETATM    1  C18 UNL     1       7.784   2.307  -0.300  1.00  0.00    -0.015 C 
HETATM    2  C19 UNL     1       7.694   3.471  -0.653  1.00  0.00    -0.097 C 
HETATM    3  C20 UNL     1       7.565   4.861  -1.094  1.00  0.00     0.113 C 
ENDROOT
BRANCH   1   4
HETATM    4  C17 UNL     1       7.862   0.951   0.100  1.00  0.00    -0.015 C 
HETATM    5  C16 UNL     1       7.907  -0.222   0.450  1.00  0.00    -0.092 C 
BRANCH   5   6
HETATM    6  C15 UNL     1       7.976  -1.586   0.908  1.00  0.00     0.095 C 
BRANCH   6   7
HETATM    7  C14 UNL     1       6.895  -2.507   0.535  1.00  0.00     0.012 C 
BRANCH   7   8
HETATM    8  C13 UNL     1       6.671  -2.840  -0.879  1.00  0.00     0.001 C 
BRANCH   8   9
HETATM    9  C12 UNL     1       6.295  -1.746  -1.791  1.00  0.00     0.010 C 
BRANCH   9  10
HETATM   10  C11 UNL     1       5.044  -1.017  -1.529  1.00  0.00     0.119 C 
BRANCH  10  11
HETATM   11  C10 UNL     1       3.830  -1.892  -1.661  1.00  0.00     0.293 C 
HETATM   12  N2  UNL     1       2.603  -1.572  -1.329  1.00  0.00    -0.351 NA
HETATM   13  O2  UNL     1       4.081  -3.059  -2.162  1.00  0.00    -0.257 OA
BRANCH  12  14
HETATM   14  C9  UNL     1       1.512  -1.138  -1.133  1.00  0.00     0.198 A 
HETATM   15  C8  UNL     1       1.124   0.075  -1.761  1.00  0.00     0.082 A 
HETATM   16  C7  UNL     1      -0.126   0.537  -1.525  1.00  0.00     0.114 A 
HETATM   17  N1  UNL     1      -1.008  -0.118  -0.716  1.00  0.00    -0.182 N 
HETATM   18  C21 UNL     1      -0.665  -1.266  -0.112  1.00  0.00     0.707 A 
HETATM   19  N3  UNL     1       0.588  -1.754  -0.331  1.00  0.00    -0.162 N 
ATOM     20  H3  UNL     1       0.853  -2.626   0.127  1.00  0.00     0.187 HD
BRANCH  17  21
HETATM   21  C6  UNL     1      -2.313   0.455  -0.507  1.00  0.00     0.162 C 
HETATM   22  C5  UNL     1      -2.741   1.337  -1.674  1.00  0.00     0.197 C 
HETATM   23  O1  UNL     1      -4.074   1.717  -1.461  1.00  0.00    -0.381 OA
HETATM   24  C4  UNL     1      -4.141   2.692  -0.463  1.00  0.00     0.156 C 
HETATM   25  C28 UNL     1      -3.007   2.656   0.498  1.00  0.00     0.178 C 
HETATM   26  C27 UNL     1      -2.375   1.321   0.724  1.00  0.00     0.175 C 
BRANCH  24  27
HETATM   27  C3  UNL     1      -5.477   2.635   0.201  1.00  0.00     0.061 C 
BRANCH  27  28
HETATM   28  C2  UNL     1      -6.563   2.896  -0.800  1.00  0.00    -0.034 C 
HETATM   29  C1  UNL     1      -7.355   3.931  -0.604  1.00  0.00     0.007 C 
ENDBRANCH  27  28
ENDBRANCH  24  27
BRANCH  25  30
HETATM   30  O5  UNL     1      -2.030   3.619   0.224  1.00  0.00    -0.390 OA
ATOM     31  H5  UNL     1      -1.305   3.596   0.838  1.00  0.00     0.210 HD
ENDBRANCH  25  30
BRANCH  26  32
HETATM   32  O4  UNL     1      -1.071   1.471   1.239  1.00  0.00    -0.391 OA
ATOM     33  H4  UNL     1      -1.110   2.017   2.015  1.00  0.00     0.210 HD
ENDBRANCH  26  32
ENDBRANCH  17  21
BRANCH  18  34
HETATM   34  N4  UNL     1      -1.403  -1.973   0.633  1.00  0.00    -0.096 N 
ATOM     35  H4  UNL     1      -0.891  -2.792   0.960  1.00  0.00     0.213 HD
BRANCH  34  36
HETATM   36  O3  UNL     1      -2.614  -1.980   1.112  1.00  0.00    -0.266 OA
BRANCH  36  37
HETATM   37  C22 UNL     1      -3.428  -3.144   1.302  1.00  0.00     0.206 C 
BRANCH  37  38
HETATM   38  C23 UNL     1      -4.749  -2.716   1.857  1.00  0.00     0.012 C 
HETATM   39  C24 UNL     1      -5.526  -1.751   0.961  1.00  0.00     0.007 C 
HETATM   40  C25 UNL     1      -6.771  -2.502   1.382  1.00  0.00     0.001 C 
HETATM   41  C26 UNL     1      -5.884  -3.717   1.568  1.00  0.00     0.007 C 
ENDBRANCH  37  38
ENDBRANCH  36  37
ENDBRANCH  34  36
ENDBRANCH  18  34
ENDBRANCH  12  14
ENDBRANCH  10  11
ENDBRANCH   9  10
ENDBRANCH   8   9
ENDBRANCH   7   8
ENDBRANCH   6   7
ENDBRANCH   5   6
ENDBRANCH   1   4
TORSDOF 17
