REMARK  9 active torsions:
REMARK  status: ('A' for Active; 'I' for Inactive)
REMARK    1  A    between atoms: C2_2  and  C3_4 
REMARK    2  A    between atoms: C5_10  and  N3_11 
REMARK    3  A    between atoms: C8_14  and  O2_15 
REMARK    4  A    between atoms: O2_15  and  C9_16 
REMARK    5  A    between atoms: C9_16  and  C10_17 
REMARK    6  A    between atoms: C11_18  and  C12_19 
REMARK    7  A    between atoms: C12_19  and  N4_20 
REMARK    8  A    between atoms: N4_20  and  C13_21 
REMARK    9  A    between atoms: N4_20  and  C19_31 
ROOT
HETATM    1  C3  UNL     1       6.765  -0.714   0.693  1.00  0.00     0.051 A 
HETATM    2  C4  UNL     1       6.835  -1.668  -0.292  1.00  0.00     0.124 A 
HETATM    3  N1  UNL     1       5.795  -1.831  -1.113  1.00  0.00    -0.309 N 
ATOM      4  H1  UNL     1       5.856  -2.542  -1.842  1.00  0.00     0.186 HD
HETATM    5  N2  UNL     1       4.693  -1.114  -1.023  1.00  0.00    -0.285 N 
ATOM      6  H2  UNL     1       3.922  -1.272  -1.671  1.00  0.00     0.188 HD
HETATM    7  C5  UNL     1       4.594  -0.166  -0.063  1.00  0.00     0.140 A 
HETATM    8  C24 UNL     1       5.625   0.049   0.808  1.00  0.00     0.105 A 
HETATM    9  C25 UNL     1       5.495   1.065   1.819  1.00  0.00     0.104 C 
HETATM   10  N5  UNL     1       5.384   1.908   2.629  1.00  0.00    -0.191 NA
ENDROOT
BRANCH   1  11
HETATM   11  C2  UNL     1       7.894  -0.524   1.598  1.00  0.00     0.158 C 
HETATM   12  C1  UNL     1       9.110  -1.386   1.412  1.00  0.00     0.097 C 
HETATM   13  O1  UNL     1       7.909   0.321   2.526  1.00  0.00    -0.293 OA
ENDBRANCH   1  11
BRANCH   7  14
HETATM   14  N3  UNL     1       3.381   0.602   0.016  1.00  0.00    -0.365 N 
HETATM   15  C6  UNL     1       2.521   0.607   1.179  1.00  0.00     0.127 C 
HETATM   16  C7  UNL     1       1.079   0.241   0.785  1.00  0.00     0.052 C 
HETATM   17  C8  UNL     1       0.672   0.909  -0.466  1.00  0.00     0.125 C 
HETATM   18  C22 UNL     1       1.646   2.081  -0.686  1.00  0.00     0.052 C 
HETATM   19  C23 UNL     1       2.957   1.435  -1.112  1.00  0.00     0.127 C 
BRANCH  17  20
HETATM   20  O2  UNL     1       0.629   0.225  -1.605  1.00  0.00    -0.374 OA
BRANCH  20  21
HETATM   21  C9  UNL     1      -0.503   0.233  -2.366  1.00  0.00     0.261 C 
BRANCH  21  22
HETATM   22  C10 UNL     1      -1.622  -0.311  -1.592  1.00  0.00    -0.079 C 
HETATM   23  C11 UNL     1      -2.561  -0.758  -0.970  1.00  0.00    -0.085 C 
BRANCH  23  24
HETATM   24  C12 UNL     1      -3.725  -1.307  -0.234  1.00  0.00     0.218 C 
BRANCH  24  25
HETATM   25  N4  UNL     1      -4.715  -0.271   0.033  1.00  0.00    -0.360 N 
BRANCH  25  26
HETATM   26  C13 UNL     1      -5.990  -0.299  -0.626  1.00  0.00     0.113 A 
HETATM   27  C14 UNL     1      -6.156   0.343  -1.835  1.00  0.00     0.149 A 
HETATM   28  F1  UNL     1      -5.072   0.995  -2.367  1.00  0.00    -0.203 F 
HETATM   29  C15 UNL     1      -7.361   0.347  -2.512  1.00  0.00     0.090 A 
HETATM   30  C16 UNL     1      -8.446  -0.301  -1.988  1.00  0.00     0.161 A 
HETATM   31  F2  UNL     1      -9.649  -0.327  -2.613  1.00  0.00    -0.203 F 
HETATM   32  C17 UNL     1      -8.287  -0.951  -0.770  1.00  0.00     0.195 A 
HETATM   33  F3  UNL     1      -9.368  -1.583  -0.271  1.00  0.00    -0.199 F 
HETATM   34  C18 UNL     1      -7.074  -0.949  -0.099  1.00  0.00     0.187 A 
HETATM   35  F4  UNL     1      -6.931  -1.588   1.092  1.00  0.00    -0.200 F 
ENDBRANCH  25  26
BRANCH  25  36
HETATM   36  C19 UNL     1      -4.467   0.803   0.952  1.00  0.00     0.085 A 
HETATM   37  C20 UNL     1      -4.246   0.310   2.388  1.00  0.00     0.027 A 
HETATM   38  C21 UNL     1      -3.165   0.975   1.637  1.00  0.00     0.027 A 
ENDBRANCH  25  36
ENDBRANCH  24  25
ENDBRANCH  23  24
ENDBRANCH  21  22
ENDBRANCH  20  21
ENDBRANCH  17  20
ENDBRANCH   7  14
TORSDOF 9
