REMARK  9 active torsions:
REMARK  status: ('A' for Active; 'I' for Inactive)
REMARK    1  A    between atoms: C2_2  and  C3_3 
REMARK    2  A    between atoms: C4_5  and  C5_6 
REMARK       I    between atoms: N2_11  and  C6_12 
REMARK    3  A    between atoms: C6_12  and  C7_14 
REMARK    4  A    between atoms: C7_14  and  O2_15 
REMARK    5  A    between atoms: O2_15  and  C8_16 
REMARK    6  A    between atoms: C8_16  and  C9_18 
REMARK    7  A    between atoms: C10_19  and  C11_20 
REMARK    8  A    between atoms: C14_24  and  O4_25 
REMARK    9  A    between atoms: C16_27  and  O5_28 
ROOT
HETATM    1  O2  UNL     1      -1.727  -0.366  -0.366  1.00  0.00    -0.309 OA
ENDROOT
BRANCH   1   2
HETATM    2  C7  UNL     1      -2.469  -1.504  -0.749  1.00  0.00     0.283 C 
BRANCH   2   3
HETATM    3  C6  UNL     1      -3.902  -1.271  -0.889  1.00  0.00     0.263 C 
HETATM    4  N2  UNL     1      -4.464   0.032  -0.651  1.00  0.00    -0.243 N 
HETATM    5  C3  UNL     1      -5.893   0.261  -0.767  1.00  0.00     0.178 C 
HETATM    6  N1  UNL     1      -3.725   1.142  -0.331  1.00  0.00    -0.287 N 
HETATM    7  S1  UNL     1      -5.994   1.722   0.356  1.00  0.00    -0.082 SA
HETATM    8  C4  UNL     1      -4.269   2.138   0.192  1.00  0.00     0.129 C 
ATOM      9  H1  UNL     1      -2.723   1.155  -0.521  1.00  0.00     0.188 HD
HETATM   10  O1  UNL     1      -4.631  -2.217  -1.218  1.00  0.00    -0.269 OA
BRANCH   5  11
HETATM   11  C2  UNL     1      -6.757  -0.843  -0.243  1.00  0.00     0.034 C 
HETATM   12  C1  UNL     1      -6.394  -1.330   1.115  1.00  0.00     0.008 C 
ENDBRANCH   5  11
BRANCH   8  13
HETATM   13  C5  UNL     1      -3.675   3.417   0.607  1.00  0.00     0.411 C 
HETATM   14  F1  UNL     1      -2.331   3.537   0.341  1.00  0.00    -0.207 F 
HETATM   15  F2  UNL     1      -4.281   4.500  -0.033  1.00  0.00    -0.207 F 
ENDBRANCH   8  13
ENDBRANCH   2   3
ENDBRANCH   1   2
BRANCH   1  16
HETATM   16  C8  UNL     1      -0.309  -0.519  -0.208  1.00  0.00     0.283 C 
HETATM   17  O3  UNL     1       0.075  -1.668  -0.438  1.00  0.00    -0.260 OA
BRANCH  16  18
HETATM   18  C9  UNL     1       0.450   0.618   0.178  1.00  0.00     0.083 C 
HETATM   19  C10 UNL     1       1.686   0.846   0.429  1.00  0.00     0.017 C 
BRANCH  19  20
HETATM   20  C11 UNL     1       2.913   0.107   0.462  1.00  0.00    -0.032 A 
HETATM   21  C12 UNL     1       3.065  -1.256   0.515  1.00  0.00     0.033 A 
HETATM   22  C13 UNL     1       4.324  -1.869   0.450  1.00  0.00     0.048 A 
HETATM   23 BR1  UNL     1       4.450  -3.767   0.528  1.00  0.00    -0.048 Br
HETATM   24  C14 UNL     1       5.466  -1.118   0.330  1.00  0.00     0.118 A 
HETATM   25  C16 UNL     1       5.354   0.251   0.275  1.00  0.00     0.103 A 
HETATM   26  C18 UNL     1       4.127   0.835   0.339  1.00  0.00     0.051 A 
BRANCH  24  27
HETATM   27  O4  UNL     1       6.692  -1.748   0.267  1.00  0.00    -0.352 OA
HETATM   28  C15 UNL     1       7.207  -2.117  -1.002  1.00  0.00     0.210 C 
ENDBRANCH  24  27
BRANCH  25  29
HETATM   29  O5  UNL     1       6.505   1.000   0.157  1.00  0.00    -0.353 OA
HETATM   30  C17 UNL     1       6.571   2.392   0.088  1.00  0.00     0.210 C 
ENDBRANCH  25  29
ENDBRANCH  19  20
ENDBRANCH  16  18
ENDBRANCH   1  16
TORSDOF 9
