REMARK  11 active torsions:
REMARK  status: ('A' for Active; 'I' for Inactive)
REMARK       I    between atoms: C1_4  and  N3_6 
REMARK    1  A    between atoms: N3_6  and  C2_8 
REMARK    2  A    between atoms: C4_10  and  N4_11 
REMARK    3  A    between atoms: C5_16  and  C6_17 
REMARK    4  A    between atoms: C7_20  and  N6_21 
REMARK    5  A    between atoms: N6_21  and  O3_23 
REMARK    6  A    between atoms: O3_23  and  C8_24 
REMARK    7  A    between atoms: C8_24  and  C9_25 
REMARK    8  A    between atoms: C9_25  and  N7_26 
REMARK    9  A    between atoms: N7_26  and  C10_28 
REMARK   10  A    between atoms: C10_28  and  C11_29 
REMARK   11  A    between atoms: C11_29  and  N8_30 
ROOT
HETATM    1  C2  UNL     1      -2.210  -0.368   1.004  1.00  0.00     0.043 C 
HETATM    2  C3  UNL     1      -2.933   0.914   1.101  1.00  0.00     0.120 C 
HETATM    3  C4  UNL     1      -2.972   1.682  -0.191  1.00  0.00     0.325 C 
HETATM    4  O1  UNL     1      -1.836   1.645  -0.925  1.00  0.00    -0.338 OA
HETATM    5  C5  UNL     1      -1.289   0.424  -1.224  1.00  0.00     0.266 C 
HETATM    6  C7  UNL     1      -1.159  -0.490  -0.056  1.00  0.00     0.092 C 
ENDROOT
BRANCH   6   7
HETATM    7  N6  UNL     1       0.113  -0.629   0.438  1.00  0.00    -0.266 N 
ATOM      8  H6  UNL     1       0.593  -1.467   0.110  1.00  0.00     0.194 HD
BRANCH   7   9
HETATM    9  O3  UNL     1       0.825   0.102   1.244  1.00  0.00    -0.275 OA
BRANCH   9  10
HETATM   10  C8  UNL     1       1.953   0.507   0.402  1.00  0.00     0.245 C 
BRANCH  10  11
HETATM   11  C9  UNL     1       3.129  -0.262   0.958  1.00  0.00     0.084 C 
BRANCH  11  12
HETATM   12  N7  UNL     1       4.279  -0.084   0.230  1.00  0.00    -0.398 N 
ATOM     13  H7  UNL     1       4.624  -0.873  -0.316  1.00  0.00     0.158 HD
BRANCH  12  14
HETATM   14  C10 UNL     1       5.021   1.127   0.187  1.00  0.00     0.146 C 
BRANCH  14  15
HETATM   15  C11 UNL     1       6.365   0.699  -0.489  1.00  0.00     0.249 C 
BRANCH  15  16
HETATM   16  N8  UNL     1       6.870  -0.394   0.370  1.00  0.00    -0.078 N 
ATOM     17  H83 UNL     1       6.958  -0.145   1.355  1.00  0.00     0.274 HD
ATOM     18  H82 UNL     1       6.209  -1.158   0.507  1.00  0.00     0.274 HD
ATOM     19  H81 UNL     1       7.746  -0.673  -0.071  1.00  0.00     0.274 HD
ENDBRANCH  15  16
ENDBRANCH  14  15
ENDBRANCH  12  14
ENDBRANCH  11  12
ENDBRANCH  10  11
ENDBRANCH   9  10
ENDBRANCH   7   9
ENDBRANCH   6   7
BRANCH   1  20
HETATM   20  N3  UNL     1      -3.004  -1.572   1.184  1.00  0.00    -0.332 N 
HETATM   21  C1  UNL     1      -4.345  -1.733   0.902  1.00  0.00     0.186 C 
HETATM   22  N1  UNL     1      -5.078  -2.100   1.884  1.00  0.00    -0.374 N 
HETATM   23  N2  UNL     1      -4.906  -1.519  -0.360  1.00  0.00    -0.064 NA
ATOM     24  H12 UNL     1      -6.069  -2.219   1.676  1.00  0.00     0.158 HD
ATOM     25  H11 UNL     1      -4.669  -2.256   2.805  1.00  0.00     0.158 HD
ATOM     26  H3  UNL     1      -2.517  -2.386   1.559  1.00  0.00     0.168 HD
ENDBRANCH   1  20
BRANCH   5  27
HETATM   27  C6  UNL     1      -1.819  -0.245  -2.428  1.00  0.00     0.266 C 
HETATM   28  N5  UNL     1      -1.249  -1.488  -2.807  1.00  0.00    -0.059 NA
HETATM   29  O2  UNL     1      -2.732   0.197  -3.142  1.00  0.00    -0.274 OA
ENDBRANCH   5  27
BRANCH   3  30
HETATM   30  N4  UNL     1      -3.210   3.088   0.123  1.00  0.00    -0.052 N 
ATOM     31  H43 UNL     1      -4.046   3.229   0.690  1.00  0.00     0.277 HD
ATOM     32  H42 UNL     1      -2.531   3.464   0.784  1.00  0.00     0.277 HD
ATOM     33  H41 UNL     1      -3.236   3.609  -0.753  1.00  0.00     0.277 HD
ENDBRANCH   3  30
TORSDOF 11
