REMARK  10 active torsions:
REMARK  status: ('A' for Active; 'I' for Inactive)
REMARK    1  A    between atoms: N1_2  and  C2_3 
REMARK    2  A    between atoms: N1_2  and  C6_13 
REMARK    3  A    between atoms: C2_3  and  C3_4 
REMARK    4  A    between atoms: C3_4  and  N2_5 
REMARK    5  A    between atoms: N2_5  and  C4_7 
REMARK    6  A    between atoms: C4_7  and  C5_8 
REMARK    7  A    between atoms: C5_8  and  N3_9 
REMARK    8  A    between atoms: C6_13  and  C7_14 
REMARK    9  A    between atoms: C7_14  and  N4_15 
REMARK       I    between atoms: N4_15  and  C8_17 
REMARK       I    between atoms: C8_17  and  N6_21 
REMARK   10  A    between atoms: N6_21  and  C9_23 
ROOT
HETATM    1  N4  UNL     1      -1.160  -1.023  -0.813  1.00  0.00    -0.225 N 
ATOM      2  H4  UNL     1      -1.182  -1.442  -1.743  1.00  0.00     0.177 HD
HETATM    3  C8  UNL     1      -2.391  -0.691  -0.148  1.00  0.00     0.669 C 
HETATM    4  N5  UNL     1      -3.252  -1.637  -0.089  1.00  0.00    -0.235 N 
ATOM      5  H51 UNL     1      -4.125  -1.402   0.383  1.00  0.00     0.174 HD
ATOM      6  H52 UNL     1      -3.084  -2.562  -0.484  1.00  0.00     0.174 HD
HETATM    7  N6  UNL     1      -2.623   0.586   0.397  1.00  0.00    -0.201 N 
ATOM      8  H6  UNL     1      -1.802   1.165   0.575  1.00  0.00     0.180 HD
ENDROOT
BRANCH   1   9
HETATM    9  C7  UNL     1       0.130  -0.761  -0.157  1.00  0.00     0.157 C 
BRANCH   9  10
HETATM   10  C6  UNL     1       1.191  -1.193  -1.123  1.00  0.00     0.141 C 
BRANCH  10  11
HETATM   11  N1  UNL     1       2.530  -1.016  -0.634  1.00  0.00    -0.394 N 
HETATM   12  C1  UNL     1       2.955  -1.823   0.419  1.00  0.00     0.148 C 
BRANCH  11  13
HETATM   13  C2  UNL     1       3.425  -0.366  -1.496  1.00  0.00     0.077 C 
BRANCH  13  14
HETATM   14  C3  UNL     1       4.277   0.705  -0.877  1.00  0.00     0.158 C 
BRANCH  14  15
HETATM   15  N2  UNL     1       5.166   0.151   0.098  1.00  0.00    -0.415 N 
ATOM     16  H2  UNL     1       5.292  -0.857   0.191  1.00  0.00     0.153 HD
BRANCH  15  17
HETATM   17  C4  UNL     1       5.861   1.060   0.925  1.00  0.00     0.141 C 
BRANCH  17  18
HETATM   18  C5  UNL     1       7.021   0.331   1.588  1.00  0.00     0.248 C 
BRANCH  18  19
HETATM   19  N3  UNL     1       7.895  -0.102   0.500  1.00  0.00    -0.078 N 
ATOM     20  H33 UNL     1       7.417  -0.657  -0.210  1.00  0.00     0.274 HD
ATOM     21  H32 UNL     1       8.188   0.658  -0.114  1.00  0.00     0.274 HD
ATOM     22  H31 UNL     1       8.672  -0.591   0.944  1.00  0.00     0.274 HD
ENDBRANCH  18  19
ENDBRANCH  17  18
ENDBRANCH  15  17
ENDBRANCH  14  15
ENDBRANCH  13  14
ENDBRANCH  11  13
ENDBRANCH  10  11
ENDBRANCH   9  10
ENDBRANCH   1   9
BRANCH   7  23
HETATM   23  C9  UNL     1      -3.910   1.161   0.731  1.00  0.00     0.240 C 
HETATM   24  C10 UNL     1      -4.681   0.390   1.727  1.00  0.00     0.110 C 
HETATM   25  N7  UNL     1      -5.723  -0.453   1.297  1.00  0.00    -0.340 N 
HETATM   26  C11 UNL     1      -6.731  -0.268   0.327  1.00  0.00     0.194 C 
ATOM     27  H7  UNL     1      -5.755  -1.356   1.770  1.00  0.00     0.167 HD
HETATM   28  N8  UNL     1      -7.913  -1.081   0.441  1.00  0.00    -0.063 NA
HETATM   29  N9  UNL     1      -6.676   0.562  -0.667  1.00  0.00    -0.305 N 
HETATM   30  C12 UNL     1      -5.658   1.475  -1.056  1.00  0.00     0.192 C 
ATOM     31  H9  UNL     1      -7.499   0.560  -1.270  1.00  0.00     0.171 HD
HETATM   32  N10 UNL     1      -5.927   2.236  -2.223  1.00  0.00    -0.063 NA
HETATM   33  N11 UNL     1      -4.581   1.636  -0.421  1.00  0.00    -0.338 N 
ATOM     34  H11 UNL     1      -4.006   2.336  -0.890  1.00  0.00     0.164 HD
ENDBRANCH   7  23
TORSDOF 10
