REMARK  7 active torsions:
REMARK  status: ('A' for Active; 'I' for Inactive)
REMARK    1  A    between atoms: O1_2  and  C2_3 
REMARK    2  A    between atoms: C5_7  and  O2_8 
REMARK    3  A    between atoms: O2_8  and  C6_9 
REMARK    4  A    between atoms: C7_12  and  N2_13 
REMARK    5  A    between atoms: C12_23  and  S1_24 
REMARK    6  A    between atoms: S1_24  and  N5_27 
REMARK    7  A    between atoms: N5_27  and  C13_29 
ROOT
HETATM    1  C6  UNL     1      -3.958  -0.660   0.586  1.00  0.00     0.185 A 
HETATM    2  N1  UNL     1      -4.862  -0.462  -0.387  1.00  0.00    -0.169 N 
ATOM      3  H1  UNL     1      -4.938  -1.151  -1.135  1.00  0.00     0.186 HD
HETATM    4  C7  UNL     1      -5.674   0.617  -0.410  1.00  0.00     0.677 A 
HETATM    5  N3  UNL     1      -5.572   1.524   0.577  1.00  0.00    -0.201 N 
ATOM      6  H3  UNL     1      -6.188   2.337   0.556  1.00  0.00     0.183 HD
HETATM    7  C8  UNL     1      -4.695   1.410   1.593  1.00  0.00     0.133 A 
HETATM    8  C9  UNL     1      -3.883   0.290   1.576  1.00  0.00     0.112 A 
HETATM    9  C10 UNL     1      -2.930   0.111   2.629  1.00  0.00     0.105 C 
HETATM   10  N4  UNL     1      -2.167  -0.018   3.491  1.00  0.00    -0.191 NA
ENDROOT
BRANCH   1  11
HETATM   11  O2  UNL     1      -3.104  -1.743   0.658  1.00  0.00    -0.290 OA
BRANCH  11  12
HETATM   12  C5  UNL     1      -1.803  -1.715   0.174  1.00  0.00     0.101 A 
HETATM   13  C4  UNL     1      -0.954  -2.788   0.244  1.00  0.00     0.070 A 
HETATM   14  C3  UNL     1       0.321  -2.672  -0.262  1.00  0.00     0.065 A 
HETATM   15 CL1  UNL     1      -1.540  -4.268   0.980  1.00  0.00    -0.081 Cl
HETATM   16  C2  UNL     1       0.747  -1.485  -0.837  1.00  0.00     0.093 A 
HETATM   17  C12 UNL     1      -0.082  -0.370  -0.927  1.00  0.00     0.115 A 
HETATM   18  C11 UNL     1      -1.358  -0.548  -0.400  1.00  0.00     0.067 A 
BRANCH  16  19
HETATM   19  O1  UNL     1       2.048  -1.403  -1.345  1.00  0.00    -0.354 OA
HETATM   20  C1  UNL     1       2.912  -2.520  -1.267  1.00  0.00     0.210 C 
ENDBRANCH  16  19
BRANCH  17  21
HETATM   21  S1  UNL     1       0.432   1.148  -1.610  1.00  0.00     0.266 S 
HETATM   22  O3  UNL     1      -0.840   1.976  -1.782  1.00  0.00    -0.200 OA
HETATM   23  O4  UNL     1       0.952   0.768  -2.996  1.00  0.00    -0.200 OA
BRANCH  21  24
HETATM   24  N5  UNL     1       1.566   1.986  -0.704  1.00  0.00    -0.276 N 
ATOM     25  H5  UNL     1       1.247   2.904  -0.396  1.00  0.00     0.179 HD
BRANCH  24  26
HETATM   26  C13 UNL     1       2.854   1.676  -0.291  1.00  0.00     0.103 A 
HETATM   27  C14 UNL     1       3.924   1.926  -1.129  1.00  0.00     0.146 A 
HETATM   28  F1  UNL     1       3.648   2.492  -2.319  1.00  0.00    -0.204 F 
HETATM   29  C15 UNL     1       5.238   1.624  -0.799  1.00  0.00     0.064 A 
HETATM   30  C16 UNL     1       5.508   1.045   0.422  1.00  0.00     0.015 A 
HETATM   31 BR1  UNL     1       7.330   0.637   0.855  1.00  0.00    -0.051 Br
HETATM   32  C17 UNL     1       4.471   0.777   1.291  1.00  0.00     0.045 A 
HETATM   33  C18 UNL     1       3.158   1.094   0.928  1.00  0.00     0.065 A 
HETATM   34 CL2  UNL     1       1.882   0.758   2.087  1.00  0.00    -0.082 Cl
ENDBRANCH  24  26
ENDBRANCH  21  24
ENDBRANCH  17  21
ENDBRANCH  11  12
ENDBRANCH   1  11
BRANCH   4  35
HETATM   35  N2  UNL     1      -6.549   0.789  -1.370  1.00  0.00    -0.234 N 
ATOM     36  H22 UNL     1      -6.626   0.101  -2.119  1.00  0.00     0.174 HD
ATOM     37  H21 UNL     1      -7.162   1.604  -1.387  1.00  0.00     0.174 HD
ENDBRANCH   4  35
TORSDOF 7
