REMARK  2 active torsions:
REMARK  status: ('A' for Active; 'I' for Inactive)
REMARK    1  A    between atoms: C2_3  and  C3_4 
REMARK    2  A    between atoms: C8_11  and  N3_12 
ROOT
HETATM    1  N1  UNL     1      -3.331  -2.839  -1.693  1.00  0.00    -0.197 NA
HETATM    2  C1  UNL     1      -3.208  -2.185  -0.742  1.00  0.00     0.063 C 
HETATM    3  C2  UNL     1      -3.020  -1.345   0.474  1.00  0.00     0.164 C 
ENDROOT
BRANCH   3   4
HETATM    4  C3  UNL     1      -2.435  -0.051   0.247  1.00  0.00    -0.016 A 
HETATM    5  C4  UNL     1      -3.284   1.052   0.091  1.00  0.00     0.096 A 
HETATM    6  N2  UNL     1      -2.889   2.298  -0.171  1.00  0.00    -0.373 N 
HETATM    7  C5  UNL     1      -1.614   2.591  -0.308  1.00  0.00     0.112 A 
ATOM      8  H2  UNL     1      -3.587   3.036  -0.267  1.00  0.00     0.164 HD
HETATM    9  C6  UNL     1      -0.677   1.578  -0.174  1.00  0.00     0.092 A 
HETATM   10  C7  UNL     1      -1.080   0.277   0.100  1.00  0.00     0.023 A 
HETATM   11  S1  UNL     1       1.007   1.994  -0.358  1.00  0.00     0.209 S 
HETATM   12  C8  UNL     1      -0.126  -0.789   0.268  1.00  0.00     0.050 A 
HETATM   13  C9  UNL     1       1.333  -0.635   0.169  1.00  0.00     0.013 A 
HETATM   14  C10 UNL     1       2.143  -1.745   0.360  1.00  0.00     0.015 A 
HETATM   15  C14 UNL     1       1.948   0.549  -0.096  1.00  0.00     0.076 A 
HETATM   16  C11 UNL     1       3.526  -1.704   0.294  1.00  0.00     0.001 A 
HETATM   17  C12 UNL     1       4.120  -0.494   0.025  1.00  0.00     0.002 A 
HETATM   18  C13 UNL     1       3.331   0.609  -0.166  1.00  0.00     0.025 A 
HETATM   19  O1  UNL     1       1.179   2.428  -1.807  1.00  0.00    -0.217 OA
HETATM   20  O2  UNL     1       1.419   3.104   0.570  1.00  0.00    -0.217 OA
BRANCH  12  21
HETATM   21  N3  UNL     1      -0.528  -1.952   0.543  1.00  0.00    -0.398 N 
ATOM     22  H32 UNL     1      -1.540  -2.059   0.612  1.00  0.00     0.156 HD
ATOM     23  H31 UNL     1       0.148  -2.707   0.662  1.00  0.00     0.156 HD
ENDBRANCH  12  21
ENDBRANCH   3   4
TORSDOF 2
