REMARK  4 active torsions:
REMARK  status: ('A' for Active; 'I' for Inactive)
REMARK    1  A    between atoms: C2_2  and  C3_3 
REMARK    2  A    between atoms: C3_3  and  C4_4 
REMARK    3  A    between atoms: C11_13  and  O3_14 
REMARK    4  A    between atoms: C11_13  and  C12_16 
ROOT
HETATM    1  C4  UNL     1      -0.761  -0.223   0.218  1.00  0.00     0.092 C 
HETATM    2  C5  UNL     1      -0.257   0.069  -1.114  1.00  0.00    -0.007 C 
HETATM    3  C6  UNL     1       1.011   0.369  -1.337  1.00  0.00     0.007 C 
HETATM    4  C7  UNL     1       1.992   0.424  -0.233  1.00  0.00     0.074 C 
HETATM    5  C8  UNL     1       2.840  -0.823  -0.287  1.00  0.00     0.050 C 
HETATM    6  C9  UNL     1       2.951   1.602  -0.397  1.00  0.00     0.050 C 
HETATM    7  O1  UNL     1       1.371   0.602   0.989  1.00  0.00    -0.346 OA
HETATM    8  C10 UNL     1       0.337  -0.264   1.232  1.00  0.00     0.283 C 
HETATM    9  O2  UNL     1       0.552  -1.592   0.860  1.00  0.00    -0.318 OA
HETATM   10  C11 UNL     1      -0.803  -1.670   0.640  1.00  0.00     0.241 C 
ENDROOT
BRANCH  10  11
HETATM   11  O3  UNL     1      -1.492  -1.811   1.829  1.00  0.00    -0.360 OA
ATOM     12  H3  UNL     1      -1.518  -2.723   2.095  1.00  0.00     0.213 HD
ENDBRANCH  10  11
BRANCH  10  13
HETATM   13  C12 UNL     1      -1.273  -2.645  -0.390  1.00  0.00     0.416 C 
HETATM   14  F1  UNL     1      -2.577  -2.277  -0.746  1.00  0.00    -0.208 F 
HETATM   15  F2  UNL     1      -0.497  -2.695  -1.507  1.00  0.00    -0.208 F 
ENDBRANCH  10  13
BRANCH   1  16
HETATM   16  C3  UNL     1      -2.034   0.465   0.631  1.00  0.00     0.050 C 
BRANCH  16  17
HETATM   17  C2  UNL     1      -1.916   1.943   0.616  1.00  0.00    -0.035 C 
HETATM   18  C1  UNL     1      -2.658   2.748  -0.127  1.00  0.00     0.007 C 
ENDBRANCH  16  17
ENDBRANCH   1  16
TORSDOF 4
