REMARK  9 active torsions:
REMARK  status: ('A' for Active; 'I' for Inactive)
REMARK    1  A    between atoms: N1_4  and  C4_5 
REMARK    2  A    between atoms: C4_5  and  C5_6 
REMARK    3  A    between atoms: C5_6  and  C6_7 
REMARK    4  A    between atoms: C6_7  and  C7_8 
REMARK    5  A    between atoms: C7_8  and  C8_9 
REMARK    6  A    between atoms: C8_9  and  C9_10 
REMARK    7  A    between atoms: C9_10  and  N2_11 
REMARK    8  A    between atoms: N3_14  and  C12_15 
REMARK    9  A    between atoms: C16_20  and  O1_21 
ROOT
HETATM    1  N2  UNL     1       2.260  -0.527   0.512  1.00  0.00     0.091 N 
HETATM    2  C10 UNL     1       2.163   0.236  -0.692  1.00  0.00     0.292 C 
HETATM    3  C11 UNL     1       3.416   1.030  -0.962  1.00  0.00     0.153 C 
HETATM    4  N3  UNL     1       4.465   0.758  -0.032  1.00  0.00    -0.376 N 
HETATM    5  C18 UNL     1       4.223   0.572   1.386  1.00  0.00     0.153 C 
HETATM    6  C19 UNL     1       2.744   0.325   1.574  1.00  0.00     0.292 C 
ENDROOT
BRANCH   1   7
HETATM    7  C9  UNL     1       1.042  -1.200   0.865  1.00  0.00     0.272 C 
BRANCH   7   8
HETATM    8  C8  UNL     1      -0.054  -0.272   1.278  1.00  0.00     0.030 C 
BRANCH   8   9
HETATM    9  C7  UNL     1      -1.336  -0.965   1.665  1.00  0.00     0.002 C 
BRANCH   9  10
HETATM   10  C6  UNL     1      -1.840  -1.743   0.499  1.00  0.00     0.002 C 
BRANCH  10  11
HETATM   11  C5  UNL     1      -3.138  -2.467   0.782  1.00  0.00     0.030 C 
BRANCH  11  12
HETATM   12  C4  UNL     1      -4.246  -1.549   1.165  1.00  0.00     0.272 C 
BRANCH  12  13
HETATM   13  N1  UNL     1      -4.577  -0.570   0.168  1.00  0.00     0.093 N 
HETATM   14  C3  UNL     1      -5.170  -1.116  -1.025  1.00  0.00     0.303 C 
HETATM   15  C2  UNL     1      -5.340   0.073  -1.984  1.00  0.00     0.146 C 
HETATM   16  C1  UNL     1      -3.954   0.632  -2.212  1.00  0.00     0.041 C 
HETATM   17  O2  UNL     1      -6.232   0.985  -1.495  1.00  0.00    -0.378 OA
HETATM   18  C21 UNL     1      -6.060   1.376  -0.198  1.00  0.00     0.146 C 
HETATM   19  C20 UNL     1      -5.556   0.335   0.744  1.00  0.00     0.303 C 
HETATM   20  C22 UNL     1      -5.215   2.640  -0.072  1.00  0.00     0.041 C 
ENDBRANCH  12  13
ENDBRANCH  11  12
ENDBRANCH  10  11
ENDBRANCH   9  10
ENDBRANCH   8   9
ENDBRANCH   7   8
ENDBRANCH   1   7
BRANCH   4  21
HETATM   21  C12 UNL     1       5.805   0.660  -0.488  1.00  0.00     0.055 A 
HETATM   22  C13 UNL     1       6.780   1.571  -0.078  1.00  0.00     0.033 A 
HETATM   23  C14 UNL     1       8.085   1.496  -0.516  1.00  0.00     0.029 A 
HETATM   24  C15 UNL     1       8.476   0.505  -1.384  1.00  0.00     0.069 A 
HETATM   25 CL1  UNL     1      10.152   0.435  -1.927  1.00  0.00    -0.081 Cl
HETATM   26  C16 UNL     1       7.537  -0.400  -1.800  1.00  0.00     0.111 A 
HETATM   27  C17 UNL     1       6.221  -0.322  -1.357  1.00  0.00     0.095 A 
HETATM   28 CL2  UNL     1       5.074  -1.511  -1.917  1.00  0.00    -0.079 Cl
BRANCH  26  29
HETATM   29  O1  UNL     1       7.955  -1.394  -2.678  1.00  0.00    -0.357 OA
ATOM     30  H1  UNL     1       7.303  -2.022  -2.967  1.00  0.00     0.217 HD
ENDBRANCH  26  29
ENDBRANCH   4  21
TORSDOF 9
