REMARK  7 active torsions:
REMARK  status: ('A' for Active; 'I' for Inactive)
REMARK       I    between atoms: C1_2  and  N1_3 
REMARK    1  A    between atoms: C1_2  and  C22_30 
REMARK    2  A    between atoms: N1_3  and  C2_5 
REMARK    3  A    between atoms: C5_8  and  C6_9 
REMARK    4  A    between atoms: C6_9  and  C7_10 
REMARK    5  A    between atoms: C7_10  and  N2_11 
REMARK    6  A    between atoms: C10_14  and  N3_15 
REMARK    7  A    between atoms: C24_32  and  C25_33 
ROOT
HETATM    1  C2  UNL     1      -3.654   0.264  -1.467  1.00  0.00     0.084 C 
HETATM    2  C3  UNL     1      -2.957  -0.618  -0.481  1.00  0.00     0.025 C 
HETATM    3  C4  UNL     1      -1.615  -1.018  -1.060  1.00  0.00     0.007 C 
HETATM    4  C5  UNL     1      -0.749   0.169  -1.356  1.00  0.00    -0.013 C 
HETATM    5  C20 UNL     1      -1.449   1.148  -2.284  1.00  0.00     0.007 C 
HETATM    6  C21 UNL     1      -2.828   1.497  -1.770  1.00  0.00     0.025 C 
ENDROOT
BRANCH   4   7
HETATM    7  C6  UNL     1      -0.240   0.854  -0.124  1.00  0.00     0.034 C 
BRANCH   7   8
HETATM    8  C7  UNL     1       0.598  -0.018   0.764  1.00  0.00     0.272 C 
BRANCH   8   9
HETATM    9  N2  UNL     1       1.784  -0.539   0.102  1.00  0.00     0.088 N 
HETATM   10  C8  UNL     1       2.732   0.512  -0.188  1.00  0.00     0.274 C 
HETATM   11  C9  UNL     1       3.551   0.872   1.039  1.00  0.00     0.066 C 
HETATM   12  C10 UNL     1       4.383  -0.273   1.521  1.00  0.00     0.226 C 
HETATM   13  C18 UNL     1       3.854  -1.570   0.946  1.00  0.00     0.066 C 
HETATM   14  C19 UNL     1       2.342  -1.525   1.018  1.00  0.00     0.274 C 
BRANCH  12  15
HETATM   15  N3  UNL     1       5.795  -0.103   1.309  1.00  0.00     0.093 N 
HETATM   16  C11 UNL     1       6.575  -1.150   1.928  1.00  0.00     0.273 C 
HETATM   17  C12 UNL     1       8.024  -0.718   1.920  1.00  0.00     0.037 C 
HETATM   18  C13 UNL     1       8.470  -0.674   0.486  1.00  0.00     0.020 C 
HETATM   19  C14 UNL     1       9.812   0.043   0.446  1.00  0.00     0.237 C 
HETATM   20  C16 UNL     1       7.596   0.241  -0.297  1.00  0.00     0.045 C 
HETATM   21  N4  UNL     1       9.565   1.382   0.007  1.00  0.00    -0.074 N 
HETATM   22  C15 UNL     1       8.132   1.607   0.052  1.00  0.00     0.239 C 
ATOM     23  H42 UNL     1      10.091   2.076   0.538  1.00  0.00     0.277 HD
ATOM     24  H41 UNL     1       9.968   1.579  -0.909  1.00  0.00     0.277 HD
HETATM   25  C17 UNL     1       6.133   0.089  -0.080  1.00  0.00     0.279 C 
ENDBRANCH  12  15
ENDBRANCH   8   9
ENDBRANCH   7   8
ENDBRANCH   4   7
BRANCH   1  26
HETATM   26  N1  UNL     1      -4.908   0.684  -0.916  1.00  0.00    -0.356 N 
HETATM   27  C1  UNL     1      -6.149   0.406  -1.544  1.00  0.00     0.222 C 
HETATM   28  O1  UNL     1      -6.223  -0.233  -2.636  1.00  0.00    -0.273 OA
ATOM     29  H1  UNL     1      -4.908   1.203  -0.038  1.00  0.00     0.162 HD
BRANCH  27  30
HETATM   30  C22 UNL     1      -7.425   0.860  -0.939  1.00  0.00     0.087 A 
HETATM   31  C23 UNL     1      -8.449   1.383  -1.894  1.00  0.00     0.025 A 
HETATM   32  C24 UNL     1      -8.669   0.070  -1.168  1.00  0.00     0.034 A 
BRANCH  32  33
HETATM   33  C25 UNL     1      -9.655   0.084  -0.052  1.00  0.00    -0.038 A 
HETATM   34  C26 UNL     1     -10.431  -1.016   0.237  1.00  0.00     0.010 A 
HETATM   35  C27 UNL     1     -11.315  -0.912   1.286  1.00  0.00     0.018 A 
HETATM   36  C28 UNL     1     -11.468   0.215   2.054  1.00  0.00     0.087 A 
HETATM   37  N5  UNL     1     -10.695   1.282   1.751  1.00  0.00    -0.375 N 
HETATM   38  C29 UNL     1      -9.812   1.214   0.723  1.00  0.00     0.095 A 
ATOM     39  H5  UNL     1     -10.776   2.140   2.296  1.00  0.00     0.164 HD
ENDBRANCH  32  33
ENDBRANCH  27  30
ENDBRANCH   1  26
TORSDOF 7
