REMARK  12 active torsions:
REMARK  status: ('A' for Active; 'I' for Inactive)
REMARK    1  A    between atoms: N1_1  and  C1_4 
REMARK    2  A    between atoms: C2_7  and  C3_8 
REMARK    3  A    between atoms: C3_8  and  C4_9 
REMARK    4  A    between atoms: C4_9  and  C5_10 
REMARK    5  A    between atoms: C5_10  and  N3_11 
REMARK    6  A    between atoms: N4_15  and  C6_17 
REMARK    7  A    between atoms: C6_17  and  C7_18 
REMARK    8  A    between atoms: C6_17  and  C10_28 
REMARK    9  A    between atoms: C7_18  and  N5_19 
REMARK   10  A    between atoms: N5_19  and  C8_22 
REMARK   11  A    between atoms: C8_22  and  C9_23 
REMARK   12  A    between atoms: C9_23  and  N6_24 
ROOT
HETATM    1  C4  UNL     1      -1.110  -0.506  -0.711  1.00  0.00     0.018 C 
HETATM    2  N4  UNL     1       0.107  -0.378  -1.318  1.00  0.00    -0.359 N 
ATOM      3  H4  UNL     1       0.075  -0.362  -2.337  1.00  0.00     0.165 HD
ENDROOT
BRANCH   1   4
HETATM    4  C3  UNL     1      -1.500   0.653   0.223  1.00  0.00     0.112 C 
BRANCH   4   5
HETATM    5  C2  UNL     1      -3.014   0.787   0.295  1.00  0.00     0.037 A 
HETATM    6  N2  UNL     1      -3.698   0.147   1.242  1.00  0.00    -0.195 N 
HETATM    7  C1  UNL     1      -5.031   0.271   1.288  1.00  0.00     0.678 A 
ATOM      8  H2  UNL     1      -3.211  -0.432   1.926  1.00  0.00     0.184 HD
HETATM    9  N8  UNL     1      -5.695   1.044   0.375  1.00  0.00    -0.156 N 
HETATM   10  C12 UNL     1      -5.026   1.697  -0.588  1.00  0.00     0.261 A 
ATOM     11  H8  UNL     1      -6.710   1.125   0.427  1.00  0.00     0.187 HD
HETATM   12  C11 UNL     1      -3.671   1.565  -0.625  1.00  0.00     0.100 A 
HETATM   13  O2  UNL     1      -5.663   2.404  -1.419  1.00  0.00    -0.268 OA
BRANCH   7  14
HETATM   14  N1  UNL     1      -5.675  -0.352   2.203  1.00  0.00    -0.234 N 
ATOM     15  H12 UNL     1      -5.180  -0.928   2.884  1.00  0.00     0.174 HD
ATOM     16  H11 UNL     1      -6.690  -0.258   2.238  1.00  0.00     0.174 HD
ENDBRANCH   7  14
ENDBRANCH   4   5
ENDBRANCH   1   4
BRANCH   1  17
HETATM   17  C5  UNL     1      -1.648  -1.791  -0.192  1.00  0.00     0.282 C 
BRANCH  17  18
HETATM   18  N3  UNL     1      -1.374  -2.949  -0.991  1.00  0.00    -0.074 N 
ATOM     19  H33 UNL     1      -1.698  -2.797  -1.946  1.00  0.00     0.274 HD
ATOM     20  H32 UNL     1      -0.370  -3.032  -1.150  1.00  0.00     0.274 HD
ATOM     21  H31 UNL     1      -1.743  -3.831  -0.635  1.00  0.00     0.274 HD
ENDBRANCH  17  18
ENDBRANCH   1  17
BRANCH   2  22
HETATM   22  C6  UNL     1       1.376  -0.266  -0.777  1.00  0.00     0.100 C 
BRANCH  22  23
HETATM   23  C7  UNL     1       1.651   0.888   0.109  1.00  0.00     0.294 C 
BRANCH  23  24
HETATM   24  N5  UNL     1       3.022   0.893   0.562  1.00  0.00    -0.068 N 
ATOM     25  H52 UNL     1       3.150   1.520   1.356  1.00  0.00     0.277 HD
ATOM     26  H51 UNL     1       3.269   0.013   1.014  1.00  0.00     0.277 HD
BRANCH  24  27
HETATM   27  C8  UNL     1       3.936   1.210  -0.516  1.00  0.00     0.260 C 
BRANCH  27  28
HETATM   28  C9  UNL     1       5.357   1.420  -0.063  1.00  0.00     0.257 C 
BRANCH  28  29
HETATM   29  N6  UNL     1       5.921   0.274   0.577  1.00  0.00    -0.078 N 
ATOM     30  H63 UNL     1       5.335  -0.033   1.353  1.00  0.00     0.274 HD
ATOM     31  H62 UNL     1       5.850  -0.548  -0.023  1.00  0.00     0.274 HD
ATOM     32  H61 UNL     1       6.883   0.416   0.884  1.00  0.00     0.274 HD
ENDBRANCH  28  29
ENDBRANCH  27  28
ENDBRANCH  24  27
ENDBRANCH  23  24
ENDBRANCH  22  23
BRANCH  22  33
HETATM   33  C10 UNL     1       2.071  -1.504  -0.346  1.00  0.00     0.279 C 
HETATM   34  N7  UNL     1       2.844  -1.651   0.826  1.00  0.00    -0.056 NA
HETATM   35  O1  UNL     1       1.991  -2.560  -1.063  1.00  0.00    -0.270 OA
ENDBRANCH  22  33
ENDBRANCH   2  22
TORSDOF 12
