REMARK  11 active torsions:
REMARK  status: ('A' for Active; 'I' for Inactive)
REMARK    1  A    between atoms: N2_3  and  N3_5 
REMARK    2  A    between atoms: N3_5  and  N4_7 
REMARK    3  A    between atoms: N4_7  and  C2_8 
REMARK    4  A    between atoms: C2_8  and  C3_9 
REMARK    5  A    between atoms: C4_13  and  N6_14 
REMARK       I    between atoms: N6_14  and  C5_16 
REMARK    6  A    between atoms: C5_16  and  C6_18 
REMARK    7  A    between atoms: C6_18  and  C7_19 
REMARK    8  A    between atoms: C7_19  and  C8_20 
REMARK    9  A    between atoms: C8_20  and  N7_21 
REMARK   10  A    between atoms: C10_26  and  C11_27 
REMARK   11  A    between atoms: C11_27  and  O2_28 
ROOT
HETATM    1  C3  UNL     1      -1.625  -1.060   2.347  1.00  0.00     0.340 C 
HETATM    2  N5  UNL     1      -0.259  -0.703   2.122  1.00  0.00    -0.024 N 
ATOM      3  H51 UNL     1       0.403  -1.269   2.652  1.00  0.00     0.282 HD
ATOM      4  H52 UNL     1      -0.001   0.198   2.526  1.00  0.00     0.282 HD
HETATM    5  C4  UNL     1      -0.064  -0.772   0.703  1.00  0.00     0.321 C 
HETATM    6  C10 UNL     1      -1.235  -1.577   0.253  1.00  0.00     0.198 C 
HETATM    7  O3  UNL     1      -2.236  -1.145   1.110  1.00  0.00    -0.346 OA
ENDROOT
BRANCH   5   8
HETATM    8  N6  UNL     1       1.214  -1.243   0.290  1.00  0.00    -0.331 N 
HETATM    9  C5  UNL     1       2.119  -0.453  -0.480  1.00  0.00     0.219 C 
HETATM   10  O1  UNL     1       1.758   0.703  -0.798  1.00  0.00    -0.274 OA
ATOM     11  H6  UNL     1       1.495  -2.187   0.556  1.00  0.00     0.164 HD
BRANCH   9  12
HETATM   12  C6  UNL     1       3.401  -1.018  -0.854  1.00  0.00     0.108 C 
BRANCH  12  13
HETATM   13  C7  UNL     1       4.245  -0.337  -1.851  1.00  0.00     0.054 C 
BRANCH  13  14
HETATM   14  C8  UNL     1       3.767  -0.210  -3.242  1.00  0.00     0.063 C 
BRANCH  14  15
HETATM   15  N7  UNL     1       2.574   0.497  -3.492  1.00  0.00    -0.347 N 
HETATM   16  C9  UNL     1       2.430   1.504  -4.281  1.00  0.00     0.200 C 
HETATM   17  N8  UNL     1       1.137   2.098  -4.411  1.00  0.00    -0.067 NA
HETATM   18  N9  UNL     1       3.488   2.059  -5.031  1.00  0.00    -0.067 NA
ATOM     19  H7  UNL     1       1.740   0.179  -2.998  1.00  0.00     0.167 HD
ENDBRANCH  14  15
ENDBRANCH  13  14
ENDBRANCH  12  13
ENDBRANCH   9  12
ENDBRANCH   5   8
BRANCH   6  20
HETATM   20  C11 UNL     1      -1.031  -3.045   0.258  1.00  0.00     0.200 C 
BRANCH  20  21
HETATM   21  O2  UNL     1      -0.675  -3.598   1.454  1.00  0.00    -0.398 OA
ATOM     22  H2  UNL     1      -0.544  -4.539   1.457  1.00  0.00     0.209 HD
ENDBRANCH  20  21
ENDBRANCH   6  20
BRANCH   1  23
HETATM   23  C2  UNL     1      -2.318   0.008   3.214  1.00  0.00     0.197 C 
BRANCH  23  24
HETATM   24  N4  UNL     1      -2.200   1.262   2.520  1.00  0.00    -0.121 NA
BRANCH  24  25
HETATM   25  N3  UNL     1      -2.797   2.310   3.231  1.00  0.00    -0.246 N 
ATOM     26  H3  UNL     1      -2.771   2.345   4.250  1.00  0.00     0.203 HD
BRANCH  25  27
HETATM   27  N2  UNL     1      -3.430   3.305   2.484  1.00  0.00    -0.287 N 
HETATM   28  C1  UNL     1      -4.720   3.417   2.618  1.00  0.00     0.207 C 
HETATM   29  N1  UNL     1      -5.482   2.584   3.476  1.00  0.00    -0.095 NA
ATOM     30  H2  UNL     1      -2.905   3.918   1.860  1.00  0.00     0.188 HD
ENDBRANCH  25  27
ENDBRANCH  24  25
ENDBRANCH  23  24
ENDBRANCH   1  23
TORSDOF 11
