REMARK  15 active torsions:
REMARK  status: ('A' for Active; 'I' for Inactive)
REMARK    1  A    between atoms: C3_3  and  C4_4 
REMARK    2  A    between atoms: C5_5  and  C6_6 
REMARK    3  A    between atoms: C14_14  and  C15_15 
REMARK    4  A    between atoms: C15_15  and  C17_17 
REMARK    5  A    between atoms: C17_17  and  C18_18 
REMARK    6  A    between atoms: C18_18  and  C19_19 
REMARK    7  A    between atoms: C19_19  and  O2_21 
REMARK    8  A    between atoms: C21_23  and  O3_24 
REMARK    9  A    between atoms: O3_24  and  C22_25 
REMARK   10  A    between atoms: C22_25  and  C23_27 
REMARK   11  A    between atoms: C23_27  and  C25_29 
REMARK   12  A    between atoms: C30_34  and  C32_36 
REMARK   13  A    between atoms: C32_36  and  O5_37 
REMARK   14  A    between atoms: O5_37  and  C33_38 
REMARK   15  A    between atoms: C35_41  and  O7_42 
ROOT
HETATM    1  C6  UNL     1       3.362   0.274   0.658  1.00  0.00     0.010 C 
HETATM    2  C7  UNL     1       3.075   0.427   2.166  1.00  0.00     0.023 C 
HETATM    3  C8  UNL     1       4.147   1.457   0.267  1.00  0.00    -0.004 C 
HETATM    4  C9  UNL     1       5.610   1.332   0.035  1.00  0.00     0.011 C 
HETATM    5  C10 UNL     1       3.588   2.259  -0.889  1.00  0.00     0.006 C 
HETATM    6  C11 UNL     1       2.199   2.558  -0.376  1.00  0.00     0.013 C 
HETATM    7  C12 UNL     1       1.343   1.334  -0.544  1.00  0.00    -0.005 C 
HETATM    8  C13 UNL     1       1.174   1.309  -2.099  1.00  0.00     0.019 C 
HETATM    9  C14 UNL     1      -0.053   1.565  -0.080  1.00  0.00     0.030 C 
HETATM   10  C21 UNL     1      -0.745   0.259  -0.414  1.00  0.00     0.138 C 
HETATM   11  C29 UNL     1      -0.255  -0.706   0.611  1.00  0.00     0.047 C 
HETATM   12  C30 UNL     1       1.216  -1.065   0.314  1.00  0.00     0.013 C 
HETATM   13  C31 UNL     1       1.002  -2.171  -0.756  1.00  0.00     0.020 C 
HETATM   14  C35 UNL     1       2.050   0.036  -0.120  1.00  0.00     0.086 C 
ENDROOT
BRANCH  10  15
HETATM   15  O3  UNL     1      -2.120   0.248  -0.452  1.00  0.00    -0.315 OA
BRANCH  15  16
HETATM   16  C22 UNL     1      -2.854  -0.105  -1.564  1.00  0.00     0.266 C 
HETATM   17  O4  UNL     1      -2.248  -0.436  -2.605  1.00  0.00    -0.265 OA
BRANCH  16  18
HETATM   18  C23 UNL     1      -4.359  -0.101  -1.554  1.00  0.00     0.104 C 
HETATM   19  C24 UNL     1      -4.903  -0.533  -2.871  1.00  0.00     0.025 C 
BRANCH  18  20
HETATM   20  C25 UNL     1      -4.869  -0.741  -0.350  1.00  0.00    -0.011 C 
HETATM   21  C26 UNL     1      -5.743  -1.660  -0.129  1.00  0.00    -0.091 C 
HETATM   22  C27 UNL     1      -6.001  -2.063   1.320  1.00  0.00     0.042 C 
HETATM   23  C28 UNL     1      -6.547  -2.395  -1.123  1.00  0.00     0.042 C 
ENDBRANCH  18  20
ENDBRANCH  16  18
ENDBRANCH  15  16
ENDBRANCH  10  15
BRANCH   9  24
HETATM   24  C15 UNL     1      -0.474   2.113   1.179  1.00  0.00    -0.011 C 
HETATM   25  C16 UNL     1      -0.000   3.495   1.575  1.00  0.00     0.010 C 
BRANCH  24  26
HETATM   26  C17 UNL     1      -1.970   2.288   1.409  1.00  0.00     0.014 C 
BRANCH  26  27
HETATM   27  C18 UNL     1      -2.625   3.222   0.449  1.00  0.00     0.111 C 
BRANCH  27  28
HETATM   28  C19 UNL     1      -4.086   3.343   0.690  1.00  0.00     0.258 C 
HETATM   29  O1  UNL     1      -4.707   2.742   1.588  1.00  0.00    -0.265 OA
BRANCH  28  30
HETATM   30  O2  UNL     1      -4.792   4.188  -0.152  1.00  0.00    -0.326 OA
HETATM   31  C20 UNL     1      -6.187   4.396  -0.035  1.00  0.00     0.213 C 
ENDBRANCH  28  30
ENDBRANCH  27  28
ENDBRANCH  26  27
ENDBRANCH  24  26
ENDBRANCH   9  24
BRANCH  12  32
HETATM   32  C32 UNL     1       1.496  -1.877   1.543  1.00  0.00     0.191 C 
BRANCH  32  33
HETATM   33  O5  UNL     1       0.552  -2.982   1.517  1.00  0.00    -0.321 OA
BRANCH  33  34
HETATM   34  C33 UNL     1       0.522  -3.932   2.495  1.00  0.00     0.254 C 
HETATM   35  C34 UNL     1      -0.425  -5.081   2.512  1.00  0.00     0.126 C 
HETATM   36  O6  UNL     1       1.361  -3.819   3.444  1.00  0.00    -0.266 OA
ENDBRANCH  33  34
ENDBRANCH  32  33
ENDBRANCH  12  32
BRANCH  14  37
HETATM   37  O7  UNL     1       2.731  -0.320  -1.319  1.00  0.00    -0.387 OA
ATOM     38  H7  UNL     1       1.924  -0.466  -1.798  1.00  0.00     0.210 HD
ENDBRANCH  14  37
BRANCH   1  39
HETATM   39  C5  UNL     1       4.324  -0.837   0.545  1.00  0.00    -0.014 C 
HETATM   40  C4  UNL     1       4.991  -1.322  -0.454  1.00  0.00    -0.003 C 
BRANCH  40  41
HETATM   41  C3  UNL     1       5.889  -2.459  -0.245  1.00  0.00    -0.005 C 
HETATM   42  C2  UNL     1       6.599  -3.013  -1.185  1.00  0.00    -0.031 C 
HETATM   43  C1  UNL     1       6.558  -2.530  -2.573  1.00  0.00     0.036 C 
ENDBRANCH  40  41
ENDBRANCH   1  39
TORSDOF 15
