REMARK  12 active torsions:
REMARK  status: ('A' for Active; 'I' for Inactive)
REMARK    1  A    between atoms: C3_3  and  C4_4 
REMARK    2  A    between atoms: C4_4  and  O1_5 
REMARK    3  A    between atoms: C4_4  and  C8_10 
REMARK    4  A    between atoms: O1_5  and  C5_6 
REMARK    5  A    between atoms: C5_6  and  C6_8 
REMARK    6  A    between atoms: C8_10  and  C9_12 
REMARK    7  A    between atoms: C9_12  and  C10_13 
REMARK    8  A    between atoms: C10_13  and  C11_14 
REMARK    9  A    between atoms: C10_13  and  O8_39 
REMARK   10  A    between atoms: C11_14  and  C12_15 
REMARK   11  A    between atoms: C13_16  and  C15_18 
REMARK   12  A    between atoms: O8_39  and  C32_40 
ROOT
HETATM    1  C12 UNL     1      -0.551  -0.413  -0.584  1.00  0.00    -0.051 C 
HETATM    2  C13 UNL     1      -0.787  -1.745  -1.135  1.00  0.00     0.069 C 
HETATM    3  C14 UNL     1      -0.286  -2.064  -2.513  1.00  0.00     0.032 C 
HETATM    4  C16 UNL     1      -2.288  -2.043  -1.321  1.00  0.00     0.028 C 
HETATM    5  C17 UNL     1      -3.055  -1.626  -0.154  1.00  0.00     0.045 C 
HETATM    6  C18 UNL     1      -3.095  -0.094  -0.149  1.00  0.00     0.096 C 
HETATM    7  O6  UNL     1      -3.780   0.139   1.002  1.00  0.00    -0.364 OA
HETATM    8  C19 UNL     1      -4.755   0.870   1.340  1.00  0.00     0.064 C 
HETATM    9  C20 UNL     1      -4.859   0.721   2.892  1.00  0.00     0.046 C 
HETATM   10  C21 UNL     1      -4.720   2.386   1.215  1.00  0.00     0.046 C 
HETATM   11  C22 UNL     1      -6.162   0.483   0.937  1.00  0.00     0.081 A 
HETATM   12  C23 UNL     1      -6.593  -0.918   1.200  1.00  0.00     0.128 A 
HETATM   13  C24 UNL     1      -8.010  -1.052   1.770  1.00  0.00     0.040 C 
HETATM   14  O7  UNL     1      -6.699  -1.097  -0.202  1.00  0.00    -0.376 OA
HETATM   15  C25 UNL     1      -6.319   0.185  -0.499  1.00  0.00     0.154 A 
HETATM   16  C26 UNL     1      -5.171   0.442  -1.355  1.00  0.00     0.011 C 
HETATM   17  C27 UNL     1      -3.834   0.364  -1.309  1.00  0.00    -0.050 C 
HETATM   18  C28 UNL     1      -3.275   0.827  -2.593  1.00  0.00     0.046 C 
HETATM   19  C29 UNL     1      -1.717   0.305   0.103  1.00  0.00     0.012 C 
HETATM   20  C30 UNL     1      -1.485   0.153   1.599  1.00  0.00     0.023 C 
HETATM   21  C31 UNL     1      -1.452   1.796  -0.166  1.00  0.00     0.023 C 
ENDROOT
BRANCH   1  22
HETATM   22  C11 UNL     1       0.738   0.001  -0.007  1.00  0.00     0.011 C 
BRANCH  22  23
HETATM   23  C10 UNL     1       2.011   0.176  -0.743  1.00  0.00     0.162 C 
BRANCH  23  24
HETATM   24  C9  UNL     1       3.006   0.595   0.360  1.00  0.00     0.118 C 
BRANCH  24  25
HETATM   25  C8  UNL     1       4.363   0.847   0.017  1.00  0.00     0.162 C 
HETATM   26  O3  UNL     1       4.967   0.806  -1.032  1.00  0.00    -0.295 OA
BRANCH  25  27
HETATM   27  C4  UNL     1       5.261   1.249   1.186  1.00  0.00     0.224 C 
BRANCH  27  28
HETATM   28  C3  UNL     1       5.182   0.244   2.274  1.00  0.00     0.009 C 
HETATM   29  C2  UNL     1       5.509  -1.032   2.126  1.00  0.00    -0.032 C 
HETATM   30  C1  UNL     1       5.996  -1.602   0.839  1.00  0.00     0.036 C 
ENDBRANCH  27  28
BRANCH  27  31
HETATM   31  O1  UNL     1       6.572   1.435   0.805  1.00  0.00    -0.304 OA
BRANCH  31  32
HETATM   32  C5  UNL     1       7.296   2.619   0.928  1.00  0.00     0.259 C 
HETATM   33  O2  UNL     1       6.683   3.594   1.432  1.00  0.00    -0.265 OA
BRANCH  32  34
HETATM   34  C6  UNL     1       8.710   2.746   0.494  1.00  0.00     0.106 C 
HETATM   35  C7  UNL     1       9.232   1.477  -0.112  1.00  0.00     0.015 C 
ENDBRANCH  32  34
ENDBRANCH  31  32
ENDBRANCH  27  31
ENDBRANCH  25  27
ENDBRANCH  24  25
ENDBRANCH  23  24
BRANCH  23  36
HETATM   36  O8  UNL     1       2.615  -0.790  -1.479  1.00  0.00    -0.312 OA
BRANCH  36  37
HETATM   37  C32 UNL     1       3.024  -0.646  -2.828  1.00  0.00     0.255 C 
HETATM   38  C33 UNL     1       3.693  -1.710  -3.579  1.00  0.00     0.126 C 
HETATM   39  O9  UNL     1       2.782   0.462  -3.366  1.00  0.00    -0.266 OA
ENDBRANCH  36  37
ENDBRANCH  23  36
ENDBRANCH  22  23
ENDBRANCH   1  22
BRANCH   2  40
HETATM   40  C15 UNL     1      -0.341  -2.887  -0.258  1.00  0.00     0.186 C 
HETATM   41  O4  UNL     1      -1.138  -3.813   0.105  1.00  0.00    -0.647 OA
HETATM   42  O5  UNL     1       0.938  -3.039   0.224  1.00  0.00    -0.647 OA
ENDBRANCH   2  40
TORSDOF 12
