REMARK  14 active torsions:
REMARK  status: ('A' for Active; 'I' for Inactive)
REMARK    1  A    between atoms: C2_2  and  O2_4 
REMARK    2  A    between atoms: O2_4  and  C3_5 
REMARK    3  A    between atoms: C3_5  and  C4_6 
REMARK    4  A    between atoms: C3_5  and  C29_38 
REMARK    5  A    between atoms: C4_6  and  C5_7 
REMARK    6  A    between atoms: C6_8  and  C7_9 
REMARK    7  A    between atoms: C7_9  and  C8_10 
REMARK    8  A    between atoms: C10_12  and  C11_13 
REMARK    9  A    between atoms: C11_13  and  C12_14 
REMARK   10  A    between atoms: C12_14  and  C13_15 
REMARK   11  A    between atoms: C26_32  and  C27_33 
REMARK   12  A    between atoms: C27_33  and  O7_34 
REMARK   13  A    between atoms: C29_38  and  C30_39 
REMARK   14  A    between atoms: C30_39  and  C31_40 
ROOT
HETATM    1  C13 UNL     1      -2.904  -0.743   0.930  1.00  0.00     0.068 C 
HETATM    2  C14 UNL     1      -2.711  -0.411   2.394  1.00  0.00     0.031 C 
HETATM    3  C15 UNL     1      -2.801  -2.249   0.821  1.00  0.00     0.142 C 
HETATM    4  O3  UNL     1      -2.492  -2.929   1.762  1.00  0.00    -0.297 OA
HETATM    5  C16 UNL     1      -3.088  -2.899  -0.470  1.00  0.00     0.086 C 
HETATM    6  C17 UNL     1      -3.906  -2.062  -1.391  1.00  0.00     0.074 C 
HETATM    7  C18 UNL     1      -4.686  -1.000  -0.660  1.00  0.00     0.077 C 
HETATM    8  C19 UNL     1      -4.236  -0.383   0.414  1.00  0.00     0.092 C 
HETATM    9  O4  UNL     1      -5.022   0.604   1.048  1.00  0.00    -0.336 OA
HETATM   10  C20 UNL     1      -6.410   0.588   0.764  1.00  0.00     0.120 C 
HETATM   11  C21 UNL     1      -7.003  -0.744   1.185  1.00  0.00     0.052 C 
HETATM   12  C22 UNL     1      -6.474   0.602  -0.774  1.00  0.00     0.177 C 
HETATM   13  O5  UNL     1      -5.964  -0.657  -1.157  1.00  0.00    -0.344 OA
HETATM   14  C23 UNL     1      -7.845   0.861  -1.299  1.00  0.00     0.087 C 
HETATM   15  C24 UNL     1      -8.210  -0.206  -2.311  1.00  0.00     0.021 C 
HETATM   16  C25 UNL     1      -8.810   0.917  -0.185  1.00  0.00     0.172 C 
HETATM   17  O6  UNL     1      -9.797   0.214  -0.160  1.00  0.00    -0.294 OA
HETATM   18  C26 UNL     1      -8.480   1.898   0.908  1.00  0.00     0.172 A 
HETATM   19  O8  UNL     1      -8.311   1.397   2.190  1.00  0.00    -0.355 OA
HETATM   20  C28 UNL     1      -7.123   1.770   1.343  1.00  0.00     0.205 A 
ENDROOT
BRANCH   1  21
HETATM   21  C12 UNL     1      -1.832  -0.054   0.136  1.00  0.00     0.028 C 
BRANCH  21  22
HETATM   22  C11 UNL     1      -0.449  -0.510   0.509  1.00  0.00     0.029 C 
BRANCH  22  23
HETATM   23  C10 UNL     1       0.579   0.180  -0.275  1.00  0.00    -0.024 C 
HETATM   24  C8  UNL     1       1.351  -0.377  -1.171  1.00  0.00    -0.084 C 
HETATM   25  C9  UNL     1       1.298  -1.793  -1.557  1.00  0.00     0.043 C 
BRANCH  24  26
HETATM   26  C7  UNL     1       2.384   0.473  -1.905  1.00  0.00     0.061 C 
BRANCH  26  27
HETATM   27  C6  UNL     1       3.717  -0.097  -1.644  1.00  0.00    -0.014 C 
HETATM   28  C5  UNL     1       4.715   0.610  -1.061  1.00  0.00     0.050 C 
BRANCH  28  29
HETATM   29  C4  UNL     1       5.968  -0.003  -0.834  1.00  0.00    -0.124 C 
BRANCH  29  30
HETATM   30  C3  UNL     1       7.070  -0.531  -0.631  1.00  0.00     0.202 C 
BRANCH  30  31
HETATM   31  O2  UNL     1       7.077  -1.953  -1.098  1.00  0.00    -0.304 OA
BRANCH  31  32
HETATM   32  C2  UNL     1       6.713  -2.926  -0.209  1.00  0.00     0.256 C 
HETATM   33  C1  UNL     1       6.687  -4.379  -0.615  1.00  0.00     0.126 C 
HETATM   34  O1  UNL     1       6.389  -2.658   0.964  1.00  0.00    -0.266 OA
ENDBRANCH  31  32
ENDBRANCH  30  31
BRANCH  30  35
HETATM   35  C29 UNL     1       8.343  -0.138  -0.073  1.00  0.00     0.049 C 
BRANCH  35  36
HETATM   36  C30 UNL     1       8.472   1.325   0.219  1.00  0.00     0.031 C 
BRANCH  36  37
HETATM   37  C31 UNL     1       9.838   1.635   0.738  1.00  0.00    -0.025 C 
HETATM   38  C32 UNL     1      10.018   2.242   1.877  1.00  0.00    -0.091 C 
HETATM   39  C33 UNL     1      11.433   2.507   2.307  1.00  0.00     0.042 C 
HETATM   40  C34 UNL     1       8.926   2.684   2.738  1.00  0.00     0.042 C 
ENDBRANCH  36  37
ENDBRANCH  35  36
ENDBRANCH  30  35
ENDBRANCH  29  30
ENDBRANCH  28  29
ENDBRANCH  26  27
ENDBRANCH  24  26
ENDBRANCH  22  23
ENDBRANCH  21  22
ENDBRANCH   1  21
BRANCH  18  41
HETATM   41  C27 UNL     1      -9.240   3.178   0.796  1.00  0.00     0.213 C 
BRANCH  41  42
HETATM   42  O7  UNL     1     -10.545   3.061   1.294  1.00  0.00    -0.397 OA
ATOM     43  H7  UNL     1     -11.029   3.876   1.223  1.00  0.00     0.209 HD
ENDBRANCH  41  42
ENDBRANCH  18  41
TORSDOF 14
