REMARK  7 active torsions:
REMARK  status: ('A' for Active; 'I' for Inactive)
REMARK    1  A    between atoms: C1_2  and  C2_3 
REMARK    2  A    between atoms: C1_2  and  O3_7 
REMARK    3  A    between atoms: C2_3  and  C3_4 
REMARK    4  A    between atoms: C3_4  and  O2_5 
REMARK    5  A    between atoms: O3_7  and  C4_8 
REMARK    6  A    between atoms: C4_8  and  C5_9 
REMARK    7  A    between atoms: C5_9  and  C6_11 
ROOT
HETATM    1  C6  UNL     1      -0.844  -0.160   0.174  1.00  0.00     0.024 C 
HETATM    2  C7  UNL     1      -0.808   0.889  -0.892  1.00  0.00     0.022 C 
HETATM    3  C8  UNL     1      -2.216   1.420  -1.122  1.00  0.00    -0.013 C 
HETATM    4  C9  UNL     1      -3.033   0.230  -1.608  1.00  0.00     0.009 C 
HETATM    5  C10 UNL     1      -3.085  -0.827  -0.536  1.00  0.00    -0.013 C 
HETATM    6  C11 UNL     1      -3.690  -0.244   0.731  1.00  0.00     0.009 C 
HETATM    7  C12 UNL     1      -2.810   0.881   1.181  1.00  0.00    -0.013 C 
HETATM    8  C13 UNL     1      -2.840   1.960   0.122  1.00  0.00     0.009 C 
HETATM    9  C14 UNL     1      -1.397   0.471   1.431  1.00  0.00     0.022 C 
HETATM   10  C15 UNL     1      -1.701  -1.335  -0.166  1.00  0.00     0.022 C 
ENDROOT
BRANCH   1  11
HETATM   11  C5  UNL     1       0.554  -0.650   0.390  1.00  0.00     0.159 C 
HETATM   12  O4  UNL     1       1.113  -0.550   1.468  1.00  0.00    -0.295 OA
BRANCH  11  13
HETATM   13  C4  UNL     1       1.255  -1.267  -0.744  1.00  0.00     0.257 C 
BRANCH  13  14
HETATM   14  O3  UNL     1       2.576  -1.637  -0.444  1.00  0.00    -0.314 OA
BRANCH  14  15
HETATM   15  C1  UNL     1       3.512  -0.698  -0.121  1.00  0.00     0.261 C 
HETATM   16  O1  UNL     1       3.172   0.516  -0.105  1.00  0.00    -0.265 OA
BRANCH  15  17
HETATM   17  C2  UNL     1       4.937  -1.073   0.215  1.00  0.00     0.137 C 
BRANCH  17  18
HETATM   18  C3  UNL     1       5.674   0.196   0.515  1.00  0.00     0.173 C 
BRANCH  18  19
HETATM   19  O2  UNL     1       5.617   1.000  -0.622  1.00  0.00    -0.400 OA
ATOM     20  H2  UNL     1       6.084   1.805  -0.432  1.00  0.00     0.209 HD
ENDBRANCH  18  19
ENDBRANCH  17  18
ENDBRANCH  15  17
ENDBRANCH  14  15
ENDBRANCH  13  14
ENDBRANCH  11  13
ENDBRANCH   1  11
TORSDOF 7
