REMARK  5 active torsions:
REMARK  status: ('A' for Active; 'I' for Inactive)
REMARK    1  A    between atoms: C7_8  and  N1_9 
REMARK       I    between atoms: N1_9  and  C8_11 
REMARK    2  A    between atoms: C8_11  and  C9_13 
REMARK    3  A    between atoms: C10_14  and  C11_15 
REMARK    4  A    between atoms: C15_20  and  N2_21 
REMARK    5  A    between atoms: C18_25  and  N3_26 
ROOT
HETATM    1  C1  UNL     1      -3.001   6.488   0.405  1.00  0.00     0.018 C 
HETATM    2  C2  UNL     1      -2.885   5.385   0.876  1.00  0.00    -0.078 C 
HETATM    3  C3  UNL     1      -2.725   4.086   1.446  1.00  0.00     0.020 A 
HETATM    4  C4  UNL     1      -2.642   3.974   2.817  1.00  0.00     0.044 A 
HETATM    5  C5  UNL     1      -2.474   2.738   3.398  1.00  0.00     0.037 A 
HETATM    6 CL1  UNL     1      -2.369   2.598   5.133  1.00  0.00    -0.084 Cl
HETATM    7  C6  UNL     1      -2.389   1.597   2.590  1.00  0.00     0.053 A 
HETATM    8  C7  UNL     1      -2.472   1.698   1.224  1.00  0.00     0.038 A 
HETATM    9  C28 UNL     1      -2.638   2.928   0.659  1.00  0.00     0.050 A 
ENDROOT
BRANCH   8  10
HETATM   10  N1  UNL     1      -2.339   0.479   0.460  1.00  0.00    -0.323 N 
HETATM   11  C8  UNL     1      -1.034  -0.108   0.291  1.00  0.00     0.254 C 
HETATM   12  O1  UNL     1      -0.129   0.546   0.837  1.00  0.00    -0.268 OA
ATOM     13  H1  UNL     1      -3.160   0.039   0.045  1.00  0.00     0.169 HD
BRANCH  11  14
HETATM   14  C9  UNL     1      -0.845  -1.310  -0.415  1.00  0.00     0.041 C 
HETATM   15  C10 UNL     1       0.356  -1.759  -0.644  1.00  0.00     0.051 C 
HETATM   16  N5  UNL     1       0.762  -2.981  -1.340  1.00  0.00    -0.384 N 
HETATM   17  C20 UNL     1       0.026  -3.992  -2.033  1.00  0.00     0.162 C 
ATOM     18  H5  UNL     1       1.769  -3.143  -1.328  1.00  0.00     0.160 HD
HETATM   19  C21 UNL     1      -1.141  -4.336  -1.149  1.00  0.00     0.008 A 
HETATM   20  C22 UNL     1      -1.230  -5.668  -0.857  1.00  0.00     0.128 A 
HETATM   21  C26 UNL     1      -2.057  -3.456  -0.647  1.00  0.00    -0.001 A 
HETATM   22  F1  UNL     1      -0.330  -6.548  -1.348  1.00  0.00    -0.205 F 
HETATM   23  C23 UNL     1      -2.239  -6.141  -0.058  1.00  0.00     0.088 A 
HETATM   24  C24 UNL     1      -3.175  -5.249   0.455  1.00  0.00     0.158 A 
HETATM   25  F2  UNL     1      -4.191  -5.671   1.255  1.00  0.00    -0.203 F 
HETATM   26  C25 UNL     1      -3.067  -3.911   0.149  1.00  0.00     0.162 A 
HETATM   27  F3  UNL     1      -3.990  -3.033   0.656  1.00  0.00    -0.202 F 
HETATM   28  C27 UNL     1      -2.161  -1.972  -0.831  1.00  0.00     0.089 C 
BRANCH  15  29
HETATM   29  C11 UNL     1       1.473  -0.983  -0.169  1.00  0.00    -0.007 A 
HETATM   30  C12 UNL     1       2.192  -1.453   0.911  1.00  0.00     0.015 A 
HETATM   31  C13 UNL     1       3.336  -0.886   1.370  1.00  0.00     0.027 A 
HETATM   32  C14 UNL     1       3.831   0.247   0.720  1.00  0.00     0.062 A 
HETATM   33 CL2  UNL     1       5.314   1.017   1.261  1.00  0.00    -0.082 Cl
HETATM   34  C15 UNL     1       3.164   0.758  -0.350  1.00  0.00     0.078 A 
HETATM   35  C19 UNL     1       1.991   0.141  -0.788  1.00  0.00     0.047 A 
BRANCH  34  36
HETATM   36  N2  UNL     1       3.611   1.935  -1.035  1.00  0.00    -0.263 N 
HETATM   37  C16 UNL     1       3.697   2.108  -2.357  1.00  0.00     0.144 A 
HETATM   38  C17 UNL     1       4.152   3.378  -2.635  1.00  0.00     0.096 A 
HETATM   39 CL3  UNL     1       4.418   4.082  -4.222  1.00  0.00    -0.079 Cl
HETATM   40  C18 UNL     1       4.340   3.972  -1.406  1.00  0.00     0.137 A 
HETATM   41  N4  UNL     1       4.003   3.068  -0.485  1.00  0.00    -0.278 N 
ATOM     42  H4  UNL     1       4.043   3.233   0.521  1.00  0.00     0.189 HD
BRANCH  40  43
HETATM   43  N3  UNL     1       4.761   5.164  -1.229  1.00  0.00    -0.383 N 
ATOM     44  H32 UNL     1       5.019   5.855  -1.933  1.00  0.00     0.157 HD
ATOM     45  H31 UNL     1       4.900   5.604  -0.319  1.00  0.00     0.157 HD
ENDBRANCH  40  43
ENDBRANCH  34  36
ENDBRANCH  15  29
ENDBRANCH  11  14
ENDBRANCH   8  10
TORSDOF 5
