REMARK  4 active torsions:
REMARK  status: ('A' for Active; 'I' for Inactive)
REMARK    1  A    between atoms: O1_2  and  C2_3 
REMARK    2  A    between atoms: C3_4  and  N1_5 
REMARK       I    between atoms: N1_5  and  C4_7 
REMARK       I    between atoms: C4_7  and  N2_9 
REMARK    3  A    between atoms: N2_9  and  C5_11 
REMARK    4  A    between atoms: C18_28  and  C19_29 
ROOT
HETATM    1  C2  UNL     1       0.408   0.057  -1.221  1.00  0.00     0.110 A 
HETATM    2  C3  UNL     1       1.443   0.448  -0.338  1.00  0.00     0.070 A 
HETATM    3  C11 UNL     1       1.111   1.256   0.724  1.00  0.00     0.033 A 
HETATM    4  C12 UNL     1      -0.195   1.701   0.961  1.00  0.00     0.020 A 
HETATM    5  C13 UNL     1      -1.175   1.316   0.102  1.00  0.00     0.049 A 
HETATM    6  C14 UNL     1      -0.850   0.508  -0.965  1.00  0.00     0.063 A 
HETATM    7  C15 UNL     1      -1.721   0.029  -2.047  1.00  0.00     0.185 C 
HETATM    8  O3  UNL     1      -1.003  -0.102  -3.106  1.00  0.00    -0.290 OA
HETATM    9  C16 UNL     1      -3.086  -0.338  -2.326  1.00  0.00     0.182 C 
HETATM   10 CL2  UNL     1      -3.103  -2.051  -2.880  1.00  0.00    -0.112 Cl
HETATM   11  C17 UNL     1      -4.101  -0.205  -1.287  1.00  0.00     0.032 C 
HETATM   12  C18 UNL     1      -4.450   0.456  -0.177  1.00  0.00     0.048 C 
HETATM   13  N3  UNL     1      -3.750   1.550   0.434  1.00  0.00    -0.322 N 
ATOM     14  H3  UNL     1      -4.393   2.231   0.839  1.00  0.00     0.169 HD
HETATM   15  C25 UNL     1      -2.415   1.924   0.618  1.00  0.00     0.257 C 
HETATM   16  O4  UNL     1      -2.179   2.942   1.334  1.00  0.00    -0.267 OA
ENDROOT
BRANCH   2  17
HETATM   17  N1  UNL     1       2.728   0.006  -0.591  1.00  0.00    -0.306 N 
HETATM   18  C4  UNL     1       3.945   0.233   0.136  1.00  0.00     0.325 C 
HETATM   19  O2  UNL     1       3.948   0.929   1.179  1.00  0.00    -0.247 OA
HETATM   20  N2  UNL     1       5.154  -0.317  -0.305  1.00  0.00    -0.306 N 
ATOM     21  H2  UNL     1       5.099  -0.874  -1.158  1.00  0.00     0.171 HD
ATOM     22  H1  UNL     1       2.827  -0.572  -1.425  1.00  0.00     0.171 HD
BRANCH  20  23
HETATM   23  C5  UNL     1       6.420  -0.208   0.260  1.00  0.00     0.075 A 
HETATM   24  C6  UNL     1       6.711   0.492   1.401  1.00  0.00     0.034 A 
HETATM   25  C7  UNL     1       8.012   0.565   1.922  1.00  0.00     0.026 A 
HETATM   26  C8  UNL     1       9.048  -0.079   1.287  1.00  0.00     0.037 A 
HETATM   27 CL1  UNL     1      10.655   0.033   1.965  1.00  0.00    -0.084 Cl
HETATM   28  C9  UNL     1       8.765  -0.790   0.133  1.00  0.00     0.068 A 
HETATM   29  C10 UNL     1       7.515  -0.853  -0.359  1.00  0.00     0.144 A 
HETATM   30  F1  UNL     1       7.229  -1.547  -1.488  1.00  0.00    -0.204 F 
ENDBRANCH  20  23
ENDBRANCH   2  17
BRANCH   1  31
HETATM   31  O1  UNL     1       0.700  -0.766  -2.310  1.00  0.00    -0.353 OA
HETATM   32  C1  UNL     1       0.706  -2.206  -2.104  1.00  0.00     0.210 C 
ENDBRANCH   1  31
BRANCH  12  33
HETATM   33  C19 UNL     1      -5.707   0.085   0.437  1.00  0.00     0.052 A 
HETATM   34  C20 UNL     1      -5.846   0.239   1.815  1.00  0.00     0.049 A 
HETATM   35 CL3  UNL     1      -4.493   0.659   2.844  1.00  0.00    -0.083 Cl
HETATM   36  C21 UNL     1      -7.066   0.009   2.469  1.00  0.00     0.026 A 
HETATM   37  C22 UNL     1      -8.179  -0.381   1.776  1.00  0.00     0.029 A 
HETATM   38  C23 UNL     1      -8.069  -0.540   0.419  1.00  0.00     0.073 A 
HETATM   39 CL4  UNL     1      -9.482  -1.040  -0.480  1.00  0.00    -0.081 Cl
HETATM   40  C24 UNL     1      -6.848  -0.306  -0.222  1.00  0.00     0.152 A 
HETATM   41  F2  UNL     1      -6.853  -0.423  -1.575  1.00  0.00    -0.203 F 
ENDBRANCH  12  33
TORSDOF 4
