REMARK  20 active torsions:
REMARK  status: ('A' for Active; 'I' for Inactive)
REMARK    1  A    between atoms: C2_2  and  C27_40 
REMARK    2  A    between atoms: C3_3  and  C4_4 
REMARK    3  A    between atoms: C4_4  and  C6_6 
REMARK    4  A    between atoms: C6_6  and  C7_7 
REMARK    5  A    between atoms: C7_7  and  C8_8 
REMARK    6  A    between atoms: C8_8  and  O1_9 
REMARK    7  A    between atoms: C8_8  and  C9_11 
REMARK    8  A    between atoms: C9_11  and  O2_12 
REMARK    9  A    between atoms: C9_11  and  C10_14 
REMARK   10  A    between atoms: C10_14  and  O3_15 
REMARK   11  A    between atoms: C10_14  and  C11_17 
REMARK   12  A    between atoms: C11_17  and  O4_18 
REMARK   13  A    between atoms: C11_17  and  C12_20 
REMARK   14  A    between atoms: C12_20  and  O5_21 
REMARK   15  A    between atoms: C12_20  and  C13_23 
REMARK   16  A    between atoms: C13_23  and  C15_25 
REMARK   17  A    between atoms: C15_25  and  C16_26 
REMARK   18  A    between atoms: C17_28  and  C18_29 
REMARK   19  A    between atoms: C18_29  and  C21_32 
REMARK   20  A    between atoms: C21_32  and  O7_35 
ROOT
HETATM    1  C11 UNL     1       1.335   1.027  -0.061  1.00  0.00     0.178 C 
ENDROOT
BRANCH   1   2
HETATM    2  C10 UNL     1       2.216   1.922  -0.820  1.00  0.00     0.181 C 
BRANCH   2   3
HETATM    3  C9  UNL     1       2.401   1.519  -2.274  1.00  0.00     0.181 C 
BRANCH   3   4
HETATM    4  C8  UNL     1       3.679   2.212  -2.744  1.00  0.00     0.172 C 
BRANCH   4   5
HETATM    5  C7  UNL     1       4.849   1.819  -1.916  1.00  0.00     0.004 C 
BRANCH   5   6
HETATM    6  C6  UNL     1       5.485   0.687  -2.044  1.00  0.00    -0.020 C 
BRANCH   6   7
HETATM    7  C4  UNL     1       6.683   0.319  -1.176  1.00  0.00     0.027 C 
HETATM    8  C5  UNL     1       6.991   1.392  -0.228  1.00  0.00     0.018 C 
BRANCH   7   9
HETATM    9  C3  UNL     1       6.572  -1.072  -0.805  1.00  0.00    -0.012 C 
HETATM   10  C2  UNL     1       6.491  -1.877   0.162  1.00  0.00    -0.064 C 
HETATM   11  C1  UNL     1       6.387  -3.386  -0.316  1.00  0.00     0.048 C 
BRANCH  10  12
HETATM   12  C27 UNL     1       6.486  -1.823   1.607  1.00  0.00    -0.082 C 
HETATM   13  C28 UNL     1       6.944  -0.660   2.383  1.00  0.00     0.043 C 
HETATM   14  C29 UNL     1       5.137  -2.365   2.160  1.00  0.00     0.043 C 
ENDBRANCH  10  12
ENDBRANCH   7   9
ENDBRANCH   6   7
ENDBRANCH   5   6
ENDBRANCH   4   5
BRANCH   4  15
HETATM   15  O1  UNL     1       3.915   1.892  -4.102  1.00  0.00    -0.389 OA
ATOM     16  H1  UNL     1       3.167   2.143  -4.631  1.00  0.00     0.210 HD
ENDBRANCH   4  15
ENDBRANCH   3   4
BRANCH   3  17
HETATM   17  O2  UNL     1       2.631   0.161  -2.439  1.00  0.00    -0.390 OA
ATOM     18  H2  UNL     1       1.836  -0.270  -2.147  1.00  0.00     0.210 HD
ENDBRANCH   3  17
ENDBRANCH   2   3
BRANCH   2  19
HETATM   19  O3  UNL     1       2.000   3.267  -0.760  1.00  0.00    -0.390 OA
ATOM     20  H3  UNL     1       1.884   3.519   0.149  1.00  0.00     0.210 HD
ENDBRANCH   2  19
ENDBRANCH   1   2
BRANCH   1  21
HETATM   21  O4  UNL     1       1.371   1.339   1.297  1.00  0.00    -0.390 OA
ATOM     22  H4  UNL     1       0.801   0.760   1.788  1.00  0.00     0.210 HD
ENDBRANCH   1  21
BRANCH   1  23
HETATM   23  C12 UNL     1      -0.032   0.737  -0.495  1.00  0.00     0.153 C 
BRANCH  23  24
HETATM   24  O5  UNL     1      -0.176   0.486  -1.856  1.00  0.00    -0.393 OA
ATOM     25  H5  UNL     1      -1.064   0.298  -2.138  1.00  0.00     0.210 HD
ENDBRANCH  23  24
BRANCH  23  26
HETATM   26  C13 UNL     1      -1.159   1.586  -0.034  1.00  0.00     0.015 C 
HETATM   27  C14 UNL     1      -1.074   3.042  -0.435  1.00  0.00     0.012 C 
BRANCH  26  28
HETATM   28  C15 UNL     1      -2.494   1.075  -0.535  1.00  0.00     0.039 C 
BRANCH  28  29
HETATM   29  C16 UNL     1      -2.850  -0.305  -0.099  1.00  0.00     0.126 C 
HETATM   30  O6  UNL     1      -4.093  -0.707  -0.612  1.00  0.00    -0.379 OA
HETATM   31  C17 UNL     1      -5.038  -0.208   0.294  1.00  0.00     0.133 C 
HETATM   32  C24 UNL     1      -4.452  -0.559   1.612  1.00  0.00     0.039 C 
HETATM   33  C25 UNL     1      -2.952  -0.459   1.377  1.00  0.00     0.013 C 
HETATM   34  C26 UNL     1      -2.259  -1.726   1.872  1.00  0.00     0.012 C 
BRANCH  31  35
HETATM   35  C18 UNL     1      -6.373  -0.854  -0.009  1.00  0.00     0.009 C 
HETATM   36  C19 UNL     1      -6.662  -0.457  -1.479  1.00  0.00     0.020 C 
HETATM   37  C20 UNL     1      -6.324  -2.341   0.031  1.00  0.00     0.020 C 
BRANCH  35  38
HETATM   38  C21 UNL     1      -7.461  -0.232   0.785  1.00  0.00     0.060 C 
HETATM   39  C22 UNL     1      -7.372  -0.290   2.262  1.00  0.00     0.046 C 
HETATM   40  C23 UNL     1      -8.818  -0.806   0.343  1.00  0.00     0.046 C 
BRANCH  38  41
HETATM   41  O7  UNL     1      -7.522   1.130   0.412  1.00  0.00    -0.390 OA
ATOM     42  H7  UNL     1      -8.219   1.528   0.920  1.00  0.00     0.210 HD
ENDBRANCH  38  41
ENDBRANCH  35  38
ENDBRANCH  31  35
ENDBRANCH  28  29
ENDBRANCH  26  28
ENDBRANCH  23  26
ENDBRANCH   1  23
TORSDOF 20
