REMARK  6 active torsions:
REMARK  status: ('A' for Active; 'I' for Inactive)
REMARK    1  A    between atoms: C2_2  and  C3_3 
REMARK    2  A    between atoms: C3_3  and  O1_4 
REMARK    3  A    between atoms: O1_4  and  C4_5 
REMARK    4  A    between atoms: C9_12  and  C10_13 
REMARK    5  A    between atoms: C10_13  and  O4_15 
REMARK    6  A    between atoms: C15_21  and  O6_22 
ROOT
HETATM    1  C4  UNL     1       1.307   0.155  -1.009  1.00  0.00     0.279 C 
HETATM    2  O2  UNL     1       0.984   0.916  -2.136  1.00  0.00    -0.289 OA
HETATM    3  C5  UNL     1      -0.347   1.118  -2.436  1.00  0.00     0.268 C 
HETATM    4  O3  UNL     1      -0.681   2.079  -3.162  1.00  0.00    -0.265 OA
HETATM    5  C6  UNL     1      -1.352   0.212  -1.907  1.00  0.00     0.121 C 
HETATM    6  C7  UNL     1      -1.431  -1.038  -2.794  1.00  0.00     0.018 C 
HETATM    7  C8  UNL     1      -2.095  -2.036  -1.852  1.00  0.00     0.011 C 
HETATM    8  C9  UNL     1      -1.366  -1.756  -0.554  1.00  0.00     0.050 C 
HETATM    9  C12 UNL     1      -1.113  -0.311  -0.532  1.00  0.00     0.091 C 
HETATM   10  O5  UNL     1      -2.015   0.368   0.309  1.00  0.00    -0.371 OA
HETATM   11  C13 UNL     1      -1.531   1.643   0.446  1.00  0.00     0.148 C 
HETATM   12  C14 UNL     1      -2.132   2.352   1.631  1.00  0.00     0.042 C 
HETATM   13  C15 UNL     1      -0.051   1.421   0.676  1.00  0.00     0.161 C 
HETATM   14  C17 UNL     1       0.219   0.108   0.031  1.00  0.00     0.109 C 
ENDROOT
BRANCH   1  15
HETATM   15  O1  UNL     1       2.480   0.540  -0.396  1.00  0.00    -0.357 OA
BRANCH  15  16
HETATM   16  C3  UNL     1       3.414  -0.464  -0.420  1.00  0.00     0.197 C 
BRANCH  16  17
HETATM   17  C2  UNL     1       4.690  -0.112   0.220  1.00  0.00    -0.011 C 
HETATM   18  C1  UNL     1       5.170  -0.780   1.253  1.00  0.00     0.009 C 
ENDBRANCH  16  17
ENDBRANCH  15  16
ENDBRANCH   1  15
BRANCH  13  19
HETATM   19  O6  UNL     1       0.710   2.460   0.203  1.00  0.00    -0.387 OA
HETATM   20  C16 UNL     1       1.375   3.112   1.235  1.00  0.00     0.202 C 
ENDBRANCH  13  19
BRANCH   8  21
HETATM   21  C10 UNL     1      -2.166  -2.318   0.601  1.00  0.00     0.121 C 
HETATM   22  C11 UNL     1      -1.454  -2.067   1.893  1.00  0.00     0.040 C 
BRANCH  21  23
HETATM   23  O4  UNL     1      -3.475  -1.926   0.593  1.00  0.00    -0.395 OA
ATOM     24  H4  UNL     1      -3.977  -2.279   1.318  1.00  0.00     0.210 HD
ENDBRANCH  21  23
ENDBRANCH   8  21
TORSDOF 6
