REMARK  9 active torsions:
REMARK  status: ('A' for Active; 'I' for Inactive)
REMARK    1  A    between atoms: C2_2  and  N1_5 
REMARK    2  A    between atoms: C5_11  and  N4_12 
REMARK    3  A    between atoms: N4_12  and  C6_14 
REMARK    4  A    between atoms: C6_14  and  C7_15 
REMARK    5  A    between atoms: N5_18  and  C10_19 
REMARK    6  A    between atoms: C10_19  and  C11_20 
REMARK       I    between atoms: C11_20  and  N6_22 
REMARK    7  A    between atoms: N6_22  and  C12_24 
REMARK    8  A    between atoms: C15_27  and  C16_29 
REMARK    9  A    between atoms: C16_29  and  O2_30 
ROOT
HETATM    1  C7  UNL     1      -2.271  -0.037   1.712  1.00  0.00     0.010 C 
HETATM    2  C8  UNL     1      -0.944   0.116   2.371  1.00  0.00     0.027 C 
HETATM    3  C9  UNL     1       0.130   0.033   1.307  1.00  0.00     0.128 C 
HETATM    4  N5  UNL     1       0.047  -1.252   0.689  1.00  0.00    -0.365 N 
HETATM    5  C19 UNL     1      -1.166  -1.578   0.061  1.00  0.00     0.064 C 
HETATM    6  C20 UNL     1      -2.415  -1.197   0.795  1.00  0.00     0.051 C 
ENDROOT
BRANCH   4   7
HETATM    7  C10 UNL     1       0.796  -2.298   1.264  1.00  0.00     0.164 C 
BRANCH   7   8
HETATM    8  C11 UNL     1       2.237  -2.156   1.057  1.00  0.00     0.257 C 
HETATM    9  O1  UNL     1       3.008  -3.037   1.595  1.00  0.00    -0.267 OA
HETATM   10  N6  UNL     1       2.790  -1.107   0.300  1.00  0.00    -0.352 N 
ATOM     11  H6  UNL     1       2.195  -0.405  -0.140  1.00  0.00     0.163 HD
BRANCH  10  12
HETATM   12  C12 UNL     1       4.258  -1.055   0.163  1.00  0.00     0.085 C 
HETATM   13  C13 UNL     1       4.690   0.308   0.634  1.00  0.00     0.028 C 
HETATM   14  C14 UNL     1       6.129   0.596   0.395  1.00  0.00     0.048 C 
HETATM   15  C15 UNL     1       6.700   0.105  -0.889  1.00  0.00     0.124 C 
HETATM   16  F1  UNL     1       8.016  -0.302  -0.603  1.00  0.00    -0.241 F 
HETATM   17  C17 UNL     1       6.037  -1.082  -1.495  1.00  0.00     0.048 C 
HETATM   18  C18 UNL     1       4.560  -1.173  -1.305  1.00  0.00     0.028 C 
BRANCH  15  19
HETATM   19  C16 UNL     1       6.882   1.244  -1.903  1.00  0.00     0.207 C 
BRANCH  19  20
HETATM   20  O2  UNL     1       5.703   1.869  -2.214  1.00  0.00    -0.398 OA
ATOM     21  H2  UNL     1       5.816   2.574  -2.841  1.00  0.00     0.209 HD
ENDBRANCH  19  20
ENDBRANCH  15  19
ENDBRANCH  10  12
ENDBRANCH   7   8
ENDBRANCH   4   7
BRANCH   1  22
HETATM   22  C6  UNL     1      -2.752   1.251   1.029  1.00  0.00     0.143 C 
BRANCH  22  23
HETATM   23  N4  UNL     1      -4.042   0.965   0.436  1.00  0.00    -0.224 N 
ATOM     24  H4  UNL     1      -4.330  -0.012   0.385  1.00  0.00     0.177 HD
BRANCH  23  25
HETATM   25  C5  UNL     1      -4.845   1.837  -0.027  1.00  0.00     0.697 A 
HETATM   26  N1  UNL     1      -6.052   1.567  -0.582  1.00  0.00    -0.099 N 
HETATM   27  N2  UNL     1      -6.620   2.697  -0.957  1.00  0.00    -0.277 N 
HETATM   28  C4  UNL     1      -5.805   3.717  -0.658  1.00  0.00     0.215 A 
ATOM     29  H2  UNL     1      -7.533   2.781  -1.403  1.00  0.00     0.188 HD
HETATM   30  N3  UNL     1      -4.714   3.176  -0.085  1.00  0.00    -0.185 N 
ATOM     31  H3  UNL     1      -3.908   3.702   0.255  1.00  0.00     0.185 HD
BRANCH  26  32
HETATM   32  C2  UNL     1      -6.661   0.255  -0.755  1.00  0.00     0.140 C 
HETATM   33  C1  UNL     1      -6.485  -0.564   0.526  1.00  0.00     0.058 C 
HETATM   34  C3  UNL     1      -6.031  -0.505  -1.890  1.00  0.00     0.058 C 
HETATM   35 CL1  UNL     1      -8.406   0.434  -1.028  1.00  0.00    -0.094 Cl
ENDBRANCH  26  32
ENDBRANCH  23  25
ENDBRANCH  22  23
ENDBRANCH   1  22
TORSDOF 9
