REMARK  9 active torsions:
REMARK  status: ('A' for Active; 'I' for Inactive)
REMARK    1  A    between atoms: C2_2  and  O1_5 
REMARK    2  A    between atoms: O1_5  and  C5_6 
REMARK       I    between atoms: C5_6  and  N1_8 
REMARK    3  A    between atoms: N1_8  and  C6_10 
REMARK    4  A    between atoms: C6_10  and  C9_13 
REMARK       I    between atoms: C9_13  and  N2_15 
REMARK    5  A    between atoms: N2_15  and  C10_17 
REMARK    6  A    between atoms: C10_17  and  C11_18 
REMARK    7  A    between atoms: C10_17  and  N5_30 
REMARK       I    between atoms: C11_18  and  N3_20 
REMARK    8  A    between atoms: N3_20  and  C12_22 
REMARK    9  A    between atoms: C12_22  and  C13_23 
ROOT
HETATM    1  C10 UNL     1       2.224  -0.414   0.209  1.00  0.00     0.417 C 
ENDROOT
BRANCH   1   2
HETATM    2  N2  UNL     1       0.899  -0.629  -0.377  1.00  0.00    -0.321 N 
HETATM    3  C9  UNL     1      -0.241  -0.305   0.367  1.00  0.00     0.247 C 
HETATM    4  O3  UNL     1      -0.132   0.177   1.548  1.00  0.00    -0.271 OA
ATOM      5  H2  UNL     1       0.808  -1.011  -1.318  1.00  0.00     0.165 HD
BRANCH   3   6
HETATM    6  C6  UNL     1      -1.632  -0.485  -0.133  1.00  0.00     0.108 C 
HETATM    7  C7  UNL     1      -1.859  -1.967  -0.404  1.00  0.00     0.049 C 
HETATM    8  C8  UNL     1      -1.766   0.247  -1.444  1.00  0.00     0.049 C 
BRANCH   6   9
HETATM    9  N1  UNL     1      -2.603  -0.058   0.842  1.00  0.00    -0.319 N 
HETATM   10  C5  UNL     1      -3.979  -0.189   0.543  1.00  0.00     0.362 C 
HETATM   11  O2  UNL     1      -4.362  -0.671  -0.548  1.00  0.00    -0.238 OA
ATOM     12  H1  UNL     1      -2.302   0.333   1.735  1.00  0.00     0.166 HD
BRANCH  10  13
HETATM   13  O1  UNL     1      -4.925   0.211   1.445  1.00  0.00    -0.294 OA
BRANCH  13  14
HETATM   14  C2  UNL     1      -6.318   0.140   1.279  1.00  0.00     0.061 C 
HETATM   15  C1  UNL     1      -6.843  -1.247   1.074  1.00  0.00     0.046 C 
HETATM   16  C3  UNL     1      -6.644   0.949   0.024  1.00  0.00     0.046 C 
HETATM   17  C4  UNL     1      -7.043   0.822   2.425  1.00  0.00     0.046 C 
ENDBRANCH  13  14
ENDBRANCH  10  13
ENDBRANCH   6   9
ENDBRANCH   3   6
ENDBRANCH   1   2
BRANCH   1  18
HETATM   18  C11 UNL     1       2.953   0.628  -0.543  1.00  0.00     0.271 C 
HETATM   19  O4  UNL     1       2.410   1.063  -1.625  1.00  0.00    -0.269 OA
HETATM   20  N3  UNL     1       4.176   1.211  -0.217  1.00  0.00    -0.353 N 
ATOM     21  H3  UNL     1       4.641   0.902   0.637  1.00  0.00     0.162 HD
BRANCH  20  22
HETATM   22  C12 UNL     1       4.828   2.228  -1.015  1.00  0.00     0.172 C 
BRANCH  22  23
HETATM   23  C13 UNL     1       6.117   2.647  -0.374  1.00  0.00     0.040 A 
HETATM   24  S1  UNL     1       6.850   2.098   1.082  1.00  0.00    -0.084 SA
HETATM   25  C14 UNL     1       8.246   3.078   1.047  1.00  0.00     0.139 A 
HETATM   26  N4  UNL     1       8.074   3.765  -0.069  1.00  0.00    -0.350 N 
HETATM   27  C15 UNL     1       7.025   3.575  -0.800  1.00  0.00     0.118 A 
ATOM     28  H4  UNL     1       8.774   4.450  -0.355  1.00  0.00     0.166 HD
HETATM   29 CL1  UNL     1       6.726   4.471  -2.322  1.00  0.00    -0.063 Cl
ENDBRANCH  22  23
ENDBRANCH  20  22
ENDBRANCH   1  18
BRANCH   1  30
HETATM   30  N5  UNL     1       2.830  -1.674   0.318  1.00  0.00     0.132 N 
HETATM   31  C16 UNL     1       4.038  -1.954   0.955  1.00  0.00     0.356 C 
HETATM   32  C17 UNL     1       4.100  -3.254   0.138  1.00  0.00     0.296 C 
HETATM   33  F1  UNL     1       3.349  -4.279   0.629  1.00  0.00    -0.203 F 
HETATM   34  F2  UNL     1       5.345  -3.542  -0.328  1.00  0.00    -0.203 F 
HETATM   35  C18 UNL     1       3.232  -2.416  -0.823  1.00  0.00     0.356 C 
ENDBRANCH   1  30
TORSDOF 9
