REMARK  2 active torsions:
REMARK  status: ('A' for Active; 'I' for Inactive)
REMARK    1  A    between atoms: N1_1  and  C1_4 
REMARK    2  A    between atoms: N4_13  and  N5_14 
REMARK       I    between atoms: N5_14  and  C4_16 
ROOT
HETATM    1  C1  UNL     1      -1.171   0.863   0.111  1.00  0.00     0.705 A 
HETATM    2  N2  UNL     1      -2.441   0.409   0.080  1.00  0.00    -0.139 N 
ATOM      3  H2  UNL     1      -3.195   1.093   0.025  1.00  0.00     0.189 HD
HETATM    4  C2  UNL     1      -2.767  -0.888   0.117  1.00  0.00     0.342 A 
HETATM    5  O1  UNL     1      -3.955  -1.300   0.087  1.00  0.00    -0.246 OA
HETATM    6  N3  UNL     1      -1.777  -1.771   0.188  1.00  0.00    -0.258 N 
ATOM      7  H3  UNL     1      -1.991  -2.768   0.217  1.00  0.00     0.175 HD
HETATM    8  C3  UNL     1      -0.478  -1.358   0.222  1.00  0.00     0.364 A 
HETATM    9  O2  UNL     1       0.371  -2.282   0.289  1.00  0.00    -0.244 OA
HETATM   10  N4  UNL     1      -0.150  -0.065   0.185  1.00  0.00    -0.028 N 
ENDROOT
BRANCH  10  11
HETATM   11  N5  UNL     1       1.130   0.431   0.215  1.00  0.00    -0.229 N 
HETATM   12  C4  UNL     1       2.390  -0.129   0.284  1.00  0.00     0.348 C 
HETATM   13  N6  UNL     1       3.576   0.727   0.297  1.00  0.00    -0.038 NA
HETATM   14  O3  UNL     1       2.638  -1.343   0.339  1.00  0.00    -0.249 OA
ATOM     15  H5  UNL     1       1.156   1.450   0.178  1.00  0.00     0.192 HD
ENDBRANCH  10  11
BRANCH   1  16
HETATM   16  N1  UNL     1      -1.019   2.111   0.070  1.00  0.00    -0.233 N 
ATOM     17  H12 UNL     1      -1.773   2.796   0.015  1.00  0.00     0.174 HD
ATOM     18  H11 UNL     1      -0.059   2.454   0.093  1.00  0.00     0.174 HD
ENDBRANCH   1  16
TORSDOF 2
