REMARK  3 active torsions:
REMARK  status: ('A' for Active; 'I' for Inactive)
REMARK    1  A    between atoms: C4_11  and  C5_12 
REMARK    2  A    between atoms: C5_12  and  N4_13 
REMARK    3  A    between atoms: C5_12  and  N5_17 
ROOT
HETATM    1  N1  UNL     1       0.421   2.039   0.277  1.00  0.00    -0.082 NA
HETATM    2  C1  UNL     1       0.903   0.720   0.087  1.00  0.00     0.135 A 
HETATM    3  N2  UNL     1       2.234   0.506  -0.114  1.00  0.00    -0.296 N 
ATOM      4  H2  UNL     1       2.894   1.284  -0.130  1.00  0.00     0.171 HD
HETATM    5  C2  UNL     1       2.653  -0.759  -0.290  1.00  0.00     0.328 A 
HETATM    6  O1  UNL     1       3.889  -0.993  -0.480  1.00  0.00    -0.247 OA
HETATM    7  N3  UNL     1       1.785  -1.791  -0.269  1.00  0.00    -0.275 N 
ATOM      8  H3  UNL     1       2.138  -2.738  -0.406  1.00  0.00     0.173 HD
HETATM    9  C3  UNL     1       0.465  -1.607  -0.072  1.00  0.00     0.262 A 
HETATM   10  O2  UNL     1      -0.361  -2.562  -0.049  1.00  0.00    -0.267 OA
HETATM   11  C4  UNL     1       0.005  -0.320   0.112  1.00  0.00     0.108 A 
ENDROOT
BRANCH  11  12
HETATM   12  C5  UNL     1      -1.441  -0.081   0.330  1.00  0.00     0.419 C 
BRANCH  12  13
HETATM   13  N4  UNL     1      -2.261  -0.844  -0.593  1.00  0.00    -0.046 N 
ATOM     14  H43 UNL     1      -1.997  -0.662  -1.561  1.00  0.00     0.277 HD
ATOM     15  H42 UNL     1      -2.039  -1.839  -0.551  1.00  0.00     0.277 HD
ATOM     16  H41 UNL     1      -3.256  -0.679  -0.443  1.00  0.00     0.277 HD
ENDBRANCH  12  13
BRANCH  12  17
HETATM   17  N5  UNL     1      -1.835   1.286   0.222  1.00  0.00    -0.046 N 
ATOM     18  H53 UNL     1      -1.280   1.867   0.850  1.00  0.00     0.277 HD
ATOM     19  H52 UNL     1      -1.542   1.671  -0.676  1.00  0.00     0.277 HD
ATOM     20  H51 UNL     1      -2.830   1.451   0.372  1.00  0.00     0.277 HD
ENDBRANCH  12  17
ENDBRANCH  11  12
TORSDOF 3
