REMARK  6 active torsions:
REMARK  status: ('A' for Active; 'I' for Inactive)
REMARK    1  A    between atoms: N2_4  and  C1_6 
REMARK    2  A    between atoms: C2_7  and  C3_8 
REMARK    3  A    between atoms: C3_8  and  N3_9 
REMARK    4  A    between atoms: C3_8  and  N4_13 
REMARK    5  A    between atoms: C5_22  and  N7_23 
REMARK    6  A    between atoms: N7_23  and  N8_25 
ROOT
HETATM    1  C1  UNL     1       0.494  -0.182  -0.242  1.00  0.00     0.119 A 
HETATM    2  C2  UNL     1      -0.732  -0.229   0.446  1.00  0.00     0.100 A 
HETATM    3  N5  UNL     1      -0.682  -0.475   1.763  1.00  0.00    -0.351 N 
ATOM      4  H5  UNL     1      -1.557  -0.514   2.286  1.00  0.00     0.166 HD
HETATM    5  C4  UNL     1       0.471  -0.672   2.424  1.00  0.00     0.182 A 
HETATM    6  N6  UNL     1       1.650  -0.633   1.794  1.00  0.00    -0.336 N 
ATOM      7  H6  UNL     1       2.521  -0.784   2.303  1.00  0.00     0.168 HD
HETATM    8  C5  UNL     1       1.658  -0.383   0.437  1.00  0.00     0.151 A 
ENDROOT
BRANCH   2   9
HETATM    9  C3  UNL     1      -2.003  -0.016  -0.252  1.00  0.00     0.429 C 
BRANCH   9  10
HETATM   10  N3  UNL     1      -1.984   1.107  -1.166  1.00  0.00    -0.045 N 
ATOM     11  H33 UNL     1      -1.690   1.957  -0.685  1.00  0.00     0.277 HD
ATOM     12  H32 UNL     1      -1.218   1.015  -1.833  1.00  0.00     0.277 HD
ATOM     13  H31 UNL     1      -2.869   1.255  -1.652  1.00  0.00     0.277 HD
ENDBRANCH   9  10
BRANCH   9  14
HETATM   14  N4  UNL     1      -3.040   0.201   0.762  1.00  0.00    -0.045 N 
ATOM     15  H43 UNL     1      -3.087  -0.552   1.448  1.00  0.00     0.277 HD
ATOM     16  H42 UNL     1      -2.811   0.957   1.407  1.00  0.00     0.277 HD
ATOM     17  H41 UNL     1      -3.925   0.349   0.276  1.00  0.00     0.277 HD
ENDBRANCH   9  14
ENDBRANCH   2   9
BRANCH   1  18
HETATM   18  N2  UNL     1       0.498   0.074  -1.633  1.00  0.00    -0.302 N 
HETATM   19  N1  UNL     1       0.146  -0.836  -2.417  1.00  0.00    -0.345 N 
ATOM     20  H12 UNL     1      -0.136  -1.742  -2.043  1.00  0.00     0.176 HD
ATOM     21  H11 UNL     1       0.149  -0.651  -3.420  1.00  0.00     0.176 HD
ATOM     22  H2  UNL     1       0.783   0.985  -1.991  1.00  0.00     0.186 HD
ENDBRANCH   1  18
BRANCH   8  23
HETATM   23  N7  UNL     1       2.802  -0.356  -0.115  1.00  0.00    -0.290 N 
ATOM     24  H7  UNL     1       3.612  -0.521   0.483  1.00  0.00     0.188 HD
BRANCH  23  25
HETATM   25  N8  UNL     1       3.041  -0.125  -1.443  1.00  0.00    -0.344 N 
ATOM     26  H82 UNL     1       2.219   0.037  -2.025  1.00  0.00     0.176 HD
ATOM     27  H81 UNL     1       3.959  -0.103  -1.886  1.00  0.00     0.176 HD
ENDBRANCH  23  25
ENDBRANCH   8  23
TORSDOF 6
