REMARK  7 active torsions:
REMARK  status: ('A' for Active; 'I' for Inactive)
REMARK    1  A    between atoms: O1_2  and  C2_3 
REMARK    2  A    between atoms: C2_3  and  C3_5 
REMARK    3  A    between atoms: C8_10  and  O3_11 
REMARK    4  A    between atoms: C15_20  and  O5_22 
REMARK    5  A    between atoms: C17_24  and  C18_25 
REMARK    6  A    between atoms: C19_26  and  S1_27 
REMARK    7  A    between atoms: S1_27  and  C20_29 
ROOT
HETATM    1  C3  UNL     1      -1.453  -2.239  -0.486  1.00  0.00     0.053 C 
HETATM    2  C4  UNL     1      -0.814  -2.213  -1.800  1.00  0.00     0.027 C 
HETATM    3  C5  UNL     1      -2.828  -1.561  -0.396  1.00  0.00     0.005 C 
HETATM    4  C6  UNL     1      -2.811  -0.188  -1.005  1.00  0.00     0.015 C 
HETATM    5  C7  UNL     1      -1.628   0.634  -0.720  1.00  0.00     0.045 C 
HETATM    6  C8  UNL     1      -2.007   1.967  -0.124  1.00  0.00     0.107 A 
HETATM    7  C9  UNL     1      -2.414   3.022  -1.021  1.00  0.00     0.026 A 
HETATM    8  C10 UNL     1      -1.833   4.205  -1.053  1.00  0.00    -0.013 A 
HETATM    9  C11 UNL     1      -2.368   5.225  -2.044  1.00  0.00     0.052 C 
HETATM   10  C12 UNL     1      -0.696   4.533  -0.217  1.00  0.00     0.178 A 
HETATM   11  O4  UNL     1      -0.116   5.635  -0.216  1.00  0.00    -0.288 OA
HETATM   12  C13 UNL     1      -0.254   3.453   0.655  1.00  0.00     0.064 A 
HETATM   13  C14 UNL     1      -0.833   2.297   0.695  1.00  0.00    -0.003 A 
HETATM   14  C15 UNL     1      -0.509   0.971   1.418  1.00  0.00     0.093 C 
HETATM   15  C16 UNL     1       0.901   1.082   1.960  1.00  0.00     0.052 C 
HETATM   16  C17 UNL     1      -0.661   0.000   0.285  1.00  0.00     0.025 C 
HETATM   17  C24 UNL     1      -1.071  -1.375   0.649  1.00  0.00     0.020 C 
HETATM   18  C25 UNL     1      -2.517  -1.533   1.085  1.00  0.00     0.013 C 
ENDROOT
BRANCH  16  19
HETATM   19  C18 UNL     1       0.707  -0.092  -0.342  1.00  0.00    -0.003 C 
HETATM   20  C19 UNL     1       1.598  -0.919   0.133  1.00  0.00     0.080 C 
BRANCH  20  21
HETATM   21  S1  UNL     1       3.213  -1.024  -0.612  1.00  0.00     0.063 S 
HETATM   22  O6  UNL     1       3.104  -0.671  -2.227  1.00  0.00    -0.249 OA
BRANCH  21  23
HETATM   23  C20 UNL     1       4.299   0.008   0.261  1.00  0.00     0.085 C 
HETATM   24  C21 UNL     1       5.594  -0.254   0.245  1.00  0.00    -0.079 C 
HETATM   25  C22 UNL     1       6.534   0.632   0.996  1.00  0.00     0.043 C 
HETATM   26  C23 UNL     1       6.116  -1.417  -0.510  1.00  0.00     0.043 C 
ENDBRANCH  21  23
ENDBRANCH  20  21
ENDBRANCH  16  19
BRANCH  14  27
HETATM   27  O5  UNL     1      -1.342   0.771   2.484  1.00  0.00    -0.384 OA
ATOM     28  H5  UNL     1      -1.143  -0.045   2.929  1.00  0.00     0.211 HD
ENDBRANCH  14  27
BRANCH   6  29
HETATM   29  O3  UNL     1      -3.125   1.812   0.751  1.00  0.00    -0.381 OA
ATOM     30  H3  UNL     1      -3.364   2.651   1.126  1.00  0.00     0.211 HD
ENDBRANCH   6  29
BRANCH   1  31
HETATM   31  C2  UNL     1      -1.621  -3.673  -0.042  1.00  0.00     0.267 C 
HETATM   32  O2  UNL     1      -0.995  -4.161   0.932  1.00  0.00    -0.264 OA
BRANCH  31  33
HETATM   33  O1  UNL     1      -2.497  -4.511  -0.723  1.00  0.00    -0.326 OA
HETATM   34  C1  UNL     1      -2.725  -5.846  -0.400  1.00  0.00     0.213 C 
ENDBRANCH  31  33
ENDBRANCH   1  31
TORSDOF 7
