REMARK  2 active torsions:
REMARK  status: ('A' for Active; 'I' for Inactive)
REMARK    1  A    between atoms: C2_2  and  C3_3 
REMARK    2  A    between atoms: C7_8  and  O2_9 
ROOT
HETATM    1  C3  UNL     1       0.868  -0.493   0.757  1.00  0.00     0.132 C 
HETATM    2  O1  UNL     1       0.680  -1.683  -0.027  1.00  0.00    -0.347 OA
HETATM    3  C4  UNL     1      -0.451  -1.271  -0.624  1.00  0.00     0.198 C 
HETATM    4  C5  UNL     1      -1.351  -1.160   0.545  1.00  0.00     0.074 C 
HETATM    5  C6  UNL     1      -1.646   0.161   1.141  1.00  0.00     0.046 C 
HETATM    6  C7  UNL     1      -1.113   0.991  -0.008  1.00  0.00     0.088 C 
HETATM    7  C8  UNL     1      -2.024   0.551  -1.130  1.00  0.00     0.248 C 
HETATM    8  O3  UNL     1      -2.083  -0.620  -1.671  1.00  0.00    -0.235 OA
HETATM    9  O4  UNL     1      -1.229  -1.623  -1.599  1.00  0.00    -0.201 OA
HETATM   10  C9  UNL     1       0.342   0.668  -0.098  1.00  0.00     0.057 C 
HETATM   11  C10 UNL     1       0.279  -0.159  -1.331  1.00  0.00     0.081 C 
ENDROOT
BRANCH   1  12
HETATM   12  C2  UNL     1       2.315  -0.239   1.044  1.00  0.00     0.028 C 
HETATM   13  C1  UNL     1       3.233  -0.045  -0.083  1.00  0.00     0.007 C 
ENDBRANCH   1  12
BRANCH   6  14
HETATM   14  O2  UNL     1      -1.275   2.339   0.200  1.00  0.00    -0.387 OA
ATOM     15  H2  UNL     1      -0.941   2.860  -0.521  1.00  0.00     0.210 HD
ENDBRANCH   6  14
TORSDOF 2
