REMARK  6 active torsions:
REMARK  status: ('A' for Active; 'I' for Inactive)
REMARK    1  A    between atoms: C2_3  and  C3_4 
REMARK    2  A    between atoms: C3_4  and  C4_5 
REMARK    3  A    between atoms: C5_6  and  C6_7 
REMARK    4  A    between atoms: C7_8  and  C8_9 
REMARK    5  A    between atoms: C10_12  and  C11_13 
REMARK    6  A    between atoms: C11_13  and  O2_14 
ROOT
HETATM    1  N1  UNL     1       4.886   2.248  -0.700  1.00  0.00    -0.197 NA
HETATM    2  C1  UNL     1       5.121   1.277  -0.117  1.00  0.00     0.060 C 
HETATM    3  C2  UNL     1       5.403   0.058   0.635  1.00  0.00     0.136 C 
ENDROOT
BRANCH   3   4
HETATM    4  C3  UNL     1       4.757  -1.129  -0.091  1.00  0.00     0.109 C 
BRANCH   4   5
HETATM    5  C4  UNL     1       3.318  -0.841  -0.133  1.00  0.00    -0.092 C 
HETATM    6  C5  UNL     1       2.136  -0.588  -0.181  1.00  0.00    -0.015 C 
BRANCH   6   7
HETATM    7  C6  UNL     1       0.754  -0.268  -0.241  1.00  0.00    -0.012 C 
HETATM    8  C7  UNL     1      -0.424   0.023  -0.304  1.00  0.00    -0.058 C 
BRANCH   8   9
HETATM    9  C8  UNL     1      -1.837   0.397  -0.389  1.00  0.00     0.228 C 
HETATM   10  C9  UNL     1      -2.625  -0.776  -0.940  1.00  0.00     0.215 C 
HETATM   11  O1  UNL     1      -3.766  -0.736  -0.128  1.00  0.00    -0.356 OA
HETATM   12  C10 UNL     1      -3.392  -0.210   1.085  1.00  0.00     0.284 C 
HETATM   13  O3  UNL     1      -2.291   0.595   0.901  1.00  0.00    -0.340 OA
BRANCH  12  14
HETATM   14  C11 UNL     1      -4.578   0.582   1.623  1.00  0.00     0.224 C 
BRANCH  14  15
HETATM   15  O2  UNL     1      -4.901   1.599   0.730  1.00  0.00    -0.396 OA
ATOM     16  H2  UNL     1      -5.640   2.093   1.065  1.00  0.00     0.209 HD
ENDBRANCH  14  15
ENDBRANCH  12  14
ENDBRANCH   8   9
ENDBRANCH   6   7
ENDBRANCH   4   5
ENDBRANCH   3   4
TORSDOF 6
