REMARK  5 active torsions:
REMARK  status: ('A' for Active; 'I' for Inactive)
REMARK    1  A    between atoms: C2_2  and  N1_3 
REMARK    2  A    between atoms: N2_6  and  C5_7 
REMARK    3  A    between atoms: C5_7  and  C6_8 
REMARK    4  A    between atoms: C12_15  and  C13_16 
REMARK    5  A    between atoms: C12_15  and  C14_18 
ROOT
HETATM    1  N1  UNL     1      -2.099   2.186  -0.967  1.00  0.00    -0.408 N 
HETATM    2  C3  UNL     1      -0.776   1.842  -1.310  1.00  0.00     0.161 C 
HETATM    3  C4  UNL     1      -0.047   1.468  -0.007  1.00  0.00     0.083 C 
HETATM    4  N2  UNL     1      -0.021   0.134   0.314  1.00  0.00    -0.356 N 
HETATM    5  C12 UNL     1      -1.258  -0.566   0.563  1.00  0.00     0.068 C 
HETATM    6  C18 UNL     1      -2.505   0.138   0.243  1.00  0.00     0.056 C 
HETATM    7  C19 UNL     1      -2.602   1.610   0.263  1.00  0.00     0.120 C 
ENDROOT
BRANCH   4   8
HETATM    8  C5  UNL     1       1.161  -0.462   0.755  1.00  0.00     0.100 C 
BRANCH   8   9
HETATM    9  C6  UNL     1       2.301  -0.670  -0.153  1.00  0.00     0.262 C 
HETATM   10  C7  UNL     1       3.473  -1.395   0.542  1.00  0.00     0.048 C 
HETATM   11  C8  UNL     1       4.639  -0.969  -0.281  1.00  0.00     0.018 C 
HETATM   12  C9  UNL     1       5.155   0.310   0.372  1.00  0.00     0.036 C 
HETATM   13  C11 UNL     1       3.972  -0.278  -1.485  1.00  0.00     0.278 C 
HETATM   14  C10 UNL     1       3.884   1.129   0.274  1.00  0.00     0.273 C 
HETATM   15  N3  UNL     1       2.994   0.490  -0.667  1.00  0.00     0.098 N 
ENDBRANCH   8   9
ENDBRANCH   4   8
BRANCH   5  16
HETATM   16  C13 UNL     1      -1.274  -0.889   2.044  1.00  0.00     0.150 C 
HETATM   17 CL1  UNL     1      -1.156   0.620   3.022  1.00  0.00    -0.128 Cl
ENDBRANCH   5  16
BRANCH   5  18
HETATM   18  C14 UNL     1      -1.086  -1.813  -0.269  1.00  0.00     0.007 C 
HETATM   19  C15 UNL     1      -2.041  -2.872  -0.371  1.00  0.00    -0.089 C 
HETATM   20  C16 UNL     1      -3.425  -2.705  -0.855  1.00  0.00     0.042 C 
HETATM   21  C17 UNL     1      -2.077  -3.837   0.801  1.00  0.00     0.042 C 
ENDBRANCH   5  18
BRANCH   1  22
HETATM   22  C2  UNL     1      -2.524   3.514  -1.206  1.00  0.00     0.112 C 
HETATM   23  C1  UNL     1      -1.867   4.545  -0.322  1.00  0.00     0.026 C 
ENDBRANCH   1  22
TORSDOF 5
