REMARK  6 active torsions:
REMARK  status: ('A' for Active; 'I' for Inactive)
REMARK    1  A    between atoms: C2_2  and  N1_4 
REMARK    2  A    between atoms: N1_4  and  C4_5 
REMARK       I    between atoms: N1_4  and  C5_7 
REMARK    3  A    between atoms: C5_7  and  C6_9 
REMARK    4  A    between atoms: C6_9  and  O2_10 
REMARK    5  A    between atoms: O2_10  and  C7_11 
REMARK    6  A    between atoms: C7_11  and  C8_13 
ROOT
HETATM    1  C7  UNL     1      -0.270  -0.508   0.583  1.00  0.00     0.268 C 
HETATM    2  O3  UNL     1       0.214  -0.638   1.727  1.00  0.00    -0.264 OA
ENDROOT
BRANCH   1   3
HETATM    3  O2  UNL     1       0.521  -0.767  -0.517  1.00  0.00    -0.311 OA
BRANCH   3   4
HETATM    4  C6  UNL     1       1.844  -1.167  -0.521  1.00  0.00     0.281 C 
BRANCH   4   5
HETATM    5  C5  UNL     1       2.726  -0.145   0.104  1.00  0.00     0.245 C 
HETATM    6  N1  UNL     1       4.121  -0.357   0.246  1.00  0.00    -0.333 N 
HETATM    7  O1  UNL     1       2.248   0.938   0.523  1.00  0.00    -0.271 OA
BRANCH   6   8
HETATM    8  C2  UNL     1       4.934   0.661   0.857  1.00  0.00     0.080 C 
HETATM    9  C1  UNL     1       5.993   1.119  -0.119  1.00  0.00     0.032 C 
HETATM   10  C3  UNL     1       5.555   0.057   2.103  1.00  0.00     0.032 C 
ENDBRANCH   6   8
BRANCH   6  11
HETATM   11  C4  UNL     1       4.742  -1.575  -0.211  1.00  0.00     0.241 C 
HETATM   12 CL1  UNL     1       5.279  -1.435  -1.908  1.00  0.00    -0.109 Cl
ENDBRANCH   6  11
ENDBRANCH   4   5
ENDBRANCH   3   4
ENDBRANCH   1   3
BRANCH   1  13
HETATM   13  C8  UNL     1      -1.670  -0.083   0.333  1.00  0.00     0.049 C 
HETATM   14  C9  UNL     1      -1.587   1.197  -0.475  1.00  0.00     0.020 C 
HETATM   15  C10 UNL     1      -2.661   1.321  -1.501  1.00  0.00     0.006 C 
HETATM   16  C11 UNL     1      -4.041   1.112  -0.964  1.00  0.00    -0.014 C 
HETATM   17  C12 UNL     1      -4.201   1.483   0.462  1.00  0.00     0.009 C 
HETATM   18  C16 UNL     1      -4.462  -0.299  -1.293  1.00  0.00     0.009 C 
HETATM   19  C13 UNL     1      -3.815   0.443   1.449  1.00  0.00    -0.013 C 
HETATM   20  C14 UNL     1      -4.392  -0.905   1.055  1.00  0.00     0.009 C 
HETATM   21  C18 UNL     1      -2.347   0.264   1.641  1.00  0.00     0.024 C 
HETATM   22  C15 UNL     1      -3.826  -1.235  -0.302  1.00  0.00    -0.013 C 
HETATM   23  C17 UNL     1      -2.353  -1.196  -0.387  1.00  0.00     0.024 C 
ENDBRANCH   1  13
TORSDOF 6
