REMARK  9 active torsions:
REMARK  status: ('A' for Active; 'I' for Inactive)
REMARK    1  A    between atoms: C4_5  and  C5_6 
REMARK    2  A    between atoms: C5_6  and  N2_7 
REMARK    3  A    between atoms: C6_11  and  C7_12 
REMARK    4  A    between atoms: C7_12  and  N3_13 
REMARK    5  A    between atoms: N3_13  and  C8_15 
REMARK    6  A    between atoms: C9_22  and  N7_23 
REMARK    7  A    between atoms: N7_23  and  N8_25 
REMARK    8  A    between atoms: C10_30  and  C11_31 
REMARK       I    between atoms: C11_31  and  N10_33 
REMARK    9  A    between atoms: N10_33  and  N11_35 
ROOT
HETATM    1  N1  UNL     1      -6.657  -1.088  -0.892  1.00  0.00    -0.190 NA
HETATM    2  C1  UNL     1      -5.530  -0.971  -0.687  1.00  0.00     0.117 C 
HETATM    3  C2  UNL     1      -4.129  -0.838  -0.426  1.00  0.00     0.115 A 
HETATM    4  C3  UNL     1      -3.335  -1.972  -0.509  1.00  0.00     0.050 A 
HETATM    5  C4  UNL     1      -1.989  -1.895  -0.270  1.00  0.00    -0.016 A 
HETATM    6  C6  UNL     1      -1.369  -0.666   0.067  1.00  0.00     0.020 A 
HETATM    7  C10 UNL     1      -2.178   0.415   0.141  1.00  0.00     0.115 A 
HETATM    8  N12 UNL     1      -3.536   0.289  -0.111  1.00  0.00    -0.342 N 
ATOM      9  H12 UNL     1      -4.112   1.128  -0.047  1.00  0.00     0.167 HD
ENDROOT
BRANCH   5  10
HETATM   10  C5  UNL     1      -1.193  -3.156  -0.376  1.00  0.00     0.269 C 
BRANCH  10  11
HETATM   11  N2  UNL     1      -2.040  -4.260  -0.723  1.00  0.00    -0.075 N 
ATOM     12  H23 UNL     1      -2.820  -4.358  -0.073  1.00  0.00     0.274 HD
ATOM     13  H22 UNL     1      -2.573  -4.076  -1.573  1.00  0.00     0.274 HD
ATOM     14  H21 UNL     1      -1.497  -5.120  -0.795  1.00  0.00     0.274 HD
ENDBRANCH  10  11
ENDBRANCH   5  10
BRANCH   7  15
HETATM   15  C11 UNL     1      -1.805   1.760   0.566  1.00  0.00     0.287 C 
HETATM   16  O1  UNL     1      -0.868   2.066   1.309  1.00  0.00    -0.264 OA
HETATM   17  N10 UNL     1      -2.584   2.873   0.087  1.00  0.00    -0.271 N 
ATOM     18  H10 UNL     1      -3.380   2.720  -0.532  1.00  0.00     0.189 HD
BRANCH  17  19
HETATM   19  N11 UNL     1      -2.236   4.154   0.480  1.00  0.00    -0.342 N 
ATOM     20 2H11 UNL     1      -1.437   4.290   1.100  1.00  0.00     0.176 HD
ATOM     21 1H11 UNL     1      -2.788   4.942   0.141  1.00  0.00     0.176 HD
ENDBRANCH  17  19
ENDBRANCH   7  15
BRANCH   6  22
HETATM   22  C7  UNL     1       0.058  -0.765   0.237  1.00  0.00     0.120 C 
BRANCH  22  23
HETATM   23  N3  UNL     1       0.886   0.315   0.534  1.00  0.00    -0.199 N 
ATOM     24  H3  UNL     1       0.494   1.102   1.051  1.00  0.00     0.183 HD
BRANCH  23  25
HETATM   25  C8  UNL     1       2.119   0.363   0.186  1.00  0.00     0.712 A 
HETATM   26  N4  UNL     1       2.627  -0.674  -0.493  1.00  0.00    -0.117 N 
HETATM   27  N5  UNL     1       3.894  -0.711  -0.895  1.00  0.00    -0.214 N 
ATOM     28  H4  UNL     1       2.020  -1.464  -0.710  1.00  0.00     0.207 HD
HETATM   29  N6  UNL     1       4.711   0.286  -0.638  1.00  0.00    -0.115 N 
ATOM     30  H5  UNL     1       4.236  -1.523  -1.409  1.00  0.00     0.209 HD
HETATM   31  C9  UNL     1       4.247   1.345   0.039  1.00  0.00     0.726 A 
ATOM     32  H6  UNL     1       5.682   0.254  -0.949  1.00  0.00     0.207 HD
HETATM   33  N9  UNL     1       2.943   1.387   0.455  1.00  0.00    -0.018 N 
ATOM     34  H9  UNL     1       2.598   2.197   0.970  1.00  0.00     0.203 HD
BRANCH  31  35
HETATM   35  N7  UNL     1       5.001   2.349   0.319  1.00  0.00    -0.137 N 
ATOM     36  H7  UNL     1       4.631   3.147   0.835  1.00  0.00     0.205 HD
BRANCH  35  37
HETATM   37  N8  UNL     1       6.329   2.327  -0.094  1.00  0.00    -0.331 N 
ATOM     38  H82 UNL     1       6.683   1.521  -0.609  1.00  0.00     0.177 HD
ATOM     39  H81 UNL     1       6.927   3.123   0.128  1.00  0.00     0.177 HD
ENDBRANCH  35  37
ENDBRANCH  31  35
ENDBRANCH  23  25
ENDBRANCH  22  23
ENDBRANCH   6  22
TORSDOF 9
