REMARK  15 active torsions:
REMARK  status: ('A' for Active; 'I' for Inactive)
REMARK    1  A    between atoms: C4_8  and  O1_9 
REMARK    2  A    between atoms: C5_12  and  C6_13 
REMARK    3  A    between atoms: C6_13  and  N3_14 
REMARK    4  A    between atoms: C8_22  and  C9_23 
REMARK    5  A    between atoms: C9_23  and  O4_24 
REMARK    6  A    between atoms: C9_23  and  N5_26 
REMARK    7  A    between atoms: N5_26  and  C10_28 
REMARK    8  A    between atoms: C10_28  and  C11_29 
REMARK    9  A    between atoms: C10_28  and  C12_32 
REMARK   10  A    between atoms: C11_29  and  O5_30 
REMARK       I    between atoms: C12_32  and  N6_34 
REMARK   11  A    between atoms: N6_34  and  C13_36 
REMARK   12  A    between atoms: C16_39  and  O7_40 
REMARK   13  A    between atoms: C17_42  and  N7_43 
REMARK   14  A    between atoms: C18_47  and  O8_48 
REMARK   15  A    between atoms: C19_50  and  O9_51 
ROOT
HETATM    1  N1  UNL     1       1.232  -2.264   2.339  1.00  0.00    -0.195 NA
HETATM    2  C1  UNL     1       2.093  -1.585   2.001  1.00  0.00     0.099 C 
HETATM    3  C2  UNL     1       3.191  -0.748   1.592  1.00  0.00     0.341 C 
HETATM    4  N2  UNL     1       4.275  -1.584   1.111  1.00  0.00    -0.040 N 
ATOM      5  H21 UNL     1       3.920  -2.405   0.620  1.00  0.00     0.280 HD
ATOM      6  H22 UNL     1       4.752  -2.051   1.882  1.00  0.00     0.280 HD
HETATM    7  C3  UNL     1       5.191  -0.854   0.302  1.00  0.00     0.290 C 
HETATM    8  C4  UNL     1       6.609  -1.375   0.349  1.00  0.00     0.295 C 
HETATM    9  O2  UNL     1       7.532  -0.435  -0.056  1.00  0.00    -0.328 OA
HETATM   10  C5  UNL     1       7.338   0.780   0.552  1.00  0.00     0.291 C 
HETATM   11  O3  UNL     1       6.143   1.344   0.087  1.00  0.00    -0.333 OA
HETATM   12  C7  UNL     1       5.119   0.609   0.678  1.00  0.00     0.260 C 
HETATM   13  N4  UNL     1       3.814   1.049   0.207  1.00  0.00    -0.362 N 
ATOM     14  H4  UNL     1       3.686   1.833  -0.433  1.00  0.00     0.162 HD
HETATM   15  C8  UNL     1       2.838   0.355   0.674  1.00  0.00     0.077 C 
ENDROOT
BRANCH  15  16
HETATM   16  C9  UNL     1       1.419   0.634   0.319  1.00  0.00     0.264 C 
BRANCH  16  17
HETATM   17  O4  UNL     1       1.420   1.750  -0.514  1.00  0.00    -0.372 OA
ATOM     18  H4  UNL     1       0.515   1.928  -0.740  1.00  0.00     0.212 HD
ENDBRANCH  16  17
BRANCH  16  19
HETATM   19  N5  UNL     1       0.845  -0.520  -0.220  1.00  0.00    -0.378 N 
ATOM     20  H5  UNL     1       1.382  -1.387  -0.223  1.00  0.00     0.157 HD
BRANCH  19  21
HETATM   21  C10 UNL     1      -0.456  -0.518  -0.759  1.00  0.00     0.195 C 
BRANCH  21  22
HETATM   22  C11 UNL     1      -0.631   0.376  -1.967  1.00  0.00     0.198 C 
BRANCH  22  23
HETATM   23  O5  UNL     1       0.223   0.024  -3.016  1.00  0.00    -0.398 OA
ATOM     24  H5  UNL     1       0.113   0.585  -3.775  1.00  0.00     0.209 HD
ENDBRANCH  22  23
ENDBRANCH  21  22
BRANCH  21  25
HETATM   25  C12 UNL     1      -1.533  -0.233   0.206  1.00  0.00     0.242 C 
HETATM   26  O6  UNL     1      -1.283   0.025   1.387  1.00  0.00    -0.271 OA
HETATM   27  N6  UNL     1      -2.875  -0.252  -0.207  1.00  0.00    -0.352 N 
ATOM     28  H6  UNL     1      -3.067  -0.470  -1.185  1.00  0.00     0.163 HD
BRANCH  27  29
HETATM   29  C13 UNL     1      -4.005   0.016   0.656  1.00  0.00     0.116 C 
HETATM   30  C14 UNL     1      -4.706   1.280   0.233  1.00  0.00     0.030 C 
HETATM   31  C15 UNL     1      -5.507   1.177  -1.010  1.00  0.00     0.036 C 
HETATM   32  C16 UNL     1      -6.411   0.016  -1.144  1.00  0.00     0.151 C 
HETATM   33  C17 UNL     1      -7.160  -0.354   0.104  1.00  0.00     0.243 C 
HETATM   34  C18 UNL     1      -6.264  -0.665   1.267  1.00  0.00     0.181 C 
HETATM   35  C19 UNL     1      -4.903  -1.149   0.856  1.00  0.00     0.171 C 
BRANCH  32  36
HETATM   36  O7  UNL     1      -7.378   0.329  -2.119  1.00  0.00    -0.393 OA
ATOM     37  H7  UNL     1      -7.959  -0.417  -2.205  1.00  0.00     0.210 HD
ENDBRANCH  32  36
BRANCH  33  38
HETATM   38  N7  UNL     1      -8.147   0.621   0.494  1.00  0.00    -0.070 N 
ATOM     39  H73 UNL     1      -7.724   1.545   0.587  1.00  0.00     0.274 HD
ATOM     40  H72 UNL     1      -8.793   0.807  -0.273  1.00  0.00     0.274 HD
ATOM     41  H71 UNL     1      -8.656   0.370   1.342  1.00  0.00     0.274 HD
ENDBRANCH  33  38
BRANCH  34  42
HETATM   42  O8  UNL     1      -6.857  -1.675   2.062  1.00  0.00    -0.391 OA
ATOM     43  H8  UNL     1      -6.290  -1.872   2.798  1.00  0.00     0.210 HD
ENDBRANCH  34  42
BRANCH  35  44
HETATM   44  O9  UNL     1      -4.429  -1.921   1.946  1.00  0.00    -0.391 OA
ATOM     45  H9  UNL     1      -5.004  -2.667   2.074  1.00  0.00     0.210 HD
ENDBRANCH  35  44
ENDBRANCH  27  29
ENDBRANCH  21  25
ENDBRANCH  19  21
ENDBRANCH  16  19
ENDBRANCH  15  16
BRANCH   8  46
HETATM   46  O1  UNL     1       6.674  -2.453  -0.554  1.00  0.00    -0.369 OA
ATOM     47  H1  UNL     1       7.565  -2.780  -0.524  1.00  0.00     0.212 HD
ENDBRANCH   8  46
BRANCH  10  48
HETATM   48  C6  UNL     1       8.509   1.708   0.397  1.00  0.00     0.290 C 
BRANCH  48  49
HETATM   49  N3  UNL     1       8.828   2.016  -0.971  1.00  0.00    -0.075 N 
ATOM     50  H33 UNL     1       8.974   1.161  -1.507  1.00  0.00     0.274 HD
ATOM     51  H32 UNL     1       8.010   2.385  -1.456  1.00  0.00     0.274 HD
ATOM     52  H31 UNL     1       9.623   2.646  -1.076  1.00  0.00     0.274 HD
ENDBRANCH  48  49
ENDBRANCH  10  48
TORSDOF 15
