REMARK  17 active torsions:
REMARK  status: ('A' for Active; 'I' for Inactive)
REMARK    1  A    between atoms: C2_2  and  O2_4 
REMARK    2  A    between atoms: O2_4  and  N1_5 
REMARK    3  A    between atoms: N1_5  and  C3_6 
REMARK    4  A    between atoms: C3_6  and  N2_7 
REMARK    5  A    between atoms: C3_6  and  C4_11 
REMARK       I    between atoms: C4_11  and  N3_13 
REMARK    6  A    between atoms: N3_13  and  C5_15 
REMARK    7  A    between atoms: C6_16  and  O4_17 
REMARK    8  A    between atoms: C7_19  and  N4_20 
REMARK    9  A    between atoms: C8_24  and  O5_25 
REMARK   10  A    between atoms: O5_25  and  C9_26 
REMARK   11  A    between atoms: C10_28  and  C11_29 
REMARK   12  A    between atoms: C12_33  and  N5_34 
REMARK   13  A    between atoms: C13_38  and  O9_39 
REMARK   14  A    between atoms: C14_41  and  N6_42 
REMARK   15  A    between atoms: C15_46  and  O10_47 
REMARK   16  A    between atoms: C15_46  and  C16_49 
REMARK   17  A    between atoms: C16_49  and  O11_50 
ROOT
HETATM    1  C5  UNL     1       1.215  -0.027   0.704  1.00  0.00     0.154 C 
HETATM    2  C6  UNL     1       0.384  -1.228   1.040  1.00  0.00     0.177 C 
HETATM    3  C7  UNL     1      -1.070  -1.016   1.101  1.00  0.00     0.245 C 
HETATM    4  C8  UNL     1      -1.641  -0.016   0.153  1.00  0.00     0.191 C 
HETATM    5  C14 UNL     1      -0.799   1.171  -0.119  1.00  0.00     0.252 C 
HETATM    6  C15 UNL     1       0.644   0.851  -0.346  1.00  0.00     0.132 C 
ENDROOT
BRANCH   4   7
HETATM    7  O5  UNL     1      -2.898   0.460   0.592  1.00  0.00    -0.349 OA
BRANCH   7   8
HETATM    8  C9  UNL     1      -3.917   0.141  -0.281  1.00  0.00     0.294 C 
HETATM    9  O6  UNL     1      -4.888  -0.586   0.407  1.00  0.00    -0.332 OA
HETATM   10  C10 UNL     1      -5.625  -1.348  -0.495  1.00  0.00     0.289 C 
HETATM   11  S1  UNL     1      -6.487  -0.285  -1.686  1.00  0.00    -0.091 SA
HETATM   12  C12 UNL     1      -5.361   1.103  -2.064  1.00  0.00     0.280 C 
HETATM   13  C13 UNL     1      -4.597   1.399  -0.790  1.00  0.00     0.213 C 
BRANCH  10  14
HETATM   14  C11 UNL     1      -6.608  -2.194   0.194  1.00  0.00     0.213 C 
HETATM   15  O7  UNL     1      -6.698  -2.165   1.444  1.00  0.00    -0.645 OA
HETATM   16  O8  UNL     1      -7.441  -3.027  -0.513  1.00  0.00    -0.645 OA
ENDBRANCH  10  14
BRANCH  12  17
HETATM   17  N5  UNL     1      -6.118   2.271  -2.455  1.00  0.00    -0.064 N 
ATOM     18  H53 UNL     1      -6.751   2.072  -3.230  1.00  0.00     0.275 HD
ATOM     19  H52 UNL     1      -6.814   2.526  -1.754  1.00  0.00     0.275 HD
ATOM     20  H51 UNL     1      -5.489   3.046  -2.666  1.00  0.00     0.275 HD
ENDBRANCH  12  17
BRANCH  13  21
HETATM   21  O9  UNL     1      -5.527   1.857   0.156  1.00  0.00    -0.388 OA
ATOM     22  H9  UNL     1      -5.953   2.644  -0.163  1.00  0.00     0.210 HD
ENDBRANCH  13  21
ENDBRANCH   7   8
ENDBRANCH   4   7
BRANCH   3  23
HETATM   23  N4  UNL     1      -1.765  -2.297   0.985  1.00  0.00    -0.070 N 
ATOM     24  H43 UNL     1      -1.487  -2.809   0.147  1.00  0.00     0.274 HD
ATOM     25  H42 UNL     1      -1.447  -2.970   1.682  1.00  0.00     0.274 HD
ATOM     26  H41 UNL     1      -2.773  -2.150   1.027  1.00  0.00     0.274 HD
ENDBRANCH   3  23
BRANCH   5  27
HETATM   27  N6  UNL     1      -0.991   2.199   0.901  1.00  0.00    -0.070 N 
ATOM     28  H63 UNL     1      -1.974   2.451   0.999  1.00  0.00     0.275 HD
ATOM     29  H62 UNL     1      -0.830   1.832   1.839  1.00  0.00     0.275 HD
ATOM     30  H61 UNL     1      -0.411   3.017   0.714  1.00  0.00     0.275 HD
ENDBRANCH   5  27
BRANCH   2  31
HETATM   31  O4  UNL     1       0.825  -1.842   2.214  1.00  0.00    -0.391 OA
ATOM     32  H4  UNL     1       0.298  -2.603   2.427  1.00  0.00     0.210 HD
ENDBRANCH   2  31
BRANCH   6  33
HETATM   33  O10 UNL     1       1.346   2.062  -0.354  1.00  0.00    -0.383 OA
ATOM     34  H10 UNL     1       0.980   2.624  -1.027  1.00  0.00     0.210 HD
ENDBRANCH   6  33
BRANCH   6  35
HETATM   35  C16 UNL     1       0.765   0.270  -1.743  1.00  0.00     0.206 C 
BRANCH  35  36
HETATM   36  O11 UNL     1       0.234   1.100  -2.704  1.00  0.00    -0.398 OA
ATOM     37  H11 UNL     1       0.310   0.736  -3.578  1.00  0.00     0.209 HD
ENDBRANCH  35  36
ENDBRANCH   6  35
BRANCH   1  38
HETATM   38  N3  UNL     1       2.583  -0.406   0.419  1.00  0.00    -0.348 N 
HETATM   39  C4  UNL     1       3.684  -0.032   1.194  1.00  0.00     0.267 C 
HETATM   40  O3  UNL     1       3.498   0.680   2.210  1.00  0.00    -0.270 OA
ATOM     41  H3  UNL     1       2.755  -0.985  -0.403  1.00  0.00     0.163 HD
BRANCH  39  42
HETATM   42  C3  UNL     1       5.071  -0.439   0.871  1.00  0.00     0.394 C 
BRANCH  42  43
HETATM   43  N1  UNL     1       6.027   0.072   1.822  1.00  0.00    -0.048 NA
BRANCH  43  44
HETATM   44  O2  UNL     1       7.293  -0.228   1.405  1.00  0.00    -0.205 OA
BRANCH  44  45
HETATM   45  C2  UNL     1       8.054   0.630   0.652  1.00  0.00     0.273 C 
HETATM   46  C1  UNL     1       9.427   0.256   0.223  1.00  0.00     0.127 C 
HETATM   47  O1  UNL     1       7.596   1.748   0.316  1.00  0.00    -0.264 OA
ENDBRANCH  44  45
ENDBRANCH  43  44
ENDBRANCH  42  43
BRANCH  42  48
HETATM   48  N2  UNL     1       5.187  -1.880   0.741  1.00  0.00    -0.050 N 
ATOM     49  H23 UNL     1       6.139  -2.161   0.506  1.00  0.00     0.277 HD
ATOM     50  H22 UNL     1       5.106  -2.347   1.644  1.00  0.00     0.277 HD
ATOM     51  H21 UNL     1       4.511  -2.241   0.068  1.00  0.00     0.277 HD
ENDBRANCH  42  48
ENDBRANCH  39  42
ENDBRANCH   1  38
TORSDOF 17
