REMARK  16 active torsions:
REMARK  status: ('A' for Active; 'I' for Inactive)
REMARK    1  A    between atoms: N1_1  and  C1_4 
REMARK    2  A    between atoms: C2_9  and  C3_10 
REMARK    3  A    between atoms: C3_10  and  O1_11 
REMARK    4  A    between atoms: C3_10  and  C4_13 
REMARK    5  A    between atoms: C4_13  and  O2_14 
REMARK    6  A    between atoms: C4_13  and  C5_16 
REMARK    7  A    between atoms: C5_16  and  N4_17 
REMARK    8  A    between atoms: C5_16  and  C6_21 
REMARK       I    between atoms: C6_21  and  N5_23 
REMARK    9  A    between atoms: N5_23  and  C7_25 
REMARK   10  A    between atoms: C8_26  and  O4_27 
REMARK   11  A    between atoms: C9_29  and  O5_30 
REMARK   12  A    between atoms: C10_32  and  O6_33 
REMARK   13  A    between atoms: C11_35  and  N6_36 
REMARK   14  A    between atoms: N9_44  and  C15_45 
REMARK   15  A    between atoms: C15_45  and  N10_46 
REMARK   16  A    between atoms: C17_51  and  O7_52 
ROOT
HETATM    1  C7  UNL     1      -0.615   0.323  -0.087  1.00  0.00     0.146 C 
HETATM    2  C8  UNL     1      -0.610  -1.127  -0.495  1.00  0.00     0.174 C 
HETATM    3  C9  UNL     1      -1.254  -2.034   0.525  1.00  0.00     0.179 C 
HETATM    4  C10 UNL     1      -2.678  -1.680   0.793  1.00  0.00     0.175 C 
HETATM    5  C11 UNL     1      -3.012  -0.266   0.326  1.00  0.00     0.154 C 
HETATM    6  C17 UNL     1      -1.879   0.679   0.604  1.00  0.00     0.169 C 
ENDROOT
BRANCH   1   7
HETATM    7  N5  UNL     1       0.534   0.525   0.768  1.00  0.00    -0.349 N 
HETATM    8  C6  UNL     1       1.632   1.349   0.500  1.00  0.00     0.251 C 
HETATM    9  O3  UNL     1       1.655   1.991  -0.582  1.00  0.00    -0.271 OA
ATOM     10  H5  UNL     1       0.545   0.017   1.652  1.00  0.00     0.163 HD
BRANCH   8  11
HETATM   11  C5  UNL     1       2.759   1.501   1.420  1.00  0.00     0.305 C 
BRANCH  11  12
HETATM   12  C4  UNL     1       4.099   1.222   0.800  1.00  0.00     0.192 C 
BRANCH  12  13
HETATM   13  C3  UNL     1       4.270  -0.203   0.356  1.00  0.00     0.202 C 
BRANCH  13  14
HETATM   14  C2  UNL     1       5.560  -0.287  -0.389  1.00  0.00     0.073 A 
HETATM   15  N3  UNL     1       5.687   0.259  -1.611  1.00  0.00    -0.287 N 
HETATM   16  N2  UNL     1       6.844   0.183  -2.282  1.00  0.00    -0.132 N 
ATOM     17  H3  UNL     1       4.891   0.738  -2.033  1.00  0.00     0.187 HD
HETATM   18  C1  UNL     1       7.920  -0.431  -1.780  1.00  0.00     0.690 A 
ATOM     19  H2  UNL     1       6.906   0.608  -3.207  1.00  0.00     0.205 HD
HETATM   20  N11 UNL     1       7.824  -0.987  -0.557  1.00  0.00    -0.199 N 
HETATM   21  C18 UNL     1       6.659  -0.924   0.147  1.00  0.00     0.135 A 
ATOM     22  H11 UNL     1       8.632  -1.460  -0.153  1.00  0.00     0.183 HD
BRANCH  18  23
HETATM   23  N1  UNL     1       8.989  -0.459  -2.487  1.00  0.00    -0.233 N 
ATOM     24  H12 UNL     1       9.062  -0.038  -3.413  1.00  0.00     0.174 HD
ATOM     25  H11 UNL     1       9.810  -0.928  -2.104  1.00  0.00     0.174 HD
ENDBRANCH  18  23
ENDBRANCH  13  14
BRANCH  13  26
HETATM   26  O1  UNL     1       3.224  -0.516  -0.507  1.00  0.00    -0.387 OA
ATOM     27  H1  UNL     1       2.403  -0.463  -0.033  1.00  0.00     0.210 HD
ENDBRANCH  13  26
ENDBRANCH  12  13
BRANCH  12  28
HETATM   28  O2  UNL     1       5.128   1.563   1.659  1.00  0.00    -0.390 OA
ATOM     29  H2  UNL     1       5.020   2.464   1.940  1.00  0.00     0.210 HD
ENDBRANCH  12  28
ENDBRANCH  11  12
BRANCH  11  30
HETATM   30  N4  UNL     1       2.631   0.727   2.627  1.00  0.00    -0.064 N 
ATOM     31  H43 UNL     1       2.786  -0.269   2.468  1.00  0.00     0.275 HD
ATOM     32  H42 UNL     1       3.401   0.890   3.276  1.00  0.00     0.275 HD
ATOM     33  H41 UNL     1       1.721   0.916   3.048  1.00  0.00     0.275 HD
ENDBRANCH  11  30
ENDBRANCH   8  11
ENDBRANCH   1   7
BRANCH   2  34
HETATM   34  O4  UNL     1      -1.218  -1.313  -1.738  1.00  0.00    -0.391 OA
ATOM     35  H4  UNL     1      -1.215  -2.227  -1.995  1.00  0.00     0.210 HD
ENDBRANCH   2  34
BRANCH   6  36
HETATM   36  O7  UNL     1      -2.327   1.962   0.271  1.00  0.00    -0.391 OA
ATOM     37  H7  UNL     1      -3.136   2.190   0.713  1.00  0.00     0.210 HD
ENDBRANCH   6  36
BRANCH   3  38
HETATM   38  O5  UNL     1      -1.233  -3.340   0.015  1.00  0.00    -0.390 OA
ATOM     39  H5  UNL     1      -1.638  -3.911   0.657  1.00  0.00     0.210 HD
ENDBRANCH   3  38
BRANCH   5  40
HETATM   40  N6  UNL     1      -4.164   0.246   1.065  1.00  0.00    -0.316 N 
HETATM   41  C12 UNL     1      -4.277   0.277   2.421  1.00  0.00     0.187 A 
HETATM   42  N7  UNL     1      -5.461   0.805   2.760  1.00  0.00    -0.335 N 
HETATM   43  C13 UNL     1      -6.124   1.119   1.629  1.00  0.00     0.152 A 
ATOM     44  H7  UNL     1      -5.802   0.945   3.711  1.00  0.00     0.168 HD
HETATM   45  N8  UNL     1      -7.256   1.634   1.110  1.00  0.00    -0.335 N 
HETATM   46  C16 UNL     1      -5.295   0.762   0.560  1.00  0.00     0.158 A 
HETATM   47  C14 UNL     1      -7.151   1.606  -0.209  1.00  0.00     0.188 A 
ATOM     48  H8  UNL     1      -8.054   1.984   1.641  1.00  0.00     0.168 HD
HETATM   49  N9  UNL     1      -5.951   1.072  -0.563  1.00  0.00    -0.301 N 
BRANCH  49  50
HETATM   50  C15 UNL     1      -5.487   0.890  -1.899  1.00  0.00     0.361 C 
BRANCH  50  51
HETATM   51  N10 UNL     1      -5.874  -0.436  -2.357  1.00  0.00    -0.063 N 
ATOM     52 3H10 UNL     1      -5.552  -1.173  -1.730  1.00  0.00     0.276 HD
ATOM     53 2H10 UNL     1      -6.877  -0.601  -2.268  1.00  0.00     0.276 HD
ATOM     54 1H10 UNL     1      -5.542  -0.566  -3.313  1.00  0.00     0.276 HD
ENDBRANCH  50  51
ENDBRANCH  49  50
ENDBRANCH   5  40
BRANCH   4  55
HETATM   55  O6  UNL     1      -3.584  -2.524   0.149  1.00  0.00    -0.391 OA
ATOM     56  H6  UNL     1      -4.491  -2.299   0.320  1.00  0.00     0.210 HD
ENDBRANCH   4  55
TORSDOF 16
