REMARK  7 active torsions:
REMARK  status: ('A' for Active; 'I' for Inactive)
REMARK    1  A    between atoms: N1_1  and  C1_4 
REMARK    2  A    between atoms: C4_14  and  C5_15 
REMARK       I    between atoms: C5_15  and  N5_17 
REMARK    3  A    between atoms: N5_17  and  C6_19 
REMARK    4  A    between atoms: C6_19  and  C7_20 
REMARK    5  A    between atoms: C6_19  and  C8_25 
REMARK    6  A    between atoms: C7_20  and  N6_21 
REMARK    7  A    between atoms: N6_21  and  O3_23 
ROOT
HETATM    1  C1  UNL     1       5.041   0.547  -0.614  1.00  0.00     0.680 A 
HETATM    2  N2  UNL     1       5.266  -0.474   0.205  1.00  0.00    -0.154 N 
ATOM      3  H2  UNL     1       6.227  -0.760   0.392  1.00  0.00     0.187 HD
HETATM    4  C2  UNL     1       4.254  -1.141   0.795  1.00  0.00     0.291 A 
HETATM    5  O1  UNL     1       4.434  -2.104   1.570  1.00  0.00    -0.265 OA
HETATM    6  C3  UNL     1       2.940  -0.763   0.550  1.00  0.00     0.162 A 
HETATM    7  N3  UNL     1       1.893  -1.372   1.094  1.00  0.00    -0.291 N 
ATOM      8  H3  UNL     1       2.047  -2.158   1.726  1.00  0.00     0.187 HD
HETATM    9  N4  UNL     1       0.659  -0.986   0.837  1.00  0.00    -0.280 N 
ATOM     10  H4  UNL     1      -0.120  -1.479   1.274  1.00  0.00     0.188 HD
HETATM   11  C4  UNL     1       0.407   0.042   0.013  1.00  0.00     0.191 A 
HETATM   12  N7  UNL     1       1.447   0.674  -0.549  1.00  0.00    -0.321 N 
ATOM     13  H7  UNL     1       1.275   1.458  -1.178  1.00  0.00     0.169 HD
HETATM   14  C9  UNL     1       2.709   0.296  -0.301  1.00  0.00     0.156 A 
HETATM   15  N8  UNL     1       3.766   0.929  -0.865  1.00  0.00    -0.174 N 
ATOM     16  H8  UNL     1       3.597   1.713  -1.495  1.00  0.00     0.186 HD
ENDROOT
BRANCH  11  17
HETATM   17  C5  UNL     1      -0.954   0.479  -0.279  1.00  0.00     0.288 C 
HETATM   18  O2  UNL     1      -1.146   1.455  -1.063  1.00  0.00    -0.264 OA
HETATM   19  N5  UNL     1      -2.032  -0.209   0.331  1.00  0.00    -0.335 N 
ATOM     20  H5  UNL     1      -1.828  -0.989   0.956  1.00  0.00     0.164 HD
BRANCH  19  21
HETATM   21  C6  UNL     1      -3.419   0.158   0.097  1.00  0.00     0.226 C 
BRANCH  21  22
HETATM   22  C7  UNL     1      -4.101  -1.018  -0.456  1.00  0.00     0.122 C 
BRANCH  22  23
HETATM   23  N6  UNL     1      -5.100  -0.889  -1.252  1.00  0.00    -0.282 N 
ATOM     24  H6  UNL     1      -5.569  -1.711  -1.632  1.00  0.00     0.193 HD
BRANCH  23  25
HETATM   25  O3  UNL     1      -5.525   0.366  -1.582  1.00  0.00    -0.290 OA
ATOM     26  H3  UNL     1      -6.264   0.461  -2.171  1.00  0.00     0.244 HD
ENDBRANCH  23  25
ENDBRANCH  22  23
ENDBRANCH  21  22
BRANCH  21  27
HETATM   27  C8  UNL     1      -4.084   0.548   1.359  1.00  0.00     0.202 C 
HETATM   28  O4  UNL     1      -3.493   0.547   2.460  1.00  0.00    -0.646 OA
HETATM   29  O5  UNL     1      -5.411   0.927   1.311  1.00  0.00    -0.646 OA
ENDBRANCH  21  27
ENDBRANCH  19  21
ENDBRANCH  11  17
BRANCH   1  30
HETATM   30  N1  UNL     1       5.969   1.221  -1.205  1.00  0.00    -0.234 N 
ATOM     31  H12 UNL     1       6.929   0.933  -1.016  1.00  0.00     0.174 HD
ATOM     32  H11 UNL     1       5.796   2.005  -1.834  1.00  0.00     0.174 HD
ENDBRANCH   1  30
TORSDOF 7
