REMARK  4 active torsions:
REMARK  status: ('A' for Active; 'I' for Inactive)
REMARK    1  A    between atoms: N1_1  and  C1_4 
REMARK    2  A    between atoms: C2_7  and  C3_8 
REMARK    3  A    between atoms: C5_14  and  C6_15 
REMARK       I    between atoms: C6_15  and  N4_17 
REMARK    4  A    between atoms: N4_17  and  C7_19 
ROOT
HETATM    1  C1  UNL     1      -1.329  -0.034  -0.372  1.00  0.00     0.117 A 
HETATM    2  N2  UNL     1      -2.590   0.386  -0.181  1.00  0.00    -0.323 N 
ATOM      3  H2  UNL     1      -3.010   0.981  -0.895  1.00  0.00     0.169 HD
HETATM    4  C2  UNL     1      -3.332   0.069   0.895  1.00  0.00     0.185 A 
HETATM    5  N3  UNL     1      -2.747  -0.717   1.816  1.00  0.00    -0.346 N 
ATOM      6  H3  UNL     1      -3.281  -0.977   2.645  1.00  0.00     0.167 HD
HETATM    7  C4  UNL     1      -1.495  -1.173   1.692  1.00  0.00     0.111 A 
HETATM    8  C5  UNL     1      -0.746  -0.840   0.585  1.00  0.00     0.091 A 
ENDROOT
BRANCH   8   9
HETATM    9  C6  UNL     1       0.620  -1.305   0.394  1.00  0.00     0.275 C 
HETATM   10  O3  UNL     1       1.207  -2.040   1.227  1.00  0.00    -0.267 OA
HETATM   11  N4  UNL     1       1.349  -0.932  -0.767  1.00  0.00    -0.154 N 
ATOM     12  H4  UNL     1       1.002  -1.186  -1.692  1.00  0.00     0.187 HD
BRANCH  11  13
HETATM   13  C7  UNL     1       2.459  -0.266  -0.649  1.00  0.00     0.700 A 
HETATM   14  N5  UNL     1       3.058   0.150   0.480  1.00  0.00    -0.185 N 
HETATM   15  C8  UNL     1       4.171   0.794   0.144  1.00  0.00     0.215 A 
ATOM     16  H5  UNL     1       2.718  -0.002   1.429  1.00  0.00     0.185 HD
HETATM   17  N6  UNL     1       4.291   0.795  -1.202  1.00  0.00    -0.281 N 
HETATM   18  N7  UNL     1       3.238   0.145  -1.659  1.00  0.00    -0.131 N 
ATOM     19  H6  UNL     1       5.042   1.213  -1.752  1.00  0.00     0.188 HD
ATOM     20  H7  UNL     1       3.043  -0.022  -2.646  1.00  0.00     0.205 HD
ENDBRANCH  11  13
ENDBRANCH   8   9
BRANCH   1  21
HETATM   21  N1  UNL     1      -0.632   0.291  -1.429  1.00  0.00    -0.385 N 
ATOM     22  H12 UNL     1      -1.063   0.887  -2.136  1.00  0.00     0.157 HD
ATOM     23  H11 UNL     1       0.326  -0.028  -1.574  1.00  0.00     0.157 HD
ENDBRANCH   1  21
BRANCH   4  24
HETATM   24  C3  UNL     1      -4.695   0.555   1.049  1.00  0.00     0.245 C 
HETATM   25  O1  UNL     1      -5.338   0.226   2.073  1.00  0.00    -0.642 OA
HETATM   26  O2  UNL     1      -5.290   1.362   0.098  1.00  0.00    -0.642 OA
ENDBRANCH   4  24
TORSDOF 4
