REMARK  16 active torsions:
REMARK  status: ('A' for Active; 'I' for Inactive)
REMARK    1  A    between atoms: C2_2  and  C3_3 
REMARK    2  A    between atoms: C3_3  and  C4_4 
REMARK    3  A    between atoms: C4_4  and  C5_5 
REMARK    4  A    between atoms: C5_5  and  C6_6 
REMARK    5  A    between atoms: C6_6  and  C7_7 
REMARK    6  A    between atoms: C7_7  and  C8_8 
REMARK    7  A    between atoms: C8_8  and  C9_9 
REMARK    8  A    between atoms: C9_9  and  C10_10 
REMARK    9  A    between atoms: C10_10  and  C11_11 
REMARK   10  A    between atoms: C11_11  and  C12_12 
REMARK   11  A    between atoms: C13_13  and  O1_14 
REMARK   12  A    between atoms: C14_16  and  O2_17 
REMARK   13  A    between atoms: C15_19  and  O3_20 
REMARK   14  A    between atoms: S1_22  and  C16_23 
REMARK   15  A    between atoms: C19_27  and  O5_28 
REMARK   16  A    between atoms: C20_30  and  O6_31 
ROOT
HETATM    1  C12 UNL     1      -1.357   0.119   0.722  1.00  0.00     0.074 C 
HETATM    2  C13 UNL     1      -1.198  -1.280   1.124  1.00  0.00     0.163 C 
HETATM    3  C14 UNL     1      -1.696  -1.377   2.568  1.00  0.00     0.186 C 
HETATM    4  C15 UNL     1      -3.072  -0.811   2.587  1.00  0.00     0.204 C 
HETATM    5  S1  UNL     1      -2.955   0.528   1.429  1.00  0.00    -0.150 SA
ENDROOT
BRANCH   1   6
HETATM    6  C11 UNL     1      -1.250   0.546  -0.667  1.00  0.00     0.017 C 
BRANCH   6   7
HETATM    7  C10 UNL     1       0.023   0.322  -1.374  1.00  0.00     0.001 C 
BRANCH   7   8
HETATM    8  C9  UNL     1       0.523  -1.039  -1.621  1.00  0.00     0.000 C 
BRANCH   8   9
HETATM    9  C8  UNL     1       1.829  -1.028  -2.416  1.00  0.00     0.000 C 
BRANCH   9  10
HETATM   10  C7  UNL     1       2.930  -0.277  -1.679  1.00  0.00     0.000 C 
BRANCH  10  11
HETATM   11  C6  UNL     1       4.183  -0.313  -2.506  1.00  0.00     0.000 C 
BRANCH  11  12
HETATM   12  C5  UNL     1       5.295   0.434  -1.821  1.00  0.00     0.000 C 
BRANCH  12  13
HETATM   13  C4  UNL     1       5.580  -0.198  -0.498  1.00  0.00     0.000 C 
BRANCH  13  14
HETATM   14  C3  UNL     1       6.726   0.531   0.226  1.00  0.00    -0.000 C 
BRANCH  14  15
HETATM   15  C2  UNL     1       6.920  -0.191   1.538  1.00  0.00    -0.005 C 
HETATM   16  C1  UNL     1       8.041   0.457   2.337  1.00  0.00     0.005 C 
ENDBRANCH  14  15
ENDBRANCH  13  14
ENDBRANCH  12  13
ENDBRANCH  11  12
ENDBRANCH  10  11
ENDBRANCH   9  10
ENDBRANCH   8   9
ENDBRANCH   7   8
ENDBRANCH   6   7
ENDBRANCH   1   6
BRANCH   2  17
HETATM   17  O1  UNL     1      -1.849  -2.212   0.330  1.00  0.00    -0.392 OA
ATOM     18  H1  UNL     1      -1.746  -3.120   0.591  1.00  0.00     0.210 HD
ENDBRANCH   2  17
BRANCH   5  19
HETATM   19  C16 UNL     1      -4.266   0.393   0.282  1.00  0.00     0.208 C 
HETATM   20  O4  UNL     1      -4.170   1.197  -0.821  1.00  0.00    -0.366 OA
HETATM   21  C17 UNL     1      -5.389   1.750  -1.100  1.00  0.00     0.150 C 
HETATM   22  C18 UNL     1      -6.214   0.814  -1.930  1.00  0.00     0.042 C 
HETATM   23  C19 UNL     1      -6.061   1.916   0.245  1.00  0.00     0.178 C 
HETATM   24  C20 UNL     1      -5.552   0.697   0.985  1.00  0.00     0.187 C 
BRANCH  23  25
HETATM   25  O5  UNL     1      -7.447   1.860   0.064  1.00  0.00    -0.390 OA
ATOM     26  H5  UNL     1      -7.869   1.964   0.909  1.00  0.00     0.210 HD
ENDBRANCH  23  25
BRANCH  24  27
HETATM   27  O6  UNL     1      -6.484  -0.325   0.881  1.00  0.00    -0.390 OA
ATOM     28  H6  UNL     1      -7.300  -0.132   1.327  1.00  0.00     0.210 HD
ENDBRANCH  24  27
ENDBRANCH   5  19
BRANCH   3  29
HETATM   29  O2  UNL     1      -1.776  -2.727   2.927  1.00  0.00    -0.390 OA
ATOM     30  H2  UNL     1      -2.085  -2.787   3.823  1.00  0.00     0.210 HD
ENDBRANCH   3  29
BRANCH   4  31
HETATM   31  O3  UNL     1      -3.383  -0.328   3.877  1.00  0.00    -0.383 OA
ATOM     32  H3  UNL     1      -4.262   0.033   3.889  1.00  0.00     0.211 HD
ENDBRANCH   4  31
TORSDOF 16
