REMARK  16 active torsions:
REMARK  status: ('A' for Active; 'I' for Inactive)
REMARK    1  A    between atoms: C2_2  and  C4_4 
REMARK    2  A    between atoms: C13_13  and  N1_14 
REMARK    3  A    between atoms: N1_14  and  C14_15 
REMARK    4  A    between atoms: N1_14  and  C15_17 
REMARK    5  A    between atoms: C15_17  and  C16_18 
REMARK    6  A    between atoms: C16_18  and  O2_19 
REMARK    7  A    between atoms: C16_18  and  C17_21 
REMARK    8  A    between atoms: C17_21  and  C18_22 
REMARK    9  A    between atoms: C18_22  and  N2_23 
REMARK   10  A    between atoms: N2_23  and  C19_26 
REMARK   11  A    between atoms: C19_26  and  C20_27 
REMARK   12  A    between atoms: C20_27  and  C21_28 
REMARK   13  A    between atoms: C21_28  and  N3_29 
REMARK   14  A    between atoms: C22_33  and  O3_34 
REMARK   15  A    between atoms: C23_36  and  O4_37 
REMARK   16  A    between atoms: C24_39  and  O5_40 
ROOT
HETATM    1  C4  UNL     1      -4.785  -0.207   0.217  1.00  0.00    -0.002 C 
HETATM    2  C5  UNL     1      -3.440  -0.582  -0.348  1.00  0.00     0.018 C 
HETATM    3  C6  UNL     1      -2.971   0.691  -0.983  1.00  0.00    -0.005 C 
HETATM    4  C7  UNL     1      -4.112   1.708  -0.817  1.00  0.00     0.022 C 
HETATM    5  C8  UNL     1      -4.648   1.209   0.542  1.00  0.00    -0.039 C 
HETATM    6  C9  UNL     1      -5.962   1.899   0.822  1.00  0.00     0.015 C 
HETATM    7  C10 UNL     1      -3.643   1.638   1.537  1.00  0.00     0.010 C 
HETATM    8  C11 UNL     1      -2.231   1.268   1.278  1.00  0.00     0.008 C 
HETATM    9  C12 UNL     1      -1.839   1.221  -0.175  1.00  0.00     0.022 C 
HETATM   10  C13 UNL     1      -0.548   0.498  -0.378  1.00  0.00     0.122 C 
HETATM   11  C22 UNL     1      -0.323  -0.174  -1.664  1.00  0.00     0.172 C 
HETATM   12  C23 UNL     1      -1.399  -0.222  -2.673  1.00  0.00     0.178 C 
HETATM   13  C24 UNL     1      -2.645   0.530  -2.430  1.00  0.00     0.158 C 
ENDROOT
BRANCH  10  14
HETATM   14  N1  UNL     1       0.596   1.368  -0.053  1.00  0.00    -0.349 N 
BRANCH  14  15
HETATM   15  C14 UNL     1       0.856   2.494  -0.852  1.00  0.00     0.351 C 
HETATM   16  O1  UNL     1       1.787   3.316  -0.678  1.00  0.00    -0.284 OA
ENDBRANCH  14  15
BRANCH  14  17
HETATM   17  C15 UNL     1       1.421   1.076   1.067  1.00  0.00     0.157 C 
BRANCH  17  18
HETATM   18  C16 UNL     1       2.582   0.185   0.879  1.00  0.00     0.137 C 
BRANCH  18  19
HETATM   19  O2  UNL     1       2.216  -1.080   0.428  1.00  0.00    -0.394 OA
ATOM     20  H2  UNL     1       2.964  -1.654   0.307  1.00  0.00     0.210 HD
ENDBRANCH  18  19
BRANCH  18  21
HETATM   21  C17 UNL     1       3.682   0.789   0.071  1.00  0.00     0.060 C 
BRANCH  21  22
HETATM   22  C18 UNL     1       4.860  -0.168  -0.083  1.00  0.00     0.235 C 
BRANCH  22  23
HETATM   23  N2  UNL     1       5.404  -0.530   1.207  1.00  0.00    -0.075 N 
ATOM     24  H22 UNL     1       5.678   0.293   1.744  1.00  0.00     0.277 HD
ATOM     25  H21 UNL     1       4.683  -0.890   1.832  1.00  0.00     0.277 HD
BRANCH  23  26
HETATM   26  C19 UNL     1       6.491  -1.456   1.064  1.00  0.00     0.233 C 
BRANCH  26  27
HETATM   27  C20 UNL     1       7.702  -0.819   0.425  1.00  0.00     0.055 C 
BRANCH  27  28
HETATM   28  C21 UNL     1       8.781  -1.892   0.332  1.00  0.00     0.231 C 
BRANCH  28  29
HETATM   29  N3  UNL     1       9.995  -1.353  -0.276  1.00  0.00    -0.079 N 
ATOM     30  H33 UNL     1       9.806  -0.927  -1.183  1.00  0.00     0.274 HD
ATOM     31  H32 UNL     1      10.328  -0.524   0.216  1.00  0.00     0.274 HD
ATOM     32  H31 UNL     1      10.717  -2.071  -0.338  1.00  0.00     0.274 HD
ENDBRANCH  28  29
ENDBRANCH  27  28
ENDBRANCH  26  27
ENDBRANCH  23  26
ENDBRANCH  22  23
ENDBRANCH  21  22
ENDBRANCH  18  21
ENDBRANCH  17  18
ENDBRANCH  14  17
ENDBRANCH  10  14
BRANCH  11  33
HETATM   33  O3  UNL     1       0.815   0.414  -2.279  1.00  0.00    -0.391 OA
ATOM     34  H3  UNL     1       0.961  -0.021  -3.111  1.00  0.00     0.210 HD
ENDBRANCH  11  33
BRANCH  12  35
HETATM   35  O4  UNL     1      -1.679  -1.593  -2.939  1.00  0.00    -0.390 OA
ATOM     36  H4  UNL     1      -2.372  -1.624  -3.588  1.00  0.00     0.210 HD
ENDBRANCH  12  35
BRANCH  13  37
HETATM   37  O5  UNL     1      -3.750  -0.114  -3.033  1.00  0.00    -0.392 OA
ATOM     38  H5  UNL     1      -3.542  -0.217  -3.954  1.00  0.00     0.210 HD
ENDBRANCH  13  37
BRANCH   1  39
HETATM   39  C2  UNL     1      -5.332  -1.140   1.209  1.00  0.00    -0.018 C 
HETATM   40  C1  UNL     1      -4.557  -1.378   2.445  1.00  0.00     0.010 C 
HETATM   41  C3  UNL     1      -5.569  -2.485   0.535  1.00  0.00     0.010 C 
ENDBRANCH   1  39
TORSDOF 16
