REMARK  14 active torsions:
REMARK  status: ('A' for Active; 'I' for Inactive)
REMARK    1  A    between atoms: N1_1  and  C1_4 
REMARK    2  A    between atoms: C4_10  and  N3_11 
REMARK    3  A    between atoms: N3_11  and  C5_12 
REMARK    4  A    between atoms: C5_12  and  C6_13 
REMARK    5  A    between atoms: C6_13  and  C7_14 
REMARK    6  A    between atoms: C7_14  and  N4_15 
REMARK    7  A    between atoms: N4_15  and  C8_18 
REMARK    8  A    between atoms: C8_18  and  C9_19 
REMARK    9  A    between atoms: C9_19  and  C10_20 
REMARK   10  A    between atoms: C10_20  and  N5_21 
REMARK       I    between atoms: N5_21  and  C11_23 
REMARK   11  A    between atoms: C11_23  and  C12_25 
REMARK   12  A    between atoms: C12_25  and  C13_26 
REMARK   13  A    between atoms: C13_26  and  C14_27 
REMARK       I    between atoms: C14_27  and  N6_29 
REMARK   14  A    between atoms: N6_29  and  C15_31 
ROOT
HETATM    1  C7  UNL     1      -2.373   0.955  -0.188  1.00  0.00     0.238 C 
ENDROOT
BRANCH   1   2
HETATM    2  C6  UNL     1      -3.795   0.605  -0.499  1.00  0.00     0.087 C 
BRANCH   2   3
HETATM    3  C5  UNL     1      -4.559   0.356   0.811  1.00  0.00     0.159 C 
BRANCH   3   4
HETATM    4  N3  UNL     1      -5.828  -0.019   0.780  1.00  0.00    -0.403 NA
BRANCH   4   5
HETATM    5  C4  UNL     1      -6.993  -0.349   0.747  1.00  0.00     0.198 A 
HETATM    6  C3  UNL     1      -8.052   0.429   0.376  1.00  0.00     0.135 A 
HETATM    7  C2  UNL     1      -7.943   1.757   0.042  1.00  0.00     0.278 A 
HETATM    8  C21 UNL     1      -9.355  -0.135   0.348  1.00  0.00     0.142 A 
HETATM    9  N2  UNL     1      -8.963   2.538  -0.301  1.00  0.00    -0.155 N 
HETATM   10  O1  UNL     1      -6.763   2.281   0.068  1.00  0.00    -0.266 OA
HETATM   11  C1  UNL     1     -10.202   1.986  -0.326  1.00  0.00     0.680 A 
ATOM     12  H2  UNL     1      -8.819   3.520  -0.537  1.00  0.00     0.187 HD
HETATM   13  N9  UNL     1     -10.362   0.675  -0.003  1.00  0.00    -0.176 N 
ATOM     14  H9  UNL     1     -11.304   0.286  -0.030  1.00  0.00     0.186 HD
HETATM   15  N8  UNL     1      -9.581  -1.416   0.676  1.00  0.00    -0.337 N 
HETATM   16  C20 UNL     1      -8.538  -2.162   1.039  1.00  0.00     0.184 A 
ATOM     17  H8  UNL     1     -10.523  -1.807   0.648  1.00  0.00     0.168 HD
HETATM   18  N7  UNL     1      -7.303  -1.672   1.079  1.00  0.00    -0.326 N 
ATOM     19  H7  UNL     1      -6.545  -2.291   1.366  1.00  0.00     0.169 HD
BRANCH  11  20
HETATM   20  N1  UNL     1     -11.188   2.690  -0.646  1.00  0.00    -0.234 N 
ATOM     21  H12 UNL     1     -11.068   3.674  -0.888  1.00  0.00     0.174 HD
ATOM     22  H11 UNL     1     -12.120   2.275  -0.665  1.00  0.00     0.174 HD
ENDBRANCH  11  20
ENDBRANCH   4   5
ENDBRANCH   3   4
ENDBRANCH   2   3
ENDBRANCH   1   2
BRANCH   1  23
HETATM   23  N4  UNL     1      -1.667  -0.177   0.399  1.00  0.00    -0.075 N 
ATOM     24  H42 UNL     1      -0.835   0.096   0.923  1.00  0.00     0.277 HD
ATOM     25  H41 UNL     1      -2.172  -0.608   1.174  1.00  0.00     0.277 HD
BRANCH  23  26
HETATM   26  C8  UNL     1      -1.387  -1.090  -0.671  1.00  0.00     0.234 C 
BRANCH  26  27
HETATM   27  C9  UNL     1      -0.656  -2.347  -0.346  1.00  0.00     0.047 C 
BRANCH  27  28
HETATM   28  C10 UNL     1       0.684  -2.139   0.345  1.00  0.00     0.124 C 
BRANCH  28  29
HETATM   29  N5  UNL     1       1.530  -1.241  -0.388  1.00  0.00    -0.361 N 
HETATM   30  C11 UNL     1       2.847  -0.875   0.010  1.00  0.00     0.217 C 
HETATM   31  O2  UNL     1       3.356  -1.372   1.015  1.00  0.00    -0.274 OA
ATOM     32  H5  UNL     1       1.164  -0.839  -1.251  1.00  0.00     0.162 HD
BRANCH  30  33
HETATM   33  C12 UNL     1       3.522   0.119  -0.818  1.00  0.00     0.112 C 
BRANCH  33  34
HETATM   34  C13 UNL     1       4.774   0.709  -0.409  1.00  0.00     0.112 C 
BRANCH  34  35
HETATM   35  C14 UNL     1       5.995  -0.112  -0.410  1.00  0.00     0.218 C 
HETATM   36  O3  UNL     1       5.934  -1.285  -0.811  1.00  0.00    -0.274 OA
HETATM   37  N6  UNL     1       7.155   0.563   0.051  1.00  0.00    -0.356 N 
ATOM     38  H6  UNL     1       7.042   1.519   0.389  1.00  0.00     0.162 HD
BRANCH  37  39
HETATM   39  C15 UNL     1       8.468   0.005   0.077  1.00  0.00     0.084 C 
HETATM   40  C16 UNL     1       8.887  -0.416   1.494  1.00  0.00     0.025 C 
HETATM   41  C17 UNL     1      10.388  -0.589   1.260  1.00  0.00     0.002 C 
HETATM   42  C18 UNL     1      10.767   0.578   0.368  1.00  0.00     0.002 C 
HETATM   43  C19 UNL     1       9.488   1.135  -0.163  1.00  0.00     0.025 C 
ENDBRANCH  37  39
ENDBRANCH  34  35
ENDBRANCH  33  34
ENDBRANCH  30  33
ENDBRANCH  28  29
ENDBRANCH  27  28
ENDBRANCH  26  27
ENDBRANCH  23  26
ENDBRANCH   1  23
TORSDOF 14
