REMARK  2 active torsions:
REMARK  status: ('A' for Active; 'I' for Inactive)
REMARK    1  A    between atoms: C2_3  and  C3_4 
REMARK    2  A    between atoms: C3_4  and  N2_5 
ROOT
HETATM    1  N1  UNL     1      -2.026   1.132   2.163  1.00  0.00    -0.197 NA
HETATM    2  C1  UNL     1      -1.939   0.770   1.070  1.00  0.00     0.060 C 
HETATM    3  C2  UNL     1      -1.824   0.331  -0.330  1.00  0.00     0.145 C 
ENDROOT
BRANCH   3   4
HETATM    4  C3  UNL     1      -0.890  -0.832  -0.377  1.00  0.00     0.162 C 
BRANCH   4   5
HETATM    5  N2  UNL     1       0.451  -0.473   0.128  1.00  0.00    -0.295 N 
HETATM    6  C4  UNL     1       1.400  -0.007  -0.664  1.00  0.00     0.138 A 
HETATM    7  C5  UNL     1       2.600   0.289  -0.071  1.00  0.00     0.086 A 
HETATM    8 BR1  UNL     1       4.191   0.983  -0.918  1.00  0.00    -0.040 Br
HETATM    9  S1  UNL     1       2.303  -0.110   1.556  1.00  0.00     0.011 SA
HETATM   10  N3  UNL     1       0.713  -0.617   1.395  1.00  0.00    -0.267 N 
ATOM     11  H3  UNL     1       0.090  -0.961   2.126  1.00  0.00     0.196 HD
ENDBRANCH   4   5
ENDBRANCH   3   4
TORSDOF 2
