REMARK  3 active torsions:
REMARK  status: ('A' for Active; 'I' for Inactive)
REMARK    1  A    between atoms: C6_7  and  O1_8 
REMARK    2  A    between atoms: O1_8  and  C7_9 
REMARK    3  A    between atoms: C7_9  and  C8_10 
ROOT
HETATM    1  C1  UNL     1      -0.490  -2.112   2.513  1.00  0.00     0.158 C 
HETATM    2  N1  UNL     1      -0.958  -1.111   1.613  1.00  0.00    -0.342 N 
HETATM    3  C2  UNL     1      -2.182  -0.592   1.801  1.00  0.00     0.092 A 
HETATM    4  C3  UNL     1      -2.726   0.373   0.997  1.00  0.00     0.017 A 
HETATM    5  C4  UNL     1      -1.992   0.846  -0.065  1.00  0.00     0.006 A 
HETATM    6  C5  UNL     1      -0.725   0.299  -0.247  1.00  0.00     0.056 A 
HETATM    7  C6  UNL     1      -0.212  -0.667   0.579  1.00  0.00     0.144 A 
ENDROOT
BRANCH   7   8
HETATM    8  O1  UNL     1       1.022  -1.177   0.375  1.00  0.00    -0.331 OA
BRANCH   8   9
HETATM    9  C7  UNL     1       1.979  -0.909  -0.579  1.00  0.00     0.222 C 
BRANCH   9  10
HETATM   10  C8  UNL     1       2.387   0.519  -0.484  1.00  0.00     0.095 C 
HETATM   11  N2  UNL     1       2.902   1.056  -1.527  1.00  0.00    -0.335 N 
HETATM   12 BR1  UNL     1       3.467   2.842  -1.569  1.00  0.00     0.046 Br
ATOM     13  H2  UNL     1       3.009   0.489  -2.368  1.00  0.00     0.172 HD
ENDBRANCH   9  10
ENDBRANCH   8   9
ENDBRANCH   7   8
TORSDOF 3
