REMARK  2 active torsions:
REMARK  status: ('A' for Active; 'I' for Inactive)
REMARK    1  A    between atoms: C3_3  and  O1_4 
REMARK    2  A    between atoms: O1_4  and  C4_5 
ROOT
HETATM    1  C1  UNL     1       2.878  -0.381  -1.456  1.00  0.00     0.099 C 
HETATM    2  C2  UNL     1       2.292  -0.766  -0.455  1.00  0.00    -0.162 C 
HETATM    3  C3  UNL     1       1.612  -1.233   0.740  1.00  0.00     0.247 C 
ENDROOT
BRANCH   3   4
HETATM    4  O1  UNL     1       0.232  -1.013   0.622  1.00  0.00    -0.369 OA
BRANCH   4   5
HETATM    5  C4  UNL     1       0.039   0.331   0.465  1.00  0.00     0.196 C 
HETATM    6  C5  UNL     1      -0.715   0.675  -0.824  1.00  0.00     0.188 C 
HETATM    7  C6  UNL     1      -1.848  -0.290  -1.064  1.00  0.00     0.045 C 
HETATM    8  O2  UNL     1      -1.247   1.927  -0.431  1.00  0.00    -0.232 OA
HETATM    9  O3  UNL     1      -1.784   1.682   0.725  1.00  0.00    -0.221 OA
HETATM   10  C7  UNL     1      -0.893   0.945   1.478  1.00  0.00     0.263 C 
HETATM   11 BR1  UNL     1      -1.869  -0.473   2.373  1.00  0.00    -0.055 Br
ENDBRANCH   4   5
ENDBRANCH   3   4
TORSDOF 2
