REMARK  3 active torsions:
REMARK  status: ('A' for Active; 'I' for Inactive)
REMARK    1  A    between atoms: O1_2  and  C2_3 
REMARK    2  A    between atoms: C6_9  and  C7_10 
REMARK    3  A    between atoms: C14_21  and  C15_22 
ROOT
HETATM    1  C15 UNL     1       3.319   0.138  -0.679  1.00  0.00     0.066 C 
HETATM    2  C16 UNL     1       3.527  -1.208  -1.269  1.00  0.00     0.036 C 
HETATM    3  C17 UNL     1       3.303   1.286  -1.680  1.00  0.00     0.036 C 
HETATM    4  C18 UNL     1       4.583   0.397   0.099  1.00  0.00     0.073 C 
HETATM    5  N3  UNL     1       5.578   0.621   0.694  1.00  0.00    -0.196 NA
ENDROOT
BRANCH   1   6
HETATM    6  C14 UNL     1       2.231   0.331   0.294  1.00  0.00    -0.043 C 
HETATM    7  C4  UNL     1       0.851   0.085  -0.012  1.00  0.00    -0.007 A 
HETATM    8  C3  UNL     1       0.273  -0.545  -1.063  1.00  0.00     0.052 A 
HETATM    9  C5  UNL     1      -0.046   0.605   0.947  1.00  0.00     0.022 A 
HETATM   10  C2  UNL     1      -1.061  -0.688  -1.217  1.00  0.00     0.092 A 
HETATM   11  C6  UNL     1      -1.901  -0.169  -0.271  1.00  0.00     0.049 A 
HETATM   12  N1  UNL     1      -1.377   0.464   0.783  1.00  0.00    -0.359 N 
ATOM     13  H1  UNL     1      -2.005   0.853   1.487  1.00  0.00     0.165 HD
HETATM   14  C11 UNL     1       0.476   1.233   2.182  1.00  0.00     0.095 C 
HETATM   15  C12 UNL     1       1.805   0.786   2.650  1.00  0.00     0.179 C 
HETATM   16  F1  UNL     1       1.700   0.175   3.905  1.00  0.00    -0.249 F 
HETATM   17  C13 UNL     1       2.492  -0.196   1.682  1.00  0.00     0.074 C 
BRANCH  10  18
HETATM   18  O1  UNL     1      -1.518  -1.355  -2.347  1.00  0.00    -0.354 OA
HETATM   19  C1  UNL     1      -0.685  -1.864  -3.341  1.00  0.00     0.210 C 
ENDBRANCH  10  18
BRANCH  11  20
HETATM   20  C7  UNL     1      -3.353  -0.436  -0.330  1.00  0.00     0.065 C 
HETATM   21  C8  UNL     1      -4.130   0.860  -0.280  1.00  0.00     0.040 C 
HETATM   22  C9  UNL     1      -4.632   1.130   1.089  1.00  0.00     0.233 C 
HETATM   23  N2  UNL     1      -4.852  -0.241   1.559  1.00  0.00    -0.074 N 
HETATM   24  C10 UNL     1      -3.733  -1.030   1.065  1.00  0.00     0.243 C 
ATOM     25  H22 UNL     1      -4.978  -0.307   2.569  1.00  0.00     0.277 HD
ATOM     26  H21 UNL     1      -5.761  -0.619   1.293  1.00  0.00     0.277 HD
ENDBRANCH  11  20
ENDBRANCH   1   6
TORSDOF 3
