REMARK  13 active torsions:
REMARK  status: ('A' for Active; 'I' for Inactive)
REMARK    1  A    between atoms: O1_1  and  C1_3 
REMARK    2  A    between atoms: C2_4  and  N1_5 
REMARK    3  A    between atoms: N1_5  and  C3_6 
REMARK    4  A    between atoms: N1_5  and  N3_16 
REMARK    5  A    between atoms: C3_6  and  C4_7 
REMARK    6  A    between atoms: C4_7  and  O2_8 
REMARK    7  A    between atoms: C4_7  and  N2_10 
REMARK    8  A    between atoms: N3_16  and  C9_18 
REMARK    9  A    between atoms: C9_18  and  O4_19 
REMARK   10  A    between atoms: C9_18  and  C10_21 
REMARK   11  A    between atoms: C12_23  and  C13_24 
REMARK   12  A    between atoms: N6_34  and  C17_35 
REMARK   13  A    between atoms: C17_35  and  C18_36 
ROOT
HETATM    1  N1  UNL     1       0.613  -0.586  -0.428  1.00  0.00    -0.271 N 
ENDROOT
BRANCH   1   2
HETATM    2  C2  UNL     1      -0.489   0.133   0.048  1.00  0.00     0.175 A 
HETATM    3  C1  UNL     1      -1.525   0.608  -0.779  1.00  0.00     0.190 A 
HETATM    4  N6  UNL     1      -2.472   1.215  -0.089  1.00  0.00    -0.320 N 
HETATM    5  C16 UNL     1      -2.070   1.146   1.196  1.00  0.00     0.186 A 
HETATM    6  N5  UNL     1      -0.893   0.504   1.275  1.00  0.00    -0.334 N 
ATOM      7  H5  UNL     1      -0.381   0.324   2.139  1.00  0.00     0.168 HD
BRANCH   3   8
HETATM    8  O1  UNL     1      -1.523   0.442  -2.156  1.00  0.00    -0.343 OA
ATOM      9  H1  UNL     1      -2.222   0.762  -2.714  1.00  0.00     0.219 HD
ENDBRANCH   3   8
BRANCH   4  10
HETATM   10  C17 UNL     1      -3.652   1.808  -0.653  1.00  0.00     0.136 C 
BRANCH  10  11
HETATM   11  C18 UNL     1      -4.827   0.860  -0.769  1.00  0.00     0.004 C 
HETATM   12  C19 UNL     1      -5.195   0.355   0.590  1.00  0.00     0.006 C 
HETATM   13  C20 UNL     1      -6.665   0.052   0.742  1.00  0.00     0.000 C 
HETATM   14  C21 UNL     1      -7.375   1.383   0.481  1.00  0.00     0.000 C 
HETATM   15  C22 UNL     1      -7.242   1.636  -0.981  1.00  0.00     0.000 C 
HETATM   16  C23 UNL     1      -5.917   1.411  -1.586  1.00  0.00     0.006 C 
ENDBRANCH  10  11
ENDBRANCH   4  10
ENDBRANCH   1   2
BRANCH   1  17
HETATM   17  C3  UNL     1       0.305  -1.999  -0.708  1.00  0.00     0.214 C 
BRANCH  17  18
HETATM   18  C4  UNL     1       1.428  -2.803  -1.214  1.00  0.00     0.376 C 
BRANCH  18  19
HETATM   19  O2  UNL     1       1.975  -2.362  -2.410  1.00  0.00    -0.366 OA
ATOM     20  H2  UNL     1       2.700  -2.881  -2.737  1.00  0.00     0.212 HD
ENDBRANCH  18  19
BRANCH  18  21
HETATM   21  N2  UNL     1       2.487  -3.092  -0.281  1.00  0.00     0.122 N 
HETATM   22  C5  UNL     1       2.045  -3.890   0.837  1.00  0.00     0.302 C 
HETATM   23  C6  UNL     1       1.916  -5.359   0.452  1.00  0.00     0.198 C 
HETATM   24  O3  UNL     1       3.165  -5.862   0.194  1.00  0.00    -0.388 OA
HETATM   25  C7  UNL     1       4.124  -4.928  -0.144  1.00  0.00     0.198 C 
HETATM   26  C8  UNL     1       3.503  -3.846  -0.991  1.00  0.00     0.302 C 
ENDBRANCH  18  21
ENDBRANCH  17  18
ENDBRANCH   1  17
BRANCH   1  27
HETATM   27  N3  UNL     1       1.820  -0.084  -0.666  1.00  0.00    -0.298 N 
ATOM     28  H3  UNL     1       2.052   0.108  -1.641  1.00  0.00     0.183 HD
BRANCH  27  29
HETATM   29  C9  UNL     1       2.804   0.208   0.281  1.00  0.00     0.285 C 
BRANCH  29  30
HETATM   30  O4  UNL     1       4.051   0.075  -0.465  1.00  0.00    -0.370 OA
ATOM     31  H4  UNL     1       4.720   0.274   0.179  1.00  0.00     0.212 HD
ENDBRANCH  29  30
BRANCH  29  32
HETATM   32  C10 UNL     1       2.891   1.610   0.757  1.00  0.00     0.084 A 
HETATM   33  C11 UNL     1       4.094   2.304   0.952  1.00  0.00     0.067 A 
HETATM   34  C12 UNL     1       3.826   3.587   1.401  1.00  0.00     0.085 A 
HETATM   35  O5  UNL     1       2.523   3.646   1.469  1.00  0.00    -0.242 OA
HETATM   36  N4  UNL     1       1.985   2.524   1.103  1.00  0.00    -0.261 N 
ATOM     37  H4  UNL     1       0.979   2.359   1.082  1.00  0.00     0.194 HD
BRANCH  34  38
HETATM   38  C13 UNL     1       4.806   4.653   1.730  1.00  0.00     0.082 A 
HETATM   39  C14 UNL     1       6.230   4.227   2.133  1.00  0.00     0.052 A 
HETATM   40  C15 UNL     1       5.975   4.872   0.820  1.00  0.00     0.181 A 
HETATM   41  F1  UNL     1       6.471   6.128   0.622  1.00  0.00    -0.249 F 
ENDBRANCH  34  38
ENDBRANCH  29  32
ENDBRANCH  27  29
ENDBRANCH   1  27
TORSDOF 13
