REMARK  11 active torsions:
REMARK  status: ('A' for Active; 'I' for Inactive)
REMARK    1  A    between atoms: S1_2  and  C2_3 
REMARK    2  A    between atoms: C2_3  and  C3_4 
REMARK    3  A    between atoms: C3_4  and  C4_6 
REMARK    4  A    between atoms: C6_11  and  C7_12 
REMARK    5  A    between atoms: N3_13  and  C8_15 
REMARK    6  A    between atoms: C8_15  and  C9_16 
REMARK    7  A    between atoms: C8_15  and  C15_28 
REMARK    8  A    between atoms: C9_16  and  C10_17 
REMARK    9  A    between atoms: C10_17  and  C11_18 
REMARK   10  A    between atoms: C14_25  and  O2_26 
REMARK   11  A    between atoms: C16_31  and  O5_32 
ROOT
HETATM    1  C7  UNL     1       0.586  -1.366   0.528  1.00  0.00     0.118 C 
HETATM    2  N3  UNL     1       0.082  -0.821   1.543  1.00  0.00    -0.383 N 
ATOM      3  H3  UNL     1       0.711  -0.184   2.033  1.00  0.00     0.159 HD
ENDROOT
BRANCH   2   4
HETATM    4  C8  UNL     1      -1.201  -0.934   2.126  1.00  0.00     0.183 C 
BRANCH   4   5
HETATM    5  C9  UNL     1      -2.240  -0.065   1.474  1.00  0.00     0.042 C 
BRANCH   5   6
HETATM    6  C10 UNL     1      -2.419  -0.400   0.024  1.00  0.00     0.064 C 
BRANCH   6   7
HETATM    7  C11 UNL     1      -3.481   0.511  -0.532  1.00  0.00     0.063 A 
HETATM    8  N4  UNL     1      -3.303   1.589  -1.315  1.00  0.00    -0.333 N 
HETATM    9  C12 UNL     1      -4.496   2.119  -1.588  1.00  0.00     0.180 A 
ATOM     10  H4  UNL     1      -2.405   1.943  -1.645  1.00  0.00     0.168 HD
HETATM   11  S2  UNL     1      -4.822   3.434  -2.495  1.00  0.00    -0.040 SA
HETATM   12  N5  UNL     1      -5.448   1.381  -0.979  1.00  0.00    -0.307 N 
HETATM   13  C13 UNL     1      -6.885   1.633  -1.032  1.00  0.00     0.161 C 
HETATM   14  C14 UNL     1      -4.831   0.394  -0.331  1.00  0.00     0.167 A 
BRANCH  14  15
HETATM   15  O2  UNL     1      -5.404  -0.617   0.440  1.00  0.00    -0.344 OA
ATOM     16  H2  UNL     1      -6.340  -0.698   0.579  1.00  0.00     0.219 HD
ENDBRANCH  14  15
ENDBRANCH   6   7
ENDBRANCH   5   6
ENDBRANCH   4   5
BRANCH   4  17
HETATM   17  C15 UNL     1      -1.658  -2.336   2.227  1.00  0.00     0.196 C 
HETATM   18  O3  UNL     1      -2.803  -2.610   2.690  1.00  0.00    -0.646 OA
HETATM   19  O4  UNL     1      -0.863  -3.394   1.825  1.00  0.00    -0.646 OA
ENDBRANCH   4  17
ENDBRANCH   2   4
BRANCH   1  20
HETATM   20  C6  UNL     1       1.943  -1.122   0.078  1.00  0.00     0.101 A 
HETATM   21  N2  UNL     1       2.564  -1.671  -1.008  1.00  0.00    -0.292 N 
HETATM   22  N1  UNL     1       3.793  -1.199  -1.089  1.00  0.00    -0.292 N 
HETATM   23  C5  UNL     1       1.883  -2.618  -1.873  1.00  0.00     0.178 C 
HETATM   24  C4  UNL     1       4.041  -0.338  -0.089  1.00  0.00     0.130 A 
ATOM     25  H1  UNL     1       4.464  -1.454  -1.813  1.00  0.00     0.187 HD
HETATM   26  C16 UNL     1       2.853  -0.288   0.661  1.00  0.00     0.127 A 
BRANCH  24  27
HETATM   27  C3  UNL     1       5.259   0.407   0.198  1.00  0.00     0.189 C 
HETATM   28  O1  UNL     1       5.305   1.174   1.190  1.00  0.00    -0.290 OA
BRANCH  27  29
HETATM   29  C2  UNL     1       6.468   0.297  -0.646  1.00  0.00     0.159 C 
BRANCH  29  30
HETATM   30  S1  UNL     1       6.464   1.517  -1.987  1.00  0.00    -0.166 SA
HETATM   31  C1  UNL     1       6.592   3.198  -1.325  1.00  0.00     0.090 C 
ENDBRANCH  29  30
ENDBRANCH  27  29
ENDBRANCH  24  27
BRANCH  26  32
HETATM   32  O5  UNL     1       2.732   0.503   1.780  1.00  0.00    -0.356 OA
ATOM     33  H5  UNL     1       1.929   0.537   2.287  1.00  0.00     0.218 HD
ENDBRANCH  26  32
ENDBRANCH   1  20
TORSDOF 11
