REMARK  2 active torsions:
REMARK  status: ('A' for Active; 'I' for Inactive)
REMARK       I    between atoms: C1_2  and  N2_4 
REMARK    1  A    between atoms: N3_7  and  C4_8 
REMARK       I    between atoms: N4_10  and  C6_11 
REMARK    2  A    between atoms: C6_11  and  C7_13 
ROOT
HETATM    1  C4  UNL     1      -0.211  -0.934  -0.465  1.00  0.00     0.269 C 
HETATM    2  C5  UNL     1      -0.713  -1.702   0.732  1.00  0.00     0.165 C 
HETATM    3  N4  UNL     1      -1.702  -0.616   0.883  1.00  0.00    -0.338 N 
HETATM    4  C6  UNL     1      -2.504  -0.238   1.977  1.00  0.00     0.230 C 
HETATM    5  O2  UNL     1      -3.281   0.734   1.862  1.00  0.00    -0.273 OA
HETATM    6  C8  UNL     1      -1.484  -0.156  -0.505  1.00  0.00     0.068 C 
HETATM    7  C9  UNL     1      -2.493  -0.837  -1.401  1.00  0.00     0.033 C 
HETATM    8  C10 UNL     1      -2.860   0.010  -2.595  1.00  0.00     0.002 C 
HETATM    9  C11 UNL     1      -3.526   1.243  -2.037  1.00  0.00     0.000 C 
HETATM   10  C12 UNL     1      -2.583   2.018  -1.202  1.00  0.00     0.002 C 
HETATM   11  C13 UNL     1      -1.410   1.296  -0.635  1.00  0.00     0.033 C 
ENDROOT
BRANCH   1  12
HETATM   12  N3  UNL     1       1.045  -0.309  -0.374  1.00  0.00     0.100 N 
HETATM   13  C3  UNL     1       2.076  -1.367  -0.219  1.00  0.00     0.293 C 
HETATM   14  C2  UNL     1       3.435  -0.826  -0.538  1.00  0.00     0.157 C 
HETATM   15  N2  UNL     1       3.665   0.256   0.430  1.00  0.00    -0.333 N 
HETATM   16  C1  UNL     1       4.873   0.999   0.417  1.00  0.00     0.330 C 
HETATM   17  C15 UNL     1       2.601   0.498   1.377  1.00  0.00     0.157 C 
HETATM   18  N1  UNL     1       5.857   0.681  -0.535  1.00  0.00    -0.040 NA
HETATM   19  O1  UNL     1       5.012   1.912   1.262  1.00  0.00    -0.251 OA
HETATM   20  C14 UNL     1       1.254   0.618   0.695  1.00  0.00     0.293 C 
ENDBRANCH   1  12
BRANCH   4  21
HETATM   21  C7  UNL     1      -2.437  -0.972   3.247  1.00  0.00     0.188 C 
HETATM   22 BR1  UNL     1      -3.676  -0.186   4.515  1.00  0.00    -0.087 Br
ENDBRANCH   4  21
TORSDOF 2
