REMARK  8 active torsions:
REMARK  status: ('A' for Active; 'I' for Inactive)
REMARK    1  A    between atoms: C2_3  and  C3_4 
REMARK    2  A    between atoms: C3_4  and  C4_5 
REMARK    3  A    between atoms: C4_5  and  C5_6 
REMARK    4  A    between atoms: C5_6  and  N2_7 
REMARK    5  A    between atoms: C6_8  and  O1_9 
REMARK    6  A    between atoms: O1_9  and  C7_10 
REMARK    7  A    between atoms: C18_23  and  N4_24 
REMARK    8  A    between atoms: C19_27  and  N5_28 
ROOT
HETATM    1  N1  UNL     1       3.787   5.586   0.460  1.00  0.00    -0.197 NA
HETATM    2  C1  UNL     1       3.657   4.438   0.342  1.00  0.00     0.059 C 
HETATM    3  C2  UNL     1       3.473   2.986   0.174  1.00  0.00     0.124 C 
ENDROOT
BRANCH   3   4
HETATM    4  C3  UNL     1       2.217   2.794  -0.631  1.00  0.00     0.016 C 
BRANCH   4   5
HETATM    5  C4  UNL     1       1.892   1.340  -0.893  1.00  0.00     0.021 C 
BRANCH   5   6
HETATM    6  C5  UNL     1       1.705   0.636   0.419  1.00  0.00     0.133 C 
BRANCH   6   7
HETATM    7  N2  UNL     1       1.395  -0.750   0.304  1.00  0.00    -0.311 N 
HETATM    8  C6  UNL     1       0.139  -1.190   0.185  1.00  0.00     0.159 A 
HETATM    9  C13 UNL     1      -0.127  -2.586   0.096  1.00  0.00     0.044 A 
HETATM   10  C14 UNL     1      -1.451  -3.025  -0.027  1.00  0.00     0.019 A 
HETATM   11  C17 UNL     1       0.886  -3.476   0.131  1.00  0.00     0.084 A 
HETATM   12  C15 UNL     1      -1.670  -4.378  -0.110  1.00  0.00     0.018 A 
HETATM   13  C16 UNL     1      -0.600  -5.222  -0.069  1.00  0.00     0.088 A 
HETATM   14  N3  UNL     1       0.672  -4.816   0.049  1.00  0.00    -0.363 N 
ATOM     15  H3  UNL     1       1.444  -5.482   0.076  1.00  0.00     0.165 HD
HETATM   16  C18 UNL     1       2.190  -3.002   0.254  1.00  0.00     0.174 A 
HETATM   17  C19 UNL     1       2.398  -1.652   0.337  1.00  0.00     0.139 A 
BRANCH   8  18
HETATM   18  O1  UNL     1      -0.926  -0.415   0.137  1.00  0.00    -0.329 OA
BRANCH  18  19
HETATM   19  C7  UNL     1      -1.604   0.705   0.137  1.00  0.00     0.130 C 
HETATM   20  C8  UNL     1      -2.728   0.735   1.174  1.00  0.00     0.032 C 
HETATM   21  C9  UNL     1      -3.402   2.087   1.148  1.00  0.00     0.002 C 
HETATM   22  C10 UNL     1      -4.182   2.144  -0.173  1.00  0.00     0.000 C 
HETATM   23  C11 UNL     1      -3.130   2.113  -1.261  1.00  0.00     0.002 C 
HETATM   24  C12 UNL     1      -2.357   0.816  -1.224  1.00  0.00     0.032 C 
ENDBRANCH  18  19
ENDBRANCH   8  18
BRANCH  16  25
HETATM   25  N4  UNL     1       3.258  -3.950   0.289  1.00  0.00    -0.109 N 
HETATM   26  O2  UNL     1       3.576  -4.532  -0.765  1.00  0.00    -0.532 OA
HETATM   27  O3  UNL     1       3.931  -4.216   1.475  1.00  0.00    -0.532 OA
ENDBRANCH  16  25
BRANCH  17  28
HETATM   28  N5  UNL     1       3.639  -1.248   0.452  1.00  0.00    -0.383 N 
ATOM     29  H52 UNL     1       3.794  -0.242   0.514  1.00  0.00     0.157 HD
ATOM     30  H51 UNL     1       4.397  -1.930   0.477  1.00  0.00     0.157 HD
ENDBRANCH  17  28
ENDBRANCH   6   7
ENDBRANCH   5   6
ENDBRANCH   4   5
ENDBRANCH   3   4
TORSDOF 8
