REMARK  2 active torsions:
REMARK  status: ('A' for Active; 'I' for Inactive)
REMARK    1  A    between atoms: N2_4  and  N3_6 
REMARK    2  A    between atoms: N3_6  and  C1_8 
ROOT
HETATM    1  C1  UNL     1       0.494   0.528   0.057  1.00  0.00     0.052 A 
HETATM    2  C2  UNL     1      -0.600   1.363  -0.004  1.00  0.00     0.048 A 
HETATM    3  C3  UNL     1      -1.889   0.873  -0.107  1.00  0.00     0.090 A 
HETATM    4  N4  UNL     1      -2.049  -0.464  -0.148  1.00  0.00    -0.375 N 
ATOM      5  H4  UNL     1      -2.995  -0.837  -0.225  1.00  0.00     0.164 HD
HETATM    6  C4  UNL     1      -1.026  -1.328  -0.093  1.00  0.00     0.090 A 
HETATM    7  C5  UNL     1       0.263  -0.830   0.011  1.00  0.00     0.048 A 
ENDROOT
BRANCH   1   8
HETATM    8  N3  UNL     1       1.702   0.970   0.153  1.00  0.00    -0.287 N 
ATOM      9  H3  UNL     1       1.868   1.976   0.186  1.00  0.00     0.188 HD
BRANCH   8  10
HETATM   10  N2  UNL     1       2.784   0.094   0.212  1.00  0.00    -0.249 N 
HETATM   11  N1  UNL     1       3.711   0.100  -0.647  1.00  0.00    -0.331 N 
ATOM     12  H12 UNL     1       3.650   0.778  -1.406  1.00  0.00     0.178 HD
ATOM     13  H11 UNL     1       4.503  -0.541  -0.604  1.00  0.00     0.178 HD
ATOM     14  H2  UNL     1       2.830  -0.578   0.978  1.00  0.00     0.207 HD
ENDBRANCH   8  10
ENDBRANCH   1   8
TORSDOF 2
