REMARK  9 active torsions:
REMARK  status: ('A' for Active; 'I' for Inactive)
REMARK    1  A    between atoms: C2_2  and  N1_3 
REMARK    2  A    between atoms: N1_3  and  C4_5 
REMARK    3  A    between atoms: C4_5  and  C5_6 
REMARK    4  A    between atoms: C7_8  and  C8_9 
REMARK    5  A    between atoms: C10_13  and  C11_14 
REMARK    6  A    between atoms: C11_14  and  C12_15 
REMARK    7  A    between atoms: C12_15  and  O3_16 
REMARK    8  A    between atoms: C12_15  and  C13_18 
REMARK    9  A    between atoms: C23_31  and  O7_32 
ROOT
HETATM    1  C8  UNL     1      -0.962  -1.744  -1.439  1.00  0.00     0.331 C 
HETATM    2  O1  UNL     1      -0.686  -3.123  -0.994  1.00  0.00    -0.203 OA
HETATM    3  O2  UNL     1      -1.051  -3.143   0.292  1.00  0.00    -0.236 OA
HETATM    4  C9  UNL     1      -0.037  -2.477   1.010  1.00  0.00     0.242 C 
HETATM    5  C10 UNL     1       0.792  -1.805  -0.075  1.00  0.00     0.154 C 
HETATM    6  O6  UNL     1      -0.112  -0.939  -0.742  1.00  0.00    -0.347 OA
ENDROOT
BRANCH   5   7
HETATM    7  C11 UNL     1       1.948  -1.014   0.443  1.00  0.00     0.071 C 
BRANCH   7   8
HETATM    8  C12 UNL     1       2.693  -0.480  -0.794  1.00  0.00     0.153 C 
BRANCH   8   9
HETATM    9  O3  UNL     1       3.025  -1.661  -1.538  1.00  0.00    -0.391 OA
ATOM     10  H3  UNL     1       3.485  -1.331  -2.301  1.00  0.00     0.210 HD
ENDBRANCH   8   9
BRANCH   8  11
HETATM   11  C13 UNL     1       3.998   0.091  -0.345  1.00  0.00    -0.027 A 
HETATM   12  C14 UNL     1       4.799  -0.726   0.406  1.00  0.00     0.012 A 
HETATM   13  C15 UNL     1       6.053  -0.333   0.842  1.00  0.00     0.040 A 
HETATM   14  C16 UNL     1       6.481   0.930   0.490  1.00  0.00     0.102 A 
HETATM   15  C17 UNL     1       5.680   1.747  -0.262  1.00  0.00     0.102 A 
HETATM   16  O5  UNL     1       7.724   1.389   0.896  1.00  0.00    -0.346 OA
HETATM   17  C18 UNL     1       4.412   1.341  -0.697  1.00  0.00     0.049 A 
HETATM   18  O4  UNL     1       6.136   3.002  -0.597  1.00  0.00    -0.346 OA
HETATM   19  C19 UNL     1       7.392   3.519  -0.241  1.00  0.00     0.202 C 
HETATM   20  C20 UNL     1       8.341   2.528   0.338  1.00  0.00     0.202 C 
ENDBRANCH   8  11
ENDBRANCH   7   8
ENDBRANCH   5   7
BRANCH   1  21
HETATM   21  C7  UNL     1      -2.406  -1.547  -1.166  1.00  0.00    -0.000 A 
HETATM   22  C6  UNL     1      -3.001  -0.500  -0.518  1.00  0.00     0.023 A 
HETATM   23  C5  UNL     1      -4.359  -0.510  -0.210  1.00  0.00    -0.007 A 
HETATM   24  C23 UNL     1      -5.141  -1.622  -0.582  1.00  0.00     0.073 A 
HETATM   25  C22 UNL     1      -4.545  -2.657  -1.231  1.00  0.00     0.038 A 
HETATM   26  C21 UNL     1      -3.208  -2.643  -1.528  1.00  0.00     0.015 A 
BRANCH  23  27
HETATM   27  C4  UNL     1      -4.989   0.404   0.739  1.00  0.00     0.163 C 
BRANCH  27  28
HETATM   28  N1  UNL     1      -5.669   1.569   0.272  1.00  0.00    -0.391 N 
HETATM   29  C3  UNL     1      -5.255   2.691  -0.455  1.00  0.00     0.149 C 
BRANCH  28  30
HETATM   30  C2  UNL     1      -7.107   1.490   0.644  1.00  0.00     0.075 C 
HETATM   31  C1  UNL     1      -7.430   1.912   1.824  1.00  0.00     0.029 C 
ENDBRANCH  28  30
ENDBRANCH  27  28
ENDBRANCH  23  27
BRANCH  24  32
HETATM   32  O7  UNL     1      -6.516  -1.592  -0.259  1.00  0.00    -0.360 OA
ATOM     33  H7  UNL     1      -7.043  -2.342  -0.510  1.00  0.00     0.217 HD
ENDBRANCH  24  32
ENDBRANCH   1  21
TORSDOF 9
