REMARK  12 active torsions:
REMARK  status: ('A' for Active; 'I' for Inactive)
REMARK    1  A    between atoms: C2_2  and  O1_3 
REMARK    2  A    between atoms: O1_3  and  C3_4 
REMARK    3  A    between atoms: C3_4  and  C4_6 
REMARK    4  A    between atoms: C4_6  and  C5_7 
REMARK    5  A    between atoms: C5_7  and  C6_8 
REMARK    6  A    between atoms: C6_8  and  O4_10 
REMARK    7  A    between atoms: O4_10  and  C7_11 
REMARK    8  A    between atoms: C7_11  and  C8_12 
REMARK    9  A    between atoms: C10_14  and  C11_15 
REMARK   10  A    between atoms: C11_15  and  O5_17 
REMARK   11  A    between atoms: C22_29  and  O7_30 
REMARK   12  A    between atoms: O7_30  and  C23_31 
REMARK       I    between atoms: C23_31  and  N1_33 
ROOT
HETATM    1  C8  UNL     1       2.103   1.064  -0.242  1.00  0.00    -0.004 C 
HETATM    2  C9  UNL     1       2.411   2.573  -0.057  1.00  0.00     0.019 C 
HETATM    3  C10 UNL     1       1.647   0.564   1.051  1.00  0.00     0.095 C 
HETATM    4  C13 UNL     1       0.296   1.287   1.140  1.00  0.00     0.144 C 
HETATM    5  O6  UNL     1      -0.107   1.852   2.125  1.00  0.00    -0.297 OA
HETATM    6  C14 UNL     1      -0.347   1.137  -0.180  1.00  0.00     0.034 C 
HETATM    7  C15 UNL     1      -1.070   2.440  -0.580  1.00  0.00     0.019 C 
HETATM    8  C16 UNL     1      -2.101   2.245  -1.644  1.00  0.00     0.007 C 
HETATM    9  C17 UNL     1      -2.736   0.939  -1.827  1.00  0.00     0.004 C 
HETATM   10  C18 UNL     1      -3.972   0.527  -1.194  1.00  0.00    -0.030 C 
HETATM   11  C19 UNL     1      -4.297  -0.815  -1.792  1.00  0.00     0.016 C 
HETATM   12  C20 UNL     1      -5.268   1.236  -1.314  1.00  0.00     0.013 C 
HETATM   13  C21 UNL     1      -6.060   0.298  -0.374  1.00  0.00     0.034 C 
HETATM   14  C22 UNL     1      -5.058  -0.209   0.679  1.00  0.00     0.142 C 
HETATM   15  C25 UNL     1      -3.886   0.646   0.295  1.00  0.00    -0.009 C 
HETATM   16  C26 UNL     1      -4.391   1.988   0.829  1.00  0.00     0.018 C 
HETATM   17  C27 UNL     1      -2.557   0.404   0.780  1.00  0.00     0.024 C 
HETATM   18  C28 UNL     1      -1.401   0.139  -0.145  1.00  0.00    -0.016 A 
HETATM   19  C29 UNL     1      -1.517  -1.192  -0.691  1.00  0.00     0.022 A 
HETATM   20  C30 UNL     1      -1.717  -0.117  -1.569  1.00  0.00    -0.026 A 
HETATM   21  C31 UNL     1      -0.648  -0.048  -2.599  1.00  0.00     0.011 C 
HETATM   22  C32 UNL     1       0.755  -0.150  -2.023  1.00  0.00     0.007 C 
HETATM   23  C33 UNL     1       0.824   0.997  -1.082  1.00  0.00     0.013 C 
ENDROOT
BRANCH   1  24
HETATM   24  C7  UNL     1       3.270   0.524  -0.936  1.00  0.00     0.189 C 
BRANCH  24  25
HETATM   25  O4  UNL     1       3.321  -0.828  -1.242  1.00  0.00    -0.321 OA
BRANCH  25  26
HETATM   26  C6  UNL     1       4.440  -1.309  -1.903  1.00  0.00     0.259 C 
HETATM   27  O3  UNL     1       5.353  -0.509  -2.196  1.00  0.00    -0.265 OA
BRANCH  26  28
HETATM   28  C5  UNL     1       4.584  -2.729  -2.270  1.00  0.00     0.121 C 
BRANCH  28  29
HETATM   29  C4  UNL     1       5.930  -2.934  -2.913  1.00  0.00     0.121 C 
BRANCH  29  30
HETATM   30  C3  UNL     1       7.047  -2.608  -1.999  1.00  0.00     0.259 C 
HETATM   31  O2  UNL     1       8.230  -2.613  -2.475  1.00  0.00    -0.265 OA
BRANCH  30  32
HETATM   32  O1  UNL     1       6.943  -2.296  -0.668  1.00  0.00    -0.322 OA
BRANCH  32  33
HETATM   33  C2  UNL     1       8.052  -1.993   0.159  1.00  0.00     0.174 C 
HETATM   34  C1  UNL     1       7.569  -1.699   1.563  1.00  0.00     0.034 C 
ENDBRANCH  32  33
ENDBRANCH  30  32
ENDBRANCH  29  30
ENDBRANCH  28  29
ENDBRANCH  26  28
ENDBRANCH  25  26
ENDBRANCH  24  25
ENDBRANCH   1  24
BRANCH   3  35
HETATM   35  C11 UNL     1       2.487   0.947   2.206  1.00  0.00     0.126 C 
HETATM   36  C12 UNL     1       3.889   0.442   2.127  1.00  0.00     0.040 C 
BRANCH  35  37
HETATM   37  O5  UNL     1       1.965   0.526   3.434  1.00  0.00    -0.395 OA
ATOM     38  H5  UNL     1       2.505   0.772   4.176  1.00  0.00     0.210 HD
ENDBRANCH  35  37
ENDBRANCH   3  35
BRANCH  14  39
HETATM   39  O7  UNL     1      -5.635   0.176   1.919  1.00  0.00    -0.298 OA
BRANCH  39  40
HETATM   40  C23 UNL     1      -5.884  -0.789   2.874  1.00  0.00     0.360 C 
HETATM   41  O8  UNL     1      -5.596  -1.988   2.630  1.00  0.00    -0.239 OA
HETATM   42  N1  UNL     1      -6.459  -0.494   4.144  1.00  0.00    -0.341 N 
HETATM   43  C24 UNL     1      -6.712  -1.508   5.123  1.00  0.00     0.151 C 
ATOM     44  H1  UNL     1      -6.699   0.473   4.363  1.00  0.00     0.164 HD
ENDBRANCH  39  40
ENDBRANCH  14  39
TORSDOF 12
