REMARK  12 active torsions:
REMARK  status: ('A' for Active; 'I' for Inactive)
REMARK    1  A    between atoms: C4_4  and  C5_5 
REMARK    2  A    between atoms: C9_10  and  O2_11 
REMARK    3  A    between atoms: C10_13  and  O3_14 
REMARK    4  A    between atoms: C10_13  and  C11_16 
REMARK    5  A    between atoms: C11_16  and  C12_17 
REMARK    6  A    between atoms: C12_17  and  C13_18 
REMARK    7  A    between atoms: C17_22  and  C18_23 
REMARK    8  A    between atoms: C19_24  and  C20_25 
REMARK    9  A    between atoms: C22_28  and  O5_29 
REMARK   10  A    between atoms: C29_36  and  O6_38 
REMARK   11  A    between atoms: C32_40  and  O7_41 
REMARK   12  A    between atoms: C32_40  and  O8_43 
ROOT
HETATM    1  C13 UNL     1      -0.055  -0.519   0.293  1.00  0.00     0.064 C 
HETATM    2  C14 UNL     1       0.938  -0.405   1.425  1.00  0.00    -0.008 C 
HETATM    3  C15 UNL     1       0.794  -1.406   2.505  1.00  0.00     0.021 C 
HETATM    4  C16 UNL     1       2.271  -0.617   0.738  1.00  0.00    -0.061 C 
HETATM    5  C17 UNL     1       3.114   0.346   0.470  1.00  0.00    -0.055 C 
HETATM    6  C24 UNL     1       2.871   1.797   0.778  1.00  0.00     0.039 C 
HETATM    7  C25 UNL     1       1.423   2.021   1.095  1.00  0.00     0.010 C 
HETATM    8  C26 UNL     1       0.933   0.953   2.022  1.00  0.00    -0.005 C 
HETATM    9  C27 UNL     1       1.919   0.942   3.207  1.00  0.00     0.011 C 
HETATM   10  C28 UNL     1       2.471  -2.038   0.394  1.00  0.00     0.078 C 
HETATM   11  C29 UNL     1       1.313  -2.504  -0.477  1.00  0.00     0.116 C 
HETATM   12  C30 UNL     1       1.823  -2.032  -1.916  1.00  0.00     0.052 C 
HETATM   13  C32 UNL     1      -0.003  -1.932  -0.346  1.00  0.00     0.197 C 
ENDROOT
BRANCH   1  14
HETATM   14  C12 UNL     1      -1.426  -0.154   0.688  1.00  0.00     0.014 C 
BRANCH  14  15
HETATM   15  C11 UNL     1      -2.491  -0.165  -0.363  1.00  0.00     0.046 C 
BRANCH  15  16
HETATM   16  C10 UNL     1      -3.807   0.230   0.266  1.00  0.00     0.107 C 
HETATM   17  C3  UNL     1      -4.924   0.216  -0.768  1.00  0.00    -0.036 C 
HETATM   18  C2  UNL     1      -4.694   0.084  -2.030  1.00  0.00    -0.024 C 
HETATM   19  C4  UNL     1      -6.252   0.388  -0.138  1.00  0.00     0.082 C 
HETATM   20  C1  UNL     1      -5.632   0.067  -3.171  1.00  0.00     0.036 C 
HETATM   21  C6  UNL     1      -6.310   1.771   0.507  1.00  0.00    -0.001 C 
HETATM   22  C7  UNL     1      -7.553   1.771   1.382  1.00  0.00     0.011 C 
HETATM   23  C8  UNL     1      -5.132   2.038   1.368  1.00  0.00     0.040 C 
HETATM   24  C9  UNL     1      -3.807   1.581   0.882  1.00  0.00     0.157 C 
BRANCH  19  25
HETATM   25  C5  UNL     1      -7.427   0.137  -0.941  1.00  0.00     0.240 C 
HETATM   26  O1  UNL     1      -7.976  -0.981  -0.871  1.00  0.00    -0.306 OA
ENDBRANCH  19  25
BRANCH  24  27
HETATM   27  O2  UNL     1      -3.257   2.541   0.038  1.00  0.00    -0.392 OA
ATOM     28  H2  UNL     1      -2.408   2.248  -0.273  1.00  0.00     0.210 HD
ENDBRANCH  24  27
BRANCH  16  29
HETATM   29  O3  UNL     1      -4.142  -0.738   1.202  1.00  0.00    -0.383 OA
ATOM     30  H3  UNL     1      -3.445  -0.729   1.847  1.00  0.00     0.211 HD
ENDBRANCH  16  29
ENDBRANCH  15  16
ENDBRANCH  14  15
ENDBRANCH   1  14
BRANCH  13  31
HETATM   31  O7  UNL     1      -0.465  -1.563  -1.688  1.00  0.00    -0.363 OA
ATOM     32  H7  UNL     1      -0.433  -2.428  -2.079  1.00  0.00     0.213 HD
ENDBRANCH  13  31
BRANCH  13  33
HETATM   33  O8  UNL     1      -1.025  -2.687   0.116  1.00  0.00    -0.357 OA
HETATM   34  C33 UNL     1      -1.494  -3.781  -0.499  1.00  0.00     0.205 C 
ENDBRANCH  13  33
BRANCH  11  35
HETATM   35  O6  UNL     1       1.376  -3.874  -0.623  1.00  0.00    -0.379 OA
HETATM   36  C31 UNL     1       1.623  -4.615   0.505  1.00  0.00     0.202 C 
ENDBRANCH  11  35
BRANCH   5  37
HETATM   37  C18 UNL     1       4.382   0.049  -0.193  1.00  0.00     0.006 C 
HETATM   38  C19 UNL     1       5.266   0.987  -0.477  1.00  0.00     0.008 C 
BRANCH  38  39
HETATM   39  C20 UNL     1       6.556   0.667  -1.156  1.00  0.00     0.175 C 
HETATM   40  O4  UNL     1       6.314   0.268  -2.486  1.00  0.00    -0.377 OA
HETATM   41  C21 UNL     1       7.475   0.941  -2.835  1.00  0.00     0.203 C 
HETATM   42  C22 UNL     1       7.312   1.863  -1.645  1.00  0.00     0.177 C 
BRANCH  42  43
HETATM   43  O5  UNL     1       8.518   2.113  -0.988  1.00  0.00    -0.386 OA
HETATM   44  C23 UNL     1       8.652   3.473  -0.834  1.00  0.00     0.202 C 
ENDBRANCH  42  43
ENDBRANCH  38  39
ENDBRANCH   5  37
TORSDOF 12
