REMARK  1 active torsions:
REMARK  status: ('A' for Active; 'I' for Inactive)
REMARK    1  A    between atoms: C6_12  and  N3_13 
ROOT
HETATM    1  C1  UNL     1       4.175   0.215   1.292  1.00  0.00     0.070 C 
HETATM    2  C2  UNL     1       3.533  -0.252   0.030  1.00  0.00     0.036 A 
HETATM    3  N1  UNL     1       4.321  -0.784  -0.925  1.00  0.00    -0.347 N 
ATOM      4  H1  UNL     1       5.326  -0.855  -0.768  1.00  0.00     0.167 HD
HETATM    5  C3  UNL     1       3.795  -1.222  -2.084  1.00  0.00     0.128 A 
HETATM    6 CL1  UNL     1       4.852  -1.908  -3.303  1.00  0.00    -0.062 Cl
HETATM    7  C4  UNL     1       2.436  -1.119  -2.282  1.00  0.00     0.102 A 
HETATM    8 CL2  UNL     1       1.715  -1.687  -3.797  1.00  0.00    -0.078 Cl
HETATM    9  C5  UNL     1       1.607  -0.581  -1.326  1.00  0.00     0.103 A 
HETATM   10  N2  UNL     1       0.265  -0.368  -1.268  1.00  0.00    -0.188 N 
ATOM     11  H2  UNL     1      -0.413  -0.594  -1.995  1.00  0.00     0.184 HD
HETATM   12  C6  UNL     1      -0.005   0.195  -0.077  1.00  0.00     0.684 A 
HETATM   13  N4  UNL     1       1.152   0.331   0.595  1.00  0.00    -0.187 N 
ATOM     14  H4  UNL     1       1.245   0.731   1.529  1.00  0.00     0.184 HD
HETATM   15  C12 UNL     1       2.173  -0.142  -0.152  1.00  0.00     0.100 A 
ENDROOT
BRANCH  12  16
HETATM   16  N3  UNL     1      -1.312   0.562   0.339  1.00  0.00    -0.175 N 
HETATM   17  C7  UNL     1      -2.241  -0.267   1.050  1.00  0.00     0.120 C 
HETATM   18  C8  UNL     1      -2.517  -1.575   0.348  1.00  0.00     0.034 C 
HETATM   19  C9  UNL     1      -3.456   0.565   1.272  1.00  0.00     0.110 C 
HETATM   20 CL3  UNL     1      -4.965  -0.245   0.826  1.00  0.00    -0.123 Cl
HETATM   21  C10 UNL     1      -3.315   1.814   0.444  1.00  0.00     0.088 C 
HETATM   22  C11 UNL     1      -1.873   1.879   0.075  1.00  0.00     0.205 C 
HETATM   23 CL4  UNL     1      -0.968   3.076   1.048  1.00  0.00    -0.077 Cl
HETATM   24 CL5  UNL     1      -1.645   2.186  -1.670  1.00  0.00    -0.077 Cl
ENDBRANCH  12  16
TORSDOF 1
