REMARK  2 active torsions:
REMARK  status: ('A' for Active; 'I' for Inactive)
REMARK    1  A    between atoms: N1_2  and  C1_4 
REMARK    2  A    between atoms: C2_7  and  N3_8 
ROOT
HETATM    1  C1  UNL     1       2.908  -0.409  -0.046  1.00  0.00     0.200 A 
HETATM    2  N2  UNL     1       1.686  -0.629   0.377  1.00  0.00    -0.316 N 
ATOM      3  H2  UNL     1       1.504  -1.384   1.038  1.00  0.00     0.169 HD
HETATM    4  C2  UNL     1       0.692   0.124  -0.051  1.00  0.00     0.149 A 
HETATM    5  S1  UNL     1       1.492   1.203  -1.100  1.00  0.00    -0.042 SA
HETATM    6  C7  UNL     1       3.084   0.624  -0.935  1.00  0.00     0.105 A 
HETATM    7 BR1  UNL     1       4.717   1.228  -1.751  1.00  0.00    -0.039 Br
ENDROOT
BRANCH   4   8
HETATM    8  N3  UNL     1      -0.677   0.032   0.290  1.00  0.00    -0.361 N 
HETATM    9  C3  UNL     1      -1.513   0.968   1.006  1.00  0.00     0.125 C 
HETATM   10  C4  UNL     1      -2.621   1.151  -0.056  1.00  0.00     0.021 C 
HETATM   11  C5  UNL     1      -2.850  -0.294  -0.493  1.00  0.00     0.021 C 
HETATM   12  C6  UNL     1      -1.603  -1.061  -0.021  1.00  0.00     0.125 C 
ENDBRANCH   4   8
BRANCH   1  13
HETATM   13  N1  UNL     1       4.027  -1.228   0.362  1.00  0.00    -0.096 N 
HETATM   14  O1  UNL     1       4.997  -1.423  -0.369  1.00  0.00    -0.530 OA
HETATM   15  O2  UNL     1       4.016  -1.805   1.605  1.00  0.00    -0.530 OA
ENDBRANCH   1  13
TORSDOF 2
