REMARK  2 active torsions:
REMARK  status: ('A' for Active; 'I' for Inactive)
REMARK    1  A    between atoms: N1_6  and  C4_7 
REMARK    2  A    between atoms: C4_7  and  N2_8 
ROOT
HETATM    1  C4  UNL     1       0.756  -0.798  -0.904  1.00  0.00     0.163 C 
ENDROOT
BRANCH   1   2
HETATM    2  N1  UNL     1       2.096  -0.592  -0.393  1.00  0.00    -0.271 N 
HETATM    3  C3  UNL     1       2.802  -1.364   0.447  1.00  0.00     0.228 A 
HETATM    4  O1  UNL     1       3.986  -0.812   0.676  1.00  0.00    -0.285 OA
HETATM    5  S1  UNL     1       2.314  -2.790   1.117  1.00  0.00    -0.032 SA
HETATM    6  C2  UNL     1       4.097   0.302   0.017  1.00  0.00     0.091 A 
HETATM    7  C1  UNL     1       5.271   1.245  -0.009  1.00  0.00     0.080 C 
HETATM    8  C11 UNL     1       2.917   0.469  -0.669  1.00  0.00     0.142 A 
HETATM    9 CL1  UNL     1       2.479   1.798  -1.735  1.00  0.00    -0.061 Cl
ENDBRANCH   1   2
BRANCH   1  10
HETATM   10  N2  UNL     1      -0.286  -0.199  -0.159  1.00  0.00    -0.274 NA
HETATM   11  C5  UNL     1      -0.459  -0.591   1.191  1.00  0.00     0.122 C 
HETATM   12  C6  UNL     1      -1.584   0.171   1.852  1.00  0.00     0.183 C 
HETATM   13  O2  UNL     1      -2.121   1.055   0.944  1.00  0.00    -0.379 OA
HETATM   14  C7  UNL     1      -2.648   0.390  -0.172  1.00  0.00     0.066 C 
HETATM   15  C8  UNL     1      -3.331   1.327  -1.111  1.00  0.00     0.047 C 
HETATM   16  C9  UNL     1      -3.635  -0.629   0.326  1.00  0.00     0.047 C 
HETATM   17  C10 UNL     1      -1.535  -0.335  -0.915  1.00  0.00     0.133 C 
ENDBRANCH   1  10
TORSDOF 2
