REMARK  5 active torsions:
REMARK  status: ('A' for Active; 'I' for Inactive)
REMARK    1  A    between atoms: C1_2  and  C2_4 
REMARK    2  A    between atoms: C2_4  and  N2_5 
REMARK       I    between atoms: N2_5  and  C3_7 
REMARK    3  A    between atoms: C3_7  and  C4_9 
REMARK    4  A    between atoms: C4_9  and  N3_11 
REMARK    5  A    between atoms: C4_9  and  C9_17 
ROOT
HETATM    1  N2  UNL     1       1.180   0.538   0.712  1.00  0.00    -0.317 N 
ATOM      2  H2  UNL     1       1.116   0.894   1.666  1.00  0.00     0.166 HD
HETATM    3  C3  UNL     1      -0.006   0.285   0.027  1.00  0.00     0.291 C 
HETATM    4  O2  UNL     1       0.125  -0.174  -1.171  1.00  0.00    -0.267 OA
ENDROOT
BRANCH   3   5
HETATM    5  C4  UNL     1      -1.396   0.491   0.541  1.00  0.00     0.356 C 
HETATM    6  F1  UNL     1      -1.391  -0.255   1.745  1.00  0.00    -0.198 F 
BRANCH   5   7
HETATM    7  N3  UNL     1      -2.369  -0.112  -0.265  1.00  0.00    -0.339 N 
HETATM    8  C5  UNL     1      -2.335  -1.526  -0.383  1.00  0.00     0.152 C 
HETATM    9  C6  UNL     1      -3.711  -2.025  -0.770  1.00  0.00     0.188 C 
HETATM   10  O3  UNL     1      -4.733  -1.237  -0.310  1.00  0.00    -0.385 OA
HETATM   11  C7  UNL     1      -4.736   0.042  -0.850  1.00  0.00     0.212 C 
HETATM   12  C8  UNL     1      -3.313   0.575  -1.008  1.00  0.00     0.088 C 
ENDBRANCH   5   7
BRANCH   5  13
HETATM   13  C9  UNL     1      -1.646   1.889   0.969  1.00  0.00     0.453 C 
HETATM   14  F2  UNL     1      -0.786   2.241   1.990  1.00  0.00    -0.165 F 
HETATM   15  F3  UNL     1      -2.913   2.043   1.486  1.00  0.00    -0.165 F 
HETATM   16  F4  UNL     1      -1.438   2.838  -0.009  1.00  0.00    -0.165 F 
ENDBRANCH   5  13
ENDBRANCH   3   5
BRANCH   1  17
HETATM   17  C2  UNL     1       2.489   0.327   0.155  1.00  0.00     0.216 C 
HETATM   18  C10 UNL     1       3.595   0.614   1.133  1.00  0.00     0.073 C 
HETATM   19  C11 UNL     1       3.972  -0.757   1.629  1.00  0.00     0.032 C 
HETATM   20  C12 UNL     1       3.335  -1.686   0.655  1.00  0.00     0.171 C 
HETATM   21  O4  UNL     1       2.678  -0.968  -0.303  1.00  0.00    -0.353 OA
BRANCH  17  22
HETATM   22  C1  UNL     1       2.673   1.217  -1.009  1.00  0.00     0.287 C 
HETATM   23  N1  UNL     1       3.913   1.117  -1.719  1.00  0.00    -0.058 NA
HETATM   24  O1  UNL     1       1.856   2.044  -1.429  1.00  0.00    -0.271 OA
ENDBRANCH  17  22
ENDBRANCH   1  17
TORSDOF 5
