REMARK  6 active torsions:
REMARK  status: ('A' for Active; 'I' for Inactive)
REMARK    1  A    between atoms: C2_2  and  C9_20 
REMARK    2  A    between atoms: N1_3  and  N2_5 
REMARK       I    between atoms: N2_5  and  C3_7 
REMARK    3  A    between atoms: C3_7  and  C4_9 
REMARK    4  A    between atoms: C4_9  and  N3_11 
REMARK    5  A    between atoms: C4_9  and  C8_16 
REMARK       I    between atoms: C9_20  and  N4_22 
REMARK    6  A    between atoms: N4_22  and  N5_24 
ROOT
HETATM    1  N2  UNL     1      -0.261   1.028   0.896  1.00  0.00    -0.265 N 
ATOM      2  H2  UNL     1      -0.506   1.816   1.496  1.00  0.00     0.190 HD
HETATM    3  C3  UNL     1      -1.264   0.229   0.298  1.00  0.00     0.318 C 
HETATM    4  O1  UNL     1      -0.945  -0.749  -0.449  1.00  0.00    -0.265 OA
ENDROOT
BRANCH   1   5
HETATM    5  N1  UNL     1       1.064   0.709   0.642  1.00  0.00    -0.297 N 
HETATM    6  C2  UNL     1       1.653   0.853  -0.486  1.00  0.00     0.090 C 
HETATM    7  C1  UNL     1       0.935   1.402  -1.673  1.00  0.00     0.076 C 
ATOM      8  H1  UNL     1       1.613   0.330   1.414  1.00  0.00     0.187 HD
BRANCH   6   9
HETATM    9  C9  UNL     1       3.040   0.470  -0.614  1.00  0.00     0.279 C 
HETATM   10  O3  UNL     1       3.617   0.611  -1.713  1.00  0.00    -0.265 OA
HETATM   11  N4  UNL     1       3.730  -0.058   0.496  1.00  0.00    -0.285 N 
ATOM     12  H4  UNL     1       3.260  -0.173   1.394  1.00  0.00     0.184 HD
BRANCH  11  13
HETATM   13  N5  UNL     1       5.069  -0.421   0.343  1.00  0.00    -0.237 NA
HETATM   14  C10 UNL     1       5.800   0.731  -0.128  1.00  0.00     0.135 C 
HETATM   15  C11 UNL     1       5.265  -1.602  -0.450  1.00  0.00     0.135 C 
ENDBRANCH  11  13
ENDBRANCH   6   9
ENDBRANCH   1   5
BRANCH   3  16
HETATM   16  C4  UNL     1      -2.721   0.461   0.489  1.00  0.00     0.478 C 
HETATM   17  F1  UNL     1      -3.001   0.586   1.823  1.00  0.00    -0.190 F 
BRANCH  16  18
HETATM   18  N3  UNL     1      -3.496  -0.582  -0.161  1.00  0.00     0.173 N 
HETATM   19  C5  UNL     1      -4.912  -0.464  -0.000  1.00  0.00     0.307 C 
HETATM   20  C6  UNL     1      -5.317  -1.950  -0.056  1.00  0.00     0.200 C 
HETATM   21  O2  UNL     1      -4.338  -2.507   0.760  1.00  0.00    -0.361 OA
HETATM   22  C7  UNL     1      -3.174  -1.902   0.347  1.00  0.00     0.446 C 
ENDBRANCH  16  18
BRANCH  16  23
HETATM   23  C8  UNL     1      -3.061   1.765  -0.196  1.00  0.00     0.464 C 
HETATM   24  F2  UNL     1      -4.412   2.088  -0.077  1.00  0.00    -0.165 F 
HETATM   25  F3  UNL     1      -2.820   1.687  -1.559  1.00  0.00    -0.165 F 
HETATM   26  F4  UNL     1      -2.370   2.801   0.390  1.00  0.00    -0.165 F 
ENDBRANCH  16  23
ENDBRANCH   3  16
TORSDOF 6
