REMARK  9 active torsions:
REMARK  status: ('A' for Active; 'I' for Inactive)
REMARK    1  A    between atoms: O1_2  and  C2_3 
REMARK    2  A    between atoms: C2_3  and  O2_4 
REMARK    3  A    between atoms: O2_4  and  C3_5 
REMARK    4  A    between atoms: C3_5  and  C4_6 
REMARK    5  A    between atoms: C18_22  and  O5_23 
REMARK    6  A    between atoms: C19_25  and  O6_26 
REMARK    7  A    between atoms: O6_26  and  C20_27 
REMARK    8  A    between atoms: C24_32  and  O8_33 
REMARK    9  A    between atoms: O8_33  and  C25_34 
ROOT
HETATM    1  C4  UNL     1       0.417   0.430  -0.480  1.00  0.00     0.013 A 
HETATM    2  C5  UNL     1       0.169   0.276  -1.996  1.00  0.00     0.014 A 
HETATM    3  C6  UNL     1       1.015  -0.588  -2.523  1.00  0.00    -0.006 C 
HETATM    4  C7  UNL     1       0.911  -0.810  -3.987  1.00  0.00     0.011 C 
HETATM    5  C8  UNL     1       1.815  -1.484  -1.701  1.00  0.00     0.022 C 
HETATM    6  C9  UNL     1       0.603  -2.122  -0.875  1.00  0.00     0.028 C 
HETATM    7  C10 UNL     1       0.739  -0.878  -0.062  1.00  0.00     0.059 C 
HETATM    8  C11 UNL     1       0.293  -1.079   1.345  1.00  0.00     0.140 C 
HETATM    9  O3  UNL     1       1.151  -1.096   2.203  1.00  0.00    -0.297 OA
HETATM   10  C12 UNL     1      -1.084  -1.259   1.793  1.00  0.00     0.091 C 
HETATM   11  C13 UNL     1      -2.043  -0.145   1.584  1.00  0.00     0.004 C 
HETATM   12  C14 UNL     1      -1.543   1.110   2.216  1.00  0.00     0.019 C 
HETATM   13  C15 UNL     1      -3.244  -0.574   2.472  1.00  0.00     0.020 C 
HETATM   14  C16 UNL     1      -4.487  -0.148   1.779  1.00  0.00     0.083 C 
HETATM   15  C17 UNL     1      -3.959   0.647   0.680  1.00  0.00     0.164 C 
HETATM   16  O4  UNL     1      -4.440   1.624   0.188  1.00  0.00    -0.295 OA
HETATM   17  C18 UNL     1      -2.664   0.013   0.255  1.00  0.00     0.152 C 
HETATM   18  C19 UNL     1      -2.082   0.705  -0.866  1.00  0.00     0.184 C 
HETATM   19  C22 UNL     1      -0.659   1.129  -0.982  1.00  0.00     0.002 A 
HETATM   20  C23 UNL     1      -0.505   2.559  -1.471  1.00  0.00     0.019 C 
HETATM   21  C24 UNL     1       2.237  -1.147  -0.322  1.00  0.00     0.153 C 
ENDROOT
BRANCH   1  22
HETATM   22  C3  UNL     1       1.645   1.388  -0.185  1.00  0.00     0.182 C 
BRANCH  22  23
HETATM   23  O2  UNL     1       1.869   1.451   1.162  1.00  0.00    -0.366 OA
BRANCH  23  24
HETATM   24  C2  UNL     1       2.937   2.304   1.386  1.00  0.00     0.337 C 
BRANCH  24  25
HETATM   25  O1  UNL     1       3.253   2.442   2.722  1.00  0.00    -0.372 OA
HETATM   26  C1  UNL     1       4.335   3.317   2.817  1.00  0.00     0.204 C 
ENDBRANCH  24  25
ENDBRANCH  23  24
ENDBRANCH  22  23
ENDBRANCH   1  22
BRANCH  21  27
HETATM   27  O8  UNL     1       2.571  -2.328   0.420  1.00  0.00    -0.315 OA
BRANCH  27  28
HETATM   28  C25 UNL     1       3.760  -2.394   1.171  1.00  0.00     0.255 C 
HETATM   29  C26 UNL     1       4.077  -3.624   1.926  1.00  0.00     0.126 C 
HETATM   30  O9  UNL     1       4.480  -1.374   1.140  1.00  0.00    -0.266 OA
ENDBRANCH  27  28
ENDBRANCH  21  27
BRANCH  18  31
HETATM   31  O6  UNL     1      -2.332  -0.098  -2.043  1.00  0.00    -0.312 OA
BRANCH  31  32
HETATM   32  C20 UNL     1      -3.118   0.250  -3.095  1.00  0.00     0.255 C 
HETATM   33  C21 UNL     1      -3.338  -0.633  -4.288  1.00  0.00     0.126 C 
HETATM   34  O7  UNL     1      -3.692   1.370  -3.072  1.00  0.00    -0.266 OA
ENDBRANCH  31  32
ENDBRANCH  18  31
BRANCH  17  35
HETATM   35  O5  UNL     1      -3.126  -1.285  -0.116  1.00  0.00    -0.379 OA
ATOM     36  H5  UNL     1      -3.526  -1.183  -0.972  1.00  0.00     0.211 HD
ENDBRANCH  17  35
TORSDOF 9
