REMARK  1 active torsions:
REMARK  status: ('A' for Active; 'I' for Inactive)
REMARK    1  A    between atoms: C5_12  and  C6_13 
ROOT
HETATM    1  N1  UNL     1      -2.682  -1.698   0.088  1.00  0.00    -0.233 N 
ATOM      2  H11 UNL     1      -2.049  -2.493   0.168  1.00  0.00     0.174 HD
ATOM      3  H12 UNL     1      -3.691  -1.832   0.026  1.00  0.00     0.174 HD
HETATM    4  C1  UNL     1      -2.150  -0.525   0.069  1.00  0.00     0.699 A 
HETATM    5  N2  UNL     1      -2.986   0.525  -0.037  1.00  0.00    -0.186 N 
ATOM      6  H2  UNL     1      -3.991   0.360  -0.097  1.00  0.00     0.185 HD
HETATM    7  C2  UNL     1      -2.522   1.789  -0.066  1.00  0.00     0.199 A 
HETATM    8  N3  UNL     1      -1.185   1.986   0.016  1.00  0.00    -0.336 N 
ATOM      9  H3  UNL     1      -0.805   2.932  -0.002  1.00  0.00     0.168 HD
HETATM   10  C3  UNL     1      -0.356   0.924   0.122  1.00  0.00     0.148 A 
HETATM   11  C4  UNL     1       1.035   0.800   0.222  1.00  0.00     0.087 A 
HETATM   12  C5  UNL     1       1.351  -0.541   0.307  1.00  0.00     0.117 A 
HETATM   13  N5  UNL     1       0.189  -1.194   0.259  1.00  0.00    -0.273 N 
ATOM     14  H5  UNL     1       0.087  -2.208   0.300  1.00  0.00     0.188 HD
HETATM   15  N6  UNL     1      -0.802  -0.346   0.152  1.00  0.00    -0.069 N 
ENDROOT
BRANCH  12  16
HETATM   16  C6  UNL     1       2.670  -1.130   0.424  1.00  0.00     0.282 C 
HETATM   17  N4  UNL     1       3.823  -0.276   0.462  1.00  0.00    -0.056 NA
HETATM   18  O1  UNL     1       2.776  -2.380   0.491  1.00  0.00    -0.269 OA
ENDBRANCH  12  16
TORSDOF 1
