REMARK  4 active torsions:
REMARK  status: ('A' for Active; 'I' for Inactive)
REMARK    1  A    between atoms: C2_2  and  C3_3 
REMARK    2  A    between atoms: C3_3  and  N1_4 
REMARK    3  A    between atoms: N1_4  and  C4_6 
REMARK    4  A    between atoms: C7_9  and  N2_10 
ROOT
HETATM    1  C4  UNL     1      -0.659  -0.493   0.234  1.00  0.00     0.107 C 
HETATM    2  C5  UNL     1      -1.191   0.746   0.860  1.00  0.00     0.029 C 
HETATM    3  C6  UNL     1      -2.179   0.901  -0.281  1.00  0.00     0.037 C 
HETATM    4  C7  UNL     1      -1.803  -0.459  -0.800  1.00  0.00     0.205 C 
ENDROOT
BRANCH   1   5
HETATM    5  N1  UNL     1       0.572  -0.459  -0.463  1.00  0.00    -0.412 N 
ATOM      6  H1  UNL     1       0.635  -0.695  -1.453  1.00  0.00     0.153 HD
BRANCH   5   7
HETATM    7  C3  UNL     1       1.715  -0.079   0.290  1.00  0.00     0.141 C 
BRANCH   7   8
HETATM    8  C2  UNL     1       2.985  -0.180  -0.517  1.00  0.00    -0.018 C 
HETATM    9  C1  UNL     1       3.730   0.887  -0.739  1.00  0.00     0.008 C 
ENDBRANCH   7   8
ENDBRANCH   5   7
ENDBRANCH   1   5
BRANCH   4  10
HETATM   10  N2  UNL     1      -2.785  -1.496  -0.612  1.00  0.00    -0.073 N 
ATOM     11  H23 UNL     1      -2.341  -2.414  -0.597  1.00  0.00     0.274 HD
ATOM     12  H22 UNL     1      -3.157  -1.471   0.337  1.00  0.00     0.274 HD
ATOM     13  H21 UNL     1      -3.542  -1.474  -1.296  1.00  0.00     0.274 HD
ENDBRANCH   4  10
TORSDOF 4
