REMARK  3 active torsions:
REMARK  status: ('A' for Active; 'I' for Inactive)
REMARK    1  A    between atoms: C5_7  and  C6_8 
REMARK    2  A    between atoms: C6_8  and  C7_9 
REMARK    3  A    between atoms: C7_9  and  C8_10 
ROOT
HETATM    1  C8  UNL     1      -1.379   0.109  -0.591  1.00  0.00     0.009 C 
HETATM    2  C9  UNL     1      -0.536  -0.907   0.145  1.00  0.00     0.007 C 
HETATM    3  C10 UNL     1      -0.657  -2.289  -0.406  1.00  0.00     0.002 C 
HETATM    4  C11 UNL     1       0.118  -2.557  -1.638  1.00  0.00     0.020 C 
HETATM    5  C12 UNL     1       1.521  -2.060  -1.651  1.00  0.00     0.122 C 
HETATM    6  N2  UNL     1       2.421  -2.921  -0.911  1.00  0.00    -0.361 N 
ATOM      7  H2  UNL     1       2.041  -3.747  -0.449  1.00  0.00     0.162 HD
HETATM    8  C13 UNL     1       3.791  -2.663  -0.806  1.00  0.00     0.219 C 
HETATM    9  O1  UNL     1       4.596  -3.643  -0.694  1.00  0.00    -0.274 OA
HETATM   10  C14 UNL     1       4.392  -1.305  -0.815  1.00  0.00     0.122 C 
HETATM   11  C15 UNL     1       5.662  -1.330  -0.041  1.00  0.00     0.132 C 
HETATM   12  N3  UNL     1       6.616  -0.322  -0.457  1.00  0.00    -0.361 N 
ATOM     13  H3  UNL     1       7.354  -0.609  -1.100  1.00  0.00     0.162 HD
HETATM   14  C16 UNL     1       6.603   1.017  -0.044  1.00  0.00     0.217 C 
HETATM   15  O2  UNL     1       7.288   1.843  -0.723  1.00  0.00    -0.274 OA
HETATM   16  C17 UNL     1       5.851   1.546   1.123  1.00  0.00     0.103 C 
HETATM   17  C18 UNL     1       5.556   3.012   0.944  1.00  0.00     0.013 C 
HETATM   18  C19 UNL     1       4.083   3.291   0.745  1.00  0.00     0.027 C 
HETATM   19  C20 UNL     1       3.557   2.501  -0.396  1.00  0.00    -0.029 C 
HETATM   20  C21 UNL     1       2.287   2.166  -0.582  1.00  0.00    -0.005 C 
HETATM   21  C22 UNL     1       1.163   2.524   0.323  1.00  0.00     0.194 C 
HETATM   22  O3  UNL     1       0.280   1.453   0.363  1.00  0.00    -0.387 OA
HETATM   23  C23 UNL     1      -0.529   1.365  -0.742  1.00  0.00     0.172 C 
ENDROOT
BRANCH   1  24
HETATM   24  C7  UNL     1      -2.609   0.508   0.185  1.00  0.00     0.011 C 
BRANCH  24  25
HETATM   25  C6  UNL     1      -3.514  -0.668   0.475  1.00  0.00     0.054 C 
BRANCH  25  26
HETATM   26  C5  UNL     1      -4.704  -0.131   1.255  1.00  0.00     0.216 C 
HETATM   27  N1  UNL     1      -5.359   0.839   0.450  1.00  0.00    -0.397 N 
HETATM   28  C4  UNL     1      -6.683   1.175   0.824  1.00  0.00     0.119 C 
ATOM     29  H1  UNL     1      -4.901   1.270  -0.353  1.00  0.00     0.155 HD
HETATM   30  C3  UNL     1      -7.507   0.047   1.357  1.00  0.00     0.051 C 
HETATM   31  C2  UNL     1      -6.743  -1.231   1.188  1.00  0.00     0.121 C 
HETATM   32  C1  UNL     1      -6.779  -1.753  -0.237  1.00  0.00     0.040 C 
HETATM   33  O4  UNL     1      -5.461  -1.186   1.666  1.00  0.00    -0.362 OA
ENDBRANCH  25  26
ENDBRANCH  24  25
ENDBRANCH   1  24
TORSDOF 3
