REMARK  5 active torsions:
REMARK  status: ('A' for Active; 'I' for Inactive)
REMARK    1  A    between atoms: C2_2  and  C4_4 
REMARK    2  A    between atoms: C7_7  and  O1_8 
REMARK    3  A    between atoms: C8_10  and  O2_11 
REMARK    4  A    between atoms: C14_18  and  N1_19 
REMARK    5  A    between atoms: C24_30  and  O4_32 
ROOT
HETATM    1  C4  UNL     1       3.551   0.376  -0.043  1.00  0.00     0.045 C 
HETATM    2  C5  UNL     1       2.028   0.538  -0.074  1.00  0.00     0.027 C 
HETATM    3  C6  UNL     1       1.304  -0.727  -0.023  1.00  0.00     0.027 C 
HETATM    4  C7  UNL     1       2.542  -1.597  -0.171  1.00  0.00     0.159 C 
HETATM    5  C8  UNL     1       3.677  -0.879   0.616  1.00  0.00     0.155 C 
HETATM    6  C9  UNL     1       0.305  -0.995  -1.172  1.00  0.00     0.018 C 
HETATM    7  C10 UNL     1      -0.600   0.064  -1.642  1.00  0.00    -0.036 C 
HETATM    8  C11 UNL     1      -0.231   0.231  -3.156  1.00  0.00     0.016 C 
HETATM    9  C12 UNL     1      -0.581   1.461  -1.145  1.00  0.00     0.012 C 
HETATM   10  C13 UNL     1      -1.927   2.162  -0.919  1.00  0.00     0.040 C 
HETATM   11  C14 UNL     1      -2.867   1.343  -0.113  1.00  0.00     0.256 C 
HETATM   12  C17 UNL     1      -2.610  -0.163  -0.351  1.00  0.00     0.089 C 
HETATM   13  C18 UNL     1      -4.022  -0.733  -0.205  1.00  0.00     0.048 C 
HETATM   14  C19 UNL     1      -2.080  -0.184  -1.758  1.00  0.00     0.049 C 
HETATM   15  O3  UNL     1      -1.703  -0.592   0.518  1.00  0.00    -0.369 OA
HETATM   16  C20 UNL     1      -0.900  -1.611   0.541  1.00  0.00     0.165 C 
HETATM   17  C21 UNL     1      -0.411  -2.288  -0.690  1.00  0.00    -0.013 C 
HETATM   18  C22 UNL     1      -1.324  -2.859  -1.698  1.00  0.00     0.018 C 
HETATM   19  C23 UNL     1       0.447  -3.474  -0.476  1.00  0.00     0.018 C 
HETATM   20  C24 UNL     1       0.454  -1.098   1.124  1.00  0.00     0.091 C 
HETATM   21  C25 UNL     1       0.207  -0.134   2.236  1.00  0.00     0.049 C 
ENDROOT
BRANCH   4  22
HETATM   22  O1  UNL     1       3.042  -1.477  -1.493  1.00  0.00    -0.392 OA
ATOM     23  H1  UNL     1       3.816  -2.021  -1.585  1.00  0.00     0.210 HD
ENDBRANCH   4  22
BRANCH  20  24
HETATM   24  O4  UNL     1       1.024  -2.115   1.949  1.00  0.00    -0.387 OA
ATOM     25  H4  UNL     1       0.477  -2.354   2.688  1.00  0.00     0.210 HD
ENDBRANCH  20  24
BRANCH   1  26
HETATM   26  C2  UNL     1       4.229   1.579   0.460  1.00  0.00    -0.086 C 
HETATM   27  C1  UNL     1       5.012   1.673   1.519  1.00  0.00     0.014 C 
HETATM   28  C3  UNL     1       4.009   2.841  -0.312  1.00  0.00     0.043 C 
ENDBRANCH   1  26
BRANCH   5  29
HETATM   29  O2  UNL     1       3.679  -1.064   1.926  1.00  0.00    -0.392 OA
ATOM     30  H2  UNL     1       3.763  -1.902   2.366  1.00  0.00     0.210 HD
ENDBRANCH   5  29
BRANCH  11  31
HETATM   31  N1  UNL     1      -2.921   1.728   1.240  1.00  0.00     0.087 N 
HETATM   32  C15 UNL     1      -3.406   3.077   1.323  1.00  0.00     0.310 C 
HETATM   33  C16 UNL     1      -3.647   0.927   2.147  1.00  0.00     0.310 C 
ENDBRANCH  11  31
TORSDOF 5
