REMARK  6 active torsions:
REMARK  status: ('A' for Active; 'I' for Inactive)
REMARK       I    between atoms: N1_2  and  C2_4 
REMARK       I    between atoms: C2_4  and  N2_6 
REMARK       I    between atoms: N2_6  and  C3_8 
REMARK    1  A    between atoms: C3_8  and  C4_10 
REMARK    2  A    between atoms: C4_10  and  C5_12 
REMARK       I    between atoms: C5_12  and  N3_14 
REMARK    3  A    between atoms: N3_14  and  N4_16 
REMARK    4  A    between atoms: N4_16  and  C6_18 
REMARK    5  A    between atoms: C6_18  and  O5_19 
REMARK    6  A    between atoms: C6_18  and  C7_21 
ROOT
HETATM    1  C5  UNL     1       0.657   0.650  -0.130  1.00  0.00     0.315 C 
HETATM    2  O4  UNL     1       0.983   1.769   0.403  1.00  0.00    -0.262 OA
HETATM    3  N3  UNL     1      -0.703   0.483  -0.500  1.00  0.00    -0.265 N 
ATOM      4  H3  UNL     1      -0.995  -0.395  -0.930  1.00  0.00     0.190 HD
ENDROOT
BRANCH   3   5
HETATM    5  N4  UNL     1      -1.646   1.476  -0.294  1.00  0.00    -0.299 N 
ATOM      6  H4  UNL     1      -1.434   2.315   0.246  1.00  0.00     0.183 HD
BRANCH   5   7
HETATM    7  C6  UNL     1      -2.925   1.263  -0.876  1.00  0.00     0.284 C 
BRANCH   7   8
HETATM    8  O5  UNL     1      -2.773   0.877  -2.204  1.00  0.00    -0.370 OA
ATOM      9  H5  UNL     1      -3.628   0.735  -2.593  1.00  0.00     0.212 HD
ENDBRANCH   7   8
BRANCH   7  10
HETATM   10  C7  UNL     1      -3.851   0.363  -0.198  1.00  0.00     0.068 A 
HETATM   11  C8  UNL     1      -5.210   0.744  -0.229  1.00  0.00     0.104 A 
HETATM   12  C9  UNL     1      -6.195   0.008   0.369  1.00  0.00     0.251 A 
HETATM   13  O6  UNL     1      -7.407   0.420   0.299  1.00  0.00    -0.268 OA
HETATM   14  N5  UNL     1      -5.862  -1.113   1.007  1.00  0.00    -0.275 N 
HETATM   15  C10 UNL     1      -4.571  -1.500   1.055  1.00  0.00     0.327 A 
ATOM     16  H5  UNL     1      -6.582  -1.677   1.458  1.00  0.00     0.173 HD
HETATM   17  O7  UNL     1      -4.306  -2.556   1.665  1.00  0.00    -0.247 OA
HETATM   18  N6  UNL     1      -3.592  -0.764   0.457  1.00  0.00    -0.308 N 
ATOM     19  H6  UNL     1      -2.627  -1.089   0.514  1.00  0.00     0.170 HD
ENDBRANCH   7  10
ENDBRANCH   5   7
ENDBRANCH   3   5
BRANCH   1  20
HETATM   20  C4  UNL     1       1.658  -0.369  -0.332  1.00  0.00     0.308 C 
HETATM   21  O3  UNL     1       1.345  -1.475  -0.816  1.00  0.00    -0.276 OA
BRANCH  20  22
HETATM   22  C3  UNL     1       3.069  -0.098   0.033  1.00  0.00     0.305 C 
HETATM   23  N2  UNL     1       4.040  -1.064  -0.206  1.00  0.00    -0.272 N 
HETATM   24  C2  UNL     1       5.412  -1.013   0.042  1.00  0.00     0.322 C 
ATOM     25  H2  UNL     1       3.702  -1.932  -0.621  1.00  0.00     0.174 HD
HETATM   26  N1  UNL     1       6.049   0.100   0.626  1.00  0.00    -0.347 N 
HETATM   27  O1  UNL     1       6.141  -2.017  -0.272  1.00  0.00    -0.247 OA
HETATM   28  C1  UNL     1       7.516   0.027   0.833  1.00  0.00     0.151 C 
ATOM     29  H1  UNL     1       5.519   0.928   0.897  1.00  0.00     0.163 HD
HETATM   30  O2  UNL     1       3.356   1.014   0.553  1.00  0.00    -0.263 OA
ENDBRANCH  20  22
ENDBRANCH   1  20
TORSDOF 6
