REMARK  5 active torsions:
REMARK  status: ('A' for Active; 'I' for Inactive)
REMARK    1  A    between atoms: C2_2  and  C3_3 
REMARK    2  A    between atoms: C3_3  and  O1_4 
REMARK    3  A    between atoms: N1_10  and  C7_11 
REMARK    4  A    between atoms: N2_14  and  C10_15 
REMARK    5  A    between atoms: C10_15  and  C11_16 
ROOT
HETATM    1  C7  UNL     1      -0.420   0.449   0.404  1.00  0.00     0.246 C 
HETATM    2  C8  UNL     1       0.225  -0.343   1.544  1.00  0.00     0.082 C 
HETATM    3  C9  UNL     1       1.027  -1.414   0.832  1.00  0.00     0.065 C 
HETATM    4  N2  UNL     1       1.149  -1.055  -0.508  1.00  0.00    -0.371 N 
HETATM    5  C17 UNL     1       0.090  -0.142  -0.859  1.00  0.00     0.163 C 
ENDROOT
BRANCH   1   6
HETATM    6  N1  UNL     1      -1.834   0.381   0.613  1.00  0.00     0.100 N 
HETATM    7  C6  UNL     1      -2.241   0.983   1.871  1.00  0.00     0.299 C 
HETATM    8  C5  UNL     1      -3.243   0.079   2.502  1.00  0.00     0.198 C 
HETATM    9  O2  UNL     1      -4.527   0.186   2.078  1.00  0.00    -0.386 OA
HETATM   10  C4  UNL     1      -4.759   0.772   0.869  1.00  0.00     0.207 C 
HETATM   11  C3  UNL     1      -4.010   0.137  -0.274  1.00  0.00     0.105 C 
HETATM   12  C18 UNL     1      -2.654   0.832  -0.480  1.00  0.00     0.312 C 
BRANCH  11  13
HETATM   13  C2  UNL     1      -4.789   0.301  -1.550  1.00  0.00     0.037 C 
HETATM   14  C1  UNL     1      -6.111  -0.417  -1.525  1.00  0.00     0.008 C 
ENDBRANCH  11  13
BRANCH  11  15
HETATM   15  O1  UNL     1      -3.727  -1.191  -0.009  1.00  0.00    -0.386 OA
ATOM     16  H1  UNL     1      -3.235  -1.295   0.797  1.00  0.00     0.210 HD
ENDBRANCH  11  15
ENDBRANCH   1   6
BRANCH   4  17
HETATM   17  C10 UNL     1       2.308  -1.062  -1.237  1.00  0.00     0.067 C 
BRANCH  17  18
HETATM   18  C11 UNL     1       3.403  -0.067  -0.984  1.00  0.00     0.024 C 
HETATM   19  C12 UNL     1       4.491  -0.422  -2.000  1.00  0.00     0.010 C 
HETATM   20  C13 UNL     1       5.780   0.270  -1.819  1.00  0.00     0.001 C 
HETATM   21  C14 UNL     1       6.248   0.301  -0.375  1.00  0.00     0.000 C 
HETATM   22  C15 UNL     1       5.167   0.795   0.532  1.00  0.00     0.001 C 
HETATM   23  C16 UNL     1       3.979  -0.156   0.376  1.00  0.00     0.010 C 
ENDBRANCH  17  18
ENDBRANCH   4  17
TORSDOF 5
