REMARK  3 active torsions:
REMARK  status: ('A' for Active; 'I' for Inactive)
REMARK    1  A    between atoms: C2_2  and  C3_3 
REMARK    2  A    between atoms: C6_7  and  O1_9 
REMARK    3  A    between atoms: C8_11  and  C9_12 
ROOT
HETATM    1  C3  UNL     1       2.104   0.688  -0.590  1.00  0.00     0.117 C 
HETATM    2  C4  UNL     1       1.171   1.452   0.288  1.00  0.00     0.083 C 
HETATM    3  N1  UNL     1      -0.176   1.100   0.243  1.00  0.00    -0.381 N 
HETATM    4  C5  UNL     1      -0.887   0.996   1.457  1.00  0.00     0.160 C 
HETATM    5  C6  UNL     1      -2.246   0.456   1.064  1.00  0.00     0.076 C 
HETATM    6  C7  UNL     1      -2.740  -0.383   2.239  1.00  0.00     0.048 C 
HETATM    7  C8  UNL     1      -1.914  -0.389  -0.131  1.00  0.00     0.046 C 
HETATM    8  C11 UNL     1      -0.618   0.146  -0.693  1.00  0.00     0.113 C 
HETATM    9  C12 UNL     1       0.351  -0.899  -1.094  1.00  0.00     0.103 C 
HETATM   10  C13 UNL     1       0.167  -2.214  -0.338  1.00  0.00     0.028 C 
HETATM   11  C14 UNL     1       1.520  -2.872  -0.665  1.00  0.00     0.021 C 
HETATM   12  C15 UNL     1       2.406  -1.688  -0.325  1.00  0.00     0.118 C 
HETATM   13  N2  UNL     1       1.711  -0.617  -0.933  1.00  0.00    -0.397 N 
ENDROOT
BRANCH   5  14
HETATM   14  O1  UNL     1      -3.128   1.473   0.815  1.00  0.00    -0.388 OA
ATOM     15  H1  UNL     1      -3.981   1.134   0.568  1.00  0.00     0.210 HD
ENDBRANCH   5  14
BRANCH   7  16
HETATM   16  C9  UNL     1      -3.015  -0.448  -1.148  1.00  0.00     0.005 C 
HETATM   17  C10 UNL     1      -3.408   0.857  -1.725  1.00  0.00     0.005 C 
ENDBRANCH   7  16
BRANCH   1  18
HETATM   18  C2  UNL     1       3.475   0.634   0.087  1.00  0.00     0.026 C 
HETATM   19  C1  UNL     1       4.032   2.025   0.310  1.00  0.00     0.007 C 
ENDBRANCH   1  18
TORSDOF 3
