REMARK  14 active torsions:
REMARK  status: ('A' for Active; 'I' for Inactive)
REMARK    1  A    between atoms: C2_2  and  C3_3 
REMARK    2  A    between atoms: C3_3  and  N1_4 
REMARK    3  A    between atoms: N1_4  and  C4_5 
REMARK    4  A    between atoms: N1_4  and  C14_27 
REMARK    5  A    between atoms: C4_5  and  C5_6 
REMARK    6  A    between atoms: C5_6  and  C6_7 
REMARK    7  A    between atoms: C6_7  and  O1_8 
REMARK    8  A    between atoms: O1_8  and  C7_9 
REMARK    9  A    between atoms: C8_10  and  C9_11 
REMARK   10  A    between atoms: C9_11  and  O2_12 
REMARK   11  A    between atoms: C10_17  and  C11_18 
REMARK   12  A    between atoms: C11_18  and  O3_19 
REMARK   13  A    between atoms: C12_21  and  O4_22 
REMARK   14  A    between atoms: C13_24  and  O5_25 
ROOT
HETATM    1  C7  UNL     1       2.903  -0.225  -0.780  1.00  0.00     0.185 C 
HETATM    2  C8  UNL     1       3.906  -0.627   0.258  1.00  0.00     0.241 C 
HETATM    3  N2  UNL     1       4.328   0.581   0.974  1.00  0.00    -0.058 N 
ATOM      4  H21 UNL     1       4.834   0.387   1.838  1.00  0.00     0.278 HD
ATOM      5  H22 UNL     1       3.555   1.095   1.397  1.00  0.00     0.278 HD
HETATM    6  C10 UNL     1       5.093   1.365   0.017  1.00  0.00     0.240 C 
HETATM    7  C12 UNL     1       4.250   1.766  -1.170  1.00  0.00     0.182 C 
HETATM    8  C13 UNL     1       3.760   0.494  -1.861  1.00  0.00     0.180 C 
ENDROOT
BRANCH   1   9
HETATM    9  O1  UNL     1       2.238  -1.279  -1.315  1.00  0.00    -0.381 OA
BRANCH   9  10
HETATM   10  C6  UNL     1       0.883  -1.218  -1.402  1.00  0.00     0.173 C 
BRANCH  10  11
HETATM   11  C5  UNL     1       0.124  -1.055  -0.108  1.00  0.00     0.070 C 
BRANCH  11  12
HETATM   12  C4  UNL     1      -1.345  -1.025  -0.520  1.00  0.00     0.060 C 
BRANCH  12  13
HETATM   13  N1  UNL     1      -2.219  -0.902   0.571  1.00  0.00    -0.389 N 
BRANCH  13  14
HETATM   14  C3  UNL     1      -2.287  -1.990   1.476  1.00  0.00     0.122 C 
BRANCH  14  15
HETATM   15  C2  UNL     1      -2.899  -3.258   1.073  1.00  0.00     0.015 C 
HETATM   16  C1  UNL     1      -2.335  -4.032  -0.047  1.00  0.00     0.006 C 
ENDBRANCH  14  15
ENDBRANCH  13  14
BRANCH  13  17
HETATM   17  C14 UNL     1      -3.459  -0.222   0.375  1.00  0.00     0.083 C 
HETATM   18  C15 UNL     1      -3.670   0.453  -0.909  1.00  0.00     0.025 C 
HETATM   19  C16 UNL     1      -3.267   1.878  -1.022  1.00  0.00     0.002 C 
HETATM   20  C17 UNL     1      -3.960   2.804  -0.070  1.00  0.00     0.000 C 
HETATM   21  C18 UNL     1      -5.273   2.305   0.423  1.00  0.00     0.000 C 
HETATM   22  C19 UNL     1      -5.245   1.139   1.336  1.00  0.00     0.002 C 
HETATM   23  C20 UNL     1      -3.857   0.615   1.578  1.00  0.00     0.025 C 
ENDBRANCH  13  17
ENDBRANCH  12  13
ENDBRANCH  11  12
ENDBRANCH  10  11
ENDBRANCH   9  10
ENDBRANCH   1   9
BRANCH   2  24
HETATM   24  C9  UNL     1       3.512  -1.721   1.172  1.00  0.00     0.199 C 
BRANCH  24  25
HETATM   25  O2  UNL     1       3.152  -2.863   0.468  1.00  0.00    -0.399 OA
ATOM     26  H2  UNL     1       2.899  -3.566   1.055  1.00  0.00     0.209 HD
ENDBRANCH  24  25
ENDBRANCH   2  24
BRANCH   8  27
HETATM   27  O5  UNL     1       3.032   0.755  -2.990  1.00  0.00    -0.390 OA
ATOM     28  H5  UNL     1       3.555   1.194  -3.650  1.00  0.00     0.210 HD
ENDBRANCH   8  27
BRANCH   7  29
HETATM   29  O4  UNL     1       4.997   2.499  -2.058  1.00  0.00    -0.391 OA
ATOM     30  H4  UNL     1       4.467   2.751  -2.805  1.00  0.00     0.210 HD
ENDBRANCH   7  29
BRANCH   6  31
HETATM   31  C11 UNL     1       5.681   2.586   0.655  1.00  0.00     0.199 C 
BRANCH  31  32
HETATM   32  O3  UNL     1       4.671   3.379   1.157  1.00  0.00    -0.399 OA
ATOM     33  H3  UNL     1       5.044   4.153   1.562  1.00  0.00     0.209 HD
ENDBRANCH  31  32
ENDBRANCH   6  31
TORSDOF 14
