REMARK  14 active torsions:
REMARK  status: ('A' for Active; 'I' for Inactive)
REMARK    1  A    between atoms: C2_2  and  N1_3 
REMARK    2  A    between atoms: N1_3  and  C3_4 
REMARK    3  A    between atoms: N1_3  and  C6_11 
REMARK    4  A    between atoms: C3_4  and  C4_5 
REMARK    5  A    between atoms: C4_5  and  C5_6 
REMARK    6  A    between atoms: C5_6  and  N2_7 
REMARK    7  A    between atoms: C6_11  and  C7_12 
REMARK    8  A    between atoms: C7_12  and  N3_13 
REMARK    9  A    between atoms: N3_13  and  C8_15 
REMARK   10  A    between atoms: C12_19  and  N4_20 
REMARK   11  A    between atoms: C14_25  and  N6_26 
REMARK   12  A    between atoms: N6_26  and  C15_28 
REMARK   13  A    between atoms: C15_28  and  C16_29 
REMARK   14  A    between atoms: C16_29  and  C17_30 
ROOT
HETATM    1  C8  UNL     1      -0.591   0.066  -2.013  1.00  0.00     0.106 A 
HETATM    2  C9  UNL     1       0.139   0.244  -3.204  1.00  0.00     0.050 A 
HETATM    3  C10 UNL     1       1.506   0.404  -3.208  1.00  0.00     0.023 A 
HETATM    4  C11 UNL     1       2.181   0.390  -2.026  1.00  0.00     0.053 A 
HETATM    5  C12 UNL     1       3.567   0.544  -1.966  1.00  0.00     0.134 A 
HETATM    6  N5  UNL     1       4.080   0.499  -0.683  1.00  0.00    -0.176 N 
ATOM      7  H5  UNL     1       5.089   0.607  -0.580  1.00  0.00     0.186 HD
HETATM    8  C14 UNL     1       3.379   0.329   0.414  1.00  0.00     0.681 A 
HETATM    9  N9  UNL     1       2.061   0.185   0.343  1.00  0.00    -0.176 N 
ATOM     10  H9  UNL     1       1.509   0.053   1.191  1.00  0.00     0.186 HD
HETATM   11  C18 UNL     1       1.460   0.215  -0.868  1.00  0.00     0.136 A 
HETATM   12  N10 UNL     1       0.123   0.060  -0.885  1.00  0.00    -0.327 N 
ATOM     13  H10 UNL     1      -0.365  -0.067   0.001  1.00  0.00     0.169 HD
ENDROOT
BRANCH   1  14
HETATM   14  N3  UNL     1      -1.792  -0.066  -2.091  1.00  0.00    -0.354 N 
ATOM     15  H3  UNL     1      -1.994  -0.009  -3.089  1.00  0.00     0.166 HD
BRANCH  14  16
HETATM   16  C7  UNL     1      -3.018  -0.255  -1.497  1.00  0.00     0.082 C 
BRANCH  16  17
HETATM   17  C6  UNL     1      -3.021  -0.174  -0.015  1.00  0.00     0.171 C 
BRANCH  17  18
HETATM   18  N1  UNL     1      -4.293  -0.355   0.637  1.00  0.00    -0.370 N 
BRANCH  18  19
HETATM   19  C2  UNL     1      -4.206  -0.138   2.019  1.00  0.00     0.059 C 
HETATM   20  C1  UNL     1      -4.461   1.308   2.428  1.00  0.00     0.055 C 
ENDBRANCH  18  19
BRANCH  18  21
HETATM   21  C3  UNL     1      -5.459  -0.284  -0.085  1.00  0.00     0.065 C 
BRANCH  21  22
HETATM   22  C4  UNL     1      -6.451  -1.365   0.134  1.00  0.00     0.072 C 
BRANCH  22  23
HETATM   23  C5  UNL     1      -7.047  -1.566   1.466  1.00  0.00     0.234 C 
BRANCH  23  24
HETATM   24  N2  UNL     1      -7.761  -0.420   1.999  1.00  0.00    -0.079 N 
ATOM     25  H23 UNL     1      -7.155   0.400   2.005  1.00  0.00     0.274 HD
ATOM     26  H22 UNL     1      -8.473  -0.111   1.338  1.00  0.00     0.274 HD
ATOM     27  H21 UNL     1      -8.174  -0.559   2.921  1.00  0.00     0.274 HD
ENDBRANCH  23  24
ENDBRANCH  22  23
ENDBRANCH  21  22
ENDBRANCH  18  21
ENDBRANCH  17  18
ENDBRANCH  16  17
ENDBRANCH  14  16
ENDBRANCH   1  14
BRANCH   5  28
HETATM   28  N4  UNL     1       4.321   0.708  -2.906  1.00  0.00    -0.361 N 
HETATM   29  C13 UNL     1       4.505   0.841  -4.230  1.00  0.00     0.120 C 
ATOM     30  H4  UNL     1       5.252   0.777  -2.496  1.00  0.00     0.165 HD
ENDBRANCH   5  28
BRANCH   8  31
HETATM   31  N6  UNL     1       3.927   0.290   1.586  1.00  0.00    -0.226 N 
ATOM     32  H6  UNL     1       3.318   0.156   2.393  1.00  0.00     0.177 HD
BRANCH  31  33
HETATM   33  C15 UNL     1       5.328   0.422   1.822  1.00  0.00     0.145 C 
BRANCH  33  34
HETATM   34  C16 UNL     1       6.032  -0.903   1.611  1.00  0.00     0.092 C 
BRANCH  34  35
HETATM   35  C17 UNL     1       7.475  -0.814   1.830  1.00  0.00     0.088 C 
HETATM   36  N7  UNL     1       8.046  -1.555   2.702  1.00  0.00    -0.391 N 
ATOM     37  H72 UNL     1       7.491  -2.211   3.252  1.00  0.00     0.157 HD
ATOM     38  H71 UNL     1       9.053  -1.493   2.855  1.00  0.00     0.157 HD
HETATM   39  N8  UNL     1       8.245   0.096   1.067  1.00  0.00    -0.088 NA
ENDBRANCH  34  35
ENDBRANCH  33  34
ENDBRANCH  31  33
ENDBRANCH   8  31
TORSDOF 14
