REMARK  16 active torsions:
REMARK  status: ('A' for Active; 'I' for Inactive)
REMARK    1  A    between atoms: C3_3  and  C4_4 
REMARK    2  A    between atoms: C4_4  and  N1_5 
REMARK    3  A    between atoms: N1_5  and  C5_6 
REMARK    4  A    between atoms: N1_5  and  C8_13 
REMARK    5  A    between atoms: C5_6  and  C6_7 
REMARK    6  A    between atoms: C6_7  and  C7_8 
REMARK    7  A    between atoms: C7_8  and  N2_9 
REMARK    8  A    between atoms: C8_13  and  C9_14 
REMARK    9  A    between atoms: C9_14  and  C10_15 
REMARK   10  A    between atoms: C10_15  and  O1_16 
REMARK   11  A    between atoms: C12_23  and  N5_24 
REMARK       I    between atoms: N7_30  and  C14_32 
REMARK       I    between atoms: C14_32  and  N8_34 
REMARK   12  A    between atoms: N8_34  and  C15_36 
REMARK   13  A    between atoms: C15_36  and  C16_37 
REMARK   14  A    between atoms: C16_37  and  C17_38 
REMARK   15  A    between atoms: C17_38  and  C18_39 
REMARK   16  A    between atoms: C18_39  and  N9_40 
ROOT
HETATM    1  C1  UNL     1      -1.734  -0.072   3.111  1.00  0.00     0.051 C 
HETATM    2  C2  UNL     1      -1.185  -0.081   1.736  1.00  0.00    -0.027 A 
HETATM    3  C3  UNL     1      -2.059   0.011   0.685  1.00  0.00     0.056 A 
HETATM    4  N3  UNL     1      -1.502   0.004  -0.537  1.00  0.00    -0.340 N 
ATOM      5  H3  UNL     1      -2.133   0.072  -1.335  1.00  0.00     0.167 HD
HETATM    6  C11 UNL     1      -0.200  -0.084  -0.800  1.00  0.00     0.136 A 
HETATM    7  N4  UNL     1       0.278  -0.082  -2.057  1.00  0.00    -0.176 N 
ATOM      8  H4  UNL     1      -0.370  -0.014  -2.842  1.00  0.00     0.186 HD
HETATM    9  C12 UNL     1       1.595  -0.168  -2.292  1.00  0.00     0.679 A 
HETATM   10  N6  UNL     1       2.450  -0.259  -1.268  1.00  0.00    -0.176 N 
ATOM     11  H6  UNL     1       3.452  -0.325  -1.450  1.00  0.00     0.186 HD
HETATM   12  C13 UNL     1       1.998  -0.264   0.006  1.00  0.00     0.139 A 
HETATM   13  N7  UNL     1       2.810  -0.348   0.974  1.00  0.00    -0.293 N 
ATOM     14  H7  UNL     1       2.388  -0.345   1.902  1.00  0.00     0.172 HD
HETATM   15  C14 UNL     1       4.206  -0.444   0.948  1.00  0.00     0.321 C 
HETATM   16  O2  UNL     1       4.880   0.447   1.492  1.00  0.00    -0.247 OA
HETATM   17  N8  UNL     1       4.834  -1.534   0.314  1.00  0.00    -0.343 N 
ATOM     18  H8  UNL     1       4.267  -2.260  -0.124  1.00  0.00     0.164 HD
HETATM   19  C19 UNL     1       0.657  -0.177   0.294  1.00  0.00     0.060 A 
HETATM   20  C20 UNL     1       0.210  -0.180   1.597  1.00  0.00    -0.036 A 
HETATM   21  C21 UNL     1       1.090  -0.275   2.768  1.00  0.00     0.050 C 
ENDROOT
BRANCH   3  22
HETATM   22  C4  UNL     1      -3.523   0.099   0.903  1.00  0.00     0.120 C 
BRANCH  22  23
HETATM   23  N1  UNL     1      -4.339   0.205  -0.216  1.00  0.00    -0.368 N 
BRANCH  23  24
HETATM   24  C5  UNL     1      -4.290   1.288  -1.088  1.00  0.00     0.065 C 
BRANCH  24  25
HETATM   25  C6  UNL     1      -4.757   2.610  -0.561  1.00  0.00     0.072 C 
BRANCH  25  26
HETATM   26  C7  UNL     1      -6.185   2.612  -0.110  1.00  0.00     0.234 C 
BRANCH  26  27
HETATM   27  N2  UNL     1      -6.478   3.967   0.371  1.00  0.00    -0.079 N 
ATOM     28  H23 UNL     1      -5.829   4.287   1.090  1.00  0.00     0.274 HD
ATOM     29  H22 UNL     1      -6.274   4.691  -0.318  1.00  0.00     0.274 HD
ATOM     30  H21 UNL     1      -7.451   3.968   0.678  1.00  0.00     0.274 HD
ENDBRANCH  26  27
ENDBRANCH  25  26
ENDBRANCH  24  25
ENDBRANCH  23  24
BRANCH  23  31
HETATM   31  C8  UNL     1      -5.525  -0.596  -0.252  1.00  0.00     0.129 C 
BRANCH  31  32
HETATM   32  C9  UNL     1      -5.265  -2.070  -0.372  1.00  0.00     0.046 C 
BRANCH  32  33
HETATM   33  C10 UNL     1      -6.639  -2.752  -0.396  1.00  0.00     0.165 C 
BRANCH  33  34
HETATM   34  O1  UNL     1      -7.391  -2.298  -1.485  1.00  0.00    -0.401 OA
ATOM     35  H1  UNL     1      -8.242  -2.720  -1.500  1.00  0.00     0.209 HD
ENDBRANCH  33  34
ENDBRANCH  32  33
ENDBRANCH  31  32
ENDBRANCH  23  31
ENDBRANCH  22  23
ENDBRANCH   3  22
BRANCH   9  36
HETATM   36  N5  UNL     1       2.030  -0.162  -3.537  1.00  0.00    -0.234 N 
ATOM     37  H52 UNL     1       1.378  -0.093  -4.318  1.00  0.00     0.174 HD
ATOM     38  H51 UNL     1       3.032  -0.227  -3.716  1.00  0.00     0.174 HD
ENDBRANCH   9  36
BRANCH  17  39
HETATM   39  C15 UNL     1       6.273  -1.630   0.280  1.00  0.00     0.124 C 
BRANCH  39  40
HETATM   40  C16 UNL     1       6.908  -0.496  -0.445  1.00  0.00     0.021 C 
BRANCH  40  41
HETATM   41  C17 UNL     1       8.423  -0.708  -0.422  1.00  0.00     0.029 C 
BRANCH  41  42
HETATM   42  C18 UNL     1       9.082   0.429  -1.147  1.00  0.00     0.229 C 
BRANCH  42  43
HETATM   43  N9  UNL     1       8.738   1.673  -0.470  1.00  0.00    -0.079 N 
ATOM     44  H93 UNL     1       7.730   1.801  -0.375  1.00  0.00     0.274 HD
ATOM     45  H92 UNL     1       8.971   1.655   0.523  1.00  0.00     0.274 HD
ATOM     46  H91 UNL     1       9.186   2.446  -0.963  1.00  0.00     0.274 HD
ENDBRANCH  42  43
ENDBRANCH  41  42
ENDBRANCH  40  41
ENDBRANCH  39  40
ENDBRANCH  17  39
TORSDOF 16
