REMARK  10 active torsions:
REMARK  status: ('A' for Active; 'I' for Inactive)
REMARK    1  A    between atoms: C4_4  and  C5_5 
REMARK    2  A    between atoms: C5_5  and  C6_6 
REMARK    3  A    between atoms: C7_7  and  O1_8 
REMARK    4  A    between atoms: C9_11  and  O2_12 
REMARK    5  A    between atoms: C10_14  and  C11_15 
REMARK    6  A    between atoms: C11_15  and  O3_16 
REMARK    7  A    between atoms: C12_18  and  C13_19 
REMARK    8  A    between atoms: C13_19  and  C14_20 
REMARK    9  A    between atoms: C14_20  and  C15_21 
REMARK   10  A    between atoms: C21_27  and  O4_28 
ROOT
HETATM    1  C11 UNL     1       1.970   1.129  -0.912  1.00  0.00     0.058 C 
HETATM    2  C12 UNL     1       0.675   1.242  -1.157  1.00  0.00     0.088 C 
ENDROOT
BRANCH   1   3
HETATM    3  C10 UNL     1       2.501   0.725   0.395  1.00  0.00     0.078 C 
HETATM    4  C6  UNL     1       3.342  -0.511   0.362  1.00  0.00     0.031 C 
HETATM    5  C7  UNL     1       4.313  -0.351   1.501  1.00  0.00     0.125 C 
HETATM    6  C8  UNL     1       4.636   1.124   1.459  1.00  0.00     0.064 C 
HETATM    7  C9  UNL     1       3.363   1.804   1.012  1.00  0.00     0.131 C 
BRANCH   4   8
HETATM    8  C5  UNL     1       4.053  -0.764  -0.948  1.00  0.00     0.035 C 
BRANCH   8   9
HETATM    9  C4  UNL     1       4.852  -2.030  -0.848  1.00  0.00    -0.024 C 
HETATM   10  C2  UNL     1       6.149  -2.107  -1.085  1.00  0.00    -0.091 C 
HETATM   11  C1  UNL     1       6.882  -3.422  -0.961  1.00  0.00     0.042 C 
HETATM   12  C3  UNL     1       6.973  -0.933  -1.498  1.00  0.00     0.042 C 
ENDBRANCH   8   9
ENDBRANCH   4   8
BRANCH   5  13
HETATM   13  O1  UNL     1       3.680  -0.642   2.695  1.00  0.00    -0.395 OA
ATOM     14  H1  UNL     1       4.293  -0.541   3.414  1.00  0.00     0.210 HD
ENDBRANCH   5  13
BRANCH   7  15
HETATM   15  O2  UNL     1       3.667   2.818   0.139  1.00  0.00    -0.395 OA
ATOM     16  H2  UNL     1       2.867   3.246  -0.142  1.00  0.00     0.210 HD
ENDBRANCH   7  15
ENDBRANCH   1   3
BRANCH   1  17
HETATM   17  O3  UNL     1       2.845   1.422  -1.987  1.00  0.00    -0.364 OA
ATOM     18  H3  UNL     1       2.501   1.684  -2.833  1.00  0.00     0.217 HD
ENDBRANCH   1  17
BRANCH   2  19
HETATM   19  C13 UNL     1      -0.378   1.016  -0.254  1.00  0.00    -0.125 C 
BRANCH  19  20
HETATM   20  C14 UNL     1      -1.281   0.824   0.517  1.00  0.00     0.062 C 
BRANCH  20  21
HETATM   21  C15 UNL     1      -2.747   0.914   0.355  1.00  0.00    -0.053 C 
HETATM   22  C16 UNL     1      -3.690   0.721   1.286  1.00  0.00    -0.009 C 
HETATM   23  C17 UNL     1      -5.027   0.925   0.666  1.00  0.00    -0.015 C 
HETATM   24  C18 UNL     1      -5.332   2.402   0.756  1.00  0.00     0.020 C 
HETATM   25  C19 UNL     1      -6.145   0.186   1.331  1.00  0.00     0.016 C 
HETATM   26  C23 UNL     1      -4.778   0.466  -0.724  1.00  0.00     0.004 C 
HETATM   27  C20 UNL     1      -5.977  -1.289   1.292  1.00  0.00     0.036 C 
HETATM   28  C21 UNL     1      -5.393  -1.869   0.049  1.00  0.00     0.153 C 
HETATM   29  C22 UNL     1      -4.550  -1.007  -0.801  1.00  0.00     0.208 C 
HETATM   30  F1  UNL     1      -3.209  -1.355  -0.603  1.00  0.00    -0.246 F 
HETATM   31  C24 UNL     1      -5.744   0.911  -1.763  1.00  0.00     0.020 C 
HETATM   32  C25 UNL     1      -3.400   1.147  -0.956  1.00  0.00     0.052 C 
BRANCH  28  33
HETATM   33  O4  UNL     1      -4.586  -2.965   0.495  1.00  0.00    -0.393 OA
ATOM     34  H4  UNL     1      -4.214  -3.335  -0.297  1.00  0.00     0.210 HD
ENDBRANCH  28  33
ENDBRANCH  20  21
ENDBRANCH  19  20
ENDBRANCH   2  19
TORSDOF 10
