REMARK  10 active torsions:
REMARK  status: ('A' for Active; 'I' for Inactive)
REMARK    1  A    between atoms: C1_4  and  C2_6 
REMARK    2  A    between atoms: C2_6  and  O1_7 
REMARK    3  A    between atoms: C2_6  and  C3_9 
REMARK    4  A    between atoms: C3_9  and  C4_10 
REMARK    5  A    between atoms: C3_9  and  N5_20 
REMARK    6  A    between atoms: C4_10  and  C5_11 
REMARK    7  A    between atoms: N4_17  and  O2_18 
REMARK    8  A    between atoms: N5_20  and  C9_22 
REMARK    9  A    between atoms: C9_22  and  O3_23 
REMARK   10  A    between atoms: C9_22  and  C10_25 
ROOT
HETATM    1  C3  UNL     1      -0.793   0.073  -0.233  1.00  0.00     0.120 C 
ENDROOT
BRANCH   1   2
HETATM    2  C2  UNL     1      -1.171   1.069   0.799  1.00  0.00     0.204 C 
BRANCH   2   3
HETATM    3  C1  UNL     1      -0.995   2.435   0.159  1.00  0.00     0.117 C 
HETATM    4  N1  UNL     1      -1.943   3.164  -0.054  1.00  0.00    -0.389 N 
ATOM      5  H12 UNL     1      -1.825   4.081  -0.484  1.00  0.00     0.157 HD
ATOM      6  H11 UNL     1      -2.895   2.893   0.194  1.00  0.00     0.157 HD
HETATM    7  N2  UNL     1       0.327   2.811  -0.185  1.00  0.00    -0.085 NA
ENDBRANCH   2   3
BRANCH   2   8
HETATM    8  O1  UNL     1      -2.525   0.994   1.072  1.00  0.00    -0.386 OA
ATOM      9  H1  UNL     1      -2.635   0.140   1.472  1.00  0.00     0.210 HD
ENDBRANCH   2   8
ENDBRANCH   1   2
BRANCH   1  10
HETATM   10  C4  UNL     1      -1.243  -1.320  -0.102  1.00  0.00     0.089 C 
BRANCH  10  11
HETATM   11  C5  UNL     1      -2.684  -1.608  -0.079  1.00  0.00     0.061 A 
HETATM   12  C6  UNL     1      -3.458  -1.775   1.050  1.00  0.00     0.031 A 
HETATM   13  C7  UNL     1      -4.810  -2.042   1.002  1.00  0.00     0.021 A 
HETATM   14  C8  UNL     1      -5.429  -2.149  -0.223  1.00  0.00     0.109 A 
HETATM   15  N3  UNL     1      -4.665  -1.984  -1.316  1.00  0.00    -0.286 N 
HETATM   16  N4  UNL     1      -3.372  -1.730  -1.254  1.00  0.00    -0.168 N 
ATOM     17  H3  UNL     1      -5.104  -2.058  -2.234  1.00  0.00     0.188 HD
BRANCH  16  18
HETATM   18  O2  UNL     1      -2.624  -1.566  -2.413  1.00  0.00    -0.268 OA
ATOM     19  H2  UNL     1      -3.102  -1.651  -3.230  1.00  0.00     0.247 HD
ENDBRANCH  16  18
ENDBRANCH  10  11
ENDBRANCH   1  10
BRANCH   1  20
HETATM   20  N5  UNL     1       0.614   0.108  -0.568  1.00  0.00    -0.386 N 
ATOM     21  H5  UNL     1       0.923   0.364  -1.506  1.00  0.00     0.156 HD
BRANCH  20  22
HETATM   22  C9  UNL     1       1.542  -0.220   0.432  1.00  0.00     0.248 C 
BRANCH  22  23
HETATM   23  O3  UNL     1       1.543  -1.573   0.844  1.00  0.00    -0.373 OA
ATOM     24  H3  UNL     1       2.171  -1.795   1.521  1.00  0.00     0.212 HD
ENDBRANCH  22  23
BRANCH  22  25
HETATM   25  C10 UNL     1       2.926   0.055  -0.025  1.00  0.00    -0.011 A 
HETATM   26  C11 UNL     1       3.369  -0.279  -1.299  1.00  0.00     0.011 A 
HETATM   27  C12 UNL     1       4.665  -0.025  -1.706  1.00  0.00     0.001 A 
HETATM   28  C13 UNL     1       5.564   0.571  -0.852  1.00  0.00     0.000 A 
HETATM   29  C14 UNL     1       5.157   0.914   0.416  1.00  0.00     0.001 A 
HETATM   30  C15 UNL     1       3.845   0.649   0.805  1.00  0.00     0.011 A 
ENDBRANCH  22  25
ENDBRANCH  20  22
ENDBRANCH   1  20
TORSDOF 10
