REMARK  8 active torsions:
REMARK  status: ('A' for Active; 'I' for Inactive)
REMARK    1  A    between atoms: O1_2  and  C2_3 
REMARK    2  A    between atoms: C5_6  and  S1_7 
REMARK    3  A    between atoms: S1_7  and  N1_10 
REMARK    4  A    between atoms: N1_10  and  C6_12 
REMARK    5  A    between atoms: C6_12  and  C8_14 
REMARK    6  A    between atoms: C8_14  and  C9_15 
REMARK    7  A    between atoms: C9_15  and  O4_16 
REMARK    8  A    between atoms: C9_15  and  N2_18 
REMARK       I    between atoms: N2_18  and  C10_21 
REMARK       I    between atoms: C10_21  and  N3_22 
REMARK       I    between atoms: C10_21  and  N4_26 
ROOT
HETATM    1  C8  UNL     1      -1.772  -1.906   0.088  1.00  0.00     0.086 C 
ENDROOT
BRANCH   1   2
HETATM    2  C6  UNL     1      -0.985  -1.826   1.342  1.00  0.00     0.093 C 
HETATM    3  C7  UNL     1      -1.559  -2.951   2.240  1.00  0.00     0.033 C 
BRANCH   2   4
HETATM    4  N1  UNL     1      -0.843  -0.626   2.011  1.00  0.00    -0.311 N 
ATOM      5  H1  UNL     1      -1.681  -0.101   2.260  1.00  0.00     0.172 HD
BRANCH   4   6
HETATM    6  S1  UNL     1       0.646  -0.002   2.427  1.00  0.00     0.259 S 
HETATM    7  O2  UNL     1       1.337  -0.833   3.487  1.00  0.00    -0.201 OA
HETATM    8  O3  UNL     1       0.397   1.335   3.136  1.00  0.00    -0.201 OA
BRANCH   6   9
HETATM    9  C5  UNL     1       1.730   0.368   1.121  1.00  0.00     0.079 A 
HETATM   10  C4  UNL     1       1.801   1.609   0.529  1.00  0.00     0.028 A 
HETATM   11  C3  UNL     1       2.688   1.862  -0.508  1.00  0.00     0.038 A 
HETATM   12  C2  UNL     1       3.529   0.880  -0.982  1.00  0.00     0.068 A 
HETATM   13  C12 UNL     1       3.460  -0.377  -0.386  1.00  0.00     0.038 A 
HETATM   14  C11 UNL     1       2.577  -0.596   0.632  1.00  0.00     0.028 A 
BRANCH  12  15
HETATM   15  O1  UNL     1       4.442   1.091  -2.027  1.00  0.00    -0.356 OA
HETATM   16  C1  UNL     1       4.521   2.362  -2.636  1.00  0.00     0.210 C 
ENDBRANCH  12  15
ENDBRANCH   6   9
ENDBRANCH   4   6
ENDBRANCH   2   4
ENDBRANCH   1   2
BRANCH   1  17
HETATM   17  C9  UNL     1      -1.330  -1.071  -1.060  1.00  0.00     0.325 C 
BRANCH  17  18
HETATM   18  O4  UNL     1      -2.234  -1.380  -2.119  1.00  0.00    -0.369 OA
ATOM     19  H4  UNL     1      -1.952  -0.846  -2.853  1.00  0.00     0.212 HD
ENDBRANCH  17  18
BRANCH  17  20
HETATM   20  N2  UNL     1      -1.469   0.353  -0.876  1.00  0.00     0.005 N 
HETATM   21  C10 UNL     1      -2.834   0.794  -0.721  1.00  0.00     0.578 C 
HETATM   22  N3  UNL     1      -2.807   2.231  -0.440  1.00  0.00    -0.026 N 
HETATM   23  N4  UNL     1      -3.474   0.687  -2.033  1.00  0.00    -0.026 N 
ATOM     24  H33 UNL     1      -2.220   2.468   0.360  1.00  0.00     0.278 HD
ATOM     25  H32 UNL     1      -2.296   2.763  -1.144  1.00  0.00     0.278 HD
ATOM     26  H31 UNL     1      -3.772   2.543  -0.330  1.00  0.00     0.278 HD
ATOM     27  H43 UNL     1      -2.972   1.190  -2.765  1.00  0.00     0.278 HD
ATOM     28  H42 UNL     1      -3.399  -0.245  -2.440  1.00  0.00     0.278 HD
ATOM     29  H41 UNL     1      -4.439   0.999  -1.923  1.00  0.00     0.278 HD
ATOM     30  H22 UNL     1      -0.899   0.670  -0.092  1.00  0.00     0.284 HD
ATOM     31  H21 UNL     1      -1.013   0.858  -1.636  1.00  0.00     0.284 HD
ENDBRANCH  17  20
ENDBRANCH   1  17
TORSDOF 8
