REMARK  8 active torsions:
REMARK  status: ('A' for Active; 'I' for Inactive)
REMARK    1  A    between atoms: C2_2  and  C3_3 
REMARK    2  A    between atoms: C2_2  and  C24_31 
REMARK    3  A    between atoms: C3_3  and  C4_5 
REMARK    4  A    between atoms: C13_14  and  O2_15 
REMARK    5  A    between atoms: O2_15  and  S1_16 
REMARK    6  A    between atoms: C21_27  and  C22_28 
REMARK    7  A    between atoms: C24_31  and  C26_33 
REMARK    8  A    between atoms: C26_33  and  C27_34 
ROOT
HETATM    1  C4  UNL     1      -2.749  -0.604   1.692  1.00  0.00     0.076 C 
HETATM    2  C5  UNL     1      -2.506   0.078   3.058  1.00  0.00     0.014 C 
HETATM    3  C6  UNL     1      -1.036   0.128   3.310  1.00  0.00     0.007 C 
HETATM    4  C7  UNL     1      -0.498   0.005   1.915  1.00  0.00     0.007 C 
HETATM    5  C8  UNL     1       0.956  -0.261   1.830  1.00  0.00    -0.001 C 
HETATM    6  C9  UNL     1       1.635   1.054   2.151  1.00  0.00     0.033 C 
HETATM    7  C10 UNL     1       3.008   1.057   1.653  1.00  0.00    -0.023 C 
HETATM    8  C11 UNL     1       3.517   0.295   0.718  1.00  0.00    -0.072 C 
HETATM    9  C12 UNL     1       4.945   0.452   0.348  1.00  0.00     0.068 C 
HETATM   10  C13 UNL     1       4.940   0.728  -1.148  1.00  0.00     0.149 C 
HETATM   11  C14 UNL     1       4.275  -0.403  -1.847  1.00  0.00     0.035 C 
HETATM   12  C15 UNL     1       2.795  -0.478  -1.483  1.00  0.00     0.016 C 
HETATM   13  C16 UNL     1       2.694  -0.715   0.031  1.00  0.00    -0.017 C 
HETATM   14  C17 UNL     1       3.391  -2.088   0.203  1.00  0.00     0.020 C 
HETATM   15  C18 UNL     1       1.303  -0.866   0.524  1.00  0.00     0.003 C 
HETATM   16  C19 UNL     1       0.301  -0.503  -0.560  1.00  0.00     0.007 C 
HETATM   17  C20 UNL     1      -1.123  -0.910  -0.199  1.00  0.00     0.019 C 
HETATM   18  C21 UNL     1      -1.334  -1.046   1.270  1.00  0.00     0.035 C 
ENDROOT
BRANCH   1  19
HETATM   19  C3  UNL     1      -3.410   0.323   0.780  1.00  0.00     0.160 C 
HETATM   20  O1  UNL     1      -3.225   1.559   1.018  1.00  0.00    -0.292 OA
BRANCH  19  21
HETATM   21  C2  UNL     1      -4.237  -0.022  -0.353  1.00  0.00    -0.017 C 
HETATM   22  C1  UNL     1      -4.541  -1.243  -0.724  1.00  0.00     0.023 C 
BRANCH  21  23
HETATM   23  C24 UNL     1      -4.849   1.074  -1.185  1.00  0.00     0.027 C 
HETATM   24  C25 UNL     1      -5.876   0.584  -2.143  1.00  0.00     0.015 C 
BRANCH  23  25
HETATM   25  C26 UNL     1      -3.825   1.908  -1.905  1.00  0.00     0.122 C 
BRANCH  25  26
HETATM   26  C27 UNL     1      -4.533   2.941  -2.692  1.00  0.00     0.173 C 
HETATM   27  O7  UNL     1      -4.864   2.713  -3.868  1.00  0.00    -0.648 OA
HETATM   28  O8  UNL     1      -4.817   4.149  -2.105  1.00  0.00    -0.648 OA
ENDBRANCH  25  26
ENDBRANCH  23  25
ENDBRANCH  21  23
ENDBRANCH  19  21
ENDBRANCH   1  19
BRANCH  18  29
HETATM   29  C22 UNL     1      -1.172  -2.406   1.817  1.00  0.00     0.133 C 
HETATM   30  C23 UNL     1      -1.932  -3.542   1.267  1.00  0.00     0.091 C 
HETATM   31  O6  UNL     1      -0.425  -2.641   2.729  1.00  0.00    -0.297 OA
ENDBRANCH  18  29
BRANCH  10  32
HETATM   32  O2  UNL     1       6.190   1.043  -1.626  1.00  0.00    -0.251 OA
BRANCH  32  33
HETATM   33  S1  UNL     1       6.398   2.550  -2.225  1.00  0.00     0.251 S 
HETATM   34  O3  UNL     1       5.089   3.286  -2.243  1.00  0.00    -0.572 OA
HETATM   35  O4  UNL     1       7.066   2.603  -3.564  1.00  0.00    -0.572 OA
HETATM   36  O5  UNL     1       7.411   3.410  -1.162  1.00  0.00    -0.572 OA
ENDBRANCH  32  33
ENDBRANCH  10  32
TORSDOF 8
