REMARK  7 active torsions:
REMARK  status: ('A' for Active; 'I' for Inactive)
REMARK    1  A    between atoms: C3_3  and  C4_4 
REMARK    2  A    between atoms: C5_5  and  C6_6 
REMARK    3  A    between atoms: C13_15  and  O3_16 
REMARK    4  A    between atoms: C16_21  and  C18_23 
REMARK    5  A    between atoms: C18_23  and  O4_24 
REMARK    6  A    between atoms: O4_24  and  C19_25 
REMARK    7  A    between atoms: N1_31  and  C24_32 
ROOT
HETATM    1  C6  UNL     1       3.264   0.313   0.665  1.00  0.00    -0.015 C 
HETATM    2  C7  UNL     1       2.557   0.740   1.735  1.00  0.00     0.033 C 
HETATM    3  C8  UNL     1       1.183   0.550   2.262  1.00  0.00     0.171 A 
HETATM    4  O1  UNL     1       1.339   0.314   3.608  1.00  0.00    -0.334 OA
HETATM    5  C9  UNL     1       0.928  -0.801   2.985  1.00  0.00     0.305 A 
HETATM    6  O2  UNL     1       1.158  -1.261   1.709  1.00  0.00    -0.335 OA
HETATM    7  C10 UNL     1       0.355  -0.152   1.347  1.00  0.00     0.167 A 
HETATM    8  C11 UNL     1      -1.044  -0.371   1.248  1.00  0.00    -0.014 A 
HETATM    9  C12 UNL     1      -1.018  -0.012  -0.019  1.00  0.00    -0.019 A 
HETATM   10  C13 UNL     1       0.394   0.258  -0.081  1.00  0.00     0.141 A 
HETATM   11  C14 UNL     1       1.361  -0.680  -0.690  1.00  0.00     0.043 C 
HETATM   12  C15 UNL     1       2.663  -0.600  -0.300  1.00  0.00     0.043 C 
HETATM   13 CL1  UNL     1       3.706  -1.777  -1.003  1.00  0.00    -0.084 Cl
HETATM   14  C16 UNL     1      -2.272  -0.009  -0.802  1.00  0.00     0.030 C 
HETATM   15  C17 UNL     1      -1.966  -0.043  -2.314  1.00  0.00     0.025 C 
HETATM   16  C21 UNL     1      -3.133  -1.163  -0.462  1.00  0.00     0.034 C 
HETATM   17  C22 UNL     1      -4.586  -0.947  -0.934  1.00  0.00     0.039 C 
HETATM   18  C23 UNL     1      -2.674  -2.375  -1.287  1.00  0.00     0.039 C 
HETATM   19  N1  UNL     1      -3.197  -1.486   0.901  1.00  0.00    -0.395 N 
HETATM   20  C27 UNL     1      -2.366  -0.756   1.793  1.00  0.00     0.156 C 
ENDROOT
BRANCH  14  21
HETATM   21  C18 UNL     1      -2.970   1.347  -0.627  1.00  0.00     0.195 C 
BRANCH  21  22
HETATM   22  O4  UNL     1      -2.095   2.386  -1.101  1.00  0.00    -0.321 OA
BRANCH  22  23
HETATM   23  C19 UNL     1      -2.511   3.700  -1.043  1.00  0.00     0.254 C 
HETATM   24  C20 UNL     1      -1.707   4.844  -1.497  1.00  0.00     0.126 C 
HETATM   25  O5  UNL     1      -3.673   3.917  -0.562  1.00  0.00    -0.266 OA
ENDBRANCH  22  23
ENDBRANCH  21  22
ENDBRANCH  14  21
BRANCH  10  26
HETATM   26  O3  UNL     1       0.789   1.573  -0.329  1.00  0.00    -0.377 OA
ATOM     27  H3  UNL     1       0.814   1.835  -1.242  1.00  0.00     0.211 HD
ENDBRANCH  10  26
BRANCH  19  28
HETATM   28  C24 UNL     1      -3.274  -2.897   1.197  1.00  0.00     0.080 A 
HETATM   29  C25 UNL     1      -3.617  -3.300   2.593  1.00  0.00     0.027 A 
HETATM   30  C26 UNL     1      -4.683  -3.418   1.533  1.00  0.00     0.027 A 
ENDBRANCH  19  28
BRANCH   1  31
HETATM   31  C5  UNL     1       4.621   0.767   0.548  1.00  0.00     0.013 C 
HETATM   32  C4  UNL     1       5.469   0.515  -0.407  1.00  0.00     0.001 C 
BRANCH  32  33
HETATM   33  C3  UNL     1       6.844   1.114  -0.286  1.00  0.00    -0.004 C 
HETATM   34  C2  UNL     1       7.718   0.877  -1.234  1.00  0.00    -0.031 C 
HETATM   35  C1  UNL     1       9.099   1.411  -1.225  1.00  0.00     0.036 C 
ENDBRANCH  32  33
ENDBRANCH   1  31
TORSDOF 7
