REMARK  7 active torsions:
REMARK  status: ('A' for Active; 'I' for Inactive)
REMARK    1  A    between atoms: C2_2  and  N1_3 
REMARK    2  A    between atoms: N1_3  and  C3_4 
REMARK    3  A    between atoms: N1_3  and  C8_11 
REMARK    4  A    between atoms: C3_4  and  C4_5 
REMARK       I    between atoms: C4_5  and  N2_7 
REMARK    5  A    between atoms: C8_11  and  N3_13 
REMARK    6  A    between atoms: N3_13  and  C9_15 
REMARK    7  A    between atoms: C9_15  and  C10_16 
ROOT
HETATM    1  N3  UNL     1      -0.239  -0.161  -0.274  1.00  0.00    -0.366 N 
ATOM      2  H3  UNL     1      -0.455  -0.964   0.317  1.00  0.00     0.161 HD
ENDROOT
BRANCH   1   3
HETATM    3  C8  UNL     1       1.102   0.141  -0.609  1.00  0.00     0.170 C 
HETATM    4  S1  UNL     1       1.421   1.459  -1.583  1.00  0.00    -0.041 SA
BRANCH   3   5
HETATM    5  N1  UNL     1       2.242  -0.582  -0.193  1.00  0.00    -0.350 N 
BRANCH   5   6
HETATM    6  C2  UNL     1       2.099  -1.742   0.646  1.00  0.00     0.121 C 
HETATM    7  C1  UNL     1       2.507  -2.948  -0.218  1.00  0.00     0.026 C 
ENDBRANCH   5   6
BRANCH   5   8
HETATM    8  C3  UNL     1       3.578  -0.193  -0.574  1.00  0.00     0.228 C 
BRANCH   8   9
HETATM    9  C4  UNL     1       4.392   0.348   0.519  1.00  0.00     0.237 C 
HETATM   10  O1  UNL     1       3.915   0.458   1.666  1.00  0.00    -0.272 OA
HETATM   11  N2  UNL     1       5.719   0.752   0.280  1.00  0.00    -0.351 N 
HETATM   12  C5  UNL     1       6.837   1.330   1.044  1.00  0.00     0.127 C 
HETATM   13  C7  UNL     1       6.624   0.776  -0.865  1.00  0.00     0.127 C 
HETATM   14  C6  UNL     1       7.209   2.047  -0.257  1.00  0.00     0.040 C 
ENDBRANCH   8   9
ENDBRANCH   5   8
ENDBRANCH   3   5
ENDBRANCH   1   3
BRANCH   1  15
HETATM   15  C9  UNL     1      -1.284   0.671  -0.772  1.00  0.00     0.131 C 
BRANCH  15  16
HETATM   16  C10 UNL     1      -2.657   0.279  -0.350  1.00  0.00    -0.023 C 
HETATM   17  C11 UNL     1      -2.744   0.320   1.181  1.00  0.00     0.015 C 
HETATM   18  C12 UNL     1      -4.173   0.144   1.630  1.00  0.00    -0.013 C 
HETATM   19  C13 UNL     1      -4.729  -1.174   1.117  1.00  0.00     0.009 C 
HETATM   20  C17 UNL     1      -5.062   1.242   1.063  1.00  0.00     0.009 C 
HETATM   21  C14 UNL     1      -4.557  -1.259  -0.378  1.00  0.00    -0.013 C 
HETATM   22  C15 UNL     1      -5.454  -0.168  -0.974  1.00  0.00     0.009 C 
HETATM   23  C19 UNL     1      -3.109  -1.073  -0.781  1.00  0.00     0.015 C 
HETATM   24  C16 UNL     1      -5.010   1.172  -0.441  1.00  0.00    -0.013 C 
HETATM   25  C18 UNL     1      -3.588   1.384  -0.873  1.00  0.00     0.015 C 
ENDBRANCH  15  16
ENDBRANCH   1  15
TORSDOF 7
