REMARK  5 active torsions:
REMARK  status: ('A' for Active; 'I' for Inactive)
REMARK    1  A    between atoms: N1_1  and  C1_4 
REMARK    2  A    between atoms: C5_19  and  N7_20 
REMARK    3  A    between atoms: N7_20  and  C6_22 
REMARK    4  A    between atoms: C6_22  and  C7_23 
REMARK    5  A    between atoms: C7_23  and  N8_24 
ROOT
HETATM    1  C1  UNL     1       0.336   1.016  -0.155  1.00  0.00     0.146 C 
HETATM    2  N2  UNL     1       1.485   1.673   0.193  1.00  0.00    -0.305 N 
ATOM      3  H2  UNL     1       1.383   2.672   0.373  1.00  0.00     0.171 HD
HETATM    4  C2  UNL     1       2.742   1.179   0.332  1.00  0.00     0.279 C 
HETATM    5  O1  UNL     1       3.652   1.931   0.758  1.00  0.00    -0.265 OA
HETATM    6  C3  UNL     1       3.160  -0.117   0.045  1.00  0.00     0.163 A 
HETATM    7  N3  UNL     1       4.446  -0.487  -0.050  1.00  0.00    -0.278 N 
ATOM      8  H3  UNL     1       5.262   0.113   0.072  1.00  0.00     0.189 HD
HETATM    9  N4  UNL     1       4.454  -1.763  -0.328  1.00  0.00    -0.240 N 
ATOM     10  H4  UNL     1       5.301  -2.317  -0.458  1.00  0.00     0.208 HD
HETATM   11  N5  UNL     1       3.225  -2.248  -0.420  1.00  0.00    -0.269 N 
ATOM     12  H5  UNL     1       2.978  -3.215  -0.628  1.00  0.00     0.190 HD
HETATM   13  C4  UNL     1       2.359  -1.243  -0.191  1.00  0.00     0.157 A 
HETATM   14  N6  UNL     1       1.019  -1.338  -0.196  1.00  0.00    -0.322 N 
ATOM     15  H6  UNL     1       0.630  -2.252  -0.428  1.00  0.00     0.169 HD
HETATM   16  C5  UNL     1       0.104  -0.327   0.081  1.00  0.00     0.151 C 
ENDROOT
BRANCH  16  17
HETATM   17  N7  UNL     1      -0.973  -0.688   0.594  1.00  0.00    -0.351 N 
ATOM     18  H7  UNL     1      -1.020  -1.700   0.710  1.00  0.00     0.166 HD
BRANCH  17  19
HETATM   19  C6  UNL     1      -2.122  -0.062   1.046  1.00  0.00     0.089 C 
BRANCH  19  20
HETATM   20  C7  UNL     1      -3.403  -0.499   0.341  1.00  0.00     0.274 C 
BRANCH  20  21
HETATM   21  N8  UNL     1      -4.495   0.238   0.920  1.00  0.00    -0.075 N 
ATOM     22  H83 UNL     1      -4.547   0.138   1.934  1.00  0.00     0.274 HD
ATOM     23  H82 UNL     1      -4.351   1.247   0.891  1.00  0.00     0.274 HD
ATOM     24  H81 UNL     1      -5.351  -0.054   0.449  1.00  0.00     0.274 HD
ENDBRANCH  20  21
ENDBRANCH  19  20
ENDBRANCH  17  19
ENDBRANCH  16  17
BRANCH   1  25
HETATM   25  N1  UNL     1      -0.542   1.720  -0.744  1.00  0.00    -0.382 N 
ATOM     26  H12 UNL     1      -0.371   2.710  -0.918  1.00  0.00     0.157 HD
ATOM     27  H11 UNL     1      -1.398   1.230  -1.003  1.00  0.00     0.157 HD
ENDBRANCH   1  25
TORSDOF 5
