REMARK  5 active torsions:
REMARK  status: ('A' for Active; 'I' for Inactive)
REMARK    1  A    between atoms: N1_2  and  C2_4 
REMARK    2  A    between atoms: N3_8  and  O1_9 
REMARK    3  A    between atoms: C4_13  and  N5_14 
REMARK    4  A    between atoms: N7_20  and  O2_21 
REMARK    5  A    between atoms: C6_23  and  N8_24 
ROOT
HETATM    1  C2  UNL     1       1.709   0.463  -0.068  1.00  0.00     0.149 A 
HETATM    2  N2  UNL     1       1.003  -0.669  -0.074  1.00  0.00    -0.319 N 
ATOM      3  H2  UNL     1       1.480  -1.568  -0.139  1.00  0.00     0.169 HD
HETATM    4  C3  UNL     1      -0.334  -0.622   0.005  1.00  0.00     0.201 A 
HETATM    5  N3  UNL     1      -1.072  -1.766  -0.000  1.00  0.00    -0.128 N 
HETATM    6  N4  UNL     1      -2.384  -1.659   0.080  1.00  0.00    -0.104 N 
ATOM      7  H4  UNL     1      -2.945  -2.511   0.077  1.00  0.00     0.208 HD
HETATM    8  C4  UNL     1      -3.015  -0.472   0.166  1.00  0.00     0.694 A 
HETATM    9  N6  UNL     1      -2.354   0.695   0.177  1.00  0.00    -0.169 N 
ATOM     10  H6  UNL     1      -2.850   1.584   0.243  1.00  0.00     0.186 HD
HETATM   11  C5  UNL     1      -1.003   0.649   0.097  1.00  0.00     0.198 A 
HETATM   12  N7  UNL     1      -0.259   1.770   0.101  1.00  0.00    -0.183 N 
HETATM   13  C6  UNL     1       1.076   1.693   0.020  1.00  0.00     0.173 A 
ENDROOT
BRANCH   1  14
HETATM   14  N1  UNL     1       2.994   0.424  -0.144  1.00  0.00    -0.378 N 
HETATM   15  C1  UNL     1       3.664  -0.855  -0.236  1.00  0.00     0.148 C 
ATOM     16  H1  UNL     1       3.535   1.288  -0.139  1.00  0.00     0.160 HD
ENDBRANCH   1  14
BRANCH  13  17
HETATM   17  N8  UNL     1       1.815   2.776   0.023  1.00  0.00    -0.381 N 
ATOM     18  H82 UNL     1       2.831   2.717  -0.039  1.00  0.00     0.157 HD
ATOM     19  H81 UNL     1       1.349   3.681   0.088  1.00  0.00     0.157 HD
ENDBRANCH  13  17
BRANCH  12  20
HETATM   20  O2  UNL     1      -0.875   2.983   0.187  1.00  0.00    -0.279 OA
ATOM     21  H2  UNL     1      -0.350   3.775   0.190  1.00  0.00     0.245 HD
ENDBRANCH  12  20
BRANCH   5  22
HETATM   22  O1  UNL     1      -0.422  -2.965  -0.088  1.00  0.00    -0.266 OA
ATOM     23  H1  UNL     1      -0.937  -3.763  -0.091  1.00  0.00     0.247 HD
ENDBRANCH   5  22
BRANCH   8  24
HETATM   24  N5  UNL     1      -4.304  -0.469   0.241  1.00  0.00    -0.233 N 
ATOM     25  H52 UNL     1      -4.807  -1.356   0.233  1.00  0.00     0.174 HD
ATOM     26  H51 UNL     1      -4.782   0.430   0.306  1.00  0.00     0.174 HD
ENDBRANCH   8  24
TORSDOF 5
