REMARK  4 active torsions:
REMARK  status: ('A' for Active; 'I' for Inactive)
REMARK    1  A    between atoms: O1_2  and  C2_3 
REMARK    2  A    between atoms: C2_3  and  C3_5 
REMARK    3  A    between atoms: C7_9  and  N1_10 
REMARK    4  A    between atoms: C13_16  and  O3_17 
ROOT
HETATM    1  C3  UNL     1      -1.971   0.080   0.633  1.00  0.00     0.120 C 
HETATM    2  C4  UNL     1      -1.654  -1.357   0.696  1.00  0.00    -0.000 C 
HETATM    3  C5  UNL     1      -2.376  -2.251  -0.277  1.00  0.00     0.011 C 
HETATM    4  C6  UNL     1      -0.124  -1.470   0.470  1.00  0.00     0.033 C 
HETATM    5  C7  UNL     1       0.327  -0.058   0.642  1.00  0.00     0.113 C 
HETATM    6  C13 UNL     1      -0.765   0.712  -0.084  1.00  0.00     0.154 C 
ENDROOT
BRANCH   5   7
HETATM    7  N1  UNL     1       1.629   0.272   0.189  1.00  0.00    -0.386 N 
HETATM    8  C8  UNL     1       2.368   1.140   1.053  1.00  0.00     0.122 C 
HETATM    9  C9  UNL     1       3.557   1.710   0.304  1.00  0.00     0.020 C 
HETATM   10  C10 UNL     1       4.495   0.594  -0.059  1.00  0.00     0.007 C 
HETATM   11  C11 UNL     1       3.848  -0.747  -0.127  1.00  0.00     0.044 C 
HETATM   12  C12 UNL     1       2.378  -0.725  -0.460  1.00  0.00     0.058 C 
ENDBRANCH   5   7
BRANCH   6  13
HETATM   13  O3  UNL     1      -0.865   0.341  -1.390  1.00  0.00    -0.393 OA
ATOM     14  H3  UNL     1      -0.120   0.731  -1.833  1.00  0.00     0.210 HD
ENDBRANCH   6  13
BRANCH   1  15
HETATM   15  C2  UNL     1      -3.218   0.517   0.030  1.00  0.00     0.265 C 
HETATM   16  O2  UNL     1      -3.463   0.396  -1.188  1.00  0.00    -0.265 OA
BRANCH  15  17
HETATM   17  O1  UNL     1      -4.241   1.112   0.777  1.00  0.00    -0.326 OA
HETATM   18  C1  UNL     1      -5.445   1.549   0.125  1.00  0.00     0.213 C 
ENDBRANCH  15  17
ENDBRANCH   1  15
TORSDOF 4
