REMARK  2 active torsions:
REMARK  status: ('A' for Active; 'I' for Inactive)
REMARK    1  A    between atoms: C7_16  and  O2_17 
REMARK    2  A    between atoms: O2_17  and  C8_18 
ROOT
HETATM    1  C1  UNL     1      -3.676   1.105   0.052  1.00  0.00     0.046 C 
HETATM    2  C2  UNL     1      -2.824   0.098  -0.071  1.00  0.00     0.060 A 
HETATM    3  N1  UNL     1      -3.148  -1.213  -0.285  1.00  0.00    -0.278 N 
ATOM      4  H1  UNL     1      -4.095  -1.581  -0.378  1.00  0.00     0.189 HD
HETATM    5  N2  UNL     1      -2.042  -1.923  -0.352  1.00  0.00    -0.185 N 
HETATM    6  N3  UNL     1      -1.946  -3.166  -0.540  1.00  0.00    -0.322 N 
ATOM      7  H31 UNL     1      -1.089  -3.716  -0.592  1.00  0.00     0.179 HD
ATOM      8  H32 UNL     1      -2.759  -3.770  -0.664  1.00  0.00     0.179 HD
HETATM    9  C3  UNL     1      -0.959  -1.118  -0.187  1.00  0.00     0.164 A 
HETATM   10  C4  UNL     1      -1.444   0.159  -0.008  1.00  0.00     0.107 A 
HETATM   11  C5  UNL     1      -0.532   1.277   0.198  1.00  0.00     0.263 A 
HETATM   12  O1  UNL     1      -1.001   2.426   0.358  1.00  0.00    -0.267 OA
HETATM   13  N4  UNL     1       0.862   1.013   0.211  1.00  0.00    -0.307 N 
ATOM     14  H4  UNL     1       1.522   1.777   0.354  1.00  0.00     0.170 HD
HETATM   15  C6  UNL     1       1.346  -0.322   0.024  1.00  0.00     0.132 A 
HETATM   16  C7  UNL     1       2.645  -0.570   0.035  1.00  0.00     0.193 C 
HETATM   17  N5  UNL     1       0.435  -1.380  -0.174  1.00  0.00    -0.323 N 
ATOM     18  H5  UNL     1       0.778  -2.331  -0.308  1.00  0.00     0.169 HD
ENDROOT
BRANCH  16  19
HETATM   19  O2  UNL     1       3.523   0.485   0.231  1.00  0.00    -0.294 OA
BRANCH  19  20
HETATM   20  C8  UNL     1       4.896   0.292   0.253  1.00  0.00     0.403 C 
HETATM   21  O3  UNL     1       5.313  -0.884   0.088  1.00  0.00    -0.276 OA
ENDBRANCH  19  20
ENDBRANCH  16  19
TORSDOF 2
