REMARK  8 active torsions:
REMARK  status: ('A' for Active; 'I' for Inactive)
REMARK    1  A    between atoms: O1_2  and  C2_3 
REMARK    2  A    between atoms: C4_5  and  N1_6 
REMARK    3  A    between atoms: N1_6  and  C5_8 
REMARK    4  A    between atoms: C15_25  and  N4_26 
REMARK    5  A    between atoms: N4_26  and  C16_28 
REMARK    6  A    between atoms: C16_28  and  C17_29 
REMARK    7  A    between atoms: C17_29  and  O2_30 
REMARK    8  A    between atoms: C19_33  and  O3_34 
ROOT
HETATM    1  C5  UNL     1      -1.033   0.187  -0.984  1.00  0.00     0.124 A 
HETATM    2  N2  UNL     1      -0.041   0.641  -1.815  1.00  0.00    -0.350 N 
ATOM      3  H2  UNL     1      -0.288   1.266  -2.583  1.00  0.00     0.166 HD
HETATM    4  C6  UNL     1       1.239   0.292  -1.652  1.00  0.00     0.102 A 
HETATM    5  C7  UNL     1       1.609  -0.544  -0.634  1.00  0.00     0.003 A 
HETATM    6  C8  UNL     1       2.910  -0.904  -0.465  1.00  0.00     0.008 A 
HETATM    7  C9  UNL     1       3.295  -1.749   0.555  1.00  0.00     0.041 A 
HETATM    8  C10 UNL     1       2.315  -2.228   1.418  1.00  0.00     0.054 A 
HETATM    9  C11 UNL     1       0.993  -1.865   1.252  1.00  0.00     0.044 A 
HETATM   10 CL1  UNL     1      -0.261  -2.471   2.346  1.00  0.00    -0.106 Cl
HETATM   11  C12 UNL     1       0.642  -1.020   0.221  1.00  0.00     0.019 A 
HETATM   12  C13 UNL     1      -0.700  -0.650   0.045  1.00  0.00     0.071 A 
HETATM   13 BR1  UNL     1      -1.999  -1.348   1.278  1.00  0.00    -0.022 Br
HETATM   14  N3  UNL     1       4.721  -1.969   0.476  1.00  0.00    -0.357 N 
ATOM     15  H3  UNL     1       5.374  -2.197   1.226  1.00  0.00     0.162 HD
HETATM   16  C14 UNL     1       4.996  -1.782  -0.960  1.00  0.00     0.296 C 
HETATM   17  F1  UNL     1       6.302  -1.747  -1.273  1.00  0.00    -0.224 F 
HETATM   18  C15 UNL     1       4.188  -0.542  -1.205  1.00  0.00     0.167 C 
ENDROOT
BRANCH   1  19
HETATM   19  N1  UNL     1      -2.184   0.562  -1.219  1.00  0.00    -0.341 N 
ATOM     20  H1  UNL     1      -2.207   1.177  -2.033  1.00  0.00     0.167 HD
BRANCH  19  21
HETATM   21  C4  UNL     1      -3.442   0.390  -0.701  1.00  0.00     0.038 A 
HETATM   22  C3  UNL     1      -3.994   1.223   0.274  1.00  0.00     0.066 A 
HETATM   23  C2  UNL     1      -5.264   1.054   0.780  1.00  0.00     0.073 A 
HETATM   24  C21 UNL     1      -6.057   0.017   0.320  1.00  0.00     0.073 A 
HETATM   25  C19 UNL     1      -5.530  -0.814  -0.640  1.00  0.00     0.073 A 
HETATM   26  C18 UNL     1      -4.254  -0.657  -1.158  1.00  0.00     0.066 A 
BRANCH  23  27
HETATM   27  O1  UNL     1      -5.813   1.885   1.751  1.00  0.00    -0.356 OA
HETATM   28  C1  UNL     1      -5.032   2.956   2.245  1.00  0.00     0.210 C 
ENDBRANCH  23  27
BRANCH  25  29
HETATM   29  O3  UNL     1      -6.293  -1.870  -1.130  1.00  0.00    -0.356 OA
HETATM   30  C20 UNL     1      -7.592  -2.101  -0.661  1.00  0.00     0.210 C 
ENDBRANCH  25  29
ENDBRANCH  19  21
ENDBRANCH   1  19
BRANCH  18  31
HETATM   31  N4  UNL     1       4.691   0.599  -0.563  1.00  0.00    -0.407 N 
ATOM     32  H4  UNL     1       4.126   1.057   0.152  1.00  0.00     0.154 HD
BRANCH  31  33
HETATM   33  C16 UNL     1       5.955   1.127  -0.881  1.00  0.00     0.140 C 
BRANCH  33  34
HETATM   34  C17 UNL     1       6.144   2.432  -0.085  1.00  0.00     0.183 C 
BRANCH  34  35
HETATM   35  O2  UNL     1       7.388   2.991  -0.369  1.00  0.00    -0.399 OA
ATOM     36  H2  UNL     1       7.505   3.796   0.122  1.00  0.00     0.209 HD
ENDBRANCH  34  35
ENDBRANCH  33  34
ENDBRANCH  31  33
ENDBRANCH  18  31
TORSDOF 8
