REMARK  8 active torsions:
REMARK  status: ('A' for Active; 'I' for Inactive)
REMARK    1  A    between atoms: N4_24  and  C17_25 
REMARK    2  A    between atoms: C17_25  and  C18_26 
REMARK    3  A    between atoms: C18_26  and  C19_27 
REMARK    4  A    between atoms: C19_27  and  C20_28 
REMARK    5  A    between atoms: C20_28  and  C21_29 
REMARK    6  A    between atoms: N5_30  and  C22_32 
REMARK    7  A    between atoms: C24_34  and  O2_35 
REMARK    8  A    between atoms: C27_39  and  O3_40 
ROOT
HETATM    1  N1  UNL     1      10.162   1.419  -0.704  1.00  0.00    -0.191 NA
HETATM    2  C1  UNL     1       9.126   0.933  -0.921  1.00  0.00     0.099 C 
HETATM    3  C2  UNL     1       7.839   0.340  -1.213  1.00  0.00     0.045 A 
HETATM    4  C3  UNL     1       7.728  -0.769  -2.020  1.00  0.00     0.025 A 
HETATM    5  C4  UNL     1       6.480  -1.296  -2.267  1.00  0.00     0.032 A 
HETATM    6  C5  UNL     1       5.341  -0.744  -1.729  1.00  0.00     0.043 A 
HETATM    7  N2  UNL     1       4.022  -1.055  -1.809  1.00  0.00    -0.357 N 
ATOM      8  H2  UNL     1       3.638  -1.836  -2.342  1.00  0.00     0.166 HD
HETATM    9  C6  UNL     1       3.294  -0.187  -1.086  1.00  0.00     0.044 A 
HETATM   10  C7  UNL     1       4.228   0.702  -0.536  1.00  0.00     0.069 A 
HETATM   11  C8  UNL     1       5.501   0.386  -0.913  1.00  0.00     0.010 A 
HETATM   12  C9  UNL     1       6.707   0.936  -0.642  1.00  0.00     0.037 A 
HETATM   13  C10 UNL     1       4.071   1.882   0.332  1.00  0.00     0.259 C 
HETATM   14  O1  UNL     1       4.920   2.776   0.146  1.00  0.00    -0.267 OA
HETATM   15  N3  UNL     1       3.089   2.132   1.342  1.00  0.00    -0.321 N 
ATOM     16  H3  UNL     1       3.123   3.085   1.703  1.00  0.00     0.169 HD
HETATM   17  C11 UNL     1       2.064   1.334   1.960  1.00  0.00     0.064 A 
HETATM   18  C12 UNL     1       1.879   1.866   3.211  1.00  0.00     0.074 A 
HETATM   19  C13 UNL     1       0.961   1.267   4.059  1.00  0.00     0.118 A 
HETATM   20  F1  UNL     1       0.767   1.776   5.289  1.00  0.00    -0.206 F 
HETATM   21  C14 UNL     1       0.259   0.160   3.633  1.00  0.00     0.044 A 
HETATM   22  C15 UNL     1       0.456  -0.374   2.353  1.00  0.00     0.035 A 
HETATM   23  C16 UNL     1       1.363   0.210   1.499  1.00  0.00     0.057 A 
HETATM   24  N4  UNL     1       1.281  -0.576   0.315  1.00  0.00    -0.373 N 
HETATM   25  C28 UNL     1       1.849  -0.272  -1.006  1.00  0.00     0.181 C 
ENDROOT
BRANCH  24  26
HETATM   26  C17 UNL     1       0.582  -1.823   0.371  1.00  0.00     0.123 C 
BRANCH  26  27
HETATM   27  C18 UNL     1      -0.635  -1.979  -0.447  1.00  0.00     0.020 C 
BRANCH  27  28
HETATM   28  C19 UNL     1      -1.786  -1.072  -0.279  1.00  0.00     0.007 C 
BRANCH  28  29
HETATM   29  C20 UNL     1      -2.940  -1.405  -1.223  1.00  0.00     0.044 C 
BRANCH  29  30
HETATM   30  C21 UNL     1      -4.073  -0.483  -1.030  1.00  0.00     0.061 C 
HETATM   31  N5  UNL     1      -5.115  -0.890  -0.423  1.00  0.00    -0.367 N 
ATOM     32  H5  UNL     1      -5.092  -1.858  -0.102  1.00  0.00     0.165 HD
BRANCH  31  33
HETATM   33  C22 UNL     1      -6.281  -0.187  -0.140  1.00  0.00     0.068 A 
HETATM   34  C23 UNL     1      -7.498  -0.805  -0.280  1.00  0.00     0.068 A 
HETATM   35  C24 UNL     1      -8.660  -0.121  -0.002  1.00  0.00     0.068 A 
HETATM   36  C25 UNL     1      -8.628   1.191   0.419  1.00  0.00     0.039 A 
HETATM   37  C26 UNL     1      -7.411   1.816   0.561  1.00  0.00     0.041 A 
HETATM   38  C27 UNL     1      -6.235   1.116   0.278  1.00  0.00     0.092 A 
BRANCH  35  39
HETATM   39  O2  UNL     1      -9.867  -0.792  -0.160  1.00  0.00    -0.361 OA
ATOM     40  H2  UNL     1     -10.669  -0.320   0.032  1.00  0.00     0.217 HD
ENDBRANCH  35  39
BRANCH  38  41
HETATM   41  O3  UNL     1      -5.032   1.811   0.443  1.00  0.00    -0.358 OA
ATOM     42  H3  UNL     1      -5.000   2.715   0.733  1.00  0.00     0.217 HD
ENDBRANCH  38  41
ENDBRANCH  31  33
ENDBRANCH  29  30
ENDBRANCH  28  29
ENDBRANCH  27  28
ENDBRANCH  26  27
ENDBRANCH  24  26
TORSDOF 8
