REMARK  7 active torsions:
REMARK  status: ('A' for Active; 'I' for Inactive)
REMARK    1  A    between atoms: O1_2  and  C2_3 
REMARK    2  A    between atoms: C5_8  and  C6_9 
REMARK    3  A    between atoms: C8_11  and  C9_12 
REMARK    4  A    between atoms: C13_16  and  S1_17 
REMARK    5  A    between atoms: N5_29  and  C18_30 
REMARK    6  A    between atoms: C18_30  and  C19_31 
REMARK    7  A    between atoms: C19_31  and  C20_32 
ROOT
HETATM    1  C6  UNL     1      -0.767   1.663   1.004  1.00  0.00     0.065 A 
HETATM    2  C7  UNL     1       0.392   1.479   0.325  1.00  0.00     0.064 A 
HETATM    3  C8  UNL     1       0.635   0.111   0.130  1.00  0.00     0.063 A 
HETATM    4  N5  UNL     1      -0.395  -0.494   0.702  1.00  0.00    -0.291 N 
HETATM    5  N7  UNL     1      -1.234   0.429   1.225  1.00  0.00    -0.297 N 
ATOM      6  H7  UNL     1      -2.101   0.214   1.718  1.00  0.00     0.187 HD
ENDROOT
BRANCH   3   7
HETATM    7  C9  UNL     1       1.851  -0.413  -0.525  1.00  0.00    -0.007 A 
HETATM    8  C10 UNL     1       2.026  -1.700  -0.924  1.00  0.00     0.014 A 
HETATM    9  C11 UNL     1       3.263  -2.107  -1.480  1.00  0.00     0.016 A 
HETATM   10  C12 UNL     1       4.278  -1.198  -1.613  1.00  0.00     0.013 A 
HETATM   11  C13 UNL     1       5.467  -1.600  -2.148  1.00  0.00     0.095 A 
HETATM   12  C16 UNL     1       4.106   0.112  -1.210  1.00  0.00     0.023 A 
HETATM   13  N2  UNL     1       6.484  -0.726  -2.289  1.00  0.00    -0.292 N 
HETATM   14  N3  UNL     1       6.335   0.523  -1.910  1.00  0.00    -0.284 N 
ATOM     15  H2  UNL     1       7.370  -1.035  -2.690  1.00  0.00     0.187 HD
HETATM   16  C15 UNL     1       5.166   0.991  -1.365  1.00  0.00     0.124 A 
ATOM     17  H3  UNL     1       7.117   1.168  -2.025  1.00  0.00     0.188 HD
HETATM   18  N4  UNL     1       5.076   2.211  -1.014  1.00  0.00    -0.384 N 
ATOM     19  H42 UNL     1       5.856   2.858  -1.128  1.00  0.00     0.157 HD
ATOM     20  H41 UNL     1       4.207   2.559  -0.609  1.00  0.00     0.157 HD
HETATM   21  C17 UNL     1       2.902   0.497  -0.671  1.00  0.00     0.030 A 
BRANCH  11  22
HETATM   22  S1  UNL     1       5.677  -3.279  -2.662  1.00  0.00    -0.115 SA
HETATM   23  C14 UNL     1       6.314  -4.312  -1.287  1.00  0.00     0.097 C 
ENDBRANCH  11  22
ENDBRANCH   3   7
BRANCH   4  24
HETATM   24  C18 UNL     1      -0.692  -1.893   0.823  1.00  0.00     0.154 C 
BRANCH  24  25
HETATM   25  C19 UNL     1      -1.582  -2.431  -0.282  1.00  0.00     0.062 C 
BRANCH  25  26
HETATM   26  C20 UNL     1      -2.903  -1.742  -0.313  1.00  0.00    -0.029 A 
HETATM   27  C21 UNL     1      -3.312  -0.773  -1.223  1.00  0.00     0.096 A 
HETATM   28  N6  UNL     1      -4.560  -0.410  -0.913  1.00  0.00    -0.365 N 
HETATM   29  C22 UNL     1      -4.987  -1.108   0.172  1.00  0.00     0.043 A 
ATOM     30  H6  UNL     1      -5.110   0.287  -1.416  1.00  0.00     0.165 HD
HETATM   31  C23 UNL     1      -6.169  -1.120   0.889  1.00  0.00     0.033 A 
HETATM   32  C27 UNL     1      -3.955  -1.933   0.540  1.00  0.00     0.001 A 
HETATM   33  C24 UNL     1      -6.360  -1.935   1.971  1.00  0.00     0.044 A 
HETATM   34  C25 UNL     1      -5.302  -2.759   2.323  1.00  0.00     0.117 A 
HETATM   35  F1  UNL     1      -5.504  -3.570   3.407  1.00  0.00    -0.206 F 
HETATM   36  C26 UNL     1      -4.118  -2.763   1.624  1.00  0.00     0.056 A 
ENDBRANCH  25  26
ENDBRANCH  24  25
ENDBRANCH   4  24
BRANCH   1  37
HETATM   37  C5  UNL     1      -1.415   2.916   1.439  1.00  0.00     0.044 A 
HETATM   38  C2  UNL     1      -0.987   4.186   1.214  1.00  0.00     0.154 A 
HETATM   39  N1  UNL     1      -1.860   5.079   1.784  1.00  0.00    -0.346 N 
HETATM   40  C3  UNL     1      -2.838   4.368   2.367  1.00  0.00     0.091 A 
ATOM     41  H1  UNL     1      -1.780   6.096   1.768  1.00  0.00     0.167 HD
HETATM   42  C4  UNL     1      -2.583   3.006   2.166  1.00  0.00     0.035 A 
BRANCH  38  43
HETATM   43  O1  UNL     1       0.131   4.659   0.534  1.00  0.00    -0.340 OA
HETATM   44  C1  UNL     1       0.063   5.078  -0.836  1.00  0.00     0.211 C 
ENDBRANCH  38  43
ENDBRANCH   1  37
TORSDOF 7
