REMARK  5 active torsions:
REMARK  status: ('A' for Active; 'I' for Inactive)
REMARK    1  A    between atoms: C2_2  and  C3_3 
REMARK    2  A    between atoms: C4_6  and  N2_7 
REMARK    3  A    between atoms: N2_7  and  C5_9 
REMARK    4  A    between atoms: C16_31  and  O2_32 
REMARK    5  A    between atoms: O2_32  and  C17_33 
ROOT
HETATM    1  N2  UNL     1       0.268  -0.837  -0.671  1.00  0.00    -0.022 N 
ATOM      2  H2  UNL     1       0.116  -1.625  -1.300  1.00  0.00     0.203 HD
ENDROOT
BRANCH   1   3
HETATM    3  C4  UNL     1      -0.837  -0.133  -0.149  1.00  0.00     0.699 A 
HETATM    4  N1  UNL     1      -0.993   1.090   0.272  1.00  0.00    -0.191 N 
HETATM    5  C3  UNL     1      -2.273   1.307   0.749  1.00  0.00     0.078 A 
ATOM      6  H1  UNL     1      -0.261   1.800   0.252  1.00  0.00     0.184 HD
HETATM    7  C16 UNL     1      -2.951   0.119   0.601  1.00  0.00     0.186 A 
HETATM    8  N7  UNL     1      -2.040  -0.740   0.047  1.00  0.00    -0.167 N 
ATOM      9  H7  UNL     1      -2.238  -1.712  -0.189  1.00  0.00     0.186 HD
BRANCH   5  10
HETATM   10  C2  UNL     1      -2.639   2.588   1.345  1.00  0.00     0.057 C 
HETATM   11  C1  UNL     1      -2.617   2.462   2.873  1.00  0.00     0.011 C 
ENDBRANCH   5  10
BRANCH   7  12
HETATM   12  O2  UNL     1      -4.274  -0.136   0.955  1.00  0.00    -0.290 OA
BRANCH  12  13
HETATM   13  C17 UNL     1      -5.418  -0.079   0.180  1.00  0.00     0.089 A 
HETATM   14  C18 UNL     1      -6.320   0.981   0.303  1.00  0.00    -0.026 A 
HETATM   15  C19 UNL     1      -6.216   2.001   1.368  1.00  0.00     0.051 C 
HETATM   16  C20 UNL     1      -7.435   0.984  -0.543  1.00  0.00     0.033 A 
HETATM   17  C21 UNL     1      -7.707   0.017  -1.478  1.00  0.00     0.035 A 
HETATM   18 CL1  UNL     1      -9.116   0.071  -2.518  1.00  0.00    -0.084 Cl
HETATM   19  C22 UNL     1      -6.792  -1.014  -1.558  1.00  0.00     0.033 A 
HETATM   20  C23 UNL     1      -5.652  -1.071  -0.736  1.00  0.00    -0.026 A 
HETATM   21  C24 UNL     1      -4.820  -2.288  -0.798  1.00  0.00     0.051 C 
ENDBRANCH  12  13
ENDBRANCH   7  12
ENDBRANCH   1   3
BRANCH   1  22
HETATM   22  C5  UNL     1       1.466  -0.491  -0.358  1.00  0.00     0.697 A 
HETATM   23  N3  UNL     1       2.507  -1.141  -0.825  1.00  0.00    -0.188 N 
HETATM   24  C6  UNL     1       3.837  -0.819  -0.594  1.00  0.00     0.087 A 
ATOM     25  H3  UNL     1       2.321  -1.956  -1.410  1.00  0.00     0.184 HD
HETATM   26  C7  UNL     1       4.806  -1.556  -1.342  1.00  0.00     0.066 A 
HETATM   27  C11 UNL     1       4.085   0.248   0.180  1.00  0.00     0.011 A 
HETATM   28  C8  UNL     1       6.159  -1.378  -1.428  1.00  0.00     0.049 A 
HETATM   29  N5  UNL     1       4.360  -2.492  -2.182  1.00  0.00    -0.306 N 
HETATM   30  C9  UNL     1       6.970  -2.131  -2.316  1.00  0.00     0.095 A 
HETATM   31  N4  UNL     1       6.401  -3.060  -3.120  1.00  0.00    -0.319 N 
HETATM   32  C10 UNL     1       5.049  -3.225  -3.031  1.00  0.00     0.324 A 
ATOM     33  H4  UNL     1       6.961  -3.615  -3.767  1.00  0.00     0.170 HD
HETATM   34  O1  UNL     1       4.535  -4.071  -3.776  1.00  0.00    -0.247 OA
ATOM     35  H5  UNL     1       3.354  -2.662  -2.164  1.00  0.00     0.170 HD
HETATM   36  C12 UNL     1       5.352   0.635   0.752  1.00  0.00    -0.074 C 
HETATM   37  C15 UNL     1       2.971   0.948   0.680  1.00  0.00     0.120 A 
HETATM   38  C13 UNL     1       5.944   1.955   0.283  1.00  0.00     0.044 C 
HETATM   39  C14 UNL     1       6.232  -0.168   1.628  1.00  0.00     0.044 C 
HETATM   40  N6  UNL     1       1.690   0.579   0.412  1.00  0.00    -0.200 N 
ATOM     41  H6  UNL     1       0.909   1.112   0.794  1.00  0.00     0.183 HD
ENDBRANCH   1  22
TORSDOF 5
