REMARK  9 active torsions:
REMARK  status: ('A' for Active; 'I' for Inactive)
REMARK    1  A    between atoms: C2_2  and  C4_4 
REMARK    2  A    between atoms: C5_5  and  O1_6 
REMARK    3  A    between atoms: N1_8  and  C6_9 
REMARK    4  A    between atoms: C12_17  and  N3_18 
REMARK    5  A    between atoms: N3_18  and  C13_20 
REMARK    6  A    between atoms: C16_23  and  O2_24 
REMARK    7  A    between atoms: O2_24  and  C17_25 
REMARK    8  A    between atoms: C17_25  and  C18_26 
REMARK    9  A    between atoms: C18_26  and  N4_27 
ROOT
HETATM    1  C4  UNL     1      -5.484   0.636   1.337  1.00  0.00     0.025 A 
HETATM    2  C5  UNL     1      -6.469   0.392   0.369  1.00  0.00     0.152 A 
HETATM    3  N1  UNL     1      -5.820  -0.087  -0.690  1.00  0.00    -0.319 N 
HETATM    4  C9  UNL     1      -4.489  -0.174  -0.487  1.00  0.00     0.093 A 
HETATM    5  C10 UNL     1      -4.260   0.286   0.807  1.00  0.00     0.073 A 
HETATM    6  N2  UNL     1      -2.925   0.195   1.004  1.00  0.00    -0.350 N 
ATOM      7  H2  UNL     1      -2.445   0.460   1.864  1.00  0.00     0.166 HD
HETATM    8  C11 UNL     1      -2.319  -0.293  -0.090  1.00  0.00     0.089 A 
HETATM    9  C12 UNL     1      -0.994  -0.579  -0.415  1.00  0.00     0.063 A 
HETATM   10  C25 UNL     1      -0.643  -1.085  -1.645  1.00  0.00     0.049 A 
HETATM   11  C26 UNL     1      -1.649  -1.307  -2.562  1.00  0.00     0.091 A 
HETATM   12  N5  UNL     1      -2.937  -1.028  -2.245  1.00  0.00    -0.362 N 
ATOM     13  H5  UNL     1      -3.666  -1.199  -2.938  1.00  0.00     0.165 HD
HETATM   14  C27 UNL     1      -3.281  -0.534  -1.047  1.00  0.00     0.091 A 
ENDROOT
BRANCH   9  15
HETATM   15  N3  UNL     1      -0.074  -0.362   0.464  1.00  0.00    -0.354 N 
ATOM     16  H3  UNL     1      -0.326   0.012   1.379  1.00  0.00     0.166 HD
BRANCH  15  17
HETATM   17  C13 UNL     1       1.298  -0.643   0.164  1.00  0.00     0.035 A 
HETATM   18  C14 UNL     1       2.111   0.280  -0.453  1.00  0.00     0.032 A 
HETATM   19  C15 UNL     1       3.447  -0.019  -0.737  1.00  0.00     0.042 A 
HETATM   20  C16 UNL     1       4.006  -1.230  -0.419  1.00  0.00     0.107 A 
HETATM   21  C23 UNL     1       3.172  -2.157   0.205  1.00  0.00     0.151 A 
HETATM   22  F1  UNL     1       3.693  -3.373   0.536  1.00  0.00    -0.203 F 
HETATM   23  C24 UNL     1       1.868  -1.845   0.475  1.00  0.00     0.074 A 
BRANCH  20  24
HETATM   24  O2  UNL     1       5.284  -1.577  -0.670  1.00  0.00    -0.346 OA
BRANCH  24  25
HETATM   25  C17 UNL     1       6.311  -0.866  -1.240  1.00  0.00     0.206 C 
BRANCH  25  26
HETATM   26  C18 UNL     1       6.783   0.332  -0.473  1.00  0.00     0.299 C 
BRANCH  26  27
HETATM   27  N4  UNL     1       7.237  -0.061   0.827  1.00  0.00     0.094 N 
HETATM   28  C19 UNL     1       8.441  -0.815   0.772  1.00  0.00     0.298 C 
HETATM   29  C20 UNL     1       9.645   0.043   0.414  1.00  0.00     0.198 C 
HETATM   30  O3  UNL     1       9.734   1.167   1.199  1.00  0.00    -0.388 OA
HETATM   31  C21 UNL     1       8.608   1.942   1.078  1.00  0.00     0.198 C 
HETATM   32  C22 UNL     1       7.416   1.165   1.612  1.00  0.00     0.298 C 
ENDBRANCH  26  27
ENDBRANCH  25  26
ENDBRANCH  24  25
ENDBRANCH  20  24
ENDBRANCH  15  17
ENDBRANCH   9  15
BRANCH   1  33
HETATM   33  C2  UNL     1      -5.764   1.175   2.687  1.00  0.00     0.017 C 
HETATM   34  C1  UNL     1      -4.466   1.402   3.407  1.00  0.00     0.015 C 
HETATM   35  C3  UNL     1      -6.594   2.444   2.620  1.00  0.00     0.015 C 
ENDBRANCH   1  33
BRANCH   3  36
HETATM   36  C6  UNL     1      -6.425  -0.487  -1.950  1.00  0.00     0.084 C 
HETATM   37  C7  UNL     1      -7.798   0.113  -2.138  1.00  0.00     0.032 C 
HETATM   38  C8  UNL     1      -6.562  -1.985  -2.005  1.00  0.00     0.032 C 
ENDBRANCH   3  36
BRANCH   2  39
HETATM   39  O1  UNL     1      -7.833   0.608   0.499  1.00  0.00    -0.345 OA
ATOM     40  H1  UNL     1      -8.500   0.443  -0.157  1.00  0.00     0.219 HD
ENDBRANCH   2  39
TORSDOF 9
