REMARK  7 active torsions:
REMARK  status: ('A' for Active; 'I' for Inactive)
REMARK    1  A    between atoms: C4_5  and  C5_6 
REMARK    2  A    between atoms: C5_6  and  N1_7 
REMARK    3  A    between atoms: N2_10  and  C8_11 
REMARK    4  A    between atoms: C16_21  and  O2_22 
REMARK    5  A    between atoms: O2_22  and  C17_23 
REMARK    6  A    between atoms: C17_23  and  O3_24 
REMARK    7  A    between atoms: C17_23  and  C18_26 
ROOT
HETATM    1  C1  UNL     1      -2.006  -0.993  -2.273  1.00  0.00     0.015 C 
HETATM    2  C2  UNL     1      -2.084   0.358  -1.592  1.00  0.00     0.035 C 
HETATM    3  C3  UNL     1      -0.798   1.155  -1.764  1.00  0.00     0.175 C 
HETATM    4  O1  UNL     1      -0.193   1.420  -0.557  1.00  0.00    -0.384 OA
HETATM    5  C4  UNL     1       0.152   0.293   0.176  1.00  0.00     0.152 C 
HETATM    6  C15 UNL     1      -1.016  -0.662   0.322  1.00  0.00     0.066 C 
HETATM    7  C16 UNL     1      -2.267   0.120  -0.126  1.00  0.00     0.133 C 
ENDROOT
BRANCH   5   8
HETATM    8  C5  UNL     1       1.324  -0.340  -0.509  1.00  0.00     0.304 C 
BRANCH   8   9
HETATM    9  N1  UNL     1       1.835  -1.527   0.125  1.00  0.00     0.094 N 
HETATM   10  C6  UNL     1       2.891  -2.035  -0.767  1.00  0.00     0.292 C 
HETATM   11  C7  UNL     1       3.966  -1.035  -1.029  1.00  0.00     0.154 C 
HETATM   12  N2  UNL     1       4.537  -0.675   0.278  1.00  0.00    -0.364 N 
HETATM   13  C13 UNL     1       3.950  -1.326   1.400  1.00  0.00     0.154 C 
HETATM   14  C14 UNL     1       2.441  -1.248   1.410  1.00  0.00     0.292 C 
BRANCH  12  15
HETATM   15  C8  UNL     1       5.593   0.262   0.306  1.00  0.00     0.102 A 
HETATM   16  C9  UNL     1       6.247   0.645   1.448  1.00  0.00     0.048 A 
HETATM   17  C10 UNL     1       7.285   1.570   1.449  1.00  0.00     0.005 A 
HETATM   18  C11 UNL     1       7.690   2.139   0.264  1.00  0.00     0.017 A 
HETATM   19  C12 UNL     1       7.022   1.743  -0.879  1.00  0.00     0.089 A 
HETATM   20  N3  UNL     1       6.028   0.849  -0.842  1.00  0.00    -0.352 N 
ATOM     21  H3  UNL     1       5.573   0.594  -1.719  1.00  0.00     0.166 HD
ENDBRANCH  12  15
ENDBRANCH   8   9
ENDBRANCH   5   8
BRANCH   7  22
HETATM   22  O2  UNL     1      -3.414  -0.593   0.174  1.00  0.00    -0.351 OA
BRANCH  22  23
HETATM   23  C17 UNL     1      -4.174   0.064   1.132  1.00  0.00     0.291 C 
BRANCH  23  24
HETATM   24  O3  UNL     1      -4.152  -0.664   2.353  1.00  0.00    -0.367 OA
ATOM     25  H3  UNL     1      -4.672  -0.214   3.009  1.00  0.00     0.213 HD
ENDBRANCH  23  24
BRANCH  23  26
HETATM   26  C18 UNL     1      -5.579   0.298   0.743  1.00  0.00    -0.004 A 
HETATM   27  C19 UNL     1      -6.624  -0.024   1.585  1.00  0.00     0.012 A 
HETATM   28  C20 UNL     1      -7.945   0.216   1.194  1.00  0.00     0.001 A 
HETATM   29  C21 UNL     1      -8.239   0.774  -0.025  1.00  0.00     0.000 A 
HETATM   30  C22 UNL     1      -7.205   1.098  -0.870  1.00  0.00     0.001 A 
HETATM   31  C23 UNL     1      -5.909   0.854  -0.469  1.00  0.00     0.012 A 
ENDBRANCH  23  26
ENDBRANCH  22  23
ENDBRANCH   7  22
TORSDOF 7
