REMARK  10 active torsions:
REMARK  status: ('A' for Active; 'I' for Inactive)
REMARK    1  A    between atoms: C2_2  and  O1_3 
REMARK    2  A    between atoms: C2_2  and  C3_5 
REMARK    3  A    between atoms: C3_5  and  C4_6 
REMARK    4  A    between atoms: C4_6  and  C5_7 
REMARK    5  A    between atoms: C5_7  and  C6_8 
REMARK    6  A    between atoms: C9_12  and  C10_13 
REMARK    7  A    between atoms: C10_13  and  O2_14 
REMARK    8  A    between atoms: C10_13  and  C11_16 
REMARK    9  A    between atoms: C15_20  and  O3_21 
REMARK   10  A    between atoms: C16_23  and  C17_24 
ROOT
HETATM    1  C11 UNL     1      -0.931  -0.731  -0.495  1.00  0.00    -0.009 A 
HETATM    2  C12 UNL     1      -0.787  -2.088  -0.408  1.00  0.00     0.049 A 
HETATM    3  C13 UNL     1      -1.844  -2.946  -0.051  1.00  0.00     0.087 A 
HETATM    4  C14 UNL     1      -3.059  -2.363   0.218  1.00  0.00     0.080 A 
HETATM    5  C15 UNL     1      -3.208  -1.021   0.136  1.00  0.00     0.093 A 
HETATM    6  C16 UNL     1      -2.134  -0.159  -0.229  1.00  0.00     0.013 A 
HETATM    7  C24 UNL     1      -4.001  -3.443   0.556  1.00  0.00     0.199 A 
HETATM    8  O4  UNL     1      -5.189  -3.295   0.911  1.00  0.00    -0.289 OA
HETATM    9  C25 UNL     1      -3.250  -4.706   0.386  1.00  0.00     0.125 A 
HETATM   10  C26 UNL     1      -3.279  -5.433   1.723  1.00  0.00     0.055 C 
HETATM   11  C27 UNL     1      -3.938  -5.520  -0.681  1.00  0.00     0.055 C 
HETATM   12  O5  UNL     1      -1.958  -4.307   0.102  1.00  0.00    -0.332 OA
ENDROOT
BRANCH   1  13
HETATM   13  C10 UNL     1       0.242   0.099  -0.963  1.00  0.00     0.190 C 
BRANCH  13  14
HETATM   14  C9  UNL     1       1.169   0.265   0.244  1.00  0.00     0.095 C 
HETATM   15  N1  UNL     1       2.200   1.138   0.129  1.00  0.00    -0.386 N 
HETATM   16  C6  UNL     1       3.388   1.193  -0.586  1.00  0.00     0.085 C 
HETATM   17  C8  UNL     1       1.906   2.543  -0.105  1.00  0.00     0.124 C 
HETATM   18  C7  UNL     1       2.794   2.458  -1.294  1.00  0.00     0.045 C 
BRANCH  16  19
HETATM   19  C5  UNL     1       4.477   1.769   0.342  1.00  0.00     0.025 C 
BRANCH  19  20
HETATM   20  C4  UNL     1       5.244   0.707   1.085  1.00  0.00     0.004 C 
BRANCH  20  21
HETATM   21  C3  UNL     1       6.009  -0.068   0.022  1.00  0.00     0.031 C 
BRANCH  21  22
HETATM   22  C2  UNL     1       6.837  -1.120   0.732  1.00  0.00     0.114 C 
HETATM   23  C1  UNL     1       7.615  -1.819  -0.395  1.00  0.00     0.039 C 
BRANCH  22  24
HETATM   24  O1  UNL     1       7.652  -0.516   1.649  1.00  0.00    -0.396 OA
ATOM     25  H1  UNL     1       7.171  -0.084   2.345  1.00  0.00     0.210 HD
ENDBRANCH  22  24
ENDBRANCH  21  22
ENDBRANCH  20  21
ENDBRANCH  19  20
ENDBRANCH  16  19
ENDBRANCH  13  14
BRANCH  13  26
HETATM   26  O2  UNL     1      -0.222   1.176  -1.551  1.00  0.00    -0.386 OA
ATOM     27  H2  UNL     1      -0.797   1.073  -2.300  1.00  0.00     0.210 HD
ENDBRANCH  13  26
ENDBRANCH   1  13
BRANCH   6  28
HETATM   28  C17 UNL     1      -2.538   1.216  -0.262  1.00  0.00    -0.048 C 
HETATM   29  C18 UNL     1      -2.926   1.679   0.955  1.00  0.00    -0.018 C 
HETATM   30  C19 UNL     1      -3.355   3.083   1.041  1.00  0.00     0.031 C 
HETATM   31  C20 UNL     1      -4.525   3.292   0.121  1.00  0.00    -0.015 C 
HETATM   32  C21 UNL     1      -4.936   4.746   0.059  1.00  0.00     0.010 C 
HETATM   33  C22 UNL     1      -4.249   2.706  -1.213  1.00  0.00     0.009 C 
HETATM   34  C23 UNL     1      -2.794   2.191  -1.317  1.00  0.00     0.039 C 
ENDBRANCH   6  28
BRANCH   5  35
HETATM   35  O3  UNL     1      -4.460  -0.435   0.414  1.00  0.00    -0.359 OA
ATOM     36  H3  UNL     1      -4.565   0.507   0.356  1.00  0.00     0.217 HD
ENDBRANCH   5  35
TORSDOF 10
