REMARK  5 active torsions:
REMARK  status: ('A' for Active; 'I' for Inactive)
REMARK    1  A    between atoms: C1_4  and  N2_5 
REMARK    2  A    between atoms: N2_5  and  C2_7 
REMARK    3  A    between atoms: C2_7  and  N3_8 
REMARK    4  A    between atoms: C3_12  and  N4_13 
REMARK    5  A    between atoms: C3_12  and  C4_17 
ROOT
HETATM    1  C2  UNL     1      -0.436   0.434  -0.073  1.00  0.00     0.378 C 
HETATM    2  C3  UNL     1       0.999  -0.071  -0.222  1.00  0.00     0.350 C 
HETATM    3  N6  UNL     1       1.455   0.952   0.676  1.00  0.00    -0.269 N 
ATOM      4  H6  UNL     1       2.305   1.512   0.744  1.00  0.00     0.175 HD
HETATM    5  S1  UNL     1       0.031   0.863   1.575  1.00  0.00     0.288 S 
HETATM    6  O2  UNL     1      -0.089  -0.258   2.549  1.00  0.00    -0.201 OA
HETATM    7  O3  UNL     1      -0.499   2.198   2.070  1.00  0.00    -0.201 OA
ENDROOT
BRANCH   1   8
HETATM    8  N2  UNL     1      -1.494  -0.436  -0.279  1.00  0.00    -0.336 N 
ATOM      9  H2  UNL     1      -1.305  -1.319  -0.753  1.00  0.00     0.163 HD
BRANCH   8  10
HETATM   10  C1  UNL     1      -2.850  -0.163   0.139  1.00  0.00     0.171 C 
HETATM   11  N1  UNL     1      -3.753  -0.076  -0.725  1.00  0.00    -0.395 N 
ATOM     12  H12 UNL     1      -3.517  -0.199  -1.710  1.00  0.00     0.156 HD
ATOM     13  H11 UNL     1      -4.710   0.117  -0.430  1.00  0.00     0.156 HD
ENDBRANCH   8  10
ENDBRANCH   1   8
BRANCH   1  14
HETATM   14  N3  UNL     1      -0.531   1.615  -0.958  1.00  0.00    -0.031 N 
ATOM     15  H33 UNL     1      -0.607   1.343  -1.938  1.00  0.00     0.278 HD
ATOM     16  H32 UNL     1      -1.429   2.087  -0.857  1.00  0.00     0.278 HD
ATOM     17  H31 UNL     1       0.248   2.256  -0.806  1.00  0.00     0.278 HD
ENDBRANCH   1  14
BRANCH   2  18
HETATM   18  N4  UNL     1       1.411  -0.009  -1.600  1.00  0.00    -0.038 N 
ATOM     19  H43 UNL     1       0.767  -0.509  -2.212  1.00  0.00     0.278 HD
ATOM     20  H42 UNL     1       1.295   0.926  -1.990  1.00  0.00     0.278 HD
ATOM     21  H41 UNL     1       2.369  -0.346  -1.699  1.00  0.00     0.278 HD
ENDBRANCH   2  18
BRANCH   2  22
HETATM   22  C4  UNL     1       1.301  -1.411   0.276  1.00  0.00     0.294 C 
HETATM   23  N5  UNL     1       2.661  -1.698   0.554  1.00  0.00    -0.058 NA
HETATM   24  O1  UNL     1       0.426  -2.277   0.488  1.00  0.00    -0.272 OA
ENDBRANCH   2  22
TORSDOF 5
