REMARK  11 active torsions:
REMARK  status: ('A' for Active; 'I' for Inactive)
REMARK    1  A    between atoms: O1_2  and  C2_3 
REMARK    2  A    between atoms: C6_7  and  C7_8 
REMARK    3  A    between atoms: C7_8  and  N1_9 
REMARK    4  A    between atoms: N1_9  and  N2_11 
REMARK    5  A    between atoms: N2_11  and  C8_13 
REMARK    6  A    between atoms: C8_13  and  N3_15 
REMARK    7  A    between atoms: C11_18  and  C12_19 
REMARK    8  A    between atoms: C12_19  and  N4_20 
REMARK    9  A    between atoms: N4_20  and  C14_22 
REMARK   10  A    between atoms: C14_22  and  C15_23 
REMARK   11  A    between atoms: C15_23  and  N5_24 
ROOT
HETATM    1  N3  UNL     1       1.741  -3.363   1.364  1.00  0.00    -0.357 N 
HETATM    2  C9  UNL     1       0.378  -3.921   1.518  1.00  0.00     0.125 C 
HETATM    3  C10 UNL     1      -0.525  -2.747   1.810  1.00  0.00     0.026 C 
HETATM    4  C11 UNL     1      -0.583  -1.967   0.500  1.00  0.00     0.017 C 
HETATM    5  C24 UNL     1       0.747  -1.322   0.306  1.00  0.00     0.026 C 
HETATM    6  C25 UNL     1       1.922  -2.106   0.732  1.00  0.00     0.125 C 
ENDROOT
BRANCH   1   7
HETATM    7  C8  UNL     1       2.779  -4.161   1.891  1.00  0.00     0.188 C 
HETATM    8  S1  UNL     1       2.373  -5.601   2.623  1.00  0.00    -0.039 SA
BRANCH   7   9
HETATM    9  N2  UNL     1       4.143  -3.870   1.866  1.00  0.00    -0.277 N 
ATOM     10  H2  UNL     1       4.789  -4.535   2.292  1.00  0.00     0.189 HD
BRANCH   9  11
HETATM   11  N1  UNL     1       4.668  -2.713   1.287  1.00  0.00    -0.309 N 
ATOM     12  H1  UNL     1       4.269  -1.804   1.522  1.00  0.00     0.186 HD
BRANCH  11  13
HETATM   13  C7  UNL     1       5.636  -2.781   0.472  1.00  0.00     0.120 C 
BRANCH  13  14
HETATM   14  C6  UNL     1       6.366  -1.789  -0.262  1.00  0.00     0.007 A 
HETATM   15  C5  UNL     1       6.178  -0.427  -0.212  1.00  0.00    -0.009 A 
HETATM   16  C4  UNL     1       5.229   0.082   0.646  1.00  0.00     0.016 A 
HETATM   17  C28 UNL     1       6.925   0.464  -1.000  1.00  0.00     0.021 A 
HETATM   18  C3  UNL     1       5.054   1.460   0.691  1.00  0.00     0.037 A 
HETATM   19  C2  UNL     1       5.779   2.336  -0.076  1.00  0.00     0.069 A 
HETATM   20  C29 UNL     1       6.725   1.829  -0.930  1.00  0.00     0.053 A 
HETATM   21  C27 UNL     1       7.884  -0.046  -1.856  1.00  0.00     0.110 A 
HETATM   22  N7  UNL     1       8.072  -1.366  -1.908  1.00  0.00    -0.351 N 
HETATM   23  N8  UNL     1       8.556   0.787  -2.567  1.00  0.00    -0.385 N 
HETATM   24  C26 UNL     1       7.365  -2.200  -1.163  1.00  0.00     0.103 A 
ATOM     25  H7  UNL     1       8.780  -1.742  -2.539  1.00  0.00     0.166 HD
ATOM     26  H82 UNL     1       9.263   0.411  -3.198  1.00  0.00     0.157 HD
ATOM     27  H81 UNL     1       8.412   1.796  -2.527  1.00  0.00     0.157 HD
BRANCH  19  28
HETATM   28  O1  UNL     1       5.538   3.703   0.031  1.00  0.00    -0.356 OA
HETATM   29  C1  UNL     1       6.302   4.585  -0.773  1.00  0.00     0.210 C 
ENDBRANCH  19  28
ENDBRANCH  13  14
ENDBRANCH  11  13
ENDBRANCH   9  11
ENDBRANCH   7   9
ENDBRANCH   1   7
BRANCH   4  30
HETATM   30  C12 UNL     1      -1.704  -0.948   0.531  1.00  0.00     0.276 C 
BRANCH  30  31
HETATM   31  N4  UNL     1      -2.981  -1.599   0.723  1.00  0.00     0.086 N 
HETATM   32  C13 UNL     1      -3.372  -2.384  -0.412  1.00  0.00     0.310 C 
BRANCH  31  33
HETATM   33  C14 UNL     1      -3.974  -0.591   0.995  1.00  0.00     0.302 C 
BRANCH  33  34
HETATM   34  C15 UNL     1      -4.243   0.285  -0.214  1.00  0.00     0.303 C 
BRANCH  34  35
HETATM   35  N5  UNL     1      -5.236   1.283   0.051  1.00  0.00     0.094 N 
HETATM   36  C16 UNL     1      -6.512   0.686   0.235  1.00  0.00     0.277 C 
HETATM   37  C17 UNL     1      -7.557   1.100  -0.795  1.00  0.00     0.069 C 
HETATM   38  C18 UNL     1      -7.568   2.579  -0.809  1.00  0.00    -0.042 A 
HETATM   39  C19 UNL     1      -8.724   3.328  -0.769  1.00  0.00     0.082 A 
HETATM   40  C22 UNL     1      -6.350   3.221  -0.863  1.00  0.00    -0.008 A 
HETATM   41  C20 UNL     1      -8.620   4.710  -0.786  1.00  0.00     0.245 A 
HETATM   42  O2  UNL     1      -9.627   5.469  -0.752  1.00  0.00    -0.268 OA
HETATM   43  N6  UNL     1      -7.408   5.339  -0.840  1.00  0.00    -0.333 N 
HETATM   44  C21 UNL     1      -6.269   4.598  -0.879  1.00  0.00     0.100 A 
ATOM     45  H6  UNL     1      -7.358   6.358  -0.851  1.00  0.00     0.168 HD
HETATM   46  C23 UNL     1      -5.152   2.346  -0.901  1.00  0.00     0.313 C 
ENDBRANCH  34  35
ENDBRANCH  33  34
ENDBRANCH  31  33
ENDBRANCH  30  31
ENDBRANCH   4  30
TORSDOF 11
