REMARK  11 active torsions:
REMARK  status: ('A' for Active; 'I' for Inactive)
REMARK    1  A    between atoms: C2_2  and  C4_4 
REMARK    2  A    between atoms: C4_4  and  C5_5 
REMARK    3  A    between atoms: C6_8  and  O1_9 
REMARK    4  A    between atoms: C7_11  and  C8_12 
REMARK    5  A    between atoms: C8_12  and  C9_13 
REMARK    6  A    between atoms: C9_13  and  C10_14 
REMARK    7  A    between atoms: C10_14  and  C11_15 
REMARK    8  A    between atoms: C11_15  and  N2_16 
REMARK    9  A    between atoms: C12_22  and  N4_23 
REMARK   10  A    between atoms: C23_39  and  C24_40 
REMARK   11  A    between atoms: C24_40  and  C25_41 
ROOT
HETATM    1  C5  UNL     1       1.519   2.037  -0.352  1.00  0.00     0.175 C 
HETATM    2  N1  UNL     1       0.301   2.662   0.101  1.00  0.00    -0.359 N 
ATOM      3  H1  UNL     1       0.360   3.680   0.140  1.00  0.00     0.162 HD
HETATM    4  C6  UNL     1      -0.923   2.172   0.491  1.00  0.00     0.135 C 
HETATM    5  C7  UNL     1      -1.370   0.849   0.999  1.00  0.00     0.157 C 
HETATM    6  N3  UNL     1      -2.355   0.209   0.196  1.00  0.00    -0.367 N 
ATOM      7  H3  UNL     1      -3.270   0.657   0.245  1.00  0.00     0.161 HD
HETATM    8  C12 UNL     1      -2.331  -0.795  -0.562  1.00  0.00     0.085 C 
HETATM    9  C18 UNL     1      -1.100  -1.555  -0.761  1.00  0.00     0.187 C 
HETATM   10  C19 UNL     1      -1.061  -2.962  -0.423  1.00  0.00     0.265 C 
HETATM   11  O2  UNL     1      -1.700  -3.361   0.597  1.00  0.00    -0.265 OA
HETATM   12  O3  UNL     1      -0.363  -3.892  -1.156  1.00  0.00    -0.320 OA
HETATM   13  C20 UNL     1       1.004  -3.837  -1.543  1.00  0.00     0.198 C 
HETATM   14  C21 UNL     1       1.707  -2.674  -0.888  1.00  0.00     0.149 C 
HETATM   15  N5  UNL     1       3.129  -2.746  -0.840  1.00  0.00    -0.357 N 
ATOM     16  H5  UNL     1       3.524  -3.686  -0.811  1.00  0.00     0.162 HD
HETATM   17  C22 UNL     1       4.052  -1.700  -0.828  1.00  0.00     0.240 C 
HETATM   18  O4  UNL     1       5.116  -1.902  -1.532  1.00  0.00    -0.271 OA
HETATM   19  C23 UNL     1       4.028  -0.408  -0.153  1.00  0.00     0.177 C 
HETATM   20  N6  UNL     1       2.822  -0.045   0.535  1.00  0.00    -0.346 N 
ATOM     21  H6  UNL     1       2.386  -0.816   1.040  1.00  0.00     0.163 HD
HETATM   22  C28 UNL     1       2.141   1.149   0.642  1.00  0.00     0.241 C 
HETATM   23  O5  UNL     1       1.987   1.638   1.833  1.00  0.00    -0.271 OA
ENDROOT
BRANCH   5  24
HETATM   24  C8  UNL     1      -2.114   1.060   2.351  1.00  0.00     0.033 C 
BRANCH  24  25
HETATM   25  C9  UNL     1      -1.260   1.685   3.389  1.00  0.00     0.004 C 
BRANCH  25  26
HETATM   26  C10 UNL     1      -2.103   1.833   4.636  1.00  0.00     0.027 C 
BRANCH  26  27
HETATM   27  C11 UNL     1      -3.319   2.710   4.405  1.00  0.00     0.229 C 
BRANCH  27  28
HETATM   28  N2  UNL     1      -2.875   4.014   3.995  1.00  0.00    -0.079 N 
ATOM     29  H23 UNL     1      -2.215   4.427   4.654  1.00  0.00     0.274 HD
ATOM     30  H22 UNL     1      -2.259   3.979   3.183  1.00  0.00     0.274 HD
ATOM     31  H21 UNL     1      -3.693   4.604   3.840  1.00  0.00     0.274 HD
ENDBRANCH  27  28
ENDBRANCH  26  27
ENDBRANCH  25  26
ENDBRANCH  24  25
ENDBRANCH   5  24
BRANCH   4  32
HETATM   32  O1  UNL     1      -1.934   2.988   0.423  1.00  0.00    -0.348 OA
ATOM     33  H1  UNL     1      -2.780   2.649   0.692  1.00  0.00     0.219 HD
ENDBRANCH   4  32
BRANCH   8  34
HETATM   34  N4  UNL     1      -3.505  -1.209  -1.253  1.00  0.00    -0.370 N 
HETATM   35  C13 UNL     1      -4.147  -2.490  -1.086  1.00  0.00     0.124 C 
HETATM   36  C14 UNL     1      -5.483  -2.426  -1.844  1.00  0.00     0.020 C 
HETATM   37  C15 UNL     1      -5.238  -2.264  -3.326  1.00  0.00     0.003 C 
HETATM   38  C16 UNL     1      -4.433  -1.006  -3.530  1.00  0.00     0.020 C 
HETATM   39  C17 UNL     1      -4.168  -0.320  -2.220  1.00  0.00     0.124 C 
ENDBRANCH   8  34
BRANCH   1  40
HETATM   40  C4  UNL     1       1.387   1.547  -1.733  1.00  0.00     0.038 C 
BRANCH  40  41
HETATM   41  C2  UNL     1       1.111   2.553  -2.809  1.00  0.00    -0.020 C 
HETATM   42  C1  UNL     1      -0.142   3.335  -2.705  1.00  0.00     0.009 C 
HETATM   43  C3  UNL     1       0.995   1.730  -4.109  1.00  0.00     0.009 C 
ENDBRANCH  40  41
ENDBRANCH   1  40
BRANCH  19  44
HETATM   44  C24 UNL     1       5.192  -0.206   0.789  1.00  0.00     0.038 C 
BRANCH  44  45
HETATM   45  C25 UNL     1       5.351  -1.175   1.893  1.00  0.00    -0.020 C 
HETATM   46  C26 UNL     1       4.243  -1.293   2.876  1.00  0.00     0.009 C 
HETATM   47  C27 UNL     1       6.565  -0.669   2.700  1.00  0.00     0.009 C 
ENDBRANCH  44  45
ENDBRANCH  19  44
TORSDOF 11
