REMARK  7 active torsions:
REMARK  status: ('A' for Active; 'I' for Inactive)
REMARK    1  A    between atoms: C2_2  and  C4_4 
REMARK    2  A    between atoms: C4_4  and  N1_6 
REMARK       I    between atoms: N1_6  and  C6_8 
REMARK    3  A    between atoms: C6_8  and  C7_10 
REMARK    4  A    between atoms: C7_10  and  N2_12 
REMARK    5  A    between atoms: N2_12  and  C9_14 
REMARK    6  A    between atoms: N3_17  and  C12_18 
REMARK    7  A    between atoms: C17_23  and  O2_24 
ROOT
HETATM    1  N2  UNL     1       0.236   0.338   1.783  1.00  0.00    -0.403 N 
ATOM      2  H2  UNL     1      -0.096   1.189   2.238  1.00  0.00     0.154 HD
ENDROOT
BRANCH   1   3
HETATM    3  C7  UNL     1       1.612   0.161   1.678  1.00  0.00     0.165 C 
HETATM    4  C8  UNL     1       2.305   1.230   2.560  1.00  0.00     0.042 C 
BRANCH   3   5
HETATM    5  C6  UNL     1       2.276   0.249   0.367  1.00  0.00     0.240 C 
HETATM    6  N1  UNL     1       3.291  -0.655   0.027  1.00  0.00    -0.351 N 
ATOM      7  H1  UNL     1       3.571  -1.375   0.693  1.00  0.00     0.163 HD
HETATM    8  O1  UNL     1       1.901   1.165  -0.440  1.00  0.00    -0.271 OA
BRANCH   6   9
HETATM    9  C4  UNL     1       3.942  -0.576  -1.256  1.00  0.00     0.108 C 
HETATM   10  C5  UNL     1       3.815  -1.872  -1.999  1.00  0.00     0.037 C 
BRANCH   9  11
HETATM   11  C2  UNL     1       5.373  -0.166  -1.133  1.00  0.00    -0.071 C 
HETATM   12  C1  UNL     1       5.814   0.977  -1.645  1.00  0.00     0.016 C 
HETATM   13  C3  UNL     1       6.361  -1.024  -0.434  1.00  0.00     0.044 C 
ENDBRANCH   9  11
ENDBRANCH   6   9
ENDBRANCH   3   5
ENDBRANCH   1   3
BRANCH   1  14
HETATM   14  C9  UNL     1      -0.723  -0.557   1.315  1.00  0.00     0.109 C 
HETATM   15  C10 UNL     1      -0.785  -0.805  -0.127  1.00  0.00     0.047 C 
HETATM   16  C11 UNL     1      -1.540   0.277  -0.901  1.00  0.00     0.119 C 
HETATM   17  N3  UNL     1      -2.816   0.405  -0.302  1.00  0.00    -0.402 N 
HETATM   18  C16 UNL     1      -2.736   0.904   1.014  1.00  0.00     0.151 C 
HETATM   19  C17 UNL     1      -2.097  -0.177   1.892  1.00  0.00     0.160 C 
BRANCH  17  20
HETATM   20  C12 UNL     1      -3.915   0.744  -1.105  1.00  0.00     0.017 C 
HETATM   21  C13 UNL     1      -5.078   1.161  -0.207  1.00  0.00     0.037 C 
HETATM   22  C14 UNL     1      -4.396  -0.535  -1.807  1.00  0.00     0.037 C 
HETATM   23  C15 UNL     1      -3.689   1.795  -2.133  1.00  0.00     0.037 C 
ENDBRANCH  17  20
BRANCH  19  24
HETATM   24  O2  UNL     1      -2.908  -1.242   2.136  1.00  0.00    -0.387 OA
HETATM   25  C18 UNL     1      -3.253  -1.428   3.463  1.00  0.00     0.202 C 
ENDBRANCH  19  24
ENDBRANCH   1  14
TORSDOF 7
