REMARK  10 active torsions:
REMARK  status: ('A' for Active; 'I' for Inactive)
REMARK    1  A    between atoms: S1_2  and  C2_3 
REMARK    2  A    between atoms: C2_3  and  C3_4 
REMARK    3  A    between atoms: C3_4  and  S2_5 
REMARK    4  A    between atoms: C5_7  and  O1_8 
REMARK    5  A    between atoms: C6_10  and  N1_11 
REMARK    6  A    between atoms: N1_11  and  N2_13 
REMARK    7  A    between atoms: N2_13  and  N3_14 
REMARK    8  A    between atoms: C9_20  and  O2_21 
REMARK    9  A    between atoms: O2_21  and  C10_22 
REMARK   10  A    between atoms: C11_25  and  O4_26 
ROOT
HETATM    1  C3  UNL     1       0.725   0.869   0.258  1.00  0.00     0.072 C 
HETATM    2  C5  UNL     1      -0.195   1.844  -0.467  1.00  0.00     0.166 C 
HETATM    3  C6  UNL     1      -1.643   1.538  -0.181  1.00  0.00     0.165 C 
HETATM    4  C7  UNL     1      -2.013   0.102  -0.220  1.00  0.00     0.152 C 
HETATM    5  C8  UNL     1      -2.666  -0.245  -1.501  1.00  0.00     0.069 C 
HETATM    6  N4  UNL     1      -3.162  -0.529  -2.505  1.00  0.00    -0.197 NA
HETATM    7  C9  UNL     1      -0.936  -0.873   0.133  1.00  0.00     0.183 C 
HETATM    8  C11 UNL     1       0.440  -0.471  -0.351  1.00  0.00     0.171 C 
ENDROOT
BRANCH   3   9
HETATM    9  N1  UNL     1      -2.434   2.233  -1.203  1.00  0.00    -0.244 N 
ATOM     10  H1  UNL     1      -3.149   1.732  -1.731  1.00  0.00     0.197 HD
BRANCH   9  11
HETATM   11  N2  UNL     1      -2.226   3.427  -1.417  1.00  0.00    -0.248 NA
BRANCH  11  12
HETATM   12  N3  UNL     1      -1.942   4.501  -1.942  1.00  0.00    -0.261 N 
ATOM     13  H32 UNL     1      -1.729   4.083  -2.848  1.00  0.00     0.193 HD
ATOM     14  H31 UNL     1      -1.770   5.491  -2.119  1.00  0.00     0.193 HD
ENDBRANCH  11  12
ENDBRANCH   9  11
ENDBRANCH   3   9
BRANCH   7  15
HETATM   15  O2  UNL     1      -1.326  -2.153  -0.286  1.00  0.00    -0.297 OA
BRANCH  15  16
HETATM   16  C10 UNL     1      -1.570  -3.207   0.580  1.00  0.00     0.373 C 
HETATM   17  N5  UNL     1      -1.965  -4.495   0.116  1.00  0.00    -0.032 NA
HETATM   18  O3  UNL     1      -1.414  -2.930   1.791  1.00  0.00    -0.242 OA
ENDBRANCH  15  16
ENDBRANCH   7  15
BRANCH   2  19
HETATM   19  O1  UNL     1       0.071   3.112   0.048  1.00  0.00    -0.392 OA
ATOM     20  H1  UNL     1      -0.502   3.720  -0.404  1.00  0.00     0.210 HD
ENDBRANCH   2  19
BRANCH   8  21
HETATM   21  O4  UNL     1       1.340  -1.381   0.121  1.00  0.00    -0.391 OA
ATOM     22  H4  UNL     1       1.159  -2.230  -0.265  1.00  0.00     0.210 HD
ENDBRANCH   8  21
BRANCH   1  23
HETATM   23  C2  UNL     1       2.115   1.385   0.148  1.00  0.00     0.099 C 
BRANCH  23  24
HETATM   24  S1  UNL     1       2.852   1.461  -1.457  1.00  0.00    -0.172 SA
HETATM   25  C1  UNL     1       3.280  -0.124  -2.165  1.00  0.00     0.089 C 
ENDBRANCH  23  24
ENDBRANCH   1  23
BRANCH   1  26
HETATM   26  S2  UNL     1       0.171   0.881   1.998  1.00  0.00    -0.157 SA
HETATM   27  C4  UNL     1       1.088  -0.268   3.020  1.00  0.00     0.091 C 
ENDBRANCH   1  26
TORSDOF 10
