REMARK  8 active torsions:
REMARK  status: ('A' for Active; 'I' for Inactive)
REMARK    1  A    between atoms: C2_2  and  C3_3 
REMARK    2  A    between atoms: C3_3  and  C4_4 
REMARK    3  A    between atoms: C4_4  and  O1_5 
REMARK    4  A    between atoms: C13_15  and  O2_16 
REMARK    5  A    between atoms: C14_18  and  O3_19 
REMARK    6  A    between atoms: O3_19  and  C15_20 
REMARK    7  A    between atoms: C20_27  and  C21_28 
REMARK    8  A    between atoms: C26_33  and  C27_34 
ROOT
HETATM    1  C3  UNL     1      -3.049  -0.251   0.007  1.00  0.00     0.061 C 
HETATM    2  C5  UNL     1      -2.720   1.002  -0.574  1.00  0.00    -0.162 C 
HETATM    3  C6  UNL     1      -2.764   2.373  -0.921  1.00  0.00     0.108 C 
HETATM    4  C7  UNL     1      -1.332   2.902  -0.709  1.00  0.00    -0.012 C 
HETATM    5  C8  UNL     1      -0.231   2.273  -0.993  1.00  0.00    -0.079 C 
HETATM    6  C9  UNL     1       1.040   3.064  -0.657  1.00  0.00     0.068 C 
HETATM    7  C10 UNL     1       1.911   2.337   0.292  1.00  0.00    -0.074 C 
HETATM    8  C11 UNL     1       2.524   3.229   1.297  1.00  0.00     0.044 C 
HETATM    9  C12 UNL     1       2.277   1.072   0.455  1.00  0.00    -0.038 C 
HETATM   10  C13 UNL     1       2.977  -0.074   1.085  1.00  0.00     0.192 C 
HETATM   11  C14 UNL     1       2.605  -1.027   0.072  1.00  0.00     0.172 C 
HETATM   12  C17 UNL     1       1.751  -2.203   0.124  1.00  0.00     0.194 C 
HETATM   13  O5  UNL     1       2.214  -3.277   0.584  1.00  0.00    -0.289 OA
HETATM   14  C18 UNL     1       0.368  -2.205  -0.344  1.00  0.00    -0.005 C 
HETATM   15  C19 UNL     1      -0.061  -3.195  -1.141  1.00  0.00     0.024 C 
HETATM   16  C20 UNL     1      -0.535  -1.050   0.088  1.00  0.00     0.023 C 
HETATM   17  C23 UNL     1       0.308   0.060  -0.370  1.00  0.00     0.019 C 
HETATM   18  C24 UNL     1      -0.041   0.922  -1.562  1.00  0.00     0.041 C 
HETATM   19  C25 UNL     1       1.765  -0.002  -0.512  1.00  0.00     0.069 C 
HETATM   20  C26 UNL     1      -1.928  -1.236  -0.257  1.00  0.00     0.090 C 
ENDROOT
BRANCH   1  21
HETATM   21  C2  UNL     1      -3.634  -0.222   1.328  1.00  0.00    -0.013 C 
HETATM   22  C1  UNL     1      -4.337   0.804   1.746  1.00  0.00     0.008 C 
ENDBRANCH   1  21
BRANCH   1  23
HETATM   23  C4  UNL     1      -4.224  -0.835  -0.863  1.00  0.00     0.190 C 
BRANCH  23  24
HETATM   24  O1  UNL     1      -5.258   0.115  -0.684  1.00  0.00    -0.399 OA
ATOM     25  H1  UNL     1      -5.967  -0.237  -1.209  1.00  0.00     0.209 HD
ENDBRANCH  23  24
ENDBRANCH   1  23
BRANCH  20  26
HETATM   26  C27 UNL     1      -2.550  -2.526   0.168  1.00  0.00     0.239 C 
HETATM   27  O6  UNL     1      -2.480  -3.044   1.258  1.00  0.00    -0.306 OA
ENDBRANCH  20  26
BRANCH  16  28
HETATM   28  C21 UNL     1      -0.502  -1.243   1.583  1.00  0.00    -0.021 C 
HETATM   29  C22 UNL     1      -0.597  -0.335   2.508  1.00  0.00     0.008 C 
ENDBRANCH  16  28
BRANCH  11  30
HETATM   30  O3  UNL     1       3.786  -1.358  -0.716  1.00  0.00    -0.298 OA
BRANCH  30  31
HETATM   31  C15 UNL     1       4.872  -1.983  -0.171  1.00  0.00     0.256 C 
HETATM   32  C16 UNL     1       6.044  -2.260  -1.072  1.00  0.00     0.126 C 
HETATM   33  O4  UNL     1       4.871  -2.301   1.022  1.00  0.00    -0.266 OA
ENDBRANCH  30  31
ENDBRANCH  11  30
BRANCH  10  34
HETATM   34  O2  UNL     1       4.319   0.374   1.178  1.00  0.00    -0.388 OA
ATOM     35  H2  UNL     1       4.767  -0.360   1.581  1.00  0.00     0.210 HD
ENDBRANCH  10  34
TORSDOF 8
