REMARK  6 active torsions:
REMARK  status: ('A' for Active; 'I' for Inactive)
REMARK    1  A    between atoms: C1_2  and  N1_3 
REMARK    2  A    between atoms: N2_6  and  C4_7 
REMARK    3  A    between atoms: C4_7  and  C5_8 
REMARK    4  A    between atoms: C5_8  and  C6_9 
REMARK    5  A    between atoms: C8_11  and  C9_12 
REMARK    6  A    between atoms: C9_12  and  C10_13 
ROOT
HETATM    1  C6  UNL     1      -0.352  -0.653  -0.721  1.00  0.00     0.011 A 
HETATM    2  C7  UNL     1      -1.204  -0.623   0.385  1.00  0.00     0.033 A 
HETATM    3  C8  UNL     1      -2.340  -1.357   0.107  1.00  0.00    -0.035 A 
HETATM    4  C13 UNL     1      -2.165  -1.831  -1.181  1.00  0.00     0.095 A 
HETATM    5  N5  UNL     1      -0.978  -1.393  -1.634  1.00  0.00    -0.369 N 
ATOM      6  H5  UNL     1      -0.604  -1.601  -2.560  1.00  0.00     0.165 HD
ENDROOT
BRANCH   1   7
HETATM    7  C5  UNL     1       0.968   0.032  -0.781  1.00  0.00     0.087 C 
BRANCH   7   8
HETATM    8  C4  UNL     1       2.044  -0.877  -0.297  1.00  0.00     0.280 C 
BRANCH   8   9
HETATM    9  N2  UNL     1       3.360  -0.354  -0.304  1.00  0.00     0.107 N 
HETATM   10  C3  UNL     1       3.938  -0.110  -1.580  1.00  0.00     0.294 C 
HETATM   11  C2  UNL     1       5.231   0.597  -1.226  1.00  0.00     0.157 C 
HETATM   12  N1  UNL     1       4.774   1.453  -0.149  1.00  0.00    -0.332 N 
HETATM   13  C14 UNL     1       3.596   0.836   0.437  1.00  0.00     0.399 C 
BRANCH  12  14
HETATM   14  C1  UNL     1       5.391   2.669   0.236  1.00  0.00     0.352 C 
HETATM   15  O1  UNL     1       4.935   3.357   1.184  1.00  0.00    -0.283 OA
ENDBRANCH  12  14
ENDBRANCH   8   9
ENDBRANCH   7   8
ENDBRANCH   1   7
BRANCH   3  16
HETATM   16  C9  UNL     1      -3.525  -1.601   0.998  1.00  0.00     0.098 C 
BRANCH  16  17
HETATM   17  C10 UNL     1      -4.544  -0.552   0.839  1.00  0.00     0.033 A 
HETATM   18  C11 UNL     1      -4.687   0.610   1.528  1.00  0.00     0.118 A 
HETATM   19  N3  UNL     1      -5.752   1.300   1.073  1.00  0.00    -0.317 N 
HETATM   20  C12 UNL     1      -6.271   0.533   0.075  1.00  0.00     0.324 A 
ATOM     21  H3  UNL     1      -6.095   2.202   1.405  1.00  0.00     0.170 HD
HETATM   22  O2  UNL     1      -7.284   0.823  -0.615  1.00  0.00    -0.247 OA
HETATM   23  N4  UNL     1      -5.544  -0.582  -0.066  1.00  0.00    -0.311 N 
ATOM     24  H4  UNL     1      -5.716  -1.326  -0.742  1.00  0.00     0.170 HD
ENDBRANCH  16  17
ENDBRANCH   3  16
TORSDOF 6
