REMARK  8 active torsions:
REMARK  status: ('A' for Active; 'I' for Inactive)
REMARK    1  A    between atoms: C2_2  and  C3_3 
REMARK    2  A    between atoms: C3_3  and  N1_4 
REMARK    3  A    between atoms: N1_4  and  C4_6 
REMARK    4  A    between atoms: C5_11  and  N4_12 
REMARK    5  A    between atoms: N4_12  and  C6_14 
REMARK    6  A    between atoms: C6_14  and  C7_15 
REMARK    7  A    between atoms: C7_15  and  C8_16 
REMARK    8  A    between atoms: C8_16  and  N5_17 
ROOT
HETATM    1  C4  UNL     1       3.772  -0.528   0.366  1.00  0.00     0.708 A 
HETATM    2  N2  UNL     1       3.140  -0.590  -0.816  1.00  0.00    -0.117 N 
ATOM      3  H2  UNL     1       3.589  -0.683  -1.727  1.00  0.00     0.206 HD
HETATM    4  N3  UNL     1       1.842  -0.510  -0.603  1.00  0.00    -0.117 N 
ATOM      5  H3  UNL     1       1.125  -0.531  -1.328  1.00  0.00     0.206 HD
HETATM    6  C5  UNL     1       1.609  -0.396   0.713  1.00  0.00     0.707 A 
HETATM    7  N6  UNL     1       2.823  -0.409   1.301  1.00  0.00    -0.020 N 
ATOM      8  H6  UNL     1       2.991  -0.339   2.305  1.00  0.00     0.203 HD
ENDROOT
BRANCH   6   9
HETATM    9  N4  UNL     1       0.493  -0.294   1.315  1.00  0.00    -0.224 N 
ATOM     10  H4  UNL     1       0.464  -0.213   2.331  1.00  0.00     0.177 HD
BRANCH   9  11
HETATM   11  C6  UNL     1      -0.738  -0.294   0.549  1.00  0.00     0.139 C 
BRANCH  11  12
HETATM   12  C7  UNL     1      -1.032   1.110   0.029  1.00  0.00     0.040 C 
BRANCH  12  13
HETATM   13  C8  UNL     1      -2.302   1.147  -0.770  1.00  0.00     0.128 C 
BRANCH  13  14
HETATM   14  N5  UNL     1      -3.469   0.750  -0.045  1.00  0.00    -0.348 N 
HETATM   15  C9  UNL     1      -4.282   1.687   0.690  1.00  0.00     0.220 C 
HETATM   16  O1  UNL     1      -3.962   2.833   1.099  1.00  0.00    -0.273 OA
HETATM   17  C10 UNL     1      -5.627   1.098   0.920  1.00  0.00     0.105 C 
HETATM   18  C11 UNL     1      -5.585  -0.131   0.025  1.00  0.00     0.034 C 
HETATM   19  C12 UNL     1      -4.107  -0.522   0.151  1.00  0.00     0.083 C 
HETATM   20  C13 UNL     1      -3.806  -1.517  -0.944  1.00  0.00     0.032 C 
ENDBRANCH  13  14
ENDBRANCH  12  13
ENDBRANCH  11  12
ENDBRANCH   9  11
ENDBRANCH   6   9
BRANCH   1  21
HETATM   21  N1  UNL     1       5.033  -0.571   0.605  1.00  0.00    -0.221 N 
ATOM     22  H1  UNL     1       5.365  -0.512   1.568  1.00  0.00     0.178 HD
BRANCH  21  23
HETATM   23  C3  UNL     1       5.982  -0.701  -0.465  1.00  0.00     0.164 C 
BRANCH  23  24
HETATM   24  C2  UNL     1       7.295  -0.100  -0.122  1.00  0.00    -0.017 C 
HETATM   25  C1  UNL     1       7.504   0.478   1.060  1.00  0.00     0.008 C 
ENDBRANCH  23  24
ENDBRANCH  21  23
ENDBRANCH   1  21
TORSDOF 8
