REMARK  9 active torsions:
REMARK  status: ('A' for Active; 'I' for Inactive)
REMARK    1  A    between atoms: N1_2  and  C3_4 
REMARK    2  A    between atoms: C3_4  and  C4_5 
REMARK    3  A    between atoms: C5_6  and  C6_7 
REMARK    4  A    between atoms: C9_10  and  N2_11 
REMARK    5  A    between atoms: N2_11  and  C10_13 
REMARK    6  A    between atoms: C10_13  and  C11_14 
REMARK    7  A    between atoms: C11_14  and  C12_15 
REMARK    8  A    between atoms: C12_15  and  C13_16 
REMARK    9  A    between atoms: C13_16  and  N3_17 
ROOT
HETATM    1  C6  UNL     1       2.596  -0.107   0.657  1.00  0.00     0.033 A 
HETATM    2  C7  UNL     1       2.056   0.895   1.431  1.00  0.00     0.026 A 
HETATM    3  C8  UNL     1       0.678   1.053   1.466  1.00  0.00     0.050 A 
HETATM    4  C9  UNL     1      -0.163   0.236   0.746  1.00  0.00     0.100 A 
HETATM    5  N6  UNL     1       0.391  -0.731  -0.000  1.00  0.00    -0.351 N 
ATOM      6  H6  UNL     1      -0.215  -1.348  -0.541  1.00  0.00     0.166 HD
HETATM    7  C15 UNL     1       1.724  -0.910  -0.054  1.00  0.00     0.110 A 
ENDROOT
BRANCH   4   8
HETATM    8  N2  UNL     1      -1.431   0.392   0.788  1.00  0.00    -0.376 N 
ATOM      9  H2  UNL     1      -1.789   1.145   1.376  1.00  0.00     0.161 HD
BRANCH   8  10
HETATM   10  C10 UNL     1      -2.400  -0.406   0.075  1.00  0.00     0.121 C 
BRANCH  10  11
HETATM   11  C11 UNL     1      -3.784  -0.275   0.684  1.00  0.00     0.021 C 
BRANCH  11  12
HETATM   12  C12 UNL     1      -4.801  -1.090  -0.045  1.00  0.00     0.021 C 
BRANCH  12  13
HETATM   13  C13 UNL     1      -6.138  -0.931   0.607  1.00  0.00     0.122 C 
BRANCH  13  14
HETATM   14  N3  UNL     1      -6.640   0.412   0.641  1.00  0.00    -0.367 N 
HETATM   15  C14 UNL     1      -7.205   0.984  -0.360  1.00  0.00     0.196 C 
HETATM   16  N4  UNL     1      -7.357   0.278  -1.582  1.00  0.00    -0.067 NA
HETATM   17  N5  UNL     1      -7.701   2.316  -0.307  1.00  0.00    -0.067 NA
ATOM     18  H3  UNL     1      -6.543   0.941   1.507  1.00  0.00     0.161 HD
ENDBRANCH  13  14
ENDBRANCH  12  13
ENDBRANCH  11  12
ENDBRANCH  10  11
ENDBRANCH   8  10
ENDBRANCH   4   8
BRANCH   1  19
HETATM   19  C5  UNL     1       4.029  -0.318   0.585  1.00  0.00    -0.064 C 
HETATM   20  C4  UNL     1       5.222  -0.514   0.523  1.00  0.00    -0.071 C 
BRANCH  20  21
HETATM   21  C3  UNL     1       6.662  -0.774   0.452  1.00  0.00     0.365 C 
BRANCH  21  22
HETATM   22  N1  UNL     1       7.192  -0.195  -0.766  1.00  0.00     0.090 N 
HETATM   23  C1  UNL     1       7.133   1.250  -0.686  1.00  0.00     0.310 C 
HETATM   24  C2  UNL     1       8.508  -0.672  -1.088  1.00  0.00     0.310 C 
ENDBRANCH  21  22
ENDBRANCH  20  21
ENDBRANCH   1  19
TORSDOF 9
