REMARK  6 active torsions:
REMARK  status: ('A' for Active; 'I' for Inactive)
REMARK    1  A    between atoms: N3_11  and  C6_12 
REMARK    2  A    between atoms: C6_12  and  C7_13 
REMARK    3  A    between atoms: C7_13  and  C8_17 
REMARK    4  A    between atoms: C8_17  and  O1_18 
REMARK    5  A    between atoms: O1_18  and  C9_19 
REMARK    6  A    between atoms: C9_19  and  C10_20 
ROOT
HETATM    1  C1  UNL     1      -4.268  -0.307  -3.483  1.00  0.00     0.018 C 
HETATM    2  C2  UNL     1      -4.018  -0.365  -2.302  1.00  0.00    -0.075 C 
HETATM    3  C3  UNL     1      -3.720  -0.458  -0.907  1.00  0.00     0.049 A 
HETATM    4  C4  UNL     1      -4.502  -1.237  -0.094  1.00  0.00     0.128 A 
HETATM    5  N1  UNL     1      -4.203  -1.310   1.218  1.00  0.00    -0.201 N 
ATOM      6  H1  UNL     1      -4.779  -1.886   1.832  1.00  0.00     0.183 HD
HETATM    7  C5  UNL     1      -3.141  -0.625   1.739  1.00  0.00     0.678 A 
HETATM    8  N2  UNL     1      -2.889  -0.723   3.001  1.00  0.00    -0.234 N 
ATOM      9  H21 UNL     1      -2.097  -0.212   3.390  1.00  0.00     0.174 HD
ATOM     10  H22 UNL     1      -3.481  -1.306   3.593  1.00  0.00     0.174 HD
HETATM   11  N3  UNL     1      -2.364   0.141   0.962  1.00  0.00    -0.187 N 
HETATM   12  C16 UNL     1      -2.651   0.223  -0.346  1.00  0.00     0.131 A 
ENDROOT
BRANCH  11  13
HETATM   13  C6  UNL     1      -1.259   0.857   1.495  1.00  0.00     0.201 C 
BRANCH  13  14
HETATM   14  C7  UNL     1       0.012   0.093   1.476  1.00  0.00     0.023 C 
HETATM   15  N4  UNL     1       0.122  -1.095   1.030  1.00  0.00    -0.403 N 
ATOM     16  H42 UNL     1      -0.712  -1.554   0.663  1.00  0.00     0.155 HD
ATOM     17  H41 UNL     1       0.996  -1.620   1.017  1.00  0.00     0.155 HD
BRANCH  14  18
HETATM   18  C8  UNL     1       1.227   0.762   2.011  1.00  0.00     0.221 C 
BRANCH  18  19
HETATM   19  O1  UNL     1       1.433   1.893   1.225  1.00  0.00    -0.381 OA
BRANCH  19  20
HETATM   20  C9  UNL     1       1.628   1.623  -0.110  1.00  0.00     0.206 C 
BRANCH  20  21
HETATM   21  C10 UNL     1       2.801   0.800  -0.417  1.00  0.00    -0.035 A 
HETATM   22  C11 UNL     1       3.929   0.806   0.337  1.00  0.00     0.009 A 
HETATM   23  C12 UNL     1       5.009   0.014   0.009  1.00  0.00     0.001 A 
HETATM   24  C13 UNL     1       4.992  -0.822  -1.101  1.00  0.00     0.000 A 
HETATM   25  C14 UNL     1       3.855  -0.837  -1.874  1.00  0.00     0.001 A 
HETATM   26  C15 UNL     1       2.783  -0.040  -1.534  1.00  0.00     0.009 A 
ENDBRANCH  20  21
ENDBRANCH  19  20
ENDBRANCH  18  19
ENDBRANCH  14  18
ENDBRANCH  13  14
ENDBRANCH  11  13
TORSDOF 6
