REMARK  6 active torsions:
REMARK  status: ('A' for Active; 'I' for Inactive)
REMARK    1  A    between atoms: C2_2  and  C3_3 
REMARK    2  A    between atoms: C3_3  and  O1_4 
REMARK    3  A    between atoms: O1_4  and  C4_5 
REMARK    4  A    between atoms: C4_5  and  C5_6 
REMARK    5  A    between atoms: C7_9  and  O3_10 
REMARK    6  A    between atoms: C8_12  and  N1_13 
ROOT
HETATM    1  C5  UNL     1       0.318  -0.783   0.274  1.00  0.00     0.172 C 
HETATM    2  C6  UNL     1       0.253  -2.285   0.132  1.00  0.00     0.205 C 
HETATM    3  O2  UNL     1      -0.954  -2.737   0.569  1.00  0.00    -0.354 OA
HETATM    4  C7  UNL     1      -2.056  -2.051   0.185  1.00  0.00     0.307 C 
HETATM    5  C8  UNL     1      -1.873  -0.581  -0.020  1.00  0.00     0.300 C 
HETATM    6  O4  UNL     1      -0.635  -0.275  -0.618  1.00  0.00    -0.350 OA
ENDROOT
BRANCH   5   7
HETATM    7  N1  UNL     1      -2.919   0.013  -0.781  1.00  0.00    -0.253 N 
HETATM    8  C9  UNL     1      -3.187   1.326  -0.851  1.00  0.00     0.133 A 
HETATM    9  C10 UNL     1      -4.277   1.528  -1.690  1.00  0.00     0.127 A 
HETATM   10  N2  UNL     1      -4.627   0.287  -2.100  1.00  0.00    -0.296 N 
HETATM   11  N3  UNL     1      -3.801  -0.603  -1.544  1.00  0.00    -0.239 N 
ATOM     12  H2  UNL     1      -5.397   0.067  -2.732  1.00  0.00     0.187 HD
ATOM     13  H3  UNL     1      -3.846  -1.612  -1.688  1.00  0.00     0.208 HD
ENDBRANCH   5   7
BRANCH   4  14
HETATM   14  O3  UNL     1      -3.012  -2.200   1.219  1.00  0.00    -0.367 OA
ATOM     15  H3  UNL     1      -3.785  -1.719   0.950  1.00  0.00     0.212 HD
ENDBRANCH   4  14
BRANCH   1  16
HETATM   16  C4  UNL     1       1.695  -0.240  -0.018  1.00  0.00     0.202 C 
BRANCH  16  17
HETATM   17  O1  UNL     1       1.706   1.129   0.088  1.00  0.00    -0.385 OA
BRANCH  17  18
HETATM   18  C3  UNL     1       2.923   1.708  -0.163  1.00  0.00     0.194 C 
BRANCH  18  19
HETATM   19  C2  UNL     1       4.003   1.260   0.750  1.00  0.00    -0.011 C 
HETATM   20  C1  UNL     1       4.671   2.072   1.532  1.00  0.00     0.009 C 
ENDBRANCH  18  19
ENDBRANCH  17  18
ENDBRANCH  16  17
ENDBRANCH   1  16
TORSDOF 6
