REMARK  10 active torsions:
REMARK  status: ('A' for Active; 'I' for Inactive)
REMARK    1  A    between atoms: O1_2  and  C2_3 
REMARK    2  A    between atoms: C2_3  and  C3_5 
REMARK    3  A    between atoms: C3_5  and  C4_6 
REMARK    4  A    between atoms: C3_5  and  N1_14 
REMARK    5  A    between atoms: C4_6  and  O3_7 
REMARK    6  A    between atoms: O3_7  and  C5_8 
REMARK    7  A    between atoms: C5_8  and  C6_10 
REMARK       I    between atoms: N1_14  and  C10_16 
REMARK    8  A    between atoms: C10_16  and  C11_18 
REMARK       I    between atoms: N2_21  and  C14_22 
REMARK    9  A    between atoms: C14_22  and  O7_24 
REMARK   10  A    between atoms: O7_24  and  C15_25 
ROOT
HETATM    1  N1  UNL     1       0.792  -1.468  -0.150  1.00  0.00    -0.345 N 
ATOM      2  H1  UNL     1       0.464  -1.803  -1.056  1.00  0.00     0.163 HD
HETATM    3  C10 UNL     1      -0.145  -1.297   0.905  1.00  0.00     0.224 C 
HETATM    4  O5  UNL     1       0.292  -0.878   2.025  1.00  0.00    -0.273 OA
ENDROOT
BRANCH   1   5
HETATM    5  C3  UNL     1       2.202  -1.179   0.027  1.00  0.00     0.208 C 
BRANCH   5   6
HETATM    6  C2  UNL     1       2.962  -2.456  -0.152  1.00  0.00     0.283 C 
HETATM    7  O2  UNL     1       2.366  -3.519  -0.410  1.00  0.00    -0.263 OA
BRANCH   6   8
HETATM    8  O1  UNL     1       4.350  -2.408  -0.021  1.00  0.00    -0.325 OA
HETATM    9  C1  UNL     1       5.071  -3.590  -0.187  1.00  0.00     0.213 C 
ENDBRANCH   6   8
ENDBRANCH   5   6
BRANCH   5  10
HETATM   10  C4  UNL     1       2.582  -0.154  -0.986  1.00  0.00     0.214 C 
BRANCH  10  11
HETATM   11  O3  UNL     1       3.908   0.260  -0.975  1.00  0.00    -0.318 OA
BRANCH  11  12
HETATM   12  C5  UNL     1       4.578   0.867   0.079  1.00  0.00     0.266 C 
HETATM   13  O4  UNL     1       3.908   1.056   1.125  1.00  0.00    -0.264 OA
BRANCH  12  14
HETATM   14  C6  UNL     1       5.982   1.281   0.024  1.00  0.00     0.037 C 
HETATM   15  C7  UNL     1       6.944   0.143  -0.242  1.00  0.00     0.025 C 
HETATM   16  C8  UNL     1       6.372   1.879   1.358  1.00  0.00     0.025 C 
HETATM   17  C9  UNL     1       6.240   2.321  -1.053  1.00  0.00     0.025 C 
ENDBRANCH  12  14
ENDBRANCH  11  12
ENDBRANCH  10  11
ENDBRANCH   5  10
ENDBRANCH   1   5
BRANCH   3  18
HETATM   18  C11 UNL     1      -1.580  -1.576   0.770  1.00  0.00     0.097 C 
HETATM   19  C12 UNL     1      -2.327  -1.304   2.051  1.00  0.00     0.035 C 
HETATM   20  C13 UNL     1      -3.764  -1.186   1.534  1.00  0.00     0.129 C 
HETATM   21  N2  UNL     1      -3.602  -0.458   0.271  1.00  0.00    -0.327 N 
HETATM   22  C14 UNL     1      -4.594   0.337  -0.327  1.00  0.00     0.363 C 
HETATM   23  C19 UNL     1      -2.266  -0.700  -0.236  1.00  0.00     0.142 C 
HETATM   24  O6  UNL     1      -4.360   0.920  -1.408  1.00  0.00    -0.238 OA
BRANCH  22  25
HETATM   25  O7  UNL     1      -5.858   0.530   0.212  1.00  0.00    -0.294 OA
BRANCH  25  26
HETATM   26  C15 UNL     1      -6.796   1.325  -0.423  1.00  0.00     0.061 C 
HETATM   27  C16 UNL     1      -8.065   1.321   0.431  1.00  0.00     0.046 C 
HETATM   28  C17 UNL     1      -6.349   2.775  -0.495  1.00  0.00     0.046 C 
HETATM   29  C18 UNL     1      -7.186   0.891  -1.795  1.00  0.00     0.046 C 
ENDBRANCH  25  26
ENDBRANCH  22  25
ENDBRANCH   3  18
TORSDOF 10
