REMARK  17 active torsions:
REMARK  status: ('A' for Active; 'I' for Inactive)
REMARK    1  A    between atoms: C3_4  and  C4_5 
REMARK    2  A    between atoms: C4_5  and  O2_8 
REMARK    3  A    between atoms: C9_12  and  C10_13 
REMARK    4  A    between atoms: C10_13  and  C12_15 
REMARK    5  A    between atoms: C14_17  and  O3_18 
REMARK    6  A    between atoms: O3_18  and  C15_19 
REMARK    7  A    between atoms: C18_23  and  O5_24 
REMARK    8  A    between atoms: C19_26  and  O6_27 
REMARK    9  A    between atoms: C22_31  and  C23_32 
REMARK   10  A    between atoms: C23_32  and  O7_33 
REMARK   11  A    between atoms: C23_32  and  C24_35 
REMARK   12  A    between atoms: C24_35  and  O8_37 
REMARK   13  A    between atoms: C24_35  and  C26_39 
REMARK   14  A    between atoms: C26_39  and  O9_40 
REMARK   15  A    between atoms: C26_39  and  C27_42 
REMARK   16  A    between atoms: C27_42  and  O10_45 
REMARK   17  A    between atoms: C32_49  and  O11_50 
ROOT
HETATM    1  C12 UNL     1       0.784   0.577  -0.734  1.00  0.00     0.022 C 
HETATM    2  C13 UNL     1       0.709   1.983  -1.257  1.00  0.00     0.042 C 
HETATM    3  C14 UNL     1      -0.239   2.692  -0.282  1.00  0.00     0.157 C 
HETATM    4  C19 UNL     1      -1.561   2.028  -0.137  1.00  0.00     0.094 C 
HETATM    5  C20 UNL     1      -1.859   1.778   1.338  1.00  0.00     0.042 C 
HETATM    6  C21 UNL     1      -3.130   0.902   1.145  1.00  0.00     0.011 C 
HETATM    7  C22 UNL     1      -2.561  -0.114   0.278  1.00  0.00     0.031 C 
HETATM    8  C30 UNL     1      -1.744   0.706  -0.746  1.00  0.00     0.022 C 
HETATM    9  C31 UNL     1      -2.510   0.874  -2.036  1.00  0.00     0.021 C 
HETATM   10  C32 UNL     1      -0.532  -0.097  -1.049  1.00  0.00     0.134 C 
ENDROOT
BRANCH   7  11
HETATM   11  C23 UNL     1      -3.292  -1.199  -0.349  1.00  0.00     0.159 C 
BRANCH  11  12
HETATM   12  O7  UNL     1      -4.333  -0.928  -1.211  1.00  0.00    -0.392 OA
ATOM     13  H7  UNL     1      -4.812  -1.638  -1.622  1.00  0.00     0.210 HD
ENDBRANCH  11  12
BRANCH  11  14
HETATM   14  C24 UNL     1      -3.698  -2.404   0.433  1.00  0.00     0.109 C 
HETATM   15  C25 UNL     1      -3.493  -3.587  -0.571  1.00  0.00     0.051 C 
BRANCH  14  16
HETATM   16  O8  UNL     1      -2.795  -2.796   1.421  1.00  0.00    -0.385 OA
ATOM     17  H8  UNL     1      -3.053  -3.563   1.919  1.00  0.00     0.210 HD
ENDBRANCH  14  16
BRANCH  14  18
HETATM   18  C26 UNL     1      -5.077  -2.358   0.950  1.00  0.00     0.188 C 
BRANCH  18  19
HETATM   19  O9  UNL     1      -5.109  -1.448   2.016  1.00  0.00    -0.389 OA
ATOM     20  H9  UNL     1      -5.998  -1.418   2.349  1.00  0.00     0.210 HD
ENDBRANCH  18  19
BRANCH  18  21
HETATM   21  C27 UNL     1      -5.735  -3.574   1.486  1.00  0.00     0.079 C 
HETATM   22  C28 UNL     1      -5.161  -4.168   2.723  1.00  0.00     0.048 C 
HETATM   23  C29 UNL     1      -6.106  -4.632   0.470  1.00  0.00     0.048 C 
BRANCH  21  24
HETATM   24  O10 UNL     1      -7.024  -3.079   1.878  1.00  0.00    -0.388 OA
ATOM     25  H10 UNL     1      -7.446  -3.858   2.221  1.00  0.00     0.210 HD
ENDBRANCH  21  24
ENDBRANCH  18  21
ENDBRANCH  14  18
ENDBRANCH  11  14
ENDBRANCH   7  11
BRANCH   4  26
HETATM   26  O6  UNL     1      -2.510   2.989  -0.454  1.00  0.00    -0.386 OA
ATOM     27  H6  UNL     1      -3.355   2.565  -0.361  1.00  0.00     0.210 HD
ENDBRANCH   4  26
BRANCH  10  28
HETATM   28  O11 UNL     1      -0.451  -0.465  -2.402  1.00  0.00    -0.394 OA
ATOM     29  H11 UNL     1      -1.278  -0.889  -2.600  1.00  0.00     0.210 HD
ENDBRANCH  10  28
BRANCH   3  30
HETATM   30  O3  UNL     1      -0.325   4.045  -0.554  1.00  0.00    -0.373 OA
BRANCH  30  31
HETATM   31  C15 UNL     1       0.210   4.902   0.330  1.00  0.00     0.176 C 
HETATM   32  C16 UNL     1       1.238   5.857  -0.271  1.00  0.00     0.202 C 
HETATM   33  O4  UNL     1       1.249   6.888   0.651  1.00  0.00    -0.386 OA
HETATM   34  C17 UNL     1      -0.086   7.174   0.925  1.00  0.00     0.201 C 
HETATM   35  C18 UNL     1      -0.842   5.887   0.796  1.00  0.00     0.173 C 
BRANCH  35  36
HETATM   36  O5  UNL     1      -1.448   5.500   1.987  1.00  0.00    -0.391 OA
ATOM     37  H5  UNL     1      -2.108   6.118   2.279  1.00  0.00     0.210 HD
ENDBRANCH  35  36
ENDBRANCH  30  31
ENDBRANCH   3  30
BRANCH   1  38
HETATM   38  C10 UNL     1       1.859  -0.255  -1.370  1.00  0.00    -0.006 C 
HETATM   39  C11 UNL     1       1.703  -1.660  -0.847  1.00  0.00     0.011 C 
BRANCH  38  40
HETATM   40  C9  UNL     1       3.240   0.273  -1.208  1.00  0.00     0.018 C 
HETATM   41  C2  UNL     1       4.262  -0.546  -1.949  1.00  0.00     0.122 C 
HETATM   42  C1  UNL     1       3.785  -1.072  -3.279  1.00  0.00     0.040 C 
HETATM   43  O1  UNL     1       4.839  -1.500  -1.136  1.00  0.00    -0.378 OA
HETATM   44  C3  UNL     1       5.764  -0.837  -0.320  1.00  0.00     0.155 C 
HETATM   45  C7  UNL     1       5.130   0.281   0.457  1.00  0.00     0.035 C 
HETATM   46  C8  UNL     1       3.655   0.417   0.236  1.00  0.00     0.010 C 
BRANCH  44  47
HETATM   47  C4  UNL     1       6.531  -1.798   0.539  1.00  0.00     0.076 C 
HETATM   48  C5  UNL     1       5.643  -2.662   1.395  1.00  0.00     0.048 C 
HETATM   49  C6  UNL     1       7.564  -1.060   1.330  1.00  0.00     0.048 C 
BRANCH  47  50
HETATM   50  O2  UNL     1       7.208  -2.675  -0.337  1.00  0.00    -0.388 OA
ATOM     51  H2  UNL     1       7.694  -3.284   0.207  1.00  0.00     0.210 HD
ENDBRANCH  47  50
ENDBRANCH  44  47
ENDBRANCH  38  40
ENDBRANCH   1  38
TORSDOF 17
