REMARK  2 active torsions:
REMARK  status: ('A' for Active; 'I' for Inactive)
REMARK    1  A    between atoms: C2_2  and  N3_8 
REMARK    2  A    between atoms: N1_3  and  N2_5 
ROOT
HETATM    1  C1  UNL     1       0.392  -1.514  -1.496  1.00  0.00     0.090 C 
HETATM    2  C2  UNL     1       0.012  -0.211  -0.904  1.00  0.00     0.088 C 
HETATM    3  N1  UNL     1      -0.347   0.805  -1.583  1.00  0.00    -0.296 N 
ATOM      4  H1  UNL     1      -0.368   0.698  -2.597  1.00  0.00     0.187 HD
ENDROOT
BRANCH   2   5
HETATM    5  N3  UNL     1       0.057  -0.108   0.513  1.00  0.00    -0.379 N 
HETATM    6  C3  UNL     1       1.275  -0.450   1.206  1.00  0.00     0.150 C 
HETATM    7  C4  UNL     1      -1.077   0.329   1.298  1.00  0.00     0.150 C 
ENDBRANCH   2   5
BRANCH   3   8
HETATM    8  N2  UNL     1      -0.708   2.031  -1.080  1.00  0.00    -0.344 N 
ATOM      9  H22 UNL     1      -0.680   2.119  -0.064  1.00  0.00     0.176 HD
ATOM     10  H21 UNL     1      -0.996   2.845  -1.624  1.00  0.00     0.176 HD
ENDBRANCH   3   8
TORSDOF 2
