REMARK  2 active torsions:
REMARK  status: ('A' for Active; 'I' for Inactive)
REMARK    1  A    between atoms: N1_1  and  S1_4 
REMARK    2  A    between atoms: S1_4  and  C1_6 
ROOT
HETATM    1  C1  UNL     1       0.342  -0.157   0.414  1.00  0.00     0.052 A 
HETATM    2  C2  UNL     1      -0.510   0.843   0.837  1.00  0.00     0.023 A 
HETATM    3  C3  UNL     1      -1.820   0.925   0.412  1.00  0.00     0.001 A 
HETATM    4  C4  UNL     1      -2.337  -0.004  -0.466  1.00  0.00     0.000 A 
HETATM    5  C5  UNL     1      -1.496  -1.009  -0.896  1.00  0.00     0.001 A 
HETATM    6  C6  UNL     1      -0.187  -1.082  -0.465  1.00  0.00     0.023 A 
ENDROOT
BRANCH   1   7
HETATM    7  S1  UNL     1       2.003  -0.246   0.964  1.00  0.00     0.144 S 
HETATM    8  O1  UNL     1       2.527  -1.825   1.129  1.00  0.00    -0.230 OA
BRANCH   7   9
HETATM    9  N1  UNL     1       3.062   0.641  -0.081  1.00  0.00    -0.346 NA
ATOM     10  H12 UNL     1       4.029   0.589   0.239  1.00  0.00     0.166 HD
ATOM     11  H11 UNL     1       2.742   1.604  -0.182  1.00  0.00     0.166 HD
ENDBRANCH   7   9
ENDBRANCH   1   7
TORSDOF 2
