REMARK  1 active torsions:
REMARK  status: ('A' for Active; 'I' for Inactive)
REMARK       I    between atoms: N1_2  and  C3_4 
REMARK    1  A    between atoms: N3_6  and  N4_8 
ROOT
HETATM    1  C1  UNL     1      -1.444   1.384  -0.380  1.00  0.00     0.152 C 
HETATM    2  N1  UNL     1      -0.842   0.233   0.252  1.00  0.00    -0.363 N 
HETATM    3  C2  UNL     1      -1.489  -0.586   1.257  1.00  0.00     0.152 C 
HETATM    4  C3  UNL     1       0.478  -0.119  -0.140  1.00  0.00     0.204 C 
HETATM    5  N2  UNL     1       0.624  -1.132  -1.126  1.00  0.00    -0.062 NA
HETATM    6  N3  UNL     1       1.463   0.486   0.405  1.00  0.00    -0.280 N 
ATOM      7  H3  UNL     1       1.301   1.207   1.108  1.00  0.00     0.189 HD
ENDROOT
BRANCH   6   8
HETATM    8  N4  UNL     1       2.777   0.145   0.023  1.00  0.00    -0.343 N 
ATOM      9  H42 UNL     1       2.922  -0.578  -0.681  1.00  0.00     0.176 HD
ATOM     10  H41 UNL     1       3.563   0.628   0.458  1.00  0.00     0.176 HD
ENDBRANCH   6   8
TORSDOF 1
