REMARK  1 active torsions:
REMARK  status: ('A' for Active; 'I' for Inactive)
REMARK    1  A    between atoms: N1_3  and  C3_5 
ROOT
HETATM    1  C1  UNL     1       2.335   0.175  -0.184  1.00  0.00     0.037 C 
HETATM    2  C2  UNL     1       1.280  -0.409  -0.123  1.00  0.00     0.001 C 
HETATM    3  N1  UNL     1       0.058  -1.077  -0.043  1.00  0.00    -0.295 N 
ATOM      4  H1  UNL     1       0.043  -2.085   0.111  1.00  0.00     0.178 HD
ENDROOT
BRANCH   3   5
HETATM    5  C3  UNL     1      -1.163  -0.369  -0.174  1.00  0.00     0.192 C 
HETATM    6  N2  UNL     1      -1.102   1.034  -0.388  1.00  0.00    -0.069 NA
HETATM    7  S1  UNL     1      -2.618  -1.113  -0.086  1.00  0.00    -0.044 SA
ENDBRANCH   3   5
TORSDOF 1
