REMARK  6 active torsions:
REMARK  status: ('A' for Active; 'I' for Inactive)
REMARK    1  A    between atoms: C3_3  and  C4_4 
REMARK    2  A    between atoms: C4_4  and  C5_5 
REMARK    3  A    between atoms: C5_5  and  N1_6 
REMARK    4  A    between atoms: C5_5  and  C6_10 
REMARK    5  A    between atoms: C6_10  and  N2_11 
REMARK    6  A    between atoms: C6_10  and  C7_15 
ROOT
HETATM    1  C1  UNL     1       4.041   1.394   0.926  1.00  0.00     0.012 C 
HETATM    2  C2  UNL     1       3.295   0.445   0.869  1.00  0.00    -0.117 C 
HETATM    3  C3  UNL     1       2.367  -0.707   0.817  1.00  0.00     0.095 C 
ENDROOT
BRANCH   3   4
HETATM    4  C4  UNL     1       1.069  -0.188   0.265  1.00  0.00     0.047 C 
BRANCH   4   5
HETATM    5  C5  UNL     1       0.013  -1.246   0.148  1.00  0.00     0.214 C 
BRANCH   5   6
HETATM    6  N1  UNL     1       0.451  -2.308  -0.732  1.00  0.00    -0.073 N 
ATOM      7  H13 UNL     1       0.732  -1.951  -1.645  1.00  0.00     0.274 HD
ATOM      8  H12 UNL     1       1.347  -2.698  -0.438  1.00  0.00     0.274 HD
ATOM      9  H11 UNL     1      -0.267  -3.028  -0.812  1.00  0.00     0.274 HD
ENDBRANCH   5   6
BRANCH   5  10
HETATM   10  C6  UNL     1      -1.228  -0.595  -0.439  1.00  0.00     0.217 C 
BRANCH  10  11
HETATM   11  N2  UNL     1      -0.940  -0.047  -1.730  1.00  0.00    -0.073 N 
ATOM     12  H23 UNL     1      -0.150   0.598  -1.702  1.00  0.00     0.274 HD
ATOM     13  H22 UNL     1      -0.543  -0.745  -2.359  1.00  0.00     0.274 HD
ATOM     14  H21 UNL     1      -1.773   0.390  -2.124  1.00  0.00     0.274 HD
ENDBRANCH  10  11
BRANCH  10  15
HETATM   15  C7  UNL     1      -1.687   0.499   0.491  1.00  0.00     0.018 A 
HETATM   16  C8  UNL     1      -2.886   1.316   0.175  1.00  0.00     0.007 A 
HETATM   17  C9  UNL     1      -1.504   1.907   0.017  1.00  0.00     0.007 A 
ENDBRANCH  10  15
ENDBRANCH   5  10
ENDBRANCH   4   5
ENDBRANCH   3   4
TORSDOF 6
