REMARK  3 active torsions:
REMARK  status: ('A' for Active; 'I' for Inactive)
REMARK    1  A    between atoms: C2_2  and  C3_3 
REMARK    2  A    between atoms: C6_8  and  C7_9 
REMARK    3  A    between atoms: C20_39  and  C21_40 
ROOT
HETATM    1  C7  UNL     1      -1.884  -0.373  -0.898  1.00  0.00    -0.027 C 
HETATM    2  C8  UNL     1      -1.318   0.770  -1.714  1.00  0.00     0.066 C 
HETATM    3  C9  UNL     1      -0.269   1.535  -0.908  1.00  0.00     0.236 C 
HETATM    4  N2  UNL     1       1.037   1.425  -1.521  1.00  0.00    -0.073 N 
ATOM      5  H21 UNL     1       1.179   0.496  -1.918  1.00  0.00     0.277 HD
ATOM      6  H22 UNL     1       1.774   1.416  -0.816  1.00  0.00     0.277 HD
HETATM    7  C10 UNL     1       1.273   2.454  -2.507  1.00  0.00     0.259 C 
HETATM    8  C11 UNL     1       2.720   2.889  -2.411  1.00  0.00     0.259 C 
HETATM    9  N3  UNL     1       2.990   3.389  -1.074  1.00  0.00    -0.072 N 
ATOM     10  H31 UNL     1       2.273   3.097  -0.410  1.00  0.00     0.277 HD
ATOM     11  H32 UNL     1       2.854   4.398  -1.013  1.00  0.00     0.277 HD
HETATM   12  C12 UNL     1       4.336   2.993  -0.632  1.00  0.00     0.259 C 
HETATM   13  C13 UNL     1       4.197   1.781   0.249  1.00  0.00     0.259 C 
HETATM   14  N4  UNL     1       5.456   1.457   0.872  1.00  0.00    -0.072 N 
ATOM     15  H41 UNL     1       5.622   2.032   1.698  1.00  0.00     0.277 HD
ATOM     16  H42 UNL     1       6.244   1.766   0.303  1.00  0.00     0.277 HD
HETATM   17  C14 UNL     1       5.549   0.037   1.185  1.00  0.00     0.259 C 
HETATM   18  C15 UNL     1       5.207  -0.245   2.612  1.00  0.00     0.259 C 
HETATM   19  N5  UNL     1       4.330  -1.388   2.779  1.00  0.00    -0.072 N 
ATOM     20  H51 UNL     1       4.329  -1.721   3.743  1.00  0.00     0.277 HD
ATOM     21  H52 UNL     1       4.709  -2.219   2.326  1.00  0.00     0.277 HD
HETATM   22  C16 UNL     1       2.980  -1.094   2.314  1.00  0.00     0.259 C 
HETATM   23  C17 UNL     1       2.114  -2.284   2.665  1.00  0.00     0.259 C 
HETATM   24  N6  UNL     1       0.841  -2.116   1.992  1.00  0.00    -0.072 N 
ATOM     25  H61 UNL     1       0.368  -1.259   2.280  1.00  0.00     0.277 HD
ATOM     26  H62 UNL     1       0.146  -2.788   2.318  1.00  0.00     0.277 HD
HETATM   27  C18 UNL     1       1.020  -2.178   0.566  1.00  0.00     0.251 C 
HETATM   28  C19 UNL     1       0.082  -3.105  -0.132  1.00  0.00     0.142 C 
HETATM   29  N7  UNL     1      -1.265  -2.655  -0.233  1.00  0.00    -0.411 N 
ATOM     30  H7  UNL     1      -1.993  -2.970   0.408  1.00  0.00     0.153 HD
HETATM   31  C20 UNL     1      -1.531  -1.725  -1.302  1.00  0.00     0.115 C 
ENDROOT
BRANCH   1  32
HETATM   32  C6  UNL     1      -2.660  -0.029   0.120  1.00  0.00     0.053 A 
HETATM   33  C5  UNL     1      -3.311  -0.829   1.033  1.00  0.00     0.119 A 
HETATM   34  N1  UNL     1      -4.001  -0.076   1.907  1.00  0.00    -0.350 N 
HETATM   35  C4  UNL     1      -3.805   1.197   1.573  1.00  0.00     0.101 A 
ATOM     36  H1  UNL     1      -4.569  -0.417   2.682  1.00  0.00     0.166 HD
HETATM   37  C3  UNL     1      -4.322   2.231   2.200  1.00  0.00     0.021 C 
HETATM   38  N8  UNL     1      -2.997   1.221   0.496  1.00  0.00    -0.341 N 
ATOM     39  H8  UNL     1      -2.682   2.071   0.028  1.00  0.00     0.167 HD
BRANCH  37  40
HETATM   40  C2  UNL     1      -5.191   2.025   3.367  1.00  0.00     0.026 C 
HETATM   41  C1  UNL     1      -6.059   3.248   3.562  1.00  0.00     0.009 C 
ENDBRANCH  37  40
ENDBRANCH   1  32
BRANCH  31  42
HETATM   42  C21 UNL     1      -2.455  -2.309  -2.349  1.00  0.00    -0.027 C 
HETATM   43  C22 UNL     1      -3.883  -2.410  -1.936  1.00  0.00     0.016 C 
HETATM   44  C23 UNL     1      -1.993  -3.706  -2.714  1.00  0.00     0.016 C 
HETATM   45  C24 UNL     1      -2.394  -1.497  -3.624  1.00  0.00     0.016 C 
ENDBRANCH  31  42
TORSDOF 3
