REMARK  2 active torsions:
REMARK  status: ('A' for Active; 'I' for Inactive)
REMARK    1  A    between atoms: N5_25  and  C12_26 
REMARK    2  A    between atoms: C12_26  and  C13_27 
ROOT
HETATM    1  O1  UNL     1       4.622   3.142   1.762  1.00  0.00    -0.272 OA
HETATM    2  C1  UNL     1       3.831   3.148   0.782  1.00  0.00     0.244 C 
HETATM    3  C2  UNL     1       4.201   2.321  -0.396  1.00  0.00     0.334 C 
HETATM    4  N1  UNL     1       5.632   2.093  -0.434  1.00  0.00    -0.065 N 
ATOM      5  H11 UNL     1       6.052   2.206   0.489  1.00  0.00     0.277 HD
ATOM      6  H12 UNL     1       6.116   2.847  -0.922  1.00  0.00     0.277 HD
HETATM    7  C3  UNL     1       5.954   0.796  -1.008  1.00  0.00     0.260 C 
HETATM    8  C4  UNL     1       5.765  -0.310   0.018  1.00  0.00     0.259 C 
HETATM    9  N2  UNL     1       5.191  -1.444  -0.660  1.00  0.00    -0.072 N 
ATOM     10  H21 UNL     1       5.895  -1.952  -1.195  1.00  0.00     0.277 HD
ATOM     11  H22 UNL     1       4.587  -1.151  -1.428  1.00  0.00     0.277 HD
HETATM   12  C5  UNL     1       4.488  -2.324   0.262  1.00  0.00     0.259 C 
HETATM   13  C6  UNL     1       3.876  -3.438  -0.563  1.00  0.00     0.259 C 
HETATM   14  N3  UNL     1       2.854  -4.134   0.157  1.00  0.00    -0.073 N 
ATOM     15  H31 UNL     1       2.982  -4.050   1.165  1.00  0.00     0.277 HD
ATOM     16  H32 UNL     1       2.957  -5.145   0.070  1.00  0.00     0.277 HD
HETATM   17  C7  UNL     1       1.514  -3.690  -0.256  1.00  0.00     0.234 C 
HETATM   18  C8  UNL     1       0.612  -4.872  -0.163  1.00  0.00     0.055 C 
HETATM   19  C9  UNL     1      -0.830  -4.557  -0.004  1.00  0.00     0.234 C 
HETATM   20  N4  UNL     1      -1.205  -3.221  -0.347  1.00  0.00    -0.071 N 
ATOM     21  H41 UNL     1      -1.175  -3.045  -1.351  1.00  0.00     0.277 HD
ATOM     22  H42 UNL     1      -0.509  -2.529  -0.069  1.00  0.00     0.277 HD
HETATM   23  C10 UNL     1      -2.520  -2.971   0.235  1.00  0.00     0.277 C 
HETATM   24  C11 UNL     1      -3.173  -1.743  -0.367  1.00  0.00     0.090 C 
HETATM   25  N5  UNL     1      -3.013  -0.598   0.434  1.00  0.00    -0.366 N 
HETATM   26  C19 UNL     1      -2.072   0.371  -0.021  1.00  0.00     0.155 C 
HETATM   27  C20 UNL     1      -1.707   1.357   1.058  1.00  0.00     0.252 C 
HETATM   28  N6  UNL     1      -0.489   2.085   0.717  1.00  0.00    -0.072 N 
ATOM     29  H61 UNL     1       0.196   1.479   0.265  1.00  0.00     0.277 HD
ATOM     30  H62 UNL     1       0.046   2.332   1.550  1.00  0.00     0.277 HD
HETATM   31  C21 UNL     1      -0.786   3.254  -0.094  1.00  0.00     0.260 C 
HETATM   32  C22 UNL     1      -0.243   4.491   0.564  1.00  0.00     0.261 C 
HETATM   33  N7  UNL     1       0.829   5.101  -0.184  1.00  0.00    -0.058 N 
ATOM     34  H71 UNL     1       1.133   5.967   0.261  1.00  0.00     0.279 HD
ATOM     35  H72 UNL     1       0.485   5.477  -1.067  1.00  0.00     0.279 HD
HETATM   36  C23 UNL     1       1.940   4.226  -0.404  1.00  0.00     0.357 C 
HETATM   37  N8  UNL     1       2.653   3.906   0.813  1.00  0.00    -0.336 N 
ATOM     38  H8  UNL     1       2.293   4.237   1.708  1.00  0.00     0.164 HD
ENDROOT
BRANCH  25  39
HETATM   39  C12 UNL     1      -4.092  -0.143   1.194  1.00  0.00     0.101 C 
BRANCH  39  40
HETATM   40  C13 UNL     1      -5.317   0.262   0.514  1.00  0.00    -0.021 A 
HETATM   41  C14 UNL     1      -6.412   0.558   1.318  1.00  0.00     0.013 A 
HETATM   42  C15 UNL     1      -7.621   0.953   0.785  1.00  0.00     0.001 A 
HETATM   43  C16 UNL     1      -7.780   1.067  -0.577  1.00  0.00     0.000 A 
HETATM   44  C17 UNL     1      -6.719   0.782  -1.402  1.00  0.00     0.001 A 
HETATM   45  C18 UNL     1      -5.498   0.382  -0.846  1.00  0.00     0.013 A 
ENDBRANCH  39  40
ENDBRANCH  25  39
TORSDOF 2
