REMARK  10 active torsions:
REMARK  status: ('A' for Active; 'I' for Inactive)
REMARK    1  A    between atoms: C2_2  and  C3_3 
REMARK    2  A    between atoms: C3_3  and  C4_4 
REMARK    3  A    between atoms: C5_5  and  O1_6 
REMARK    4  A    between atoms: C7_15  and  C8_16 
REMARK    5  A    between atoms: C11_19  and  O4_20 
REMARK    6  A    between atoms: C12_24  and  C13_25 
REMARK    7  A    between atoms: C13_25  and  C15_27 
REMARK    8  A    between atoms: C17_31  and  C18_32 
REMARK    9  A    between atoms: C21_35  and  O5_36 
REMARK   10  A    between atoms: C25_42  and  O6_43 
ROOT
HETATM    1  C4  UNL     1       4.196   0.919  -0.444  1.00  0.00     0.065 C 
HETATM    2  C5  UNL     1       3.494   2.175  -0.570  1.00  0.00     0.174 C 
HETATM    3  N1  UNL     1       2.423   2.790   0.076  1.00  0.00    -0.245 N 
ATOM      4  H1  UNL     1       2.626   3.702   0.485  1.00  0.00     0.182 HD
HETATM    5  S1  UNL     1       0.802   2.233   0.285  1.00  0.00     0.327 S 
HETATM    6  O2  UNL     1       0.151   1.873  -1.047  1.00  0.00    -0.182 OA
HETATM    7  O3  UNL     1       0.771   1.020   1.143  1.00  0.00    -0.182 OA
HETATM    8  N2  UNL     1      -0.201   3.372   0.981  1.00  0.00    -0.262 N 
HETATM    9  C6  UNL     1       0.450   4.392   1.753  1.00  0.00     0.171 C 
HETATM   10  C7  UNL     1      -1.555   3.123   1.237  1.00  0.00     0.077 C 
HETATM   11  C11 UNL     1      -1.987   1.768   1.624  1.00  0.00     0.165 C 
HETATM   12  N3  UNL     1      -2.785   0.759   1.101  1.00  0.00    -0.325 N 
ATOM     13  H3  UNL     1      -3.735   0.880   1.451  1.00  0.00     0.169 HD
HETATM   14  C12 UNL     1      -2.755  -0.379   0.256  1.00  0.00     0.087 C 
HETATM   15  N4  UNL     1      -1.509  -1.057   0.006  1.00  0.00    -0.345 N 
ATOM     16  H4  UNL     1      -0.851  -0.738  -0.705  1.00  0.00     0.167 HD
HETATM   17  C17 UNL     1      -1.251  -2.213   0.823  1.00  0.00     0.065 C 
HETATM   18  C21 UNL     1       0.071  -2.379   1.400  1.00  0.00     0.166 C 
HETATM   19  N5  UNL     1       1.375  -2.704   0.994  1.00  0.00    -0.331 N 
HETATM   20  C22 UNL     1       2.104  -3.809   1.697  1.00  0.00     0.158 C 
HETATM   21  C23 UNL     1       2.242  -2.110  -0.020  1.00  0.00     0.060 C 
HETATM   22  C24 UNL     1       1.604  -1.600  -1.244  1.00  0.00     0.073 C 
HETATM   23  C25 UNL     1       3.377  -1.362   0.541  1.00  0.00     0.165 C 
HETATM   24  N6  UNL     1       3.874  -0.060   0.537  1.00  0.00    -0.330 N 
HETATM   25  C26 UNL     1       4.198   0.420   1.934  1.00  0.00     0.158 C 
ENDROOT
BRANCH  14  26
HETATM   26  C13 UNL     1      -3.610  -0.335  -0.988  1.00  0.00     0.049 C 
HETATM   27  C14 UNL     1      -3.357   0.691  -1.992  1.00  0.00     0.018 C 
BRANCH  26  28
HETATM   28  C15 UNL     1      -5.100  -0.292  -0.615  1.00  0.00     0.007 C 
HETATM   29  C16 UNL     1      -5.545  -1.477   0.171  1.00  0.00     0.006 C 
ENDBRANCH  26  28
ENDBRANCH  14  26
BRANCH  11  30
HETATM   30  O4  UNL     1      -1.425   1.522   2.803  1.00  0.00    -0.345 OA
ATOM     31  H4  UNL     1      -1.703   0.649   3.052  1.00  0.00     0.219 HD
ENDBRANCH  11  30
BRANCH  17  32
HETATM   32  C18 UNL     1      -1.936  -3.471   0.375  1.00  0.00     0.032 C 
HETATM   33  C19 UNL     1      -1.592  -4.616   1.332  1.00  0.00     0.016 C 
HETATM   34  C20 UNL     1      -1.708  -3.955  -0.990  1.00  0.00     0.016 C 
ENDBRANCH  17  32
BRANCH  10  35
HETATM   35  C8  UNL     1      -2.423   3.837   0.223  1.00  0.00     0.033 C 
HETATM   36  C9  UNL     1      -3.869   3.582   0.588  1.00  0.00     0.016 C 
HETATM   37  C10 UNL     1      -2.224   5.322   0.410  1.00  0.00     0.016 C 
ENDBRANCH  10  35
BRANCH  18  38
HETATM   38  O5  UNL     1       0.075  -2.164   2.713  1.00  0.00    -0.344 OA
ATOM     39  H5  UNL     1       0.940  -2.273   3.091  1.00  0.00     0.219 HD
ENDBRANCH  18  38
BRANCH  23  40
HETATM   40  O6  UNL     1       4.132  -2.184   1.256  1.00  0.00    -0.344 OA
ATOM     41  H6  UNL     1       4.865  -1.701   1.618  1.00  0.00     0.219 HD
ENDBRANCH  23  40
BRANCH   2  42
HETATM   42  O1  UNL     1       4.001   2.923  -1.537  1.00  0.00    -0.344 OA
ATOM     43  H1  UNL     1       3.539   3.749  -1.620  1.00  0.00     0.219 HD
ENDBRANCH   2  42
BRANCH   1  44
HETATM   44  C3  UNL     1       4.600   0.408  -1.819  1.00  0.00     0.061 C 
BRANCH  44  45
HETATM   45  C2  UNL     1       5.358  -0.856  -1.854  1.00  0.00     0.002 C 
HETATM   46  C1  UNL     1       6.680  -0.777  -1.092  1.00  0.00     0.005 C 
ENDBRANCH  44  45
ENDBRANCH   1  44
TORSDOF 10
