REMARK  6 active torsions:
REMARK  status: ('A' for Active; 'I' for Inactive)
REMARK    1  A    between atoms: C2_2  and  C3_3 
REMARK    2  A    between atoms: C3_3  and  C4_4 
REMARK    3  A    between atoms: C6_9  and  C7_10 
REMARK    4  A    between atoms: C17_27  and  C18_28 
REMARK    5  A    between atoms: C18_28  and  C19_29 
REMARK    6  A    between atoms: C26_41  and  C27_42 
ROOT
HETATM    1  C4  UNL     1      -2.760  -1.956   0.538  1.00  0.00     0.101 C 
HETATM    2  N1  UNL     1      -3.811  -1.253  -0.115  1.00  0.00    -0.354 N 
ATOM      3  H1  UNL     1      -4.606  -1.825  -0.400  1.00  0.00     0.163 HD
HETATM    4  C5  UNL     1      -3.914   0.116  -0.425  1.00  0.00     0.241 C 
HETATM    5  O1  UNL     1      -4.620   0.367  -1.468  1.00  0.00    -0.271 OA
HETATM    6  C6  UNL     1      -3.311   1.254   0.310  1.00  0.00     0.178 C 
HETATM    7  N2  UNL     1      -1.930   1.366  -0.092  1.00  0.00    -0.341 N 
HETATM    8  C9  UNL     1      -1.609   1.097  -1.509  1.00  0.00     0.153 C 
HETATM    9  C10 UNL     1      -0.829   1.690   0.740  1.00  0.00     0.242 C 
HETATM   10  O2  UNL     1       0.224   0.944   0.656  1.00  0.00    -0.271 OA
HETATM   11  C11 UNL     1      -0.711   2.775   1.708  1.00  0.00     0.174 C 
HETATM   12  C12 UNL     1      -1.186   2.198   3.048  1.00  0.00     0.042 C 
HETATM   13  N3  UNL     1       0.630   3.312   1.840  1.00  0.00    -0.342 N 
HETATM   14  C13 UNL     1       0.899   3.863   3.157  1.00  0.00     0.153 C 
HETATM   15  C14 UNL     1       1.643   3.350   0.869  1.00  0.00     0.237 C 
HETATM   16  O3  UNL     1       2.855   3.158   1.242  1.00  0.00    -0.272 OA
HETATM   17  C15 UNL     1       1.502   3.591  -0.587  1.00  0.00     0.225 C 
HETATM   18  N4  UNL     1       2.674   3.299  -1.355  1.00  0.00    -0.351 N 
ATOM     19  H4  UNL     1       3.297   4.092  -1.507  1.00  0.00     0.163 HD
HETATM   20  C16 UNL     1       3.100   2.094  -1.931  1.00  0.00     0.240 C 
HETATM   21  O4  UNL     1       3.204   2.006  -3.211  1.00  0.00    -0.271 OA
HETATM   22  C17 UNL     1       3.474   0.824  -1.215  1.00  0.00     0.177 C 
HETATM   23  N5  UNL     1       3.022  -0.260  -2.068  1.00  0.00    -0.346 N 
ATOM     24  H5  UNL     1       3.571  -0.385  -2.919  1.00  0.00     0.163 HD
HETATM   25  C22 UNL     1       1.976  -1.152  -1.926  1.00  0.00     0.247 C 
HETATM   26  O5  UNL     1       1.149  -1.274  -2.870  1.00  0.00    -0.271 OA
HETATM   27  C23 UNL     1       1.680  -2.033  -0.748  1.00  0.00     0.219 C 
HETATM   28  C24 UNL     1       2.525  -3.293  -1.014  1.00  0.00     0.050 C 
HETATM   29  O6  UNL     1       0.396  -2.276  -0.446  1.00  0.00    -0.306 OA
HETATM   30  C25 UNL     1      -0.509  -2.937   0.239  1.00  0.00     0.266 C 
HETATM   31  O7  UNL     1      -0.436  -3.647   1.298  1.00  0.00    -0.265 OA
HETATM   32  C26 UNL     1      -1.944  -2.911  -0.241  1.00  0.00     0.112 C 
ENDROOT
BRANCH  22  33
HETATM   33  C18 UNL     1       4.967   0.791  -0.997  1.00  0.00     0.038 C 
BRANCH  33  34
HETATM   34  C19 UNL     1       5.504  -0.390  -0.291  1.00  0.00    -0.020 C 
HETATM   35  C20 UNL     1       5.000  -0.608   1.088  1.00  0.00     0.009 C 
HETATM   36  C21 UNL     1       7.021  -0.444  -0.288  1.00  0.00     0.009 C 
ENDBRANCH  33  34
ENDBRANCH  22  33
BRANCH  32  37
HETATM   37  C27 UNL     1      -1.999  -2.875  -1.727  1.00  0.00    -0.007 C 
HETATM   38  C28 UNL     1      -3.318  -3.100  -2.344  1.00  0.00     0.010 C 
HETATM   39  C29 UNL     1      -1.104  -4.032  -2.225  1.00  0.00     0.010 C 
ENDBRANCH  32  37
BRANCH   1  40
HETATM   40  C3  UNL     1      -3.387  -2.694   1.747  1.00  0.00     0.052 C 
BRANCH  40  41
HETATM   41  C2  UNL     1      -4.021  -1.772   2.700  1.00  0.00    -0.035 C 
HETATM   42  C1  UNL     1      -3.608  -1.719   3.941  1.00  0.00     0.007 C 
ENDBRANCH  40  41
ENDBRANCH   1  40
BRANCH   6  43
HETATM   43  C7  UNL     1      -4.091   2.525   0.241  1.00  0.00     0.030 C 
HETATM   44  C8  UNL     1      -4.327   3.123  -1.094  1.00  0.00     0.007 C 
ENDBRANCH   6  43
TORSDOF 6
