REMARK  8 active torsions:
REMARK  status: ('A' for Active; 'I' for Inactive)
REMARK    1  A    between atoms: O1_1  and  C1_3 
REMARK    2  A    between atoms: C1_3  and  C2_4 
REMARK    3  A    between atoms: C1_3  and  C5_12 
REMARK    4  A    between atoms: C1_3  and  C11_19 
REMARK    5  A    between atoms: C2_4  and  N1_5 
REMARK    6  A    between atoms: C13_21  and  C14_22 
REMARK    7  A    between atoms: C17_25  and  O2_26 
REMARK    8  A    between atoms: O2_26  and  C18_27 
ROOT
HETATM    1  C1  UNL     1      -2.120  -0.775  -0.633  1.00  0.00     0.122 C 
ENDROOT
BRANCH   1   2
HETATM    2  O1  UNL     1      -1.962  -1.580  -1.832  1.00  0.00    -0.381 OA
ATOM      3  H1  UNL     1      -1.448  -0.979  -2.358  1.00  0.00     0.211 HD
ENDBRANCH   1   2
BRANCH   1   4
HETATM    4  C2  UNL     1      -2.949  -1.745   0.216  1.00  0.00     0.194 C 
BRANCH   4   5
HETATM    5  N1  UNL     1      -3.311  -1.322   1.521  1.00  0.00    -0.284 N 
HETATM    6  C3  UNL     1      -2.654  -1.554   2.705  1.00  0.00     0.201 A 
HETATM    7  N2  UNL     1      -3.299  -0.995   3.712  1.00  0.00    -0.346 N 
HETATM    8  C4  UNL     1      -4.374  -0.396   3.217  1.00  0.00     0.198 A 
ATOM      9  H2  UNL     1      -3.021  -1.019   4.693  1.00  0.00     0.167 HD
HETATM   10  N3  UNL     1      -4.379  -0.595   1.899  1.00  0.00    -0.293 N 
ATOM     11  H3  UNL     1      -5.095  -0.244   1.263  1.00  0.00     0.188 HD
ENDBRANCH   4   5
ENDBRANCH   1   4
BRANCH   1  12
HETATM   12  C5  UNL     1      -2.874   0.402  -0.995  1.00  0.00    -0.021 A 
HETATM   13  C6  UNL     1      -4.253   0.351  -1.283  1.00  0.00     0.012 A 
HETATM   14  C7  UNL     1      -4.980   1.457  -1.627  1.00  0.00     0.024 A 
HETATM   15  C8  UNL     1      -4.395   2.683  -1.709  1.00  0.00     0.034 A 
HETATM   16 CL1  UNL     1      -5.293   4.112  -2.138  1.00  0.00    -0.084 Cl
HETATM   17  C9  UNL     1      -3.036   2.765  -1.429  1.00  0.00     0.024 A 
HETATM   18  C10 UNL     1      -2.286   1.641  -1.079  1.00  0.00     0.012 A 
ENDBRANCH   1  12
BRANCH   1  19
HETATM   19  C11 UNL     1      -0.803  -0.625  -0.051  1.00  0.00     0.145 C 
HETATM   20  C12 UNL     1       0.402  -0.372  -0.875  1.00  0.00     0.085 C 
HETATM   21  C13 UNL     1       1.402  -0.079   0.225  1.00  0.00     0.034 C 
HETATM   22  N4  UNL     1       0.752   0.308   1.302  1.00  0.00    -0.307 N 
HETATM   23  N5  UNL     1      -0.635   0.314   1.058  1.00  0.00    -0.132 NA
ATOM     24  H4  UNL     1       1.190   0.566   2.186  1.00  0.00     0.182 HD
BRANCH  21  25
HETATM   25  C14 UNL     1       2.856  -0.196   0.184  1.00  0.00    -0.012 A 
HETATM   26  C15 UNL     1       3.503  -0.628  -0.957  1.00  0.00     0.016 A 
HETATM   27  C16 UNL     1       4.891  -0.744  -0.983  1.00  0.00     0.038 A 
HETATM   28  C17 UNL     1       5.674  -0.440   0.109  1.00  0.00     0.078 A 
HETATM   29  C19 UNL     1       5.011  -0.005   1.261  1.00  0.00     0.038 A 
HETATM   30  C20 UNL     1       3.645   0.104   1.271  1.00  0.00     0.016 A 
BRANCH  28  31
HETATM   31  O2  UNL     1       7.061  -0.547   0.115  1.00  0.00    -0.255 OA
BRANCH  31  32
HETATM   32  C18 UNL     1       7.892   0.553  -0.278  1.00  0.00     0.530 C 
HETATM   33  F1  UNL     1       7.600   0.890  -1.576  1.00  0.00    -0.144 F 
HETATM   34  F2  UNL     1       7.648   1.654   0.533  1.00  0.00    -0.144 F 
HETATM   35  F3  UNL     1       9.230   0.188  -0.145  1.00  0.00    -0.144 F 
ENDBRANCH  31  32
ENDBRANCH  28  31
ENDBRANCH  21  25
ENDBRANCH   1  19
TORSDOF 8
