REMARK  3 active torsions:
REMARK  status: ('A' for Active; 'I' for Inactive)
REMARK    1  A    between atoms: C2_2  and  C3_3 
REMARK    2  A    between atoms: C3_3  and  N1_4 
REMARK    3  A    between atoms: N1_4  and  C4_7 
ROOT
HETATM    1  C4  UNL     1      -0.113   0.097  -0.455  1.00  0.00     0.128 C 
HETATM    2  C5  UNL     1      -0.342   0.787   0.846  1.00  0.00     0.043 C 
HETATM    3  C6  UNL     1      -1.790   0.808   1.280  1.00  0.00    -0.010 C 
HETATM    4  C7  UNL     1      -2.574   1.491   0.153  1.00  0.00     0.011 C 
HETATM    5  C8  UNL     1      -2.345   0.487  -0.972  1.00  0.00     0.007 C 
HETATM    6  C9  UNL     1      -0.939   0.800  -1.507  1.00  0.00     0.045 C 
HETATM    7  C10 UNL     1      -2.237  -0.860  -0.293  1.00  0.00     0.024 C 
HETATM    8 BR1  UNL     1      -3.485  -2.153  -0.892  1.00  0.00    -0.085 Br
HETATM    9  C11 UNL     1      -2.351  -0.578   1.215  1.00  0.00     0.026 C 
HETATM   10  C12 UNL     1      -0.795  -1.280  -0.488  1.00  0.00     0.060 C 
ENDROOT
BRANCH   1  11
HETATM   11  N1  UNL     1       1.277  -0.023  -0.758  1.00  0.00    -0.066 N 
ATOM     12  H12 UNL     1       1.740   0.886  -0.768  1.00  0.00     0.278 HD
ATOM     13  H11 UNL     1       1.429  -0.284  -1.732  1.00  0.00     0.278 HD
BRANCH  11  14
HETATM   14  C3  UNL     1       1.917  -0.930   0.136  1.00  0.00     0.233 C 
BRANCH  14  15
HETATM   15  C2  UNL     1       3.449  -0.916  -0.031  1.00  0.00     0.023 C 
HETATM   16  C1  UNL     1       3.968   0.494   0.292  1.00  0.00     0.007 C 
ENDBRANCH  14  15
ENDBRANCH  11  14
ENDBRANCH   1  11
TORSDOF 3
