REMARK  3 active torsions:
REMARK  status: ('A' for Active; 'I' for Inactive)
REMARK    1  A    between atoms: C2_2  and  N1_3 
REMARK    2  A    between atoms: C2_2  and  C12_15 
REMARK       I    between atoms: N1_3  and  C3_5 
REMARK    3  A    between atoms: C3_5  and  C4_7 
ROOT
HETATM    1  N1  UNL     1       1.391  -0.362   0.168  1.00  0.00    -0.348 N 
ATOM      2  H1  UNL     1       1.180  -0.679   1.114  1.00  0.00     0.163 HD
HETATM    3  C3  UNL     1       0.359  -0.392  -0.810  1.00  0.00     0.223 C 
HETATM    4  O1  UNL     1       0.645   0.004  -1.967  1.00  0.00    -0.273 OA
ENDROOT
BRANCH   3   5
HETATM    5  C4  UNL     1      -0.972  -0.862  -0.481  1.00  0.00     0.090 C 
HETATM    6  C5  UNL     1      -1.913  -0.869  -1.643  1.00  0.00     0.000 C 
HETATM    7  C6  UNL     1      -3.262  -1.169  -0.974  1.00  0.00     0.011 C 
HETATM    8  C8  UNL     1      -2.420   0.564  -1.695  1.00  0.00     0.011 C 
HETATM    9  C7  UNL     1      -3.020   0.195  -0.329  1.00  0.00    -0.005 C 
HETATM   10  C9  UNL     1      -1.753   0.055   0.475  1.00  0.00    -0.032 C 
HETATM   11  C10 UNL     1      -1.144   1.412   0.590  1.00  0.00     0.016 C 
HETATM   12  C11 UNL     1      -1.938  -0.626   1.787  1.00  0.00     0.016 C 
ENDBRANCH   3   5
BRANCH   1  13
HETATM   13  C2  UNL     1       2.729   0.101  -0.130  1.00  0.00     0.169 C 
HETATM   14  C1  UNL     1       3.624  -1.135   0.025  1.00  0.00     0.042 C 
BRANCH  13  15
HETATM   15  C12 UNL     1       3.118   1.114   0.869  1.00  0.00     0.253 C 
HETATM   16  N2  UNL     1       4.392   1.765   0.836  1.00  0.00    -0.060 NA
HETATM   17  O2  UNL     1       2.295   1.404   1.773  1.00  0.00    -0.275 OA
ENDBRANCH  13  15
ENDBRANCH   1  13
TORSDOF 3
