REMARK  3 active torsions:
REMARK  status: ('A' for Active; 'I' for Inactive)
REMARK    1  A    between atoms: N1_2  and  C2_3 
REMARK       I    between atoms: N1_2  and  C6_12 
REMARK    2  A    between atoms: C2_3  and  C3_4 
REMARK    3  A    between atoms: C6_12  and  C7_14 
ROOT
HETATM    1  C2  UNL     1       1.401  -1.186  -0.869  1.00  0.00     0.183 C 
ENDROOT
BRANCH   1   2
HETATM    2  N1  UNL     1       0.153  -0.913  -0.184  1.00  0.00    -0.350 N 
HETATM    3  C1  UNL     1      -0.043  -1.564   1.096  1.00  0.00     0.153 C 
HETATM    4  C6  UNL     1      -0.819  -0.065  -0.721  1.00  0.00     0.227 C 
HETATM    5  O2  UNL     1      -0.552   0.468  -1.854  1.00  0.00    -0.273 OA
BRANCH   4   6
HETATM    6  C7  UNL     1      -2.122   0.282  -0.120  1.00  0.00     0.030 C 
HETATM    7  C8  UNL     1      -3.034  -0.881   0.058  1.00  0.00     0.025 C 
HETATM    8  C9  UNL     1      -1.934   0.887   1.280  1.00  0.00     0.025 C 
HETATM    9  C10 UNL     1      -2.823   1.333  -0.953  1.00  0.00     0.025 C 
ENDBRANCH   4   6
ENDBRANCH   1   2
BRANCH   1  10
HETATM   10  C3  UNL     1       2.465  -0.249  -0.521  1.00  0.00     0.047 A 
HETATM   11  C4  UNL     1       3.746  -0.275  -1.018  1.00  0.00     0.119 A 
HETATM   12  N2  UNL     1       4.423   0.744  -0.460  1.00  0.00    -0.317 N 
HETATM   13  C5  UNL     1       3.575   1.374   0.356  1.00  0.00     0.324 A 
ATOM     14  H2  UNL     1       5.399   0.989  -0.628  1.00  0.00     0.170 HD
HETATM   15  O1  UNL     1       3.892   2.396   1.050  1.00  0.00    -0.247 OA
HETATM   16  N3  UNL     1       2.377   0.778   0.328  1.00  0.00    -0.309 N 
ATOM     17  H3  UNL     1       1.550   1.056   0.857  1.00  0.00     0.170 HD
ENDBRANCH   1  10
TORSDOF 3
