REMARK  4 active torsions:
REMARK  status: ('A' for Active; 'I' for Inactive)
REMARK    1  A    between atoms: C4_6  and  N2_7 
REMARK    2  A    between atoms: N2_7  and  C5_9 
REMARK    3  A    between atoms: C5_9  and  N3_11 
REMARK    4  A    between atoms: N3_11  and  C7_13 
ROOT
HETATM    1  N2  UNL     1       0.533   1.580   0.579  1.00  0.00    -0.313 N 
ATOM      2  H2  UNL     1       0.606   2.596   0.641  1.00  0.00     0.170 HD
ENDROOT
BRANCH   1   3
HETATM    3  C4  UNL     1       1.586   0.850   0.300  1.00  0.00     0.151 A 
HETATM    4  N1  UNL     1       1.673  -0.472   0.181  1.00  0.00    -0.345 N 
HETATM    5  C3  UNL     1       2.844  -0.994  -0.106  1.00  0.00     0.104 A 
ATOM      6  H1  UNL     1       0.853  -1.064   0.309  1.00  0.00     0.167 HD
HETATM    7  C2  UNL     1       3.899  -0.145  -0.265  1.00  0.00    -0.003 A 
HETATM    8  C1  UNL     1       5.330  -0.496  -0.595  1.00  0.00     0.058 C 
HETATM    9  S2  UNL     1       3.177   1.378   0.004  1.00  0.00    -0.058 SA
ENDBRANCH   1   3
BRANCH   1  10
HETATM   10  C5  UNL     1      -0.699   0.935   0.791  1.00  0.00     0.175 C 
HETATM   11  S1  UNL     1      -1.104   0.554   2.325  1.00  0.00    -0.041 SA
BRANCH  10  12
HETATM   12  N3  UNL     1      -1.539   0.639  -0.303  1.00  0.00    -0.358 N 
HETATM   13  C6  UNL     1      -1.154   0.988  -1.649  1.00  0.00     0.152 C 
BRANCH  12  14
HETATM   14  C7  UNL     1      -2.821  -0.028  -0.103  1.00  0.00     0.078 C 
HETATM   15  C8  UNL     1      -3.748   0.755   0.775  1.00  0.00     0.032 C 
HETATM   16  C9  UNL     1      -2.608  -1.383   0.577  1.00  0.00     0.032 C 
ENDBRANCH  12  14
ENDBRANCH  10  12
ENDBRANCH   1  10
TORSDOF 4
