REMARK  3 active torsions:
REMARK  status: ('A' for Active; 'I' for Inactive)
REMARK    1  A    between atoms: C2_2  and  C4_4 
REMARK    2  A    between atoms: C4_4  and  C5_5 
REMARK    3  A    between atoms: C5_5  and  C6_6 
ROOT
HETATM    1  C4  UNL     1      -0.805  -0.132   0.118  1.00  0.00     0.088 C 
HETATM    2  C10 UNL     1      -1.512  -0.656  -1.074  1.00  0.00     0.046 C 
HETATM    3  C11 UNL     1      -2.306   0.563  -1.511  1.00  0.00     0.047 C 
HETATM    4  C12 UNL     1      -1.439   1.682  -1.024  1.00  0.00     0.194 C 
HETATM    5 BR1  UNL     1      -2.557   2.984  -0.119  1.00  0.00    -0.061 Br
HETATM    6  O1  UNL     1      -0.493   1.202  -0.152  1.00  0.00    -0.359 OA
ENDROOT
BRANCH   1   7
HETATM    7  C2  UNL     1      -1.624  -0.190   1.341  1.00  0.00    -0.059 C 
HETATM    8  C1  UNL     1      -2.821  -0.714   1.340  1.00  0.00     0.017 C 
HETATM    9  C3  UNL     1      -1.118   0.360   2.649  1.00  0.00     0.046 C 
ENDBRANCH   1   7
BRANCH   1  10
HETATM   10  C5  UNL     1       0.483  -0.867   0.403  1.00  0.00     0.070 C 
BRANCH  10  11
HETATM   11  C6  UNL     1       1.424  -0.898  -0.735  1.00  0.00    -0.021 C 
HETATM   12  C7  UNL     1       2.623  -0.354  -0.591  1.00  0.00    -0.091 C 
HETATM   13  C8  UNL     1       3.034   0.281   0.687  1.00  0.00     0.042 C 
HETATM   14  C9  UNL     1       3.583  -0.381  -1.741  1.00  0.00     0.042 C 
ENDBRANCH  10  11
ENDBRANCH   1  10
TORSDOF 3
