REMARK  2 active torsions:
REMARK  status: ('A' for Active; 'I' for Inactive)
REMARK       I    between atoms: C1_2  and  N1_3 
REMARK    1  A    between atoms: C1_2  and  C6_9 
REMARK    2  A    between atoms: N1_3  and  C2_5 
ROOT
HETATM    1  C6  UNL     1      -1.436   0.108   0.545  1.00  0.00     0.085 C 
HETATM    2  C7  UNL     1      -1.722  -1.292  -0.036  1.00  0.00     0.022 C 
HETATM    3  C8  UNL     1      -2.995  -0.980  -0.783  1.00  0.00     0.026 C 
HETATM    4  C9  UNL     1      -2.610   0.345  -1.463  1.00  0.00     0.016 C 
HETATM    5  C10 UNL     1      -2.602   0.846  -0.011  1.00  0.00     0.038 C 
HETATM    6  C11 UNL     1      -3.793  -0.109   0.147  1.00  0.00     0.121 C 
HETATM    7 CL1  UNL     1      -3.959  -0.684   1.799  1.00  0.00    -0.101 Cl
HETATM    8 CL2  UNL     1      -5.271   0.521  -0.591  1.00  0.00    -0.101 Cl
ENDROOT
BRANCH   1   9
HETATM    9  C1  UNL     1      -0.178   0.660   0.020  1.00  0.00     0.222 C 
HETATM   10  O1  UNL     1      -0.159   1.739  -0.627  1.00  0.00    -0.273 OA
HETATM   11  N1  UNL     1       1.069   0.006   0.216  1.00  0.00    -0.356 N 
ATOM     12  H1  UNL     1       1.083  -0.871   0.737  1.00  0.00     0.162 HD
BRANCH  11  13
HETATM   13  C2  UNL     1       2.308   0.524  -0.286  1.00  0.00     0.084 C 
HETATM   14  C3  UNL     1       3.191  -0.428  -1.025  1.00  0.00     0.025 C 
HETATM   15  C4  UNL     1       4.321  -0.049  -0.062  1.00  0.00     0.004 C 
HETATM   16  C5  UNL     1       3.326   0.648   0.829  1.00  0.00     0.025 C 
ENDBRANCH  11  13
ENDBRANCH   1   9
TORSDOF 2
