REMARK  8 active torsions:
REMARK  status: ('A' for Active; 'I' for Inactive)
REMARK    1  A    between atoms: N2_4  and  N3_6 
REMARK    2  A    between atoms: C1_8  and  N4_9 
REMARK    3  A    between atoms: N4_9  and  C2_11 
REMARK    4  A    between atoms: C2_11  and  C3_12 
REMARK    5  A    between atoms: C3_12  and  N5_13 
REMARK    6  A    between atoms: C4_15  and  N6_16 
REMARK    7  A    between atoms: C6_18  and  C7_19 
REMARK    8  A    between atoms: C7_19  and  O1_20 
ROOT
HETATM    1  C2  UNL     1       1.626  -0.970   0.220  1.00  0.00     0.140 C 
ENDROOT
BRANCH   1   2
HETATM    2  N4  UNL     1       3.051  -1.011  -0.041  1.00  0.00    -0.384 N 
ATOM      3  H4  UNL     1       3.535  -1.905  -0.123  1.00  0.00     0.160 HD
BRANCH   2   4
HETATM    4  C1  UNL     1       3.761   0.203  -0.180  1.00  0.00     0.194 C 
HETATM    5  N3  UNL     1       5.044   0.218  -0.100  1.00  0.00    -0.283 N 
ATOM      6  H3  UNL     1       5.537  -0.660   0.065  1.00  0.00     0.189 HD
BRANCH   5   7
HETATM    7  N2  UNL     1       5.778   1.378  -0.229  1.00  0.00    -0.248 N 
HETATM    8  N1  UNL     1       6.153   1.765  -1.376  1.00  0.00    -0.331 N 
ATOM      9  H12 UNL     1       5.904   1.207  -2.193  1.00  0.00     0.178 HD
ATOM     10  H11 UNL     1       6.696   2.623  -1.471  1.00  0.00     0.178 HD
ATOM     11  H2  UNL     1       6.019   1.924   0.598  1.00  0.00     0.207 HD
ENDBRANCH   5   7
ENDBRANCH   2   4
ENDBRANCH   1   2
BRANCH   1  12
HETATM   12  C3  UNL     1       0.951  -0.427  -1.034  1.00  0.00     0.140 C 
BRANCH  12  13
HETATM   13  N5  UNL     1      -0.449  -0.373  -0.813  1.00  0.00    -0.385 N 
HETATM   14  C4  UNL     1      -1.095  -0.651   0.254  1.00  0.00     0.174 C 
ATOM     15  H5  UNL     1      -1.013  -0.074  -1.608  1.00  0.00     0.160 HD
BRANCH  14  16
HETATM   16  N6  UNL     1      -2.501  -0.541   0.297  1.00  0.00    -0.367 N 
HETATM   17  C5  UNL     1      -3.831  -1.166  -0.090  1.00  0.00     0.151 A 
HETATM   18  C6  UNL     1      -3.804   0.073   0.637  1.00  0.00     0.126 A 
BRANCH  18  19
HETATM   19  C7  UNL     1      -4.045   1.422   0.040  1.00  0.00     0.191 C 
BRANCH  19  20
HETATM   20  O1  UNL     1      -4.025   1.475  -1.324  1.00  0.00    -0.399 OA
ATOM     21  H1  UNL     1      -4.178   2.332  -1.703  1.00  0.00     0.209 HD
ENDBRANCH  19  20
ENDBRANCH  18  19
ENDBRANCH  14  16
ENDBRANCH  12  13
ENDBRANCH   1  12
TORSDOF 8
