REMARK  5 active torsions:
REMARK  status: ('A' for Active; 'I' for Inactive)
REMARK    1  A    between atoms: C2_2  and  N1_4 
REMARK    2  A    between atoms: N1_4  and  C5_6 
REMARK    3  A    between atoms: C5_6  and  N2_8 
REMARK    4  A    between atoms: N2_8  and  C6_10 
REMARK    5  A    between atoms: C6_10  and  C7_11 
ROOT
HETATM    1  N2  UNL     1      -0.466   0.111  -1.044  1.00  0.00    -0.343 N 
ATOM      2  H2  UNL     1      -0.942  -0.738  -1.350  1.00  0.00     0.167 HD
ENDROOT
BRANCH   1   3
HETATM    3  C5  UNL     1      -1.250   1.019  -0.327  1.00  0.00     0.173 C 
HETATM    4  S1  UNL     1      -0.537   2.493   0.017  1.00  0.00    -0.041 SA
BRANCH   3   5
HETATM    5  N1  UNL     1      -2.597   0.898   0.065  1.00  0.00    -0.358 N 
HETATM    6  C4  UNL     1      -3.090   2.040   0.908  1.00  0.00     0.152 C 
BRANCH   5   7
HETATM    7  C2  UNL     1      -3.563  -0.110  -0.141  1.00  0.00     0.078 C 
HETATM    8  C1  UNL     1      -3.846  -0.862   1.155  1.00  0.00     0.032 C 
HETATM    9  C3  UNL     1      -3.459  -1.040  -1.280  1.00  0.00     0.032 C 
ENDBRANCH   5   7
ENDBRANCH   3   5
ENDBRANCH   1   3
BRANCH   1  10
HETATM   10  C6  UNL     1       0.893   0.210  -1.401  1.00  0.00     0.097 C 
BRANCH  10  11
HETATM   11  C7  UNL     1       1.956  -0.089  -0.477  1.00  0.00    -0.046 C 
HETATM   12  C8  UNL     1       2.773  -1.135  -0.864  1.00  0.00    -0.017 C 
HETATM   13  C9  UNL     1       3.896  -1.554  -0.023  1.00  0.00     0.047 C 
HETATM   14  C10 UNL     1       4.620  -0.479   0.700  1.00  0.00     0.086 C 
HETATM   15 CL1  UNL     1       4.839  -0.996   2.391  1.00  0.00    -0.125 Cl
HETATM   16  C11 UNL     1       3.874   0.804   0.646  1.00  0.00     0.025 C 
HETATM   17  C12 UNL     1       2.351   0.508   0.783  1.00  0.00     0.041 C 
ENDBRANCH  10  11
ENDBRANCH   1  10
TORSDOF 5
