REMARK  8 active torsions:
REMARK  status: ('A' for Active; 'I' for Inactive)
REMARK    1  A    between atoms: C2_2  and  C3_3 
REMARK    2  A    between atoms: C3_3  and  O2_5 
REMARK    3  A    between atoms: O2_5  and  C4_6 
REMARK    4  A    between atoms: C19_22  and  C20_23 
REMARK    5  A    between atoms: C20_23  and  O3_24 
REMARK    6  A    between atoms: C20_23  and  C21_26 
REMARK    7  A    between atoms: C21_26  and  N2_27 
REMARK    8  A    between atoms: C25_32  and  O5_33 
ROOT
HETATM    1  C4  UNL     1      -0.343   1.183  -0.429  1.00  0.00     0.163 C 
HETATM    2  C5  UNL     1      -1.756   0.553  -0.406  1.00  0.00     0.044 C 
HETATM    3  C6  UNL     1      -2.717   1.327  -1.259  1.00  0.00     0.036 C 
HETATM    4  C7  UNL     1      -3.703   1.979  -0.366  1.00  0.00    -0.030 C 
HETATM    5  C8  UNL     1      -4.954   1.630  -0.205  1.00  0.00    -0.031 C 
HETATM    6  C9  UNL     1      -5.637   0.500  -0.893  1.00  0.00     0.027 C 
HETATM    7  C10 UNL     1      -6.360  -0.295   0.195  1.00  0.00     0.004 C 
HETATM    8  C11 UNL     1      -6.101  -1.774   0.096  1.00  0.00     0.000 C 
HETATM    9  C12 UNL     1      -5.346  -2.312   1.303  1.00  0.00     0.000 C 
HETATM   10  C13 UNL     1      -4.004  -2.895   0.888  1.00  0.00     0.000 C 
HETATM   11  C14 UNL     1      -2.925  -1.815   0.791  1.00  0.00     0.007 C 
HETATM   12  C15 UNL     1      -2.298  -1.912  -0.551  1.00  0.00     0.010 C 
HETATM   13  C16 UNL     1      -1.309  -3.064  -0.526  1.00  0.00     0.026 C 
HETATM   14  C17 UNL     1       0.079  -2.395  -0.477  1.00  0.00     0.118 C 
HETATM   15  N1  UNL     1      -0.226  -1.096  -0.150  1.00  0.00    -0.398 N 
HETATM   16  C18 UNL     1      -1.391  -0.787  -0.930  1.00  0.00     0.090 C 
HETATM   17  C19 UNL     1       0.549  -0.007   0.004  1.00  0.00     0.140 C 
ENDROOT
BRANCH  17  18
HETATM   18  C20 UNL     1       1.911   0.136  -0.609  1.00  0.00     0.171 C 
BRANCH  18  19
HETATM   19  O3  UNL     1       2.362   1.405  -0.166  1.00  0.00    -0.392 OA
ATOM     20  H3  UNL     1       3.224   1.496  -0.554  1.00  0.00     0.210 HD
ENDBRANCH  18  19
BRANCH  18  21
HETATM   21  C21 UNL     1       2.858  -0.890  -0.074  1.00  0.00     0.306 C 
BRANCH  21  22
HETATM   22  N2  UNL     1       4.249  -0.703  -0.470  1.00  0.00     0.094 N 
HETATM   23  C22 UNL     1       5.011  -1.898  -0.117  1.00  0.00     0.280 C 
HETATM   24  C23 UNL     1       5.444  -1.909   1.339  1.00  0.00     0.111 C 
HETATM   25  C24 UNL     1       6.456  -0.825   1.447  1.00  0.00     0.159 C 
HETATM   26  O4  UNL     1       7.322  -0.894   2.273  1.00  0.00    -0.295 OA
HETATM   27  C25 UNL     1       6.310   0.298   0.491  1.00  0.00     0.218 C 
HETATM   28  C27 UNL     1       4.854   0.482   0.083  1.00  0.00     0.311 C 
BRANCH  27  29
HETATM   29  O5  UNL     1       7.060   0.187  -0.651  1.00  0.00    -0.381 OA
HETATM   30  C26 UNL     1       8.017   1.194  -0.769  1.00  0.00     0.202 C 
ENDBRANCH  27  29
ENDBRANCH  21  22
ENDBRANCH  18  21
ENDBRANCH  17  18
BRANCH   1  31
HETATM   31  O2  UNL     1      -0.279   2.270   0.430  1.00  0.00    -0.313 OA
BRANCH  31  32
HETATM   32  C3  UNL     1      -0.014   3.556  -0.083  1.00  0.00     0.258 C 
HETATM   33  O1  UNL     1       0.170   3.760  -1.308  1.00  0.00    -0.265 OA
BRANCH  32  34
HETATM   34  C2  UNL     1       0.055   4.733   0.825  1.00  0.00     0.106 C 
HETATM   35  C1  UNL     1      -0.114   4.317   2.271  1.00  0.00     0.015 C 
ENDBRANCH  32  34
ENDBRANCH  31  32
ENDBRANCH   1  31
TORSDOF 8
