REMARK  8 active torsions:
REMARK  status: ('A' for Active; 'I' for Inactive)
REMARK    1  A    between atoms: C4_5  and  O1_6 
REMARK    2  A    between atoms: C8_12  and  C9_13 
REMARK    3  A    between atoms: C11_19  and  C12_20 
REMARK       I    between atoms: C12_20  and  N3_22 
REMARK    4  A    between atoms: N3_22  and  C13_23 
REMARK    5  A    between atoms: C13_23  and  C14_24 
REMARK    6  A    between atoms: C14_24  and  N4_25 
REMARK    7  A    between atoms: C15_29  and  N5_30 
REMARK    8  A    between atoms: N5_30  and  C16_32 
ROOT
HETATM    1  C9  UNL     1       2.087   0.665   0.331  1.00  0.00     0.072 A 
HETATM    2  N1  UNL     1       1.591   1.481   1.401  1.00  0.00    -0.299 N 
ATOM      3  H1  UNL     1       2.122   2.184   1.915  1.00  0.00     0.187 HD
HETATM    4  N2  UNL     1       0.344   1.167   1.600  1.00  0.00    -0.298 N 
ATOM      5  H2  UNL     1      -0.261   1.590   2.304  1.00  0.00     0.187 HD
HETATM    6  C10 UNL     1      -0.042   0.169   0.710  1.00  0.00     0.079 A 
HETATM    7  C11 UNL     1      -1.236  -0.584   0.525  1.00  0.00     0.102 A 
HETATM    8  C15 UNL     1      -1.297  -1.596  -0.344  1.00  0.00     0.048 A 
HETATM    9  C20 UNL     1      -0.167  -1.874  -1.089  1.00  0.00     0.031 A 
HETATM   10  C21 UNL     1       0.992  -1.178  -0.987  1.00  0.00     0.018 A 
HETATM   11  C22 UNL     1       1.069  -0.118  -0.047  1.00  0.00     0.022 A 
ENDROOT
BRANCH   1  12
HETATM   12  C8  UNL     1       3.472   0.871   0.029  1.00  0.00     0.010 A 
HETATM   13  C2  UNL     1       3.834   2.172  -0.469  1.00  0.00    -0.007 A 
HETATM   14  C1  UNL     1       2.747   3.028  -0.987  1.00  0.00     0.052 C 
HETATM   15  C3  UNL     1       5.132   2.535  -0.591  1.00  0.00     0.158 A 
HETATM   16  F1  UNL     1       5.507   3.735  -1.012  1.00  0.00    -0.203 F 
HETATM   17  C4  UNL     1       6.086   1.540  -0.209  1.00  0.00     0.127 A 
HETATM   18  C5  UNL     1       5.808   0.370   0.230  1.00  0.00     0.077 A 
HETATM   19 CL1  UNL     1       7.017  -0.867   0.661  1.00  0.00    -0.081 Cl
HETATM   20  C6  UNL     1       4.460   0.025   0.354  1.00  0.00    -0.024 A 
HETATM   21  C7  UNL     1       4.221  -1.399   0.819  1.00  0.00     0.051 C 
BRANCH  17  22
HETATM   22  O1  UNL     1       7.441   2.014  -0.349  1.00  0.00    -0.356 OA
ATOM     23  H1  UNL     1       8.075   1.353  -0.095  1.00  0.00     0.218 HD
ENDBRANCH  17  22
ENDBRANCH   1  12
BRANCH   7  24
HETATM   24  C12 UNL     1      -2.358  -0.184   1.456  1.00  0.00     0.330 C 
HETATM   25  O2  UNL     1      -3.029  -1.002   2.060  1.00  0.00    -0.251 OA
HETATM   26  N3  UNL     1      -2.591   1.200   1.466  1.00  0.00    -0.382 NA
BRANCH  26  27
HETATM   27  C13 UNL     1      -2.816   2.535   1.475  1.00  0.00     0.186 C 
BRANCH  27  28
HETATM   28  C14 UNL     1      -2.732   3.345   2.685  1.00  0.00     0.288 C 
BRANCH  28  29
HETATM   29  N4  UNL     1      -3.914   3.099   3.567  1.00  0.00    -0.074 N 
ATOM     30  H43 UNL     1      -4.793   3.248   3.072  1.00  0.00     0.274 HD
ATOM     31  H42 UNL     1      -4.026   2.108   3.782  1.00  0.00     0.274 HD
ATOM     32  H41 UNL     1      -3.855   3.665   4.413  1.00  0.00     0.274 HD
ENDBRANCH  28  29
ENDBRANCH  27  28
ENDBRANCH  26  27
ENDBRANCH   7  24
BRANCH   8  33
HETATM   33  N5  UNL     1      -2.455  -2.356  -0.507  1.00  0.00    -0.381 N 
ATOM     34  H5  UNL     1      -3.069  -2.407   0.306  1.00  0.00     0.160 HD
BRANCH  33  35
HETATM   35  C16 UNL     1      -2.886  -3.058  -1.640  1.00  0.00     0.019 C 
HETATM   36  C17 UNL     1      -3.027  -2.128  -2.869  1.00  0.00     0.037 C 
HETATM   37  C18 UNL     1      -2.242  -4.317  -2.018  1.00  0.00     0.037 C 
HETATM   38  C19 UNL     1      -4.391  -3.398  -1.375  1.00  0.00     0.037 C 
ENDBRANCH  33  35
ENDBRANCH   8  33
TORSDOF 8
