REMARK  3 active torsions:
REMARK  status: ('A' for Active; 'I' for Inactive)
REMARK       I    between atoms: N1_4  and  C4_6 
REMARK    1  A    between atoms: C4_6  and  C5_8 
REMARK    2  A    between atoms: C14_21  and  C15_22 
REMARK       I    between atoms: C15_22  and  N2_24 
REMARK    3  A    between atoms: N2_24  and  C16_26 
ROOT
HETATM    1  C5  UNL     1      -0.640  -0.190   0.444  1.00  0.00     0.101 C 
HETATM    2  C6  UNL     1      -1.715  -1.016   0.995  1.00  0.00     0.047 C 
HETATM    3  C7  UNL     1      -2.822  -1.377   0.052  1.00  0.00    -0.004 C 
HETATM    4  C8  UNL     1      -3.469  -2.524   0.837  1.00  0.00     0.024 C 
HETATM    5  C9  UNL     1      -2.242  -3.283   1.319  1.00  0.00     0.100 C 
HETATM    6 BR1  UNL     1      -2.534  -3.675   3.199  1.00  0.00    -0.088 Br
HETATM    7  C10 UNL     1      -1.084  -2.368   1.216  1.00  0.00     0.144 C 
HETATM    8  F1  UNL     1      -0.282  -2.358   2.336  1.00  0.00    -0.239 F 
HETATM    9  C11 UNL     1      -0.279  -2.481  -0.062  1.00  0.00     0.104 C 
HETATM   10 CL1  UNL     1       0.956  -3.737   0.209  1.00  0.00    -0.113 Cl
HETATM   11  C12 UNL     1      -1.173  -2.833  -1.197  1.00  0.00     0.110 C 
HETATM   12 CL2  UNL     1      -0.250  -2.507  -2.711  1.00  0.00    -0.123 Cl
HETATM   13  C13 UNL     1      -2.380  -1.967  -1.234  1.00  0.00     0.027 C 
HETATM   14  C14 UNL     1       0.293  -1.111  -0.299  1.00  0.00     0.119 C 
ENDROOT
BRANCH  14  15
HETATM   15  C15 UNL     1       1.693  -0.925   0.093  1.00  0.00     0.225 C 
HETATM   16  O2  UNL     1       2.361  -1.809   0.664  1.00  0.00    -0.273 OA
HETATM   17  N2  UNL     1       2.363   0.304  -0.166  1.00  0.00    -0.356 N 
ATOM     18  H2  UNL     1       1.853   1.055  -0.630  1.00  0.00     0.162 HD
BRANCH  17  19
HETATM   19  C16 UNL     1       3.749   0.524   0.209  1.00  0.00     0.084 C 
HETATM   20  C17 UNL     1       3.861   1.732   1.120  1.00  0.00     0.025 C 
HETATM   21  C18 UNL     1       5.346   2.021   1.067  1.00  0.00     0.002 C 
HETATM   22  C19 UNL     1       5.650   1.871  -0.396  1.00  0.00     0.002 C 
HETATM   23  C20 UNL     1       4.593   0.952  -0.967  1.00  0.00     0.025 C 
ENDBRANCH  17  19
ENDBRANCH  14  15
BRANCH   1  24
HETATM   24  C4  UNL     1      -1.080   0.987  -0.326  1.00  0.00     0.227 C 
HETATM   25  N1  UNL     1      -1.836   2.024   0.292  1.00  0.00    -0.335 N 
HETATM   26  C2  UNL     1      -2.828   2.592  -0.298  1.00  0.00    -0.018 C 
ATOM     27  H1  UNL     1      -1.583   2.326   1.233  1.00  0.00     0.168 HD
HETATM   28  C1  UNL     1      -3.260   2.211  -1.665  1.00  0.00     0.062 C 
HETATM   29  C3  UNL     1      -3.576   3.662   0.394  1.00  0.00     0.062 C 
HETATM   30  O1  UNL     1      -0.825   1.149  -1.541  1.00  0.00    -0.273 OA
ENDBRANCH   1  24
TORSDOF 3
