REMARK  2 active torsions:
REMARK  status: ('A' for Active; 'I' for Inactive)
REMARK       I    between atoms: C1_2  and  N1_3 
REMARK    1  A    between atoms: C1_2  and  C13_16 
REMARK    2  A    between atoms: N1_3  and  C2_5 
ROOT
HETATM    1  C2  UNL     1       0.224  -0.466  -0.308  1.00  0.00     0.089 C 
HETATM    2  C3  UNL     1      -0.428  -1.083   0.837  1.00  0.00     0.030 C 
HETATM    3  C4  UNL     1      -1.894  -0.920   1.015  1.00  0.00    -0.012 C 
HETATM    4  C5  UNL     1      -2.317   0.468   1.420  1.00  0.00     0.009 C 
HETATM    5  C6  UNL     1      -2.501   1.381   0.230  1.00  0.00    -0.013 C 
HETATM    6  C7  UNL     1      -3.472   0.799  -0.776  1.00  0.00     0.009 C 
HETATM    7  C8  UNL     1      -2.910  -0.501  -1.253  1.00  0.00    -0.013 C 
HETATM    8  C9  UNL     1      -2.726  -1.440  -0.115  1.00  0.00     0.009 C 
HETATM    9  C10 UNL     1      -1.628  -0.213  -1.990  1.00  0.00     0.011 C 
HETATM   10  C11 UNL     1      -0.607   0.486  -1.136  1.00  0.00     0.009 C 
HETATM   11  C12 UNL     1      -1.156   1.642  -0.358  1.00  0.00     0.011 C 
ENDROOT
BRANCH   1  12
HETATM   12  N1  UNL     1       1.450   0.239   0.017  1.00  0.00    -0.354 N 
HETATM   13  C1  UNL     1       2.711  -0.111  -0.530  1.00  0.00     0.247 C 
HETATM   14  O1  UNL     1       2.736  -1.079  -1.329  1.00  0.00    -0.271 OA
ATOM     15  H1  UNL     1       1.403   1.022   0.669  1.00  0.00     0.162 HD
BRANCH  13  16
HETATM   16  C13 UNL     1       3.960   0.601  -0.204  1.00  0.00     0.215 C 
HETATM   17  C14 UNL     1       4.581   0.208   1.140  1.00  0.00     0.068 C 
HETATM   18  C15 UNL     1       5.258  -0.772   0.209  1.00  0.00     0.171 C 
HETATM   19  O2  UNL     1       5.087   0.116  -0.834  1.00  0.00    -0.376 OA
ENDBRANCH  13  16
ENDBRANCH   1  12
TORSDOF 2
