REMARK  3 active torsions:
REMARK  status: ('A' for Active; 'I' for Inactive)
REMARK    1  A    between atoms: N1_6  and  C6_7 
REMARK    2  A    between atoms: C6_7  and  C7_8 
REMARK    3  A    between atoms: C7_8  and  N3_12 
ROOT
HETATM    1  C7  UNL     1      -0.585   0.012   0.517  1.00  0.00     0.113 C 
HETATM    2  N2  UNL     1      -0.255   0.388   1.698  1.00  0.00    -0.384 N 
ATOM      3  H21 UNL     1      -0.973   0.647   2.374  1.00  0.00     0.157 HD
ATOM      4  H22 UNL     1       0.726   0.434   1.973  1.00  0.00     0.157 HD
ENDROOT
BRANCH   1   5
HETATM    5  C6  UNL     1       0.442  -0.358  -0.450  1.00  0.00     0.133 C 
BRANCH   5   6
HETATM    6  N1  UNL     1       1.785  -0.256  -0.079  1.00  0.00    -0.386 N 
HETATM    7  C5  UNL     1       2.335   1.030   0.126  1.00  0.00     0.122 C 
HETATM    8  C4  UNL     1       3.546   1.069   0.997  1.00  0.00     0.020 C 
HETATM    9  C3  UNL     1       4.395  -0.175   0.863  1.00  0.00     0.007 C 
HETATM   10  C2  UNL     1       4.111  -0.913  -0.427  1.00  0.00    -0.001 C 
HETATM   11  C1  UNL     1       4.692  -0.219  -1.625  1.00  0.00     0.011 C 
HETATM   12  C15 UNL     1       2.670  -1.258  -0.563  1.00  0.00     0.126 C 
ENDBRANCH   5   6
ENDBRANCH   1   5
BRANCH   1  13
HETATM   13  N3  UNL     1      -1.947  -0.052   0.135  1.00  0.00    -0.358 N 
HETATM   14  C8  UNL     1      -3.043  -0.463   0.961  1.00  0.00     0.082 C 
HETATM   15  C9  UNL     1      -2.684  -1.326   2.116  1.00  0.00     0.032 C 
HETATM   16  C10 UNL     1      -3.807   0.783   1.342  1.00  0.00     0.025 C 
HETATM   17  C11 UNL     1      -3.816   1.724   0.177  1.00  0.00     0.004 C 
HETATM   18  C12 UNL     1      -3.620   1.043  -1.158  1.00  0.00     0.025 C 
HETATM   19  C13 UNL     1      -2.281   0.339  -1.238  1.00  0.00     0.082 C 
HETATM   20  C14 UNL     1      -2.458  -0.902  -2.048  1.00  0.00     0.032 C 
ENDBRANCH   1  13
TORSDOF 3
