REMARK  4 active torsions:
REMARK  status: ('A' for Active; 'I' for Inactive)
REMARK    1  A    between atoms: O1_1  and  C1_3 
REMARK    2  A    between atoms: C1_3  and  C2_4 
REMARK    3  A    between atoms: C2_4  and  N1_5 
REMARK    4  A    between atoms: N2_8  and  C5_9 
ROOT
HETATM    1  N1  UNL     1       3.208  -0.257   1.168  1.00  0.00     0.099 N 
HETATM    2  C3  UNL     1       2.246  -1.275   1.483  1.00  0.00     0.317 C 
HETATM    3  C4  UNL     1       0.971  -1.301   0.767  1.00  0.00     0.094 C 
HETATM    4  N2  UNL     1       0.484  -0.135   0.201  1.00  0.00    -0.361 N 
HETATM    5  C15 UNL     1       1.400   0.857  -0.098  1.00  0.00     0.094 C 
HETATM    6  C16 UNL     1       2.453   0.974   0.987  1.00  0.00     0.317 C 
ENDROOT
BRANCH   4   7
HETATM    7  C5  UNL     1      -0.896   0.028   0.001  1.00  0.00     0.036 C 
HETATM    8  C6  UNL     1      -1.696   0.077   1.318  1.00  0.00     0.036 C 
HETATM    9  C7  UNL     1      -3.160   0.182   1.001  1.00  0.00    -0.012 C 
HETATM   10  C8  UNL     1      -3.670  -1.026   0.244  1.00  0.00     0.009 C 
HETATM   11  C12 UNL     1      -3.515   1.386   0.153  1.00  0.00     0.009 C 
HETATM   12  C9  UNL     1      -2.889  -1.118  -1.034  1.00  0.00    -0.012 C 
HETATM   13  C10 UNL     1      -3.072   0.072  -1.941  1.00  0.00     0.009 C 
HETATM   14  C14 UNL     1      -1.431  -1.242  -0.678  1.00  0.00     0.036 C 
HETATM   15  C11 UNL     1      -2.738   1.294  -1.145  1.00  0.00    -0.012 C 
HETATM   16  C13 UNL     1      -1.251   1.272  -0.752  1.00  0.00     0.036 C 
ENDBRANCH   4   7
BRANCH   1  17
HETATM   17  C2  UNL     1       4.035  -0.595   0.022  1.00  0.00     0.299 C 
BRANCH  17  18
HETATM   18  C1  UNL     1       5.276   0.212  -0.125  1.00  0.00     0.194 C 
BRANCH  18  19
HETATM   19  O1  UNL     1       5.159   1.555  -0.259  1.00  0.00    -0.399 OA
ATOM     20  H1  UNL     1       5.952   2.070  -0.353  1.00  0.00     0.209 HD
ENDBRANCH  18  19
ENDBRANCH  17  18
ENDBRANCH   1  17
TORSDOF 4
