REMARK  2 active torsions:
REMARK  status: ('A' for Active; 'I' for Inactive)
REMARK    1  A    between atoms: C7_8  and  N2_9 
REMARK    2  A    between atoms: N2_9  and  C8_12 
ROOT
HETATM    1  C1  UNL     1      -3.879  -1.821   0.465  1.00  0.00     0.310 C 
HETATM    2  N1  UNL     1      -2.550  -1.270   0.391  1.00  0.00     0.089 N 
HETATM    3  C2  UNL     1      -2.223  -0.396   1.479  1.00  0.00     0.277 C 
HETATM    4  C3  UNL     1      -1.883   0.992   1.112  1.00  0.00     0.024 C 
HETATM    5  C4  UNL     1      -2.608   1.568  -0.059  1.00  0.00    -0.006 C 
HETATM    6  C5  UNL     1      -1.326   2.333  -0.374  1.00  0.00     0.012 C 
HETATM    7  C6  UNL     1      -0.613   1.275   0.465  1.00  0.00     0.023 C 
HETATM    8  C7  UNL     1       0.033   0.323  -0.431  1.00  0.00     0.193 C 
HETATM    9  C13 UNL     1      -0.747  -0.759  -1.052  1.00  0.00     0.069 C 
HETATM   10  C14 UNL     1      -2.227  -0.718  -0.899  1.00  0.00     0.224 C 
HETATM   11  C15 UNL     1      -2.860   0.607  -1.173  1.00  0.00     0.041 C 
ENDROOT
BRANCH   8  12
HETATM   12  N2  UNL     1       1.185  -0.250   0.269  1.00  0.00    -0.066 N 
ATOM     13  H22 UNL     1       1.296   0.164   1.195  1.00  0.00     0.278 HD
ATOM     14  H21 UNL     1       1.006  -1.216   0.543  1.00  0.00     0.278 HD
BRANCH  12  15
HETATM   15  C8  UNL     1       2.398  -0.144  -0.495  1.00  0.00     0.186 C 
HETATM   16  C9  UNL     1       3.152  -1.431  -0.625  1.00  0.00     0.033 C 
HETATM   17  C10 UNL     1       4.574  -1.166  -0.205  1.00  0.00     0.002 C 
HETATM   18  C11 UNL     1       4.720   0.335  -0.123  1.00  0.00     0.002 C 
HETATM   19  C12 UNL     1       3.319   0.855   0.146  1.00  0.00     0.033 C 
ENDBRANCH  12  15
ENDBRANCH   8  12
TORSDOF 2
