REMARK  3 active torsions:
REMARK  status: ('A' for Active; 'I' for Inactive)
REMARK    1  A    between atoms: N1_2  and  C2_4 
REMARK    2  A    between atoms: C2_4  and  C3_6 
REMARK    3  A    between atoms: N2_10  and  C7_11 
ROOT
HETATM    1  C3  UNL     1       1.642  -0.532  -0.428  1.00  0.00     0.284 C 
HETATM    2  C4  UNL     1       2.399  -1.803  -0.163  1.00  0.00     0.045 C 
HETATM    3  C5  UNL     1       1.372  -2.815   0.334  1.00  0.00     0.033 C 
HETATM    4  C6  UNL     1       0.140  -2.200  -0.300  1.00  0.00     0.274 C 
HETATM    5  N2  UNL     1       0.316  -0.789   0.124  1.00  0.00     0.104 N 
ENDROOT
BRANCH   5   6
HETATM    6  C7  UNL     1      -0.743  -0.030  -0.449  1.00  0.00     0.227 C 
HETATM    7  C8  UNL     1      -1.828  -0.772  -1.147  1.00  0.00     0.036 C 
HETATM    8  C9  UNL     1      -2.975  -0.910  -0.156  1.00  0.00     0.002 C 
HETATM    9  C10 UNL     1      -2.747   0.160   0.876  1.00  0.00     0.006 C 
HETATM   10  C11 UNL     1      -1.492   0.895   0.434  1.00  0.00     0.015 C 
HETATM   11  C12 UNL     1      -1.968   2.057  -0.428  1.00  0.00     0.012 C 
ENDBRANCH   5   6
BRANCH   1  12
HETATM   12  C2  UNL     1       2.313   0.571   0.295  1.00  0.00     0.106 C 
HETATM   13  S1  UNL     1       3.602   0.234   1.229  1.00  0.00    -0.063 SA
BRANCH  12  14
HETATM   14  N1  UNL     1       1.935   1.941   0.246  1.00  0.00    -0.387 N 
HETATM   15  C1  UNL     1       2.657   2.954   1.034  1.00  0.00     0.147 C 
ATOM     16  H1  UNL     1       1.153   2.226  -0.343  1.00  0.00     0.159 HD
ENDBRANCH  12  14
ENDBRANCH   1  12
TORSDOF 3
