REMARK  6 active torsions:
REMARK  status: ('A' for Active; 'I' for Inactive)
REMARK    1  A    between atoms: O1_2  and  C2_3 
REMARK    2  A    between atoms: C3_4  and  O2_5 
REMARK    3  A    between atoms: C5_8  and  O3_9 
REMARK    4  A    between atoms: C9_14  and  C10_15 
REMARK    5  A    between atoms: C9_14  and  O4_20 
REMARK    6  A    between atoms: C11_16  and  C12_17 
ROOT
HETATM    1  C2  UNL     1      -3.128   1.016   0.172  1.00  0.00     0.110 A 
HETATM    2  C3  UNL     1      -4.215   0.578   0.899  1.00  0.00     0.102 A 
HETATM    3  C4  UNL     1      -4.284  -0.695   1.450  1.00  0.00     0.078 A 
HETATM    4  C5  UNL     1      -3.188  -1.528   1.233  1.00  0.00     0.102 A 
HETATM    5  C6  UNL     1      -2.091  -1.124   0.514  1.00  0.00     0.112 A 
HETATM    6  C7  UNL     1      -2.073   0.140  -0.007  1.00  0.00     0.018 A 
HETATM    7  C8  UNL     1      -0.909   0.601  -0.783  1.00  0.00     0.090 C 
HETATM    8  C9  UNL     1       0.368  -0.155  -0.120  1.00  0.00     0.113 C 
HETATM    9  C16 UNL     1       0.057  -1.576  -0.477  1.00  0.00     0.095 C 
HETATM   10  C17 UNL     1       1.195  -2.552  -0.343  1.00  0.00     0.050 C 
HETATM   11  C18 UNL     1      -0.452  -1.708  -1.882  1.00  0.00     0.050 C 
HETATM   12  O5  UNL     1      -1.053  -1.996   0.342  1.00  0.00    -0.334 OA
ENDROOT
BRANCH   8  13
HETATM   13  C10 UNL     1       1.455   0.411  -0.950  1.00  0.00     0.010 C 
HETATM   14  C11 UNL     1       2.857   0.085  -0.857  1.00  0.00    -0.024 C 
BRANCH  14  15
HETATM   15  C12 UNL     1       3.670   0.350   0.346  1.00  0.00    -0.000 C 
HETATM   16  C13 UNL     1       3.706   1.839   0.720  1.00  0.00     0.013 C 
HETATM   17  C14 UNL     1       5.168   0.061   0.017  1.00  0.00     0.013 C 
ENDBRANCH  14  15
ENDBRANCH   8  13
BRANCH   8  18
HETATM   18  O4  UNL     1       0.208   0.215   1.112  1.00  0.00    -0.378 OA
HETATM   19  C15 UNL     1       0.644   0.109   2.295  1.00  0.00     0.203 C 
ENDBRANCH   8  18
BRANCH   1  20
HETATM   20  O1  UNL     1      -3.158   2.306  -0.335  1.00  0.00    -0.352 OA
HETATM   21  C1  UNL     1      -3.672   2.632  -1.602  1.00  0.00     0.210 C 
ENDBRANCH   1  20
BRANCH   2  22
HETATM   22  O2  UNL     1      -5.328   1.406   1.127  1.00  0.00    -0.358 OA
ATOM     23  H2  UNL     1      -6.077   1.104   1.628  1.00  0.00     0.217 HD
ENDBRANCH   2  22
BRANCH   4  24
HETATM   24  O3  UNL     1      -3.207  -2.814   1.763  1.00  0.00    -0.358 OA
ATOM     25  H3  UNL     1      -2.460  -3.382   1.615  1.00  0.00     0.217 HD
ENDBRANCH   4  24
TORSDOF 6
