REMARK  9 active torsions:
REMARK  status: ('A' for Active; 'I' for Inactive)
REMARK       I    between atoms: N1_2  and  C2_4 
REMARK    1  A    between atoms: C2_4  and  C3_6 
REMARK       I    between atoms: C3_6  and  N2_8 
REMARK    2  A    between atoms: N2_8  and  C4_10 
REMARK    3  A    between atoms: C10_19  and  N4_20 
REMARK    4  A    between atoms: N4_20  and  C11_22 
REMARK    5  A    between atoms: C11_22  and  O4_23 
REMARK    6  A    between atoms: C11_22  and  C12_25 
REMARK    7  A    between atoms: C15_28  and  C16_29 
REMARK    8  A    between atoms: C17_30  and  C18_31 
REMARK    9  A    between atoms: C23_37  and  O5_38 
ROOT
HETATM    1  N4  UNL     1      -2.009   1.309  -2.668  1.00  0.00    -0.322 N 
ATOM      2  H4  UNL     1      -2.721   1.302  -3.398  1.00  0.00     0.169 HD
ENDROOT
BRANCH   1   3
HETATM    3  C10 UNL     1      -2.525   1.010  -1.402  1.00  0.00     0.109 A 
HETATM    4  C9  UNL     1      -1.803   1.076  -0.232  1.00  0.00     0.051 A 
HETATM    5  C8  UNL     1      -2.299   0.803   1.013  1.00  0.00     0.036 A 
HETATM    6  C7  UNL     1      -3.622   0.437   1.093  1.00  0.00     0.082 A 
HETATM    7  C6  UNL     1      -4.407   0.353  -0.077  1.00  0.00     0.132 A 
HETATM    8  N6  UNL     1      -4.197   0.179   2.282  1.00  0.00    -0.189 N 
HETATM    9  C5  UNL     1      -5.721   0.012   0.074  1.00  0.00     0.288 A 
HETATM   10  N5  UNL     1      -3.845   0.636  -1.292  1.00  0.00    -0.331 N 
HETATM   11  N3  UNL     1      -6.212  -0.229   1.298  1.00  0.00    -0.154 N 
HETATM   12  O3  UNL     1      -6.502  -0.089  -0.869  1.00  0.00    -0.265 OA
HETATM   13  C4  UNL     1      -5.503  -0.161   2.430  1.00  0.00     0.688 A 
ATOM     14  H3  UNL     1      -7.197  -0.482   1.371  1.00  0.00     0.187 HD
HETATM   15  C29 UNL     1      -4.650   0.457  -2.452  1.00  0.00     0.158 C 
ATOM     16  H6  UNL     1      -3.619   0.243   3.120  1.00  0.00     0.184 HD
BRANCH  13  17
HETATM   17  N2  UNL     1      -6.022  -0.393   3.559  1.00  0.00    -0.151 N 
HETATM   18  C3  UNL     1      -7.371  -0.746   3.763  1.00  0.00     0.327 C 
HETATM   19  O2  UNL     1      -8.180   0.087   4.297  1.00  0.00    -0.261 OA
ATOM     20  H2  UNL     1      -5.422  -0.320   4.381  1.00  0.00     0.188 HD
BRANCH  18  21
HETATM   21  C2  UNL     1      -7.825  -2.070   3.356  1.00  0.00     0.309 C 
HETATM   22  N1  UNL     1      -9.233  -2.352   3.549  1.00  0.00    -0.357 N 
HETATM   23  C1  UNL     1      -9.710  -3.655   3.153  1.00  0.00     0.149 C 
ATOM     24  H1  UNL     1      -9.863  -1.656   3.949  1.00  0.00     0.162 HD
HETATM   25  O1  UNL     1      -7.089  -2.934   2.867  1.00  0.00    -0.262 OA
ENDBRANCH  18  21
ENDBRANCH  13  17
ENDBRANCH   1   3
BRANCH   1  26
HETATM   26  C11 UNL     1      -0.758   1.610  -3.147  1.00  0.00     0.151 C 
BRANCH  26  27
HETATM   27  O4  UNL     1      -0.694   1.916  -4.422  1.00  0.00    -0.345 OA
ATOM     28  H4  UNL     1       0.172   2.124  -4.753  1.00  0.00     0.219 HD
ENDBRANCH  26  27
BRANCH  26  29
HETATM   29  C12 UNL     1       0.530   1.656  -2.521  1.00  0.00     0.015 A 
HETATM   30  C13 UNL     1       1.289   0.502  -2.319  1.00  0.00     0.017 A 
HETATM   31  C14 UNL     1       2.542   0.534  -1.761  1.00  0.00     0.021 A 
HETATM   32  C15 UNL     1       3.113   1.716  -1.371  1.00  0.00     0.018 A 
HETATM   33  C27 UNL     1       2.397   2.879  -1.553  1.00  0.00     0.021 A 
HETATM   34  C28 UNL     1       1.140   2.848  -2.112  1.00  0.00     0.017 A 
BRANCH  32  35
HETATM   35  C16 UNL     1       4.447   1.741  -0.794  1.00  0.00    -0.061 C 
HETATM   36  C17 UNL     1       5.554   1.781  -0.341  1.00  0.00    -0.053 C 
BRANCH  36  37
HETATM   37  C18 UNL     1       6.920   1.851   0.184  1.00  0.00     0.069 A 
HETATM   38  S1  UNL     1       7.716   3.178   0.898  1.00  0.00    -0.091 SA
HETATM   39  C19 UNL     1       9.227   2.455   1.209  1.00  0.00     0.063 A 
HETATM   40  C20 UNL     1       9.063   1.175   0.737  1.00  0.00    -0.017 A 
HETATM   41  C21 UNL     1      10.065   0.186   0.777  1.00  0.00     0.015 A 
HETATM   42  C26 UNL     1       7.876   0.864   0.209  1.00  0.00     0.003 A 
HETATM   43  C22 UNL     1       9.865  -1.081   0.296  1.00  0.00     0.037 A 
HETATM   44  C23 UNL     1       8.647  -1.415  -0.249  1.00  0.00     0.069 A 
HETATM   45  C25 UNL     1       7.678  -0.442  -0.282  1.00  0.00     0.051 A 
BRANCH  44  46
HETATM   46  O5  UNL     1       8.426  -2.696  -0.739  1.00  0.00    -0.356 OA
HETATM   47  C24 UNL     1       7.223  -3.127  -1.306  1.00  0.00     0.210 C 
ENDBRANCH  44  46
ENDBRANCH  36  37
ENDBRANCH  32  35
ENDBRANCH  26  29
ENDBRANCH   1  26
TORSDOF 9
