REMARK  6 active torsions:
REMARK  status: ('A' for Active; 'I' for Inactive)
REMARK       I    between atoms: N2_5  and  C2_6 
REMARK    1  A    between atoms: C2_6  and  C3_8 
REMARK       I    between atoms: C3_8  and  N3_10 
REMARK    2  A    between atoms: N3_10  and  C4_12 
REMARK    3  A    between atoms: C4_12  and  C5_13 
REMARK    4  A    between atoms: C5_13  and  O3_14 
REMARK    5  A    between atoms: C5_13  and  N4_16 
REMARK    6  A    between atoms: C19_31  and  O4_32 
ROOT
HETATM    1  N1  UNL     1       3.060  -1.396   2.192  1.00  0.00    -0.234 N 
ATOM      2  H11 UNL     1       3.503  -2.097   2.786  1.00  0.00     0.174 HD
ATOM      3  H12 UNL     1       2.226  -1.078   2.685  1.00  0.00     0.174 HD
HETATM    4  C1  UNL     1       3.455  -1.029   1.034  1.00  0.00     0.681 C 
HETATM    5  N2  UNL     1       2.830  -0.039   0.196  1.00  0.00    -0.138 N 
HETATM    6  C2  UNL     1       1.514   0.212  -0.169  1.00  0.00     0.330 C 
HETATM    7  O1  UNL     1       1.317   1.269  -0.870  1.00  0.00    -0.261 OA
HETATM    8  C18 UNL     1       4.041   0.696  -0.292  1.00  0.00     0.214 C 
HETATM    9  C19 UNL     1       4.950  -0.441  -0.586  1.00  0.00     0.178 C 
HETATM   10  N6  UNL     1       4.629  -1.477   0.341  1.00  0.00    -0.182 N 
HETATM   11  C20 UNL     1       5.455  -2.656   0.410  1.00  0.00     0.145 C 
HETATM   12  C21 UNL     1       6.552  -2.601  -0.638  1.00  0.00     0.022 C 
HETATM   13  C22 UNL     1       7.308  -1.323  -0.512  1.00  0.00     0.021 C 
HETATM   14  C23 UNL     1       6.409  -0.118  -0.673  1.00  0.00     0.040 C 
HETATM   15  C24 UNL     1       6.637   0.444  -2.071  1.00  0.00     0.024 C 
HETATM   16  C25 UNL     1       7.701   1.466  -1.862  1.00  0.00     0.040 C 
HETATM   17  C26 UNL     1       7.627   1.829  -0.421  1.00  0.00    -0.051 A 
HETATM   18  C27 UNL     1       8.206   2.922   0.223  1.00  0.00     0.007 A 
HETATM   19  C28 UNL     1       8.012   3.065   1.561  1.00  0.00     0.001 A 
HETATM   20  C29 UNL     1       7.263   2.155   2.269  1.00  0.00     0.001 A 
HETATM   21  C30 UNL     1       6.702   1.084   1.607  1.00  0.00     0.009 A 
HETATM   22  C31 UNL     1       6.874   0.903   0.255  1.00  0.00    -0.038 A 
ENDROOT
BRANCH   6  23
HETATM   23  C3  UNL     1       0.337  -0.585   0.146  1.00  0.00     0.311 C 
HETATM   24  O2  UNL     1       0.463  -1.664   0.762  1.00  0.00    -0.262 OA
HETATM   25  N3  UNL     1      -0.942  -0.144  -0.240  1.00  0.00    -0.336 N 
ATOM     26  H3  UNL     1      -0.978   0.744  -0.741  1.00  0.00     0.164 HD
BRANCH  25  27
HETATM   27  C4  UNL     1      -2.222  -0.803  -0.011  1.00  0.00     0.098 A 
HETATM   28  C15 UNL     1      -2.181  -2.281  -0.355  1.00  0.00     0.040 A 
HETATM   29  C16 UNL     1      -2.434  -2.686   1.070  1.00  0.00     0.006 A 
HETATM   30  C17 UNL     1      -2.352  -1.199   1.428  1.00  0.00     0.040 A 
BRANCH  27  31
HETATM   31  C5  UNL     1      -3.321  -0.012  -0.582  1.00  0.00     0.142 C 
BRANCH  31  32
HETATM   32  O3  UNL     1      -2.874   1.091  -1.149  1.00  0.00    -0.348 OA
ATOM     33  H3  UNL     1      -3.584   1.602  -1.518  1.00  0.00     0.219 HD
ENDBRANCH  31  32
BRANCH  31  34
HETATM   34  N4  UNL     1      -4.697  -0.163  -0.656  1.00  0.00    -0.362 N 
HETATM   35  C6  UNL     1      -5.293   0.986  -1.409  1.00  0.00     0.125 C 
HETATM   36  C7  UNL     1      -5.705   2.088  -0.490  1.00  0.00     0.022 C 
HETATM   37  C8  UNL     1      -7.212   2.347  -0.582  1.00  0.00     0.037 C 
HETATM   38  C9  UNL     1      -7.914   1.027  -0.431  1.00  0.00     0.223 C 
HETATM   39  C10 UNL     1      -9.270   1.176   0.225  1.00  0.00     0.037 C 
HETATM   40  N5  UNL     1      -7.138   0.158   0.393  1.00  0.00     0.094 N 
HETATM   41  C11 UNL     1      -8.919   1.036   1.690  1.00  0.00     0.032 C 
HETATM   42  C12 UNL     1      -7.719   0.116   1.697  1.00  0.00     0.273 C 
HETATM   43  C13 UNL     1      -6.868  -1.120  -0.187  1.00  0.00     0.292 C 
HETATM   44  C14 UNL     1      -5.319  -1.290  -0.048  1.00  0.00     0.155 C 
ENDBRANCH  31  34
ENDBRANCH  27  31
ENDBRANCH  25  27
ENDBRANCH   6  23
BRANCH   9  45
HETATM   45  O4  UNL     1       4.577  -0.927  -1.864  1.00  0.00    -0.367 OA
ATOM     46  H4  UNL     1       5.158  -1.654  -2.052  1.00  0.00     0.212 HD
ENDBRANCH   9  45
TORSDOF 6
