REMARK  2 active torsions:
REMARK  status: ('A' for Active; 'I' for Inactive)
REMARK    1  A    between atoms: C1_2  and  N1_3 
REMARK    2  A    between atoms: C9_11  and  C10_12 
ROOT
HETATM    1  N1  UNL     1      -0.471  -1.293   0.319  1.00  0.00    -0.376 N 
HETATM    2  C2  UNL     1      -1.906  -1.275   0.671  1.00  0.00     0.128 C 
HETATM    3  C3  UNL     1      -2.560  -0.294  -0.280  1.00  0.00     0.008 C 
HETATM    4  C4  UNL     1      -3.966   0.046   0.066  1.00  0.00     0.007 C 
HETATM    5  C5  UNL     1      -4.137   1.518  -0.297  1.00  0.00     0.001 C 
HETATM    6  C6  UNL     1      -2.749   1.987  -0.757  1.00  0.00     0.005 C 
HETATM    7  C7  UNL     1      -1.866   1.053  -0.030  1.00  0.00    -0.007 C 
HETATM    8  C8  UNL     1      -0.473   0.929  -0.528  1.00  0.00     0.030 C 
HETATM    9  C9  UNL     1       0.192  -0.055   0.448  1.00  0.00     0.089 C 
ENDROOT
BRANCH   9  10
HETATM   10  C10 UNL     1       1.634   0.033   0.274  1.00  0.00     0.011 C 
HETATM   11  C11 UNL     1       2.185  -0.389  -1.057  1.00  0.00     0.026 C 
HETATM   12  C12 UNL     1       3.559   0.282  -1.171  1.00  0.00     0.114 C 
HETATM   13  N2  UNL     1       4.400   0.027  -0.071  1.00  0.00    -0.421 N 
HETATM   14  C13 UNL     1       3.863   0.037   1.217  1.00  0.00     0.114 C 
ATOM     15  H2  UNL     1       5.392  -0.163  -0.214  1.00  0.00     0.153 HD
HETATM   16  C14 UNL     1       2.482  -0.628   1.332  1.00  0.00     0.026 C 
ENDBRANCH   9  10
BRANCH   1  17
HETATM   17  C1  UNL     1       0.046  -2.525  -0.094  1.00  0.00     0.168 C 
HETATM   18  S1  UNL     1       0.224  -3.732   0.978  1.00  0.00    -0.074 SA
ENDBRANCH   1  17
TORSDOF 2
