REMARK  3 active torsions:
REMARK  status: ('A' for Active; 'I' for Inactive)
REMARK    1  A    between atoms: O1_1  and  C1_3 
REMARK    2  A    between atoms: C1_3  and  C2_4 
REMARK    3  A    between atoms: C2_4  and  N1_5 
ROOT
HETATM    1  N1  UNL     1       0.638  -0.283  -0.225  1.00  0.00    -0.260 N 
HETATM    2  C3  UNL     1       1.516   0.698   0.054  1.00  0.00     0.224 A 
HETATM    3  N2  UNL     1       2.632   0.084   0.531  1.00  0.00    -0.238 N 
ATOM      4  H2  UNL     1       3.491   0.542   0.836  1.00  0.00     0.197 HD
HETATM    5  O2  UNL     1       2.399  -1.201   0.526  1.00  0.00    -0.141 OA
HETATM    6  N3  UNL     1       1.212  -1.456   0.079  1.00  0.00     0.050 NA
ENDROOT
BRANCH   1   7
HETATM    7  C2  UNL     1      -0.695  -0.074  -0.760  1.00  0.00     0.174 C 
BRANCH   7   8
HETATM    8  C1  UNL     1      -1.707   0.092   0.376  1.00  0.00     0.185 C 
BRANCH   8   9
HETATM    9  O1  UNL     1      -1.382   1.183   1.174  1.00  0.00    -0.399 OA
ATOM     10  H1  UNL     1      -2.010   1.286   1.879  1.00  0.00     0.209 HD
ENDBRANCH   8   9
ENDBRANCH   7   8
ENDBRANCH   1   7
TORSDOF 3
