REMARK  2 active torsions:
REMARK  status: ('A' for Active; 'I' for Inactive)
REMARK    1  A    between atoms: C5_7  and  O2_8 
REMARK    2  A    between atoms: C5_7  and  O3_10 
ROOT
HETATM    1  C1  UNL     1       2.375  -0.113  -0.614  1.00  0.00     0.150 C 
HETATM    2  N1  UNL     1       1.097   0.507  -0.954  1.00  0.00    -0.138 NA
HETATM    3  O1  UNL     1       0.193  -0.455  -1.290  1.00  0.00    -0.281 OA
HETATM    4  C2  UNL     1      -0.662  -0.264  -0.204  1.00  0.00     0.149 A 
HETATM    5  C3  UNL     1      -0.750  -1.429   0.723  1.00  0.00     0.055 C 
HETATM    6  C4  UNL     1      -2.018   0.197  -0.727  1.00  0.00     0.055 C 
HETATM    7  C5  UNL     1       0.273   0.841   0.184  1.00  0.00     0.280 A 
ENDROOT
BRANCH   7   8
HETATM    8  O2  UNL     1      -0.352   2.072   0.093  1.00  0.00    -0.349 OA
ATOM      9  H2  UNL     1      -0.894   2.292   0.842  1.00  0.00     0.214 HD
ENDBRANCH   7   8
BRANCH   7  10
HETATM   10  O3  UNL     1       0.955   0.665   1.388  1.00  0.00    -0.349 OA
ATOM     11  H3  UNL     1       0.413   0.885   2.137  1.00  0.00     0.214 HD
ENDBRANCH   7  10
TORSDOF 2
