REMARK  1 active torsions:
REMARK  status: ('A' for Active; 'I' for Inactive)
REMARK    1  A    between atoms: O1_1  and  N1_3 
ROOT
HETATM    1  N1  UNL     1       0.460  -1.120  -0.129  1.00  0.00    -0.190 NA
HETATM    2  C1  UNL     1       1.588  -0.841   0.706  1.00  0.00     0.121 C 
HETATM    3  C2  UNL     1       2.358   0.374   0.241  1.00  0.00     0.017 C 
HETATM    4  C3  UNL     1       1.470   1.488  -0.230  1.00  0.00     0.003 C 
HETATM    5  C4  UNL     1       0.025   1.285   0.123  1.00  0.00     0.027 C 
HETATM    6  C5  UNL     1      -0.499  -0.073  -0.218  1.00  0.00     0.038 C 
HETATM    7  C6  UNL     1      -1.315  -0.182  -1.477  1.00  0.00     0.027 C 
HETATM    8  C7  UNL     1      -2.590  -0.053  -0.694  1.00  0.00     0.004 C 
HETATM    9  C8  UNL     1      -1.797  -0.322   0.564  1.00  0.00     0.027 C 
ENDROOT
BRANCH   1  10
HETATM   10  O1  UNL     1      -0.102  -2.280   0.208  1.00  0.00    -0.312 OA
ATOM     11  H1  UNL     1      -0.851  -2.465  -0.346  1.00  0.00     0.237 HD
ENDBRANCH   1  10
TORSDOF 1
