REMARK  2 active torsions:
REMARK  status: ('A' for Active; 'I' for Inactive)
REMARK    1  A    between atoms: C2_2  and  N1_3 
REMARK    2  A    between atoms: N1_3  and  N3_7 
ROOT
HETATM    1  N1  UNL     1       1.178   0.760   0.201  1.00  0.00    -0.238 N 
HETATM    2  N2  UNL     1       0.938   1.962  -0.093  1.00  0.00    -0.328 N 
ATOM      3  H21 UNL     1       1.581   2.679   0.242  1.00  0.00     0.178 HD
ATOM      4  H22 UNL     1       0.110   2.163  -0.653  1.00  0.00     0.178 HD
ENDROOT
BRANCH   1   5
HETATM    5  C2  UNL     1       0.269  -0.253  -0.272  1.00  0.00     0.066 C 
HETATM    6  C1  UNL     1       1.065  -1.196  -1.143  1.00  0.00     0.042 C 
HETATM    7  C3  UNL     1      -0.809   0.347  -1.107  1.00  0.00     0.034 C 
HETATM    8  C4  UNL     1      -1.957   0.644  -0.166  1.00  0.00     0.003 C 
HETATM    9  C5  UNL     1      -1.827  -0.353   0.947  1.00  0.00     0.003 C 
HETATM   10  C6  UNL     1      -0.451  -0.963   0.842  1.00  0.00     0.034 C 
ENDBRANCH   1   5
BRANCH   1  11
HETATM   11  N3  UNL     1       2.308   0.486   0.965  1.00  0.00    -0.328 N 
ATOM     12  H32 UNL     1       2.502  -0.487   1.203  1.00  0.00     0.178 HD
ATOM     13  H31 UNL     1       2.951   1.203   1.300  1.00  0.00     0.178 HD
ENDBRANCH   1  11
TORSDOF 2
