REMARK  3 active torsions:
REMARK  status: ('A' for Active; 'I' for Inactive)
REMARK    1  A    between atoms: C2_2  and  N1_4 
REMARK    2  A    between atoms: C5_6  and  C6_7 
REMARK       I    between atoms: C6_7  and  N2_9 
REMARK    3  A    between atoms: N2_9  and  C7_11 
ROOT
HETATM    1  C6  UNL     1       0.194   0.269   1.673  1.00  0.00     0.261 C 
HETATM    2  O1  UNL     1      -0.157   0.537   2.845  1.00  0.00    -0.267 OA
HETATM    3  N2  UNL     1      -0.805   0.046   0.696  1.00  0.00    -0.350 N 
ATOM      4  H2  UNL     1      -0.520  -0.173  -0.259  1.00  0.00     0.163 HD
ENDROOT
BRANCH   1   5
HETATM    5  C5  UNL     1       1.602   0.196   1.354  1.00  0.00     0.105 A 
HETATM    6  C4  UNL     1       2.391  -0.060   0.237  1.00  0.00     0.125 A 
HETATM    7  N1  UNL     1       3.666   0.038   0.668  1.00  0.00    -0.322 N 
HETATM    8  S1  UNL     1       3.067   0.384   2.183  1.00  0.00    -0.005 SA
BRANCH   7   9
HETATM    9  C2  UNL     1       5.014  -0.072   0.188  1.00  0.00     0.088 C 
HETATM   10  C1  UNL     1       5.033  -0.985  -1.044  1.00  0.00     0.033 C 
HETATM   11  C3  UNL     1       5.472   1.286  -0.283  1.00  0.00     0.033 C 
ENDBRANCH   7   9
ENDBRANCH   1   5
BRANCH   3  12
HETATM   12  C7  UNL     1      -2.207   0.117   1.002  1.00  0.00     0.115 C 
HETATM   13  C8  UNL     1      -2.956  -1.130   0.631  1.00  0.00     0.062 C 
HETATM   14  C9  UNL     1      -4.354  -0.656   0.310  1.00  0.00     0.226 A 
HETATM   15  C10 UNL     1      -4.828  -0.965  -1.069  1.00  0.00     0.066 A 
HETATM   16  N3  UNL     1      -4.282   0.758   0.072  1.00  0.00     0.095 N 
HETATM   17  C11 UNL     1      -4.780   0.521  -1.268  1.00  0.00     0.275 A 
HETATM   18  C12 UNL     1      -2.920   1.171   0.175  1.00  0.00     0.298 C 
ENDBRANCH   3  12
TORSDOF 3
