REMARK  2 active torsions:
REMARK  status: ('A' for Active; 'I' for Inactive)
REMARK    1  A    between atoms: C5_8  and  C6_9 
REMARK    2  A    between atoms: C6_9  and  O4_10 
ROOT
HETATM    1  C1  UNL     1      -1.946  -1.364  -0.937  1.00  0.00     0.078 C 
HETATM    2  C2  UNL     1      -1.447  -0.215  -0.089  1.00  0.00     0.161 C 
HETATM    3  C3  UNL     1      -2.630   0.273   0.744  1.00  0.00     0.078 C 
HETATM    4  O1  UNL     1      -0.987   0.850  -0.828  1.00  0.00    -0.321 OA
HETATM    5  C4  UNL     1      -0.148   1.506   0.049  1.00  0.00     0.332 C 
HETATM    6  O2  UNL     1       0.975   2.058  -0.588  1.00  0.00    -0.205 OA
HETATM    7  O3  UNL     1       1.540   1.039  -1.179  1.00  0.00    -0.228 OA
HETATM    8  C5  UNL     1       1.639   0.015  -0.242  1.00  0.00     0.217 C 
HETATM    9  C7  UNL     1       0.517   0.314   0.751  1.00  0.00     0.217 C 
HETATM   10  O5  UNL     1      -0.428  -0.675   0.710  1.00  0.00    -0.343 OA
ENDROOT
BRANCH   8  11
HETATM   11  C6  UNL     1       2.951   0.050   0.503  1.00  0.00     0.202 C 
BRANCH  11  12
HETATM   12  O4  UNL     1       2.992  -0.995   1.425  1.00  0.00    -0.398 OA
ATOM     13  H4  UNL     1       3.818  -0.973   1.894  1.00  0.00     0.209 HD
ENDBRANCH  11  12
ENDBRANCH   8  11
TORSDOF 2
