REMARK  3 active torsions:
REMARK  status: ('A' for Active; 'I' for Inactive)
REMARK    1  A    between atoms: O1_2  and  C2_3 
REMARK    2  A    between atoms: C3_6  and  O4_7 
REMARK    3  A    between atoms: C6_12  and  O6_13 
ROOT
HETATM    1  C2  UNL     1      -0.921  -0.613  -0.199  1.00  0.00     0.327 C 
HETATM    2  O2  UNL     1      -0.401  -0.870  -1.459  1.00  0.00    -0.201 OA
HETATM    3  O3  UNL     1       0.564  -1.732  -1.458  1.00  0.00    -0.177 OA
HETATM    4  C3  UNL     1       1.760  -1.023  -1.300  1.00  0.00     0.444 C 
HETATM    5  O5  UNL     1       1.534   0.330  -1.142  1.00  0.00    -0.330 OA
HETATM    6  C4  UNL     1       1.203   0.692   0.134  1.00  0.00     0.156 C 
HETATM    7  C5  UNL     1       0.935   2.201   0.124  1.00  0.00     0.042 C 
HETATM    8  C6  UNL     1       0.101  -0.070   0.762  1.00  0.00     0.204 C 
ENDROOT
BRANCH   1   9
HETATM    9  O1  UNL     1      -1.957   0.295  -0.360  1.00  0.00    -0.361 OA
HETATM   10  C1  UNL     1      -3.129  -0.275   0.112  1.00  0.00     0.205 C 
ENDBRANCH   1   9
BRANCH   8  11
HETATM   11  O6  UNL     1      -0.607   0.769   1.653  1.00  0.00    -0.388 OA
ATOM     12  H6  UNL     1       0.038   1.112   2.260  1.00  0.00     0.210 HD
ENDBRANCH   8  11
BRANCH   4  13
HETATM   13  O4  UNL     1       2.395  -1.591  -0.180  1.00  0.00    -0.348 OA
ATOM     14  H4  UNL     1       3.207  -1.110  -0.073  1.00  0.00     0.215 HD
ENDBRANCH   4  13
TORSDOF 3
