REMARK  10 active torsions:
REMARK  status: ('A' for Active; 'I' for Inactive)
REMARK    1  A    between atoms: N1_2  and  O1_3 
REMARK    2  A    between atoms: N1_2  and  C18_31 
REMARK    3  A    between atoms: O1_3  and  C2_4 
REMARK    4  A    between atoms: C2_4  and  C3_5 
REMARK    5  A    between atoms: C6_8  and  C7_9 
REMARK    6  A    between atoms: C8_13  and  C9_14 
REMARK    7  A    between atoms: C8_13  and  C15_24 
REMARK    8  A    between atoms: C9_14  and  O3_15 
REMARK    9  A    between atoms: O3_15  and  C10_16 
REMARK   10  A    between atoms: C10_16  and  C11_17 
ROOT
HETATM    1  C7  UNL     1      -0.677  -1.838  -0.148  1.00  0.00     0.042 A 
HETATM    2  N2  UNL     1      -1.174  -2.172   0.977  1.00  0.00    -0.271 N 
ATOM      3  H2  UNL     1      -0.680  -2.065   1.863  1.00  0.00     0.193 HD
HETATM    4  O2  UNL     1      -2.417  -2.680   0.878  1.00  0.00    -0.257 OA
HETATM    5  C8  UNL     1      -2.803  -2.726  -0.475  1.00  0.00     0.211 A 
HETATM    6  C16 UNL     1      -1.662  -2.130  -1.215  1.00  0.00     0.109 A 
ENDROOT
BRANCH   5   7
HETATM    7  C9  UNL     1      -4.167  -2.223  -0.735  1.00  0.00     0.218 C 
BRANCH   7   8
HETATM    8  O3  UNL     1      -4.567  -1.024  -0.349  1.00  0.00    -0.383 OA
BRANCH   8   9
HETATM    9  C10 UNL     1      -3.983   0.118  -0.734  1.00  0.00     0.214 C 
BRANCH   9  10
HETATM   10  C11 UNL     1      -4.730   1.334  -0.211  1.00  0.00     0.009 A 
HETATM   11  C12 UNL     1      -5.856   1.363   0.558  1.00  0.00     0.042 A 
HETATM   12  C13 UNL     1      -6.335   2.568   0.897  1.00  0.00     0.063 A 
HETATM   13 CL1  UNL     1      -7.798   2.786   1.898  1.00  0.00    -0.082 Cl
HETATM   14  C14 UNL     1      -5.657   3.668   0.447  1.00  0.00     0.096 A 
HETATM   15 CL2  UNL     1      -6.027   5.377   0.718  1.00  0.00    -0.074 Cl
HETATM   16  S1  UNL     1      -4.365   2.971  -0.442  1.00  0.00    -0.079 SA
ENDBRANCH   9  10
ENDBRANCH   8   9
ENDBRANCH   7   8
ENDBRANCH   5   7
BRANCH   5  17
HETATM   17  C15 UNL     1      -2.760  -4.256  -0.803  1.00  0.00     0.423 C 
HETATM   18  F1  UNL     1      -3.613  -4.954  -0.011  1.00  0.00    -0.168 F 
HETATM   19  F2  UNL     1      -1.468  -4.703  -0.627  1.00  0.00    -0.168 F 
HETATM   20  F3  UNL     1      -3.080  -4.357  -2.128  1.00  0.00    -0.168 F 
ENDBRANCH   5  17
BRANCH   1  21
HETATM   21  C6  UNL     1       0.668  -1.254  -0.349  1.00  0.00     0.168 C 
HETATM   22  C5  UNL     1       0.454   0.117  -1.001  1.00  0.00     0.039 C 
HETATM   23  C4  UNL     1       1.836   0.659  -1.296  1.00  0.00     0.012 C 
HETATM   24  C3  UNL     1       2.569   0.764   0.033  1.00  0.00     0.036 C 
HETATM   25  C17 UNL     1       2.540  -0.542   0.796  1.00  0.00     0.175 C 
HETATM   26  O4  UNL     1       1.291  -1.110   0.864  1.00  0.00    -0.380 OA
BRANCH  24  27
HETATM   27  C2  UNL     1       4.022   1.112  -0.199  1.00  0.00     0.207 C 
BRANCH  27  28
HETATM   28  O1  UNL     1       4.641   1.196   1.022  1.00  0.00    -0.278 OA
BRANCH  28  29
HETATM   29  N1  UNL     1       5.939   1.498   0.988  1.00  0.00    -0.239 N 
HETATM   30  C1  UNL     1       6.257   2.857   1.301  1.00  0.00     0.184 C 
BRANCH  29  31
HETATM   31  C18 UNL     1       6.663   0.953  -0.122  1.00  0.00     0.479 C 
HETATM   32  F4  UNL     1       6.464   1.631  -1.303  1.00  0.00    -0.189 F 
HETATM   33  F5  UNL     1       8.024   1.013   0.144  1.00  0.00    -0.189 F 
ENDBRANCH  29  31
ENDBRANCH  28  29
ENDBRANCH  27  28
ENDBRANCH  24  27
ENDBRANCH   1  21
TORSDOF 10
