REMARK  3 active torsions:
REMARK  status: ('A' for Active; 'I' for Inactive)
REMARK    1  A    between atoms: C2_2  and  S1_4 
REMARK    2  A    between atoms: C2_2  and  C5_8 
REMARK    3  A    between atoms: S1_4  and  C4_5 
REMARK       I    between atoms: C5_8  and  N2_10 
ROOT
HETATM    1  C1  UNL     1       1.386  -0.389   1.595  1.00  0.00     0.037 C 
HETATM    2  C2  UNL     1       1.225  -0.713   0.149  1.00  0.00     0.090 C 
HETATM    3  C3  UNL     1       0.827  -2.186   0.057  1.00  0.00     0.037 C 
ENDROOT
BRANCH   2   4
HETATM    4  S1  UNL     1       2.833  -0.526  -0.657  1.00  0.00    -0.053 SA
BRANCH   4   5
HETATM    5  C4  UNL     1       3.353   1.179  -0.621  1.00  0.00     0.294 C 
HETATM    6  N1  UNL     1       4.597   1.517  -1.226  1.00  0.00    -0.051 NA
HETATM    7  O1  UNL     1       2.686   2.104  -0.091  1.00  0.00    -0.264 OA
ENDBRANCH   4   5
ENDBRANCH   2   4
BRANCH   2   8
HETATM    8  C5  UNL     1       0.217   0.042  -0.576  1.00  0.00     0.238 C 
HETATM    9  O2  UNL     1       0.648   0.706  -1.558  1.00  0.00    -0.272 OA
HETATM   10  N2  UNL     1      -1.173   0.080  -0.262  1.00  0.00    -0.351 N 
HETATM   11  C6  UNL     1      -1.900  -0.573   0.786  1.00  0.00     0.126 C 
HETATM   12  C9  UNL     1      -2.126   0.856  -1.033  1.00  0.00     0.126 C 
HETATM   13  C7  UNL     1      -3.195   0.221   0.932  1.00  0.00     0.021 C 
HETATM   14  C8  UNL     1      -3.485   0.563  -0.505  1.00  0.00     0.021 C 
ENDBRANCH   2   8
TORSDOF 3
