REMARK  5 active torsions:
REMARK  status: ('A' for Active; 'I' for Inactive)
REMARK    1  A    between atoms: C5_6  and  O1_7 
REMARK    2  A    between atoms: N2_9  and  C6_10 
REMARK    3  A    between atoms: C6_10  and  C7_11 
REMARK    4  A    between atoms: C7_11  and  C8_12 
REMARK    5  A    between atoms: C8_12  and  N3_13 
ROOT
HETATM    1  N1  UNL     1      -0.782  -3.107  -0.920  1.00  0.00    -0.190 NA
HETATM    2  C1  UNL     1      -1.249  -2.056  -0.717  1.00  0.00     0.118 C 
HETATM    3  C2  UNL     1      -1.809  -0.747  -0.485  1.00  0.00     0.125 A 
HETATM    4  C3  UNL     1      -3.093  -0.505  -0.087  1.00  0.00    -0.010 A 
HETATM    5  C4  UNL     1      -3.220   0.851   0.017  1.00  0.00     0.002 A 
HETATM    6  C5  UNL     1      -2.030   1.435  -0.311  1.00  0.00     0.150 A 
HETATM    7  N2  UNL     1      -1.162   0.447  -0.621  1.00  0.00    -0.318 N 
HETATM    8  C13 UNL     1      -4.502   1.471   0.437  1.00  0.00     0.043 C 
HETATM    9  C14 UNL     1      -5.630   0.491   0.515  1.00  0.00     0.005 C 
HETATM   10  C15 UNL     1      -5.148  -0.777   1.160  1.00  0.00     0.005 C 
HETATM   11  C16 UNL     1      -4.209  -1.464   0.203  1.00  0.00     0.042 C 
ENDROOT
BRANCH   7  12
HETATM   12  C6  UNL     1       0.205   0.528  -1.025  1.00  0.00     0.134 C 
BRANCH  12  13
HETATM   13  C7  UNL     1       1.163   0.488   0.152  1.00  0.00     0.050 C 
BRANCH  13  14
HETATM   14  C8  UNL     1       2.553   0.573  -0.447  1.00  0.00     0.274 C 
BRANCH  14  15
HETATM   15  N3  UNL     1       3.574   0.535   0.583  1.00  0.00     0.092 N 
HETATM   16  C9  UNL     1       3.568  -0.781   1.182  1.00  0.00     0.298 C 
HETATM   17  C10 UNL     1       4.939  -1.433   1.099  1.00  0.00     0.198 C 
HETATM   18  O2  UNL     1       5.307  -1.638  -0.211  1.00  0.00    -0.388 OA
HETATM   19  C11 UNL     1       5.275  -0.448  -0.900  1.00  0.00     0.198 C 
HETATM   20  C12 UNL     1       4.851   0.742  -0.079  1.00  0.00     0.298 C 
ENDBRANCH  14  15
ENDBRANCH  13  14
ENDBRANCH  12  13
ENDBRANCH   7  12
BRANCH   6  21
HETATM   21  O1  UNL     1      -1.739   2.786  -0.332  1.00  0.00    -0.345 OA
ATOM     22  H1  UNL     1      -0.911   3.192  -0.560  1.00  0.00     0.219 HD
ENDBRANCH   6  21
TORSDOF 5
