REMARK  4 active torsions:
REMARK  status: ('A' for Active; 'I' for Inactive)
REMARK    1  A    between atoms: N2_5  and  C3_6 
REMARK    2  A    between atoms: C3_6  and  C4_7 
REMARK    3  A    between atoms: C10_15  and  C11_16 
REMARK    4  A    between atoms: C11_16  and  N4_17 
ROOT
HETATM    1  C1  UNL     1       0.818  -3.413   0.139  1.00  0.00     0.070 C 
HETATM    2  C2  UNL     1       0.265  -2.069   0.467  1.00  0.00     0.036 A 
HETATM    3  N1  UNL     1      -0.921  -1.782   1.009  1.00  0.00    -0.301 N 
ATOM      4  H1  UNL     1      -1.613  -2.484   1.271  1.00  0.00     0.187 HD
HETATM    5  N2  UNL     1      -1.090  -0.494   1.164  1.00  0.00    -0.278 N 
HETATM    6  C9  UNL     1       0.052   0.090   0.695  1.00  0.00     0.146 A 
HETATM    7  N3  UNL     1       0.228   1.499   0.682  1.00  0.00    -0.080 NA
HETATM    8  C10 UNL     1       0.941  -0.849   0.244  1.00  0.00     0.041 A 
ENDROOT
BRANCH   5   9
HETATM    9  C3  UNL     1      -2.257   0.187   1.713  1.00  0.00     0.155 C 
BRANCH   9  10
HETATM   10  C4  UNL     1      -3.304   0.500   0.701  1.00  0.00     0.010 C 
HETATM   11  C5  UNL     1      -2.894   1.384  -0.422  1.00  0.00     0.032 C 
HETATM   12  C6  UNL     1      -4.141   1.660  -1.274  1.00  0.00     0.168 C 
HETATM   13  O1  UNL     1      -4.497   0.467  -1.873  1.00  0.00    -0.391 OA
HETATM   14  C7  UNL     1      -4.991  -0.358  -0.864  1.00  0.00     0.168 C 
HETATM   15  C8  UNL     1      -3.943  -0.748   0.127  1.00  0.00     0.032 C 
ENDBRANCH   9  10
ENDBRANCH   5   9
BRANCH   8  16
HETATM   16  C11 UNL     1       2.278  -0.759  -0.386  1.00  0.00     0.076 C 
BRANCH  16  17
HETATM   17  N4  UNL     1       2.872   0.505  -0.488  1.00  0.00    -0.292 NA
HETATM   18  C12 UNL     1       3.358   1.122   0.697  1.00  0.00     0.095 C 
HETATM   19  C13 UNL     1       4.834   0.803   0.799  1.00  0.00     0.016 C 
HETATM   20  C14 UNL     1       5.129   0.155  -0.537  1.00  0.00     0.016 C 
HETATM   21  C15 UNL     1       3.963   0.511  -1.408  1.00  0.00     0.095 C 
ENDBRANCH  16  17
ENDBRANCH   8  16
TORSDOF 4
