REMARK  6 active torsions:
REMARK  status: ('A' for Active; 'I' for Inactive)
REMARK    1  A    between atoms: C1_2  and  O2_3 
REMARK    2  A    between atoms: C1_2  and  C5_9 
REMARK    3  A    between atoms: O2_3  and  C2_4 
REMARK    4  A    between atoms: C2_4  and  C3_5 
REMARK    5  A    between atoms: C3_5  and  C4_6 
REMARK    6  A    between atoms: C4_6  and  O3_7 
ROOT
HETATM    1  C5  UNL     1       0.176  -0.372   0.213  1.00  0.00     0.115 C 
HETATM    2  C6  UNL     1      -0.578   0.113   1.438  1.00  0.00     0.025 C 
HETATM    3  C7  UNL     1      -1.683   0.949   0.853  1.00  0.00     0.024 C 
HETATM    4  C8  UNL     1      -0.931   1.613  -0.315  1.00  0.00     0.040 C 
HETATM    5  C9  UNL     1      -0.543   0.263  -0.947  1.00  0.00     0.136 C 
HETATM    6  O4  UNL     1      -1.779  -0.352  -1.062  1.00  0.00    -0.374 OA
HETATM    7  C10 UNL     1      -2.551   0.024   0.028  1.00  0.00     0.066 C 
HETATM    8  C11 UNL     1      -3.050  -1.142   0.834  1.00  0.00     0.048 C 
HETATM    9  C12 UNL     1      -4.351  -1.699   0.359  1.00  0.00     0.077 C 
HETATM   10  S1  UNL     1      -4.545  -1.532  -1.457  1.00  0.00    -0.169 SA
HETATM   11  C13 UNL     1      -4.123   0.218  -1.819  1.00  0.00     0.077 C 
HETATM   12  C14 UNL     1      -3.773   0.816  -0.453  1.00  0.00     0.048 C 
ENDROOT
BRANCH   1  13
HETATM   13  C1  UNL     1       1.602   0.060   0.258  1.00  0.00     0.265 C 
HETATM   14  O1  UNL     1       2.063   0.737   1.213  1.00  0.00    -0.265 OA
BRANCH  13  15
HETATM   15  O2  UNL     1       2.469  -0.277  -0.764  1.00  0.00    -0.321 OA
BRANCH  15  16
HETATM   16  C2  UNL     1       3.813   0.065  -0.833  1.00  0.00     0.180 C 
BRANCH  16  17
HETATM   17  C3  UNL     1       4.673  -0.445   0.274  1.00  0.00     0.053 C 
BRANCH  17  18
HETATM   18  C4  UNL     1       6.123  -0.011   0.094  1.00  0.00     0.166 C 
BRANCH  18  19
HETATM   19  O3  UNL     1       6.651  -0.490  -1.101  1.00  0.00    -0.401 OA
ATOM     20  H3  UNL     1       7.555  -0.220  -1.213  1.00  0.00     0.209 HD
ENDBRANCH  18  19
ENDBRANCH  17  18
ENDBRANCH  16  17
ENDBRANCH  15  16
ENDBRANCH  13  15
ENDBRANCH   1  13
TORSDOF 6
