REMARK  9 active torsions:
REMARK  status: ('A' for Active; 'I' for Inactive)
REMARK    1  A    between atoms: N1_4  and  C4_5 
REMARK    2  A    between atoms: C4_5  and  C5_6 
REMARK    3  A    between atoms: C6_7  and  C7_8 
REMARK    4  A    between atoms: C7_8  and  C8_9 
REMARK    5  A    between atoms: C8_9  and  C9_10 
REMARK    6  A    between atoms: C9_10  and  O1_11 
REMARK    7  A    between atoms: C16_22  and  C17_23 
REMARK    8  A    between atoms: C17_23  and  O2_24 
REMARK    9  A    between atoms: N3_26  and  O3_28 
ROOT
HETATM    1  C4  UNL     1       0.894  -0.510   1.198  1.00  0.00     0.365 C 
ENDROOT
BRANCH   1   2
HETATM    2  N1  UNL     1       1.507  -1.039   0.006  1.00  0.00     0.099 N 
HETATM    3  C3  UNL     1       1.998  -0.070  -0.896  1.00  0.00     0.278 C 
HETATM    4  C2  UNL     1       3.455   0.153  -0.981  1.00  0.00     0.022 C 
HETATM    5  C1  UNL     1       3.814   1.583  -0.550  1.00  0.00     0.012 C 
HETATM    6  C16 UNL     1       4.325  -0.870  -0.348  1.00  0.00     0.069 C 
HETATM    7  C15 UNL     1       3.668  -1.521   0.859  1.00  0.00     0.043 C 
HETATM    8  C14 UNL     1       2.386  -2.140   0.290  1.00  0.00     0.274 C 
BRANCH   6   9
HETATM    9  C17 UNL     1       5.620  -0.344   0.075  1.00  0.00     0.140 C 
HETATM   10  N3  UNL     1       6.697  -0.783  -0.465  1.00  0.00    -0.251 N 
ATOM     11  H3  UNL     1       6.657  -1.499  -1.190  1.00  0.00     0.196 HD
BRANCH   9  12
HETATM   12  O2  UNL     1       5.693   0.622   1.056  1.00  0.00    -0.348 OA
ATOM     13  H2  UNL     1       6.535   0.964   1.331  1.00  0.00     0.219 HD
ENDBRANCH   9  12
BRANCH  10  14
HETATM   14  O3  UNL     1       7.900  -0.278  -0.056  1.00  0.00    -0.288 OA
ATOM     15  H3  UNL     1       8.698  -0.603  -0.456  1.00  0.00     0.244 HD
ENDBRANCH  10  14
ENDBRANCH   6   9
ENDBRANCH   1   2
BRANCH   1  16
HETATM   16  C5  UNL     1      -0.343   0.150   0.776  1.00  0.00    -0.076 C 
HETATM   17  C6  UNL     1      -1.361   0.718   0.416  1.00  0.00    -0.104 C 
BRANCH  17  18
HETATM   18  C7  UNL     1      -2.563   1.424  -0.022  1.00  0.00     0.105 C 
BRANCH  18  19
HETATM   19  C8  UNL     1      -3.593   0.490  -0.577  1.00  0.00    -0.006 C 
HETATM   20  C10 UNL     1      -4.761   1.328  -1.053  1.00  0.00     0.040 C 
HETATM   21  C11 UNL     1      -5.725   1.644   0.059  1.00  0.00     0.233 C 
HETATM   22  N2  UNL     1      -6.180   0.467   0.747  1.00  0.00    -0.075 N 
HETATM   23  C12 UNL     1      -5.491  -0.744   0.289  1.00  0.00     0.233 C 
ATOM     24  H22 UNL     1      -6.100   0.577   1.758  1.00  0.00     0.277 HD
ATOM     25  H21 UNL     1      -7.192   0.365   0.674  1.00  0.00     0.277 HD
HETATM   26  C13 UNL     1      -4.007  -0.488   0.493  1.00  0.00     0.040 C 
BRANCH  19  27
HETATM   27  C9  UNL     1      -3.113  -0.296  -1.774  1.00  0.00     0.174 C 
BRANCH  27  28
HETATM   28  O1  UNL     1      -2.016  -1.094  -1.520  1.00  0.00    -0.400 OA
ATOM     29  H1  UNL     1      -1.714  -1.588  -2.273  1.00  0.00     0.209 HD
ENDBRANCH  27  28
ENDBRANCH  19  27
ENDBRANCH  18  19
ENDBRANCH  17  18
ENDBRANCH   1  16
TORSDOF 9
