REMARK  7 active torsions:
REMARK  status: ('A' for Active; 'I' for Inactive)
REMARK    1  A    between atoms: O1_1  and  C1_3 
REMARK    2  A    between atoms: C4_6  and  O2_7 
REMARK    3  A    between atoms: O2_7  and  C5_8 
REMARK    4  A    between atoms: C5_8  and  C6_9 
REMARK    5  A    between atoms: C8_12  and  O4_13 
REMARK    6  A    between atoms: C9_15  and  O5_16 
REMARK    7  A    between atoms: C10_18  and  O6_19 
ROOT
HETATM    1  O2  UNL     1       0.085  -1.359   0.743  1.00  0.00    -0.381 OA
ENDROOT
BRANCH   1   2
HETATM    2  C4  UNL     1       0.925  -0.657  -0.077  1.00  0.00     0.150 C 
HETATM    3  C3  UNL     1       2.305  -1.313   0.086  1.00  0.00     0.037 C 
HETATM    4  C2  UNL     1       3.381  -0.364  -0.404  1.00  0.00     0.034 C 
HETATM    5  C1  UNL     1       3.500   0.800   0.558  1.00  0.00     0.120 C 
HETATM    6  C11 UNL     1       2.170   1.103   1.221  1.00  0.00     0.066 C 
HETATM    7  C10 UNL     1       1.013   0.814   0.277  1.00  0.00     0.149 C 
BRANCH   5   8
HETATM    8  O1  UNL     1       3.966   1.895  -0.166  1.00  0.00    -0.395 OA
ATOM      9  H1  UNL     1       4.041   2.625   0.437  1.00  0.00     0.210 HD
ENDBRANCH   5   8
BRANCH   7  10
HETATM   10  O6  UNL     1       1.112   1.613  -0.869  1.00  0.00    -0.393 OA
ATOM     11  H6  UNL     1       1.167   2.535  -0.647  1.00  0.00     0.210 HD
ENDBRANCH   7  10
ENDBRANCH   1   2
BRANCH   1  12
HETATM   12  C5  UNL     1      -0.974  -1.981   0.168  1.00  0.00     0.203 C 
BRANCH  12  13
HETATM   13  C6  UNL     1      -2.014  -1.112  -0.430  1.00  0.00     0.176 C 
HETATM   14  O3  UNL     1      -1.667  -0.255  -1.414  1.00  0.00    -0.378 OA
HETATM   15  C7  UNL     1      -2.492   0.835  -1.417  1.00  0.00     0.202 C 
HETATM   16  C8  UNL     1      -3.497   0.669  -0.313  1.00  0.00     0.173 C 
HETATM   17  C9  UNL     1      -2.764  -0.277   0.616  1.00  0.00     0.180 C 
BRANCH  16  18
HETATM   18  O4  UNL     1      -3.844   1.861   0.300  1.00  0.00    -0.391 OA
ATOM     19  H4  UNL     1      -4.480   1.756   0.998  1.00  0.00     0.210 HD
ENDBRANCH  16  18
BRANCH  17  20
HETATM   20  O5  UNL     1      -3.647  -1.077   1.337  1.00  0.00    -0.390 OA
ATOM     21  H5  UNL     1      -4.111  -0.560   1.985  1.00  0.00     0.210 HD
ENDBRANCH  17  20
ENDBRANCH  12  13
ENDBRANCH   1  12
TORSDOF 7
