REMARK  7 active torsions:
REMARK  status: ('A' for Active; 'I' for Inactive)
REMARK    1  A    between atoms: C2_3  and  C3_4 
REMARK    2  A    between atoms: C4_6  and  N2_7 
REMARK    3  A    between atoms: C9_12  and  C10_13 
REMARK       I    between atoms: C10_13  and  N3_15 
REMARK    4  A    between atoms: N3_15  and  C11_17 
REMARK    5  A    between atoms: C13_19  and  N4_20 
REMARK       I    between atoms: N4_20  and  C14_21 
REMARK    6  A    between atoms: C16_24  and  O4_25 
REMARK    7  A    between atoms: C17_27  and  O5_28 
ROOT
HETATM    1  C1  UNL     1      -4.994   4.024   1.643  1.00  0.00     0.227 C 
HETATM    2  N1  UNL     1      -5.079   2.925   1.409  1.00  0.00    -0.443 NA
HETATM    3  C2  UNL     1      -5.221   1.568   1.091  1.00  0.00     0.188 C 
ENDROOT
BRANCH   3   4
HETATM    4  C3  UNL     1      -4.060   0.990   0.405  1.00  0.00     0.207 C 
HETATM    5  O1  UNL     1      -2.859   1.016   1.047  1.00  0.00    -0.349 OA
HETATM    6  C4  UNL     1      -1.865   0.478   0.119  1.00  0.00     0.259 C 
HETATM    7  C16 UNL     1      -2.577   0.412  -1.173  1.00  0.00     0.199 C 
HETATM    8  C17 UNL     1      -3.661   1.530  -0.964  1.00  0.00     0.186 C 
BRANCH   6   9
HETATM    9  N2  UNL     1      -1.430  -0.686   0.691  1.00  0.00    -0.330 N 
HETATM   10  C5  UNL     1      -2.293  -1.611   1.307  1.00  0.00     0.067 C 
HETATM   11  C6  UNL     1      -2.364  -2.918   0.639  1.00  0.00     0.045 C 
HETATM   12  C7  UNL     1      -1.229  -3.362  -0.153  1.00  0.00     0.011 C 
HETATM   13  C8  UNL     1      -0.313  -2.233  -0.695  1.00  0.00     0.063 C 
HETATM   14  C9  UNL     1      -0.180  -1.279   0.472  1.00  0.00     0.081 C 
BRANCH  14  15
HETATM   15  C10 UNL     1       1.078  -0.626   0.674  1.00  0.00     0.264 C 
HETATM   16  O2  UNL     1       1.174   0.248   1.562  1.00  0.00    -0.266 OA
HETATM   17  N3  UNL     1       2.237  -0.906  -0.056  1.00  0.00    -0.348 N 
ATOM     18  H3  UNL     1       2.123  -1.571  -0.821  1.00  0.00     0.163 HD
BRANCH  17  19
HETATM   19  C11 UNL     1       3.537  -0.400   0.116  1.00  0.00     0.123 A 
HETATM   20  C12 UNL     1       4.546  -0.959  -0.918  1.00  0.00     0.070 A 
HETATM   21  C13 UNL     1       4.352   0.543  -0.649  1.00  0.00     0.191 A 
BRANCH  21  22
HETATM   22  N4  UNL     1       5.449   1.246  -0.096  1.00  0.00    -0.408 NA
HETATM   23  C14 UNL     1       6.482   1.901   0.427  1.00  0.00     0.282 C 
HETATM   24  C15 UNL     1       6.562   3.441   0.028  1.00  0.00     0.134 C 
HETATM   25  O3  UNL     1       7.408   1.623   1.162  1.00  0.00    -0.258 OA
ENDBRANCH  21  22
ENDBRANCH  17  19
ENDBRANCH  14  15
ENDBRANCH   6   9
BRANCH   7  26
HETATM   26  O4  UNL     1      -3.298  -0.718  -1.425  1.00  0.00    -0.388 OA
ATOM     27  H4  UNL     1      -3.756  -0.760  -2.256  1.00  0.00     0.210 HD
ENDBRANCH   7  26
BRANCH   8  28
HETATM   28  O5  UNL     1      -2.983   2.712  -0.952  1.00  0.00    -0.390 OA
ATOM     29  H5  UNL     1      -2.734   3.048  -1.805  1.00  0.00     0.210 HD
ENDBRANCH   8  28
ENDBRANCH   3   4
TORSDOF 7
