REMARK  4 active torsions:
REMARK  status: ('A' for Active; 'I' for Inactive)
REMARK    1  A    between atoms: C2_2  and  C11_18 
REMARK    2  A    between atoms: N1_3  and  N2_5 
REMARK    3  A    between atoms: N2_5  and  C3_7 
REMARK    4  A    between atoms: C3_7  and  C4_11 
ROOT
HETATM    1  N2  UNL     1       0.514  -0.587   0.327  1.00  0.00    -0.289 N 
ATOM      2  H2  UNL     1       0.434  -1.568   0.058  1.00  0.00     0.188 HD
ENDROOT
BRANCH   1   3
HETATM    3  N1  UNL     1       1.377  -0.207   1.237  1.00  0.00    -0.303 N 
HETATM    4  C2  UNL     1       2.562  -0.036   1.472  1.00  0.00     0.035 C 
HETATM    5  C1  UNL     1       2.951   0.476   2.868  1.00  0.00     0.070 C 
ATOM      6  H1  UNL     1       0.854   0.044   2.076  1.00  0.00     0.186 HD
BRANCH   4   7
HETATM    7  C11 UNL     1       3.645  -0.284   0.515  1.00  0.00     0.026 A 
HETATM    8  C12 UNL     1       3.380  -0.746  -0.765  1.00  0.00     0.016 A 
HETATM    9  C13 UNL     1       4.382  -0.998  -1.715  1.00  0.00     0.001 A 
HETATM   10  C14 UNL     1       5.702  -0.793  -1.412  1.00  0.00     0.003 A 
HETATM   11  C15 UNL     1       5.977  -0.337  -0.151  1.00  0.00     0.043 A 
HETATM   12  C16 UNL     1       4.980  -0.082   0.805  1.00  0.00     0.128 A 
HETATM   13  F1  UNL     1       5.348   0.365   2.018  1.00  0.00    -0.205 F 
ENDBRANCH   4   7
ENDBRANCH   1   3
BRANCH   1  14
HETATM   14  C3  UNL     1      -0.331   0.432  -0.292  1.00  0.00     0.093 C 
HETATM   15  N3  UNL     1       0.255   1.489  -0.683  1.00  0.00    -0.388 N 
ATOM     16  H32 UNL     1       1.251   1.697  -0.610  1.00  0.00     0.157 HD
ATOM     17  H31 UNL     1      -0.335   2.200  -1.115  1.00  0.00     0.157 HD
BRANCH  14  18
HETATM   18  C4  UNL     1      -1.757   0.134  -0.397  1.00  0.00     0.054 C 
HETATM   19  C5  UNL     1      -2.454   1.316  -1.065  1.00  0.00     0.013 C 
HETATM   20  C6  UNL     1      -3.841   0.822  -1.479  1.00  0.00     0.005 C 
HETATM   21  C7  UNL     1      -4.548   0.299  -0.268  1.00  0.00    -0.019 C 
HETATM   22  C8  UNL     1      -4.993  -1.135  -0.472  1.00  0.00     0.010 C 
HETATM   23  C9  UNL     1      -3.748   0.417   0.998  1.00  0.00     0.005 C 
HETATM   24  C10 UNL     1      -2.396  -0.233   0.913  1.00  0.00     0.013 C 
ENDBRANCH  14  18
ENDBRANCH   1  14
TORSDOF 4
