REMARK  10 active torsions:
REMARK  status: ('A' for Active; 'I' for Inactive)
REMARK    1  A    between atoms: C2_2  and  C3_4 
REMARK    2  A    between atoms: C3_4  and  C4_5 
REMARK    3  A    between atoms: C7_8  and  C8_9 
REMARK    4  A    between atoms: C8_9  and  C9_11 
REMARK    5  A    between atoms: C13_15  and  O3_16 
REMARK    6  A    between atoms: O3_16  and  C14_17 
REMARK    7  A    between atoms: C14_17  and  C15_19 
REMARK    8  A    between atoms: C22_26  and  O5_27 
REMARK    9  A    between atoms: C30_36  and  O6_37 
REMARK   10  A    between atoms: C32_40  and  C33_41 
ROOT
HETATM    1  C3  UNL     1       0.931  -0.376  -1.980  1.00  0.00     0.058 C 
HETATM    2  C12 UNL     1       0.951   1.164  -1.803  1.00  0.00     0.053 C 
HETATM    3  C13 UNL     1       0.202   1.637  -0.604  1.00  0.00     0.138 C 
HETATM    4  C19 UNL     1      -1.248   1.592  -0.908  1.00  0.00     0.020 C 
HETATM    5  C20 UNL     1      -1.634   1.254  -2.308  1.00  0.00     0.010 C 
HETATM    6  C21 UNL     1      -1.317  -0.087  -2.797  1.00  0.00     0.039 C 
HETATM    7  C22 UNL     1      -0.382  -0.927  -1.953  1.00  0.00     0.073 C 
HETATM    8  C23 UNL     1      -1.127  -1.395  -0.785  1.00  0.00     0.045 C 
HETATM    9  C24 UNL     1      -1.705  -0.589   0.267  1.00  0.00     0.006 C 
HETATM   10  C25 UNL     1      -2.104   0.791   0.011  1.00  0.00     0.001 C 
HETATM   11  C26 UNL     1      -2.066   1.519   1.374  1.00  0.00     0.033 C 
HETATM   12  C27 UNL     1      -2.897   0.708   2.340  1.00  0.00    -0.023 C 
HETATM   13  C28 UNL     1      -3.234  -0.516   2.147  1.00  0.00    -0.072 C 
HETATM   14  C29 UNL     1      -4.063  -1.269   3.142  1.00  0.00     0.066 C 
HETATM   15  C30 UNL     1      -5.280  -1.698   2.339  1.00  0.00     0.123 C 
HETATM   16  C31 UNL     1      -5.290  -1.120   0.950  1.00  0.00     0.048 C 
HETATM   17  C32 UNL     1      -4.068  -1.544   0.121  1.00  0.00     0.102 C 
HETATM   18  C34 UNL     1      -2.873  -1.351   0.926  1.00  0.00    -0.003 C 
HETATM   19  C35 UNL     1      -2.293  -2.645   1.471  1.00  0.00     0.021 C 
ENDROOT
BRANCH   1  20
HETATM   20  C2  UNL     1       1.498  -0.492  -3.369  1.00  0.00     0.135 C 
HETATM   21  C1  UNL     1       2.656   0.333  -3.823  1.00  0.00     0.091 C 
HETATM   22  O1  UNL     1       1.037  -1.258  -4.161  1.00  0.00    -0.297 OA
ENDBRANCH   1  20
BRANCH   1  23
HETATM   23  C4  UNL     1       2.069  -0.858  -1.148  1.00  0.00     0.021 A 
HETATM   24  C5  UNL     1       2.148  -1.113   0.273  1.00  0.00    -0.001 A 
HETATM   25  C6  UNL     1       3.316  -0.682   1.130  1.00  0.00     0.011 C 
HETATM   26  C7  UNL     1       2.369  -2.232  -0.771  1.00  0.00     0.065 A 
BRANCH  26  27
HETATM   27  C8  UNL     1       3.726  -2.792  -0.769  1.00  0.00     0.136 C 
HETATM   28  O2  UNL     1       3.859  -4.000  -0.625  1.00  0.00    -0.297 OA
BRANCH  27  29
HETATM   29  C9  UNL     1       4.993  -2.035  -0.930  1.00  0.00     0.056 A 
HETATM   30  C10 UNL     1       6.253  -2.608  -0.396  1.00  0.00     0.013 A 
HETATM   31  C11 UNL     1       5.977  -2.733  -1.853  1.00  0.00     0.013 A 
ENDBRANCH  27  29
ENDBRANCH  26  27
ENDBRANCH   1  23
BRANCH   7  32
HETATM   32  O5  UNL     1      -0.341  -2.159  -2.703  1.00  0.00    -0.389 OA
ATOM     33  H5  UNL     1      -1.217  -2.527  -2.685  1.00  0.00     0.210 HD
ENDBRANCH   7  32
BRANCH   3  34
HETATM   34  O3  UNL     1       0.632   2.964  -0.255  1.00  0.00    -0.312 OA
BRANCH  34  35
HETATM   35  C14 UNL     1       1.317   3.330   0.852  1.00  0.00     0.283 C 
HETATM   36  O4  UNL     1       1.629   2.461   1.680  1.00  0.00    -0.260 OA
BRANCH  35  37
HETATM   37  C15 UNL     1       1.671   4.731   1.044  1.00  0.00     0.084 C 
HETATM   38  C16 UNL     1       2.332   5.212   2.071  1.00  0.00    -0.082 C 
HETATM   39  C17 UNL     1       2.653   6.674   2.186  1.00  0.00     0.043 C 
HETATM   40  C18 UNL     1       2.783   4.333   3.149  1.00  0.00     0.043 C 
ENDBRANCH  35  37
ENDBRANCH  34  35
ENDBRANCH   3  34
BRANCH  17  41
HETATM   41  C33 UNL     1      -4.385  -2.860  -0.447  1.00  0.00     0.178 C 
HETATM   42  O7  UNL     1      -3.815  -3.946  -0.232  1.00  0.00    -0.648 OA
HETATM   43  O8  UNL     1      -5.462  -3.009  -1.366  1.00  0.00    -0.648 OA
ENDBRANCH  17  41
BRANCH  15  44
HETATM   44  O6  UNL     1      -6.389  -1.143   2.995  1.00  0.00    -0.395 OA
ATOM     45  H6  UNL     1      -7.150  -1.411   2.493  1.00  0.00     0.210 HD
ENDBRANCH  15  44
TORSDOF 10
