REMARK  3 active torsions:
REMARK  status: ('A' for Active; 'I' for Inactive)
REMARK    1  A    between atoms: C1_2  and  C2_4 
REMARK    2  A    between atoms: C2_4  and  S1_5 
REMARK    3  A    between atoms: S1_5  and  C3_6 
ROOT
HETATM    1  C3  UNL     1       2.294   0.510   0.876  1.00  0.00     0.113 A 
HETATM    2  N1  UNL     1       1.154   0.784   0.271  1.00  0.00    -0.347 N 
ATOM      3  H1  UNL     1       1.072   1.622  -0.304  1.00  0.00     0.167 HD
HETATM    4  C4  UNL     1       0.136  -0.012   0.407  1.00  0.00     0.032 A 
HETATM    5  C5  UNL     1       0.303  -1.124   1.193  1.00  0.00     0.009 A 
HETATM    6  S2  UNL     1       1.942  -0.942   1.690  1.00  0.00    -0.068 SA
HETATM    7  C6  UNL     1      -0.576  -2.247   1.597  1.00  0.00     0.048 C 
HETATM    8  C7  UNL     1      -1.292  -2.873   0.420  1.00  0.00     0.005 C 
HETATM    9  C8  UNL     1      -2.379  -1.880   0.030  1.00  0.00     0.001 C 
HETATM   10  C9  UNL     1      -1.770  -0.921  -0.933  1.00  0.00     0.016 C 
HETATM   11  C10 UNL     1      -1.176   0.316  -0.297  1.00  0.00     0.007 C 
HETATM   12  C11 UNL     1      -0.893   1.256  -1.460  1.00  0.00     0.042 C 
HETATM   13  C12 UNL     1      -2.024   2.107  -1.839  1.00  0.00    -0.029 C 
HETATM   14  C13 UNL     1      -2.734   2.706  -0.902  1.00  0.00    -0.031 C 
HETATM   15  C14 UNL     1      -2.266   2.422   0.508  1.00  0.00     0.028 C 
HETATM   16  C15 UNL     1      -2.140   0.909   0.687  1.00  0.00     0.020 C 
ENDROOT
BRANCH   1  17
HETATM   17  S1  UNL     1       3.802   1.457   0.826  1.00  0.00    -0.094 SA
BRANCH  17  18
HETATM   18  C2  UNL     1       4.855   0.926  -0.553  1.00  0.00     0.194 C 
BRANCH  18  19
HETATM   19  C1  UNL     1       5.343  -0.460  -0.351  1.00  0.00     0.182 C 
HETATM   20  O1  UNL     1       6.084  -0.977  -1.213  1.00  0.00    -0.647 OA
HETATM   21  O2  UNL     1       4.955  -1.135   0.797  1.00  0.00    -0.647 OA
ENDBRANCH  18  19
ENDBRANCH  17  18
ENDBRANCH   1  17
TORSDOF 3
