REMARK  12 active torsions:
REMARK  status: ('A' for Active; 'I' for Inactive)
REMARK    1  A    between atoms: N1_1  and  C1_4 
REMARK    2  A    between atoms: N3_9  and  C3_10 
REMARK    3  A    between atoms: C4_12  and  O3_13 
REMARK    4  A    between atoms: O3_13  and  N4_14 
REMARK    5  A    between atoms: C5_16  and  O4_17 
REMARK    6  A    between atoms: C5_16  and  N5_19 
REMARK    7  A    between atoms: C6_20  and  C7_21 
REMARK    8  A    between atoms: C7_21  and  N6_22 
REMARK    9  A    between atoms: N6_22  and  N7_24 
REMARK   10  A    between atoms: N7_24  and  C8_26 
REMARK   11  A    between atoms: C12_40  and  O7_41 
REMARK   12  A    between atoms: C13_43  and  O8_44 
ROOT
HETATM    1  N4  UNL     1       0.085  -0.105   0.166  1.00  0.00    -0.227 N 
ATOM      2  H4  UNL     1      -0.046   0.796   0.626  1.00  0.00     0.198 HD
HETATM    3  C5  UNL     1       1.036  -0.225  -0.697  1.00  0.00     0.253 C 
ENDROOT
BRANCH   1   4
HETATM    4  O3  UNL     1      -0.757  -1.135   0.491  1.00  0.00    -0.242 OA
BRANCH   4   5
HETATM    5  C4  UNL     1      -2.074  -0.852   0.854  1.00  0.00     0.322 C 
HETATM    6  O2  UNL     1      -3.018  -1.461   0.062  1.00  0.00    -0.328 OA
HETATM    7  C3  UNL     1      -4.165  -1.643   0.778  1.00  0.00     0.272 C 
HETATM    8  C13 UNL     1      -3.916  -1.292   2.210  1.00  0.00     0.201 C 
HETATM    9  C12 UNL     1      -2.396  -1.321   2.279  1.00  0.00     0.208 C 
BRANCH   7  10
HETATM   10  N3  UNL     1      -5.272  -0.940   0.198  1.00  0.00    -0.220 N 
HETATM   11  C2  UNL     1      -6.478  -0.878   0.795  1.00  0.00     0.347 A 
HETATM   12  N2  UNL     1      -7.469  -0.198   0.190  1.00  0.00    -0.141 N 
HETATM   13  O1  UNL     1      -6.686  -1.443   1.904  1.00  0.00    -0.246 OA
HETATM   14  C1  UNL     1      -7.321   0.430  -0.993  1.00  0.00     0.683 A 
ATOM     15  H2  UNL     1      -8.378  -0.156   0.650  1.00  0.00     0.189 HD
HETATM   16  N12 UNL     1      -6.112   0.362  -1.582  1.00  0.00    -0.141 N 
HETATM   17  C14 UNL     1      -5.098  -0.321  -0.983  1.00  0.00     0.347 A 
ATOM     18  H12 UNL     1      -5.956   0.823  -2.478  1.00  0.00     0.189 HD
HETATM   19  O9  UNL     1      -3.991  -0.344  -1.590  1.00  0.00    -0.246 OA
BRANCH  14  20
HETATM   20  N1  UNL     1      -8.288   1.082  -1.565  1.00  0.00    -0.234 N 
ATOM     21  H12 UNL     1      -9.204   1.134  -1.119  1.00  0.00     0.174 HD
ATOM     22  H11 UNL     1      -8.176   1.557  -2.460  1.00  0.00     0.174 HD
ENDBRANCH  14  20
ENDBRANCH   7  10
BRANCH   8  23
HETATM   23  O8  UNL     1      -4.279   0.045   2.490  1.00  0.00    -0.388 OA
ATOM     24  H8  UNL     1      -4.121   0.268   3.400  1.00  0.00     0.210 HD
ENDBRANCH   8  23
BRANCH   9  25
HETATM   25  O7  UNL     1      -2.025  -2.650   2.430  1.00  0.00    -0.388 OA
ATOM     26  H7  UNL     1      -2.224  -2.940   3.312  1.00  0.00     0.210 HD
ENDBRANCH   9  25
ENDBRANCH   4   5
ENDBRANCH   1   4
BRANCH   3  27
HETATM   27  O4  UNL     1       1.195  -1.455  -1.310  1.00  0.00    -0.331 OA
ATOM     28  H4  UNL     1       1.895  -1.543  -1.946  1.00  0.00     0.221 HD
ENDBRANCH   3  27
BRANCH   3  29
HETATM   29  N5  UNL     1       1.893   0.857  -1.015  1.00  0.00    -0.225 N 
HETATM   30  C6  UNL     1       3.216   0.957  -0.681  1.00  0.00     0.080 A 
HETATM   31  C10 UNL     1       3.641   2.165  -1.190  1.00  0.00     0.124 A 
HETATM   32  N11 UNL     1       2.599   2.782  -1.818  1.00  0.00    -0.316 N 
HETATM   33  C11 UNL     1       1.571   1.969  -1.692  1.00  0.00     0.334 A 
ATOM     34  H11 UNL     1       2.613   3.687  -2.288  1.00  0.00     0.170 HD
HETATM   35  O6  UNL     1       0.420   2.206  -2.152  1.00  0.00    -0.246 OA
BRANCH  30  36
HETATM   36  C7  UNL     1       3.922  -0.071   0.065  1.00  0.00     0.139 C 
BRANCH  36  37
HETATM   37  N6  UNL     1       5.146  -0.052   0.412  1.00  0.00    -0.295 N 
ATOM     38  H6  UNL     1       5.507  -0.850   0.936  1.00  0.00     0.186 HD
BRANCH  37  39
HETATM   39  N7  UNL     1       6.005   0.967   0.128  1.00  0.00    -0.131 N 
ATOM     40  H7  UNL     1       5.628   1.889  -0.091  1.00  0.00     0.205 HD
BRANCH  39  41
HETATM   41  C8  UNL     1       7.267   0.795   0.129  1.00  0.00     0.715 A 
HETATM   42  N8  UNL     1       7.888  -0.363   0.398  1.00  0.00    -0.127 N 
HETATM   43  N9  UNL     1       9.189  -0.153   0.302  1.00  0.00    -0.237 N 
ATOM     44  H8  UNL     1       7.437  -1.247   0.634  1.00  0.00     0.206 HD
HETATM   45  C9  UNL     1       9.437   1.137  -0.029  1.00  0.00     0.353 A 
ATOM     46  H9  UNL     1       9.906  -0.862   0.456  1.00  0.00     0.192 HD
HETATM   47  O5  UNL     1      10.560   1.675  -0.201  1.00  0.00    -0.245 OA
HETATM   48  N10 UNL     1       8.218   1.699  -0.129  1.00  0.00    -0.137 N 
ATOM     49  H10 UNL     1       8.044   2.675  -0.368  1.00  0.00     0.189 HD
ENDBRANCH  39  41
ENDBRANCH  37  39
ENDBRANCH  36  37
ENDBRANCH  30  36
ENDBRANCH   3  29
TORSDOF 12
