REMARK  7 active torsions:
REMARK  status: ('A' for Active; 'I' for Inactive)
REMARK    1  A    between atoms: C2_4  and  C3_5 
REMARK    2  A    between atoms: C2_4  and  N4_19 
REMARK    3  A    between atoms: C3_5  and  C4_6 
REMARK    4  A    between atoms: C4_6  and  N3_9 
REMARK       I    between atoms: N3_9  and  C6_11 
REMARK    5  A    between atoms: C6_11  and  C7_13 
REMARK    6  A    between atoms: N4_19  and  C13_21 
REMARK    7  A    between atoms: C13_21  and  C14_22 
ROOT
HETATM    1  C4  UNL     1      -0.372  -0.711  -0.589  1.00  0.00     0.218 C 
HETATM    2  C5  UNL     1      -0.677  -2.239  -0.260  1.00  0.00     0.088 C 
HETATM    3  N2  UNL     1      -0.895  -3.358  -0.070  1.00  0.00    -0.195 NA
ENDROOT
BRANCH   1   4
HETATM    4  C3  UNL     1      -1.292  -0.047   0.354  1.00  0.00     0.061 C 
BRANCH   4   5
HETATM    5  C2  UNL     1      -1.604   1.381   0.318  1.00  0.00     0.099 C 
HETATM    6  N1  UNL     1      -0.724   2.301   0.666  1.00  0.00    -0.381 N 
HETATM    7  C1  UNL     1      -0.859   3.681   0.695  1.00  0.00     0.147 C 
ATOM      8  H1  UNL     1       0.187   1.946   0.956  1.00  0.00     0.160 HD
BRANCH   5   9
HETATM    9  N4  UNL     1      -2.864   1.714  -0.148  1.00  0.00    -0.350 N 
ATOM     10  H4  UNL     1      -3.153   2.667   0.071  1.00  0.00     0.166 HD
BRANCH   9  11
HETATM   11  C13 UNL     1      -3.808   0.981  -0.862  1.00  0.00     0.121 C 
BRANCH  11  12
HETATM   12  C14 UNL     1      -4.767   0.061  -0.227  1.00  0.00     0.071 A 
HETATM   13  N5  UNL     1      -4.581  -1.131   0.292  1.00  0.00    -0.350 N 
HETATM   14  C15 UNL     1      -5.532  -2.016   0.688  1.00  0.00     0.180 A 
ATOM     15  H5  UNL     1      -3.612  -1.426   0.411  1.00  0.00     0.166 HD
HETATM   16  N6  UNL     1      -6.792  -1.582   0.524  1.00  0.00    -0.360 N 
HETATM   17  C16 UNL     1      -7.146  -0.431   0.029  1.00  0.00     0.115 A 
ATOM     18  H6  UNL     1      -7.540  -2.212   0.814  1.00  0.00     0.166 HD
HETATM   19  C17 UNL     1      -6.134   0.442  -0.361  1.00  0.00     0.077 A 
HETATM   20 CL1  UNL     1      -6.425   2.064  -0.968  1.00  0.00    -0.080 Cl
ENDBRANCH  11  12
ENDBRANCH   9  11
ENDBRANCH   5   9
ENDBRANCH   4   5
ENDBRANCH   1   4
BRANCH   1  21
HETATM   21  N3  UNL     1       1.057  -0.812  -0.068  1.00  0.00    -0.340 N 
HETATM   22  C6  UNL     1       2.074  -1.241  -0.967  1.00  0.00     0.223 C 
HETATM   23  O1  UNL     1       1.759  -1.431  -2.185  1.00  0.00    -0.273 OA
ATOM     24  H3  UNL     1       1.279  -0.578   0.900  1.00  0.00     0.164 HD
BRANCH  22  25
HETATM   25  C7  UNL     1       3.439  -1.501  -0.562  1.00  0.00     0.078 C 
HETATM   26  C8  UNL     1       3.644  -1.224   0.923  1.00  0.00     0.014 C 
HETATM   27  C9  UNL     1       3.944   0.255   1.024  1.00  0.00     0.001 C 
HETATM   28  C10 UNL     1       5.377   0.491   0.560  1.00  0.00     0.000 C 
HETATM   29  C11 UNL     1       5.734  -0.542  -0.459  1.00  0.00     0.001 C 
HETATM   30  C12 UNL     1       4.546  -0.896  -1.342  1.00  0.00     0.014 C 
ENDBRANCH  22  25
ENDBRANCH   1  21
TORSDOF 7
