REMARK  5 active torsions:
REMARK  status: ('A' for Active; 'I' for Inactive)
REMARK    1  A    between atoms: C2_2  and  C3_3 
REMARK    2  A    between atoms: C3_3  and  C4_4 
REMARK    3  A    between atoms: C4_4  and  N1_5 
REMARK    4  A    between atoms: C7_9  and  C8_10 
REMARK    5  A    between atoms: C9_11  and  C10_12 
ROOT
HETATM    1  C10 UNL     1       2.358   0.382   0.001  1.00  0.00    -0.008 A 
HETATM    2  C11 UNL     1       1.942   0.653   1.300  1.00  0.00     0.100 A 
HETATM    3  N2  UNL     1       3.003   0.635   2.120  1.00  0.00    -0.363 N 
ATOM      4  H2  UNL     1       2.966   0.804   3.125  1.00  0.00     0.165 HD
HETATM    5  C12 UNL     1       4.117   0.363   1.430  1.00  0.00     0.067 A 
HETATM    6  C13 UNL     1       5.423   0.237   1.847  1.00  0.00     0.085 A 
HETATM    7 CL1  UNL     1       5.853   0.454   3.544  1.00  0.00    -0.080 Cl
HETATM    8  C14 UNL     1       6.431  -0.060   0.964  1.00  0.00     0.070 A 
HETATM    9  N3  UNL     1       7.788  -0.192   1.386  1.00  0.00    -0.101 NA
HETATM   10  C15 UNL     1       6.062  -0.222  -0.343  1.00  0.00     0.036 A 
HETATM   11  C16 UNL     1       4.745  -0.100  -0.792  1.00  0.00    -0.047 A 
HETATM   12  C17 UNL     1       4.442  -0.325  -2.222  1.00  0.00     0.049 C 
HETATM   13  C18 UNL     1       3.739   0.198   0.092  1.00  0.00     0.010 A 
ENDROOT
BRANCH   1  14
HETATM   14  C9  UNL     1       1.559   0.265  -1.195  1.00  0.00     0.013 C 
HETATM   15  C8  UNL     1       0.277   0.187  -1.336  1.00  0.00     0.018 C 
BRANCH  15  16
HETATM   16  C7  UNL     1      -0.803   0.188  -0.376  1.00  0.00     0.230 C 
HETATM   17  S1  UNL     1      -0.909  -1.404   0.545  1.00  0.00    -0.130 SA
HETATM   18  C6  UNL     1      -2.106  -2.440  -0.339  1.00  0.00     0.093 C 
HETATM   19  C5  UNL     1      -3.265  -1.558  -0.756  1.00  0.00     0.131 C 
HETATM   20  N1  UNL     1      -2.994  -0.227  -0.316  1.00  0.00    -0.195 NA
HETATM   21  O1  UNL     1      -2.043   0.326  -1.100  1.00  0.00    -0.284 OA
BRANCH  20  22
HETATM   22  C4  UNL     1      -4.158   0.601  -0.190  1.00  0.00     0.120 C 
BRANCH  22  23
HETATM   23  C3  UNL     1      -5.069   0.176   0.927  1.00  0.00     0.016 C 
BRANCH  23  24
HETATM   24  C2  UNL     1      -6.260   1.111   0.968  1.00  0.00    -0.003 C 
HETATM   25  C1  UNL     1      -7.030   1.075  -0.336  1.00  0.00     0.005 C 
ENDBRANCH  23  24
ENDBRANCH  22  23
ENDBRANCH  20  22
ENDBRANCH  15  16
ENDBRANCH   1  14
TORSDOF 5
