REMARK  8 active torsions:
REMARK  status: ('A' for Active; 'I' for Inactive)
REMARK    1  A    between atoms: C2_2  and  C4_4 
REMARK    2  A    between atoms: C4_4  and  N1_5 
REMARK    3  A    between atoms: C5_6  and  O1_7 
REMARK    4  A    between atoms: C6_9  and  O2_10 
REMARK    5  A    between atoms: C7_12  and  C8_13 
REMARK    6  A    between atoms: C8_13  and  N2_14 
REMARK    7  A    between atoms: C11_17  and  C12_18 
REMARK    8  A    between atoms: C15_21  and  C16_22 
ROOT
HETATM    1  N1  UNL     1      -2.020  -0.848  -0.999  1.00  0.00    -0.324 N 
HETATM    2  C5  UNL     1      -3.267  -0.341  -1.244  1.00  0.00     0.177 A 
HETATM    3  C6  UNL     1      -3.228   1.019  -1.114  1.00  0.00     0.127 A 
HETATM    4  C7  UNL     1      -1.934   1.347  -0.777  1.00  0.00     0.035 A 
HETATM    5  C11 UNL     1      -1.176   0.164  -0.715  1.00  0.00     0.057 A 
ENDROOT
BRANCH   5   6
HETATM    6  C12 UNL     1       0.233   0.095  -0.346  1.00  0.00    -0.006 A 
HETATM    7  C13 UNL     1       1.112  -0.687  -1.123  1.00  0.00     0.014 A 
HETATM    8  C14 UNL     1       2.427  -0.878  -0.837  1.00  0.00     0.012 A 
HETATM    9  C15 UNL     1       2.973  -0.279   0.288  1.00  0.00    -0.012 A 
HETATM   10  C20 UNL     1       2.169   0.485   1.075  1.00  0.00     0.124 A 
HETATM   11  F1  UNL     1       2.664   1.062   2.187  1.00  0.00    -0.205 F 
HETATM   12  C21 UNL     1       0.816   0.663   0.749  1.00  0.00     0.056 A 
BRANCH   9  13
HETATM   13  C16 UNL     1       4.427  -0.435   0.564  1.00  0.00    -0.021 C 
HETATM   14  C17 UNL     1       4.718  -1.070   1.899  1.00  0.00     0.019 C 
HETATM   15  C18 UNL     1       5.099   0.940   0.578  1.00  0.00     0.019 C 
HETATM   16  C19 UNL     1       5.100  -1.209  -0.542  1.00  0.00     0.019 C 
ENDBRANCH   9  13
ENDBRANCH   5   6
BRANCH   1  17
HETATM   17  C4  UNL     1      -1.790  -2.247  -1.007  1.00  0.00     0.135 C 
BRANCH  17  18
HETATM   18  C2  UNL     1      -1.985  -2.872   0.375  1.00  0.00    -0.004 C 
HETATM   19  C1  UNL     1      -3.358  -2.690   0.913  1.00  0.00     0.011 C 
HETATM   20  C3  UNL     1      -1.708  -4.335   0.275  1.00  0.00     0.011 C 
ENDBRANCH  17  18
ENDBRANCH   1  17
BRANCH   4  21
HETATM   21  C8  UNL     1      -1.488   2.754  -0.679  1.00  0.00     0.315 C 
BRANCH  21  22
HETATM   22  N2  UNL     1      -2.226   3.504   0.286  1.00  0.00     0.084 N 
HETATM   23  C9  UNL     1      -2.318   2.981   1.588  1.00  0.00     0.309 C 
HETATM   24  C10 UNL     1      -1.881   4.898   0.298  1.00  0.00     0.309 C 
ENDBRANCH  21  22
ENDBRANCH   4  21
BRANCH   2  25
HETATM   25  O1  UNL     1      -4.417  -1.035  -1.575  1.00  0.00    -0.344 OA
ATOM     26  H1  UNL     1      -5.283  -0.683  -1.745  1.00  0.00     0.219 HD
ENDBRANCH   2  25
BRANCH   3  27
HETATM   27  O2  UNL     1      -4.327   1.895  -1.293  1.00  0.00    -0.356 OA
ATOM     28  H2  UNL     1      -4.300   2.840  -1.203  1.00  0.00     0.218 HD
ENDBRANCH   3  27
TORSDOF 8
