REMARK  5 active torsions:
REMARK  status: ('A' for Active; 'I' for Inactive)
REMARK    1  A    between atoms: N1_2  and  C2_4 
REMARK    2  A    between atoms: C2_4  and  N2_6 
REMARK       I    between atoms: N2_6  and  C3_8 
REMARK       I    between atoms: C3_8  and  N4_22 
REMARK    3  A    between atoms: N3_9  and  C4_11 
REMARK    4  A    between atoms: C4_11  and  C5_12 
REMARK    5  A    between atoms: C4_11  and  C11_18 
ROOT
HETATM    1  N2  UNL     1       2.786   0.857  -0.523  1.00  0.00    -0.166 N 
ATOM      2  H2  UNL     1       2.809   1.688  -1.113  1.00  0.00     0.186 HD
HETATM    3  C3  UNL     1       1.544   0.429   0.025  1.00  0.00     0.689 C 
HETATM    4  N3  UNL     1       0.679   0.027  -0.729  1.00  0.00    -0.218 N 
ATOM      5  H3  UNL     1       1.028   0.072  -1.686  1.00  0.00     0.178 HD
HETATM    6  N4  UNL     1       1.437   0.514   1.429  1.00  0.00    -0.126 N 
ATOM      7  H4  UNL     1       1.284  -0.320   1.996  1.00  0.00     0.197 HD
HETATM    8  C14 UNL     1       1.549   1.799   2.029  1.00  0.00     0.196 C 
HETATM    9  N5  UNL     1       1.639   2.863   2.502  1.00  0.00    -0.171 NA
ENDROOT
BRANCH   1  10
HETATM   10  C2  UNL     1       3.984   0.162  -0.271  1.00  0.00     0.186 C 
HETATM   11  S1  UNL     1       4.046  -1.185   0.662  1.00  0.00    -0.040 SA
BRANCH  10  12
HETATM   12  N1  UNL     1       5.225   0.608  -0.830  1.00  0.00    -0.371 N 
HETATM   13  C1  UNL     1       6.450  -0.091  -0.577  1.00  0.00     0.148 C 
ATOM     14  H1  UNL     1       5.237   1.440  -1.420  1.00  0.00     0.161 HD
ENDBRANCH  10  12
ENDBRANCH   1  10
BRANCH   4  15
HETATM   15  C4  UNL     1      -0.641  -0.481  -0.746  1.00  0.00     0.126 C 
BRANCH  15  16
HETATM   16  C5  UNL     1      -1.575   0.207   0.175  1.00  0.00     0.011 C 
HETATM   17  C6  UNL     1      -1.659   1.662  -0.202  1.00  0.00     0.007 C 
HETATM   18  C7  UNL     1      -3.044   2.177  -0.471  1.00  0.00     0.000 C 
HETATM   19  C8  UNL     1      -3.986   1.914   0.679  1.00  0.00     0.000 C 
HETATM   20  C9  UNL     1      -3.667   0.587   1.340  1.00  0.00     0.000 C 
HETATM   21  C10 UNL     1      -2.934  -0.314   0.318  1.00  0.00     0.007 C 
ENDBRANCH  15  16
BRANCH  15  22
HETATM   22  C11 UNL     1      -0.593  -1.969  -0.750  1.00  0.00     0.051 C 
HETATM   23  C12 UNL     1       0.069  -2.601   0.440  1.00  0.00     0.034 C 
HETATM   24  C13 UNL     1      -1.821  -2.675  -1.206  1.00  0.00     0.034 C 
HETATM   25 CL1  UNL     1       0.612  -2.299  -2.092  1.00  0.00    -0.118 Cl
ENDBRANCH  15  22
ENDBRANCH   4  15
TORSDOF 5
