REMARK  13 active torsions:
REMARK  status: ('A' for Active; 'I' for Inactive)
REMARK    1  A    between atoms: C3_3  and  N1_4 
REMARK    2  A    between atoms: C3_3  and  C4_8 
REMARK    3  A    between atoms: C4_8  and  N2_9 
REMARK       I    between atoms: N2_9  and  C5_11 
REMARK    4  A    between atoms: C5_11  and  C6_13 
REMARK    5  A    between atoms: C8_16  and  N3_17 
REMARK       I    between atoms: N3_17  and  C9_19 
REMARK    6  A    between atoms: C9_19  and  C10_21 
REMARK    7  A    between atoms: C10_21  and  N4_22 
REMARK       I    between atoms: N4_22  and  C11_24 
REMARK    8  A    between atoms: C11_24  and  C12_26 
REMARK    9  A    between atoms: C12_26  and  C13_27 
REMARK   10  A    between atoms: C12_26  and  N6_34 
REMARK   11  A    between atoms: C13_27  and  C14_28 
REMARK   12  A    between atoms: C14_28  and  O5_30 
REMARK   13  A    between atoms: O5_30  and  N5_31 
ROOT
HETATM    1  C1  UNL     1      -8.910   1.135  -1.733  1.00  0.00     0.014 C 
HETATM    2  C2  UNL     1      -7.965   0.726  -1.113  1.00  0.00    -0.083 C 
HETATM    3  C3  UNL     1      -6.790   0.228  -0.316  1.00  0.00     0.278 C 
ENDROOT
BRANCH   3   4
HETATM    4  N1  UNL     1      -6.283  -0.926  -0.981  1.00  0.00    -0.063 N 
ATOM      5  H13 UNL     1      -6.993  -1.642  -1.134  1.00  0.00     0.275 HD
ATOM      6  H12 UNL     1      -6.056  -0.754  -1.960  1.00  0.00     0.275 HD
ATOM      7  H11 UNL     1      -5.486  -1.264  -0.441  1.00  0.00     0.275 HD
ENDBRANCH   3   4
BRANCH   3   8
HETATM    8  C4  UNL     1      -5.889   1.386  -0.129  1.00  0.00     0.168 C 
BRANCH   8   9
HETATM    9  N2  UNL     1      -4.697   1.211   0.606  1.00  0.00    -0.353 N 
HETATM   10  C5  UNL     1      -3.616   0.413   0.211  1.00  0.00     0.268 C 
HETATM   11  O1  UNL     1      -3.640  -0.210  -0.887  1.00  0.00    -0.266 OA
ATOM     12  H2  UNL     1      -4.616   1.705   1.495  1.00  0.00     0.162 HD
BRANCH  10  13
HETATM   13  C6  UNL     1      -2.396   0.274   1.082  1.00  0.00     0.109 A 
HETATM   14  C7  UNL     1      -2.339   0.932   2.281  1.00  0.00     0.088 A 
HETATM   15  S1  UNL     1      -0.800   0.464   2.868  1.00  0.00    -0.063 SA
HETATM   16  C8  UNL     1      -0.331  -0.526   1.568  1.00  0.00     0.151 A 
HETATM   17  N7  UNL     1      -1.369  -0.456   0.744  1.00  0.00    -0.332 N 
ATOM     18  H7  UNL     1      -1.364  -0.965  -0.140  1.00  0.00     0.168 HD
BRANCH  16  19
HETATM   19  N3  UNL     1       0.785  -1.193   1.423  1.00  0.00    -0.306 N 
HETATM   20  C9  UNL     1       0.985  -1.970   0.250  1.00  0.00     0.241 C 
HETATM   21  O2  UNL     1       0.230  -2.932  -0.033  1.00  0.00    -0.271 OA
ATOM     22  H3  UNL     1       1.505  -1.156   2.145  1.00  0.00     0.171 HD
BRANCH  20  23
HETATM   23  C10 UNL     1       2.091  -1.668  -0.677  1.00  0.00     0.225 C 
BRANCH  23  24
HETATM   24  N4  UNL     1       2.837  -0.535  -0.178  1.00  0.00    -0.351 N 
HETATM   25  C11 UNL     1       3.976  -0.020  -0.884  1.00  0.00     0.238 C 
HETATM   26  O3  UNL     1       4.291  -0.598  -1.953  1.00  0.00    -0.272 OA
ATOM     27  H4  UNL     1       2.548  -0.092   0.694  1.00  0.00     0.163 HD
BRANCH  25  28
HETATM   28  C12 UNL     1       4.688   1.137  -0.316  1.00  0.00     0.189 C 
BRANCH  28  29
HETATM   29  C13 UNL     1       5.265   0.860   1.030  1.00  0.00     0.144 C 
BRANCH  29  30
HETATM   30  C14 UNL     1       6.245  -0.258   1.001  1.00  0.00     0.282 C 
HETATM   31  O4  UNL     1       6.815  -0.607   2.061  1.00  0.00    -0.263 OA
BRANCH  30  32
HETATM   32  O5  UNL     1       6.567  -0.946  -0.157  1.00  0.00    -0.206 OA
BRANCH  32  33
HETATM   33  N5  UNL     1       7.468  -1.962  -0.139  1.00  0.00    -0.302 N 
ATOM     34  H52 UNL     1       7.905  -2.209   0.749  1.00  0.00     0.184 HD
ATOM     35  H51 UNL     1       7.705  -2.469  -0.992  1.00  0.00     0.184 HD
ENDBRANCH  32  33
ENDBRANCH  30  32
ENDBRANCH  29  30
ENDBRANCH  28  29
BRANCH  28  36
HETATM   36  N6  UNL     1       5.787   1.454  -1.216  1.00  0.00    -0.155 NA
HETATM   37 BR1  UNL     1       6.749   2.934  -0.548  1.00  0.00     0.030 Br
ENDBRANCH  28  36
ENDBRANCH  25  28
ENDBRANCH  23  24
ENDBRANCH  20  23
ENDBRANCH  16  19
ENDBRANCH  10  13
ENDBRANCH   8   9
ENDBRANCH   3   8
TORSDOF 13
