REMARK  17 active torsions:
REMARK  status: ('A' for Active; 'I' for Inactive)
REMARK    1  A    between atoms: O1_2  and  C2_3 
REMARK    2  A    between atoms: C2_3  and  C3_5 
REMARK    3  A    between atoms: C3_5  and  C4_6 
REMARK    4  A    between atoms: C4_6  and  C5_7 
REMARK    5  A    between atoms: C5_7  and  C6_8 
REMARK    6  A    between atoms: C6_8  and  C7_9 
REMARK    7  A    between atoms: C7_9  and  N1_10 
REMARK    8  A    between atoms: C9_12  and  O3_13 
REMARK    9  A    between atoms: O3_13  and  C10_14 
REMARK   10  A    between atoms: C10_14  and  C11_15 
REMARK   11  A    between atoms: C18_25  and  C19_26 
REMARK   12  A    between atoms: C19_26  and  C20_27 
REMARK   13  A    between atoms: C20_27  and  C21_28 
REMARK   14  A    between atoms: C21_28  and  C22_29 
REMARK   15  A    between atoms: C22_29  and  C23_30 
REMARK   16  A    between atoms: C23_30  and  C24_31 
REMARK   17  A    between atoms: C27_36  and  C28_37 
ROOT
HETATM    1  N1  UNL     1      -1.758   0.680  -0.256  1.00  0.00     0.096 N 
HETATM    2  C8  UNL     1      -2.407  -0.319   0.584  1.00  0.00     0.305 C 
HETATM    3  C9  UNL     1      -1.446  -0.630   1.714  1.00  0.00     0.161 C 
HETATM    4  C12 UNL     1      -0.645   0.609   1.828  1.00  0.00     0.027 C 
HETATM    5  C13 UNL     1      -1.106   1.454   3.059  1.00  0.00     0.015 C 
HETATM    6  C14 UNL     1      -0.073   2.584   2.884  1.00  0.00     0.008 C 
HETATM    7  C15 UNL     1       1.157   1.970   2.319  1.00  0.00     0.016 C 
HETATM    8  C16 UNL     1       0.757   0.478   2.237  1.00  0.00     0.045 C 
HETATM    9  C17 UNL     1       1.748   0.012   1.274  1.00  0.00    -0.003 A 
HETATM   10  S1  UNL     1       2.628  -1.342   0.744  1.00  0.00    -0.085 SA
HETATM   11  C18 UNL     1       3.556  -0.615  -0.495  1.00  0.00     0.059 A 
HETATM   12  C25 UNL     1       3.143   0.688  -0.457  1.00  0.00     0.037 A 
HETATM   13  C26 UNL     1       2.200   1.007   0.467  1.00  0.00    -0.026 A 
HETATM   14  C27 UNL     1       1.430   2.228   0.884  1.00  0.00     0.054 C 
HETATM   15  C30 UNL     1       0.188   2.173   0.019  1.00  0.00     0.059 C 
HETATM   16  C31 UNL     1      -0.963   1.499   0.667  1.00  0.00     0.236 C 
ENDROOT
BRANCH   1  17
HETATM   17  C7  UNL     1      -2.884   1.467  -0.793  1.00  0.00     0.273 C 
BRANCH  17  18
HETATM   18  C6  UNL     1      -3.716   0.668  -1.736  1.00  0.00     0.030 C 
BRANCH  18  19
HETATM   19  C5  UNL     1      -4.840   1.578  -2.211  1.00  0.00     0.002 C 
BRANCH  19  20
HETATM   20  C4  UNL     1      -5.769   0.916  -3.167  1.00  0.00     0.010 C 
BRANCH  20  21
HETATM   21  C3  UNL     1      -6.473  -0.296  -2.670  1.00  0.00     0.111 C 
BRANCH  21  22
HETATM   22  C2  UNL     1      -7.345  -0.087  -1.501  1.00  0.00     0.258 C 
HETATM   23  O2  UNL     1      -7.491   1.052  -1.005  1.00  0.00    -0.265 OA
BRANCH  22  24
HETATM   24  O1  UNL     1      -8.027  -1.146  -0.919  1.00  0.00    -0.326 OA
HETATM   25  C1  UNL     1      -8.871  -0.991   0.201  1.00  0.00     0.213 C 
ENDBRANCH  22  24
ENDBRANCH  21  22
ENDBRANCH  20  21
ENDBRANCH  19  20
ENDBRANCH  18  19
ENDBRANCH  17  18
ENDBRANCH   1  17
BRANCH   3  26
HETATM   26  O3  UNL     1      -0.752  -1.768   1.314  1.00  0.00    -0.374 OA
BRANCH  26  27
HETATM   27  C10 UNL     1      -0.983  -2.737   2.283  1.00  0.00     0.267 C 
BRANCH  27  28
HETATM   28  C11 UNL     1      -0.343  -4.031   2.017  1.00  0.00     0.254 C 
HETATM   29  N2  UNL     1      -0.485  -5.112   2.953  1.00  0.00    -0.060 NA
HETATM   30  O4  UNL     1       0.324  -4.198   0.985  1.00  0.00    -0.275 OA
ENDBRANCH  27  28
ENDBRANCH  26  27
ENDBRANCH   3  26
BRANCH  14  31
HETATM   31  C28 UNL     1       2.206   3.465   0.639  1.00  0.00     0.136 C 
HETATM   32  C29 UNL     1       3.512   3.757   1.255  1.00  0.00     0.092 C 
HETATM   33  O7  UNL     1       1.725   4.285  -0.121  1.00  0.00    -0.297 OA
ENDBRANCH  14  31
BRANCH  11  34
HETATM   34  C19 UNL     1       4.550  -1.214  -1.382  1.00  0.00    -0.059 C 
BRANCH  34  35
HETATM   35  C20 UNL     1       5.370  -1.726  -2.100  1.00  0.00    -0.101 C 
BRANCH  35  36
HETATM   36  C21 UNL     1       6.366  -2.372  -2.960  1.00  0.00     0.095 C 
BRANCH  36  37
HETATM   37  C22 UNL     1       7.753  -2.312  -2.311  1.00  0.00     0.022 C 
BRANCH  37  38
HETATM   38  C23 UNL     1       8.126  -0.857  -2.111  1.00  0.00     0.114 C 
BRANCH  38  39
HETATM   39  C24 UNL     1       9.442  -0.692  -1.492  1.00  0.00     0.172 C 
HETATM   40  O5  UNL     1      10.181  -1.661  -1.164  1.00  0.00    -0.648 OA
HETATM   41  O6  UNL     1       9.921   0.584  -1.243  1.00  0.00    -0.648 OA
ENDBRANCH  38  39
ENDBRANCH  37  38
ENDBRANCH  36  37
ENDBRANCH  35  36
ENDBRANCH  34  35
ENDBRANCH  11  34
TORSDOF 17
