REMARK  4 active torsions:
REMARK  status: ('A' for Active; 'I' for Inactive)
REMARK    1  A    between atoms: C2_2  and  C4_4 
REMARK    2  A    between atoms: C18_21  and  O3_23 
REMARK    3  A    between atoms: C20_25  and  N1_26 
REMARK    4  A    between atoms: N2_28  and  C21_30 
ROOT
HETATM    1  C4  UNL     1      -1.500   3.093   0.149  1.00  0.00    -0.013 A 
HETATM    2  C5  UNL     1      -1.848   1.800   0.429  1.00  0.00     0.025 A 
HETATM    3  C6  UNL     1      -1.139   0.818  -0.162  1.00  0.00    -0.016 A 
HETATM    4  C7  UNL     1      -0.125   1.181  -0.998  1.00  0.00     0.005 A 
HETATM    5  S1  UNL     1      -0.199   2.893  -0.928  1.00  0.00    -0.097 SA
HETATM    6  C8  UNL     1       0.554  -0.050  -1.555  1.00  0.00     0.050 C 
HETATM    7  C9  UNL     1      -0.175  -0.399  -2.842  1.00  0.00     0.027 C 
HETATM    8  C10 UNL     1       0.261  -1.099  -0.553  1.00  0.00     0.176 C 
HETATM    9  O1  UNL     1       1.084  -1.391   0.440  1.00  0.00    -0.312 OA
HETATM   10  C11 UNL     1       1.703  -1.179   1.567  1.00  0.00     0.267 C 
HETATM   11  O2  UNL     1       1.260  -0.889   2.736  1.00  0.00    -0.264 OA
HETATM   12  C12 UNL     1       3.214  -1.279   1.550  1.00  0.00     0.041 C 
HETATM   13  C13 UNL     1       3.487  -2.703   1.036  1.00  0.00     0.025 C 
HETATM   14  C14 UNL     1       3.834  -1.210   2.904  1.00  0.00     0.025 C 
HETATM   15  C15 UNL     1       3.830  -0.239   0.664  1.00  0.00     0.019 C 
HETATM   16  C16 UNL     1       2.913   0.902   0.325  1.00  0.00     0.004 C 
HETATM   17  C17 UNL     1       2.758   1.134  -1.125  1.00  0.00     0.038 C 
HETATM   18  C18 UNL     1       1.964   0.186  -1.918  1.00  0.00     0.069 C 
HETATM   19  C19 UNL     1       1.991   0.769  -3.351  1.00  0.00     0.047 C 
HETATM   20  C20 UNL     1      -1.172  -0.702  -0.145  1.00  0.00     0.163 C 
ENDROOT
BRANCH  20  21
HETATM   21  N1  UNL     1      -1.426  -1.205   1.148  1.00  0.00    -0.328 N 
HETATM   22  N2  UNL     1      -2.241  -1.995   1.548  1.00  0.00    -0.331 N 
ATOM     23  H2  UNL     1      -2.210  -2.187   2.549  1.00  0.00     0.180 HD
ATOM     24  H1  UNL     1      -0.810  -0.834   1.872  1.00  0.00     0.180 HD
BRANCH  22  25
HETATM   25  C21 UNL     1      -3.234  -2.694   0.829  1.00  0.00     0.034 C 
HETATM   26  C22 UNL     1      -3.991  -3.599   1.814  1.00  0.00     0.039 C 
HETATM   27  C23 UNL     1      -4.261  -1.713   0.285  1.00  0.00     0.039 C 
HETATM   28  C24 UNL     1      -2.691  -3.570  -0.258  1.00  0.00     0.039 C 
ENDBRANCH  22  25
ENDBRANCH  20  21
BRANCH   1  29
HETATM   29  C2  UNL     1      -2.085   4.376   0.640  1.00  0.00     0.017 C 
HETATM   30  C1  UNL     1      -1.045   5.185   1.357  1.00  0.00     0.015 C 
HETATM   31  C3  UNL     1      -2.619   5.124  -0.568  1.00  0.00     0.015 C 
ENDBRANCH   1  29
BRANCH  18  32
HETATM   32  O3  UNL     1       2.572  -1.076  -2.090  1.00  0.00    -0.389 OA
ATOM     33  H3  UNL     1       3.480  -0.924  -2.324  1.00  0.00     0.210 HD
ENDBRANCH  18  32
TORSDOF 4
