REMARK  4 active torsions:
REMARK  status: ('A' for Active; 'I' for Inactive)
REMARK    1  A    between atoms: C2_2  and  S1_3 
REMARK    2  A    between atoms: S1_3  and  C3_4 
REMARK    3  A    between atoms: C4_6  and  N1_7 
REMARK       I    between atoms: N1_7  and  C5_9 
REMARK    4  A    between atoms: C5_9  and  C6_11 
ROOT
HETATM    1  N1  UNL     1      -0.519  -1.456  -0.224  1.00  0.00    -0.307 N 
ATOM      2  H1  UNL     1      -0.832  -2.421  -0.122  1.00  0.00     0.171 HD
HETATM    3  C5  UNL     1      -1.438  -0.378  -0.389  1.00  0.00     0.229 C 
HETATM    4  O1  UNL     1      -1.152   0.634  -1.081  1.00  0.00    -0.273 OA
ENDROOT
BRANCH   1   5
HETATM    5  C4  UNL     1       0.756  -1.132  -0.211  1.00  0.00     0.152 A 
HETATM    6  S2  UNL     1       1.461   0.412  -0.366  1.00  0.00    -0.045 SA
HETATM    7  C3  UNL     1       3.105  -0.049  -0.245  1.00  0.00     0.067 A 
HETATM    8  C13 UNL     1       3.011  -1.394  -0.089  1.00  0.00     0.031 A 
HETATM    9  N2  UNL     1       1.813  -1.933  -0.073  1.00  0.00    -0.339 N 
HETATM   10  C14 UNL     1       4.262  -2.240   0.058  1.00  0.00     0.070 C 
ATOM     11  H2  UNL     1       1.694  -2.940   0.042  1.00  0.00     0.168 HD
BRANCH   7  12
HETATM   12  S1  UNL     1       4.451   1.106  -0.332  1.00  0.00    -0.121 SA
BRANCH  12  13
HETATM   13  C2  UNL     1       6.075   0.405  -0.169  1.00  0.00     0.075 C 
HETATM   14  C1  UNL     1       7.083   1.546  -0.300  1.00  0.00     0.016 C 
ENDBRANCH  12  13
ENDBRANCH   7  12
ENDBRANCH   1   5
BRANCH   3  15
HETATM   15  C6  UNL     1      -2.769  -0.419   0.255  1.00  0.00     0.095 A 
HETATM   16  C7  UNL     1      -3.987   0.044  -0.544  1.00  0.00    -0.027 A 
HETATM   17  C8  UNL     1      -3.701   0.341  -1.976  1.00  0.00     0.016 C 
HETATM   18  C9  UNL     1      -5.295  -0.728  -0.336  1.00  0.00     0.016 C 
HETATM   19  C10 UNL     1      -3.491   0.844   0.583  1.00  0.00    -0.027 A 
HETATM   20  C11 UNL     1      -2.841   2.181   0.418  1.00  0.00     0.016 C 
HETATM   21  C12 UNL     1      -4.310   0.743   1.881  1.00  0.00     0.016 C 
ENDBRANCH   3  15
TORSDOF 4
