REMARK  10 active torsions:
REMARK  status: ('A' for Active; 'I' for Inactive)
REMARK    1  A    between atoms: N1_1  and  C1_5 
REMARK    2  A    between atoms: C1_5  and  C2_6 
REMARK    3  A    between atoms: C5_9  and  C6_10 
REMARK    4  A    between atoms: C6_10  and  O1_11 
REMARK    5  A    between atoms: C6_10  and  C7_13 
REMARK    6  A    between atoms: C7_13  and  N2_14 
REMARK    7  A    between atoms: N2_14  and  C8_16 
REMARK    8  A    between atoms: C8_16  and  C9_17 
REMARK    9  A    between atoms: C9_17  and  S1_18 
REMARK   10  A    between atoms: S1_18  and  C10_19 
ROOT
HETATM    1  C6  UNL     1      -1.431  -0.573   1.325  1.00  0.00     0.168 C 
ENDROOT
BRANCH   1   2
HETATM    2  C5  UNL     1      -2.761  -0.309   0.760  1.00  0.00    -0.028 A 
HETATM    3  C4  UNL     1      -3.234   0.983   0.758  1.00  0.00     0.010 A 
HETATM    4  C3  UNL     1      -4.469   1.287   0.245  1.00  0.00     0.009 A 
HETATM    5  C2  UNL     1      -5.287   0.306  -0.291  1.00  0.00    -0.033 A 
HETATM    6  C17 UNL     1      -4.787  -0.979  -0.275  1.00  0.00     0.009 A 
HETATM    7  C16 UNL     1      -3.548  -1.305   0.236  1.00  0.00     0.010 A 
BRANCH   5   8
HETATM    8  C1  UNL     1      -6.618   0.587  -0.856  1.00  0.00     0.268 C 
BRANCH   8   9
HETATM    9  N1  UNL     1      -6.860   2.014  -0.937  1.00  0.00    -0.075 N 
ATOM     10  H13 UNL     1      -6.732   2.469  -0.033  1.00  0.00     0.274 HD
ATOM     11  H12 UNL     1      -6.123   2.491  -1.457  1.00  0.00     0.274 HD
ATOM     12  H11 UNL     1      -7.782   2.209  -1.328  1.00  0.00     0.274 HD
ENDBRANCH   8   9
ENDBRANCH   5   8
ENDBRANCH   1   2
BRANCH   1  13
HETATM   13  O1  UNL     1      -1.406  -1.699   2.120  1.00  0.00    -0.389 OA
ATOM     14  H1  UNL     1      -0.546  -1.870   2.485  1.00  0.00     0.210 HD
ENDBRANCH   1  13
BRANCH   1  15
HETATM   15  C7  UNL     1      -0.425  -0.655   0.178  1.00  0.00     0.150 C 
BRANCH  15  16
HETATM   16  N2  UNL     1       0.871  -0.788   0.757  1.00  0.00    -0.418 N 
ATOM     17  H2  UNL     1       1.008  -0.822   1.767  1.00  0.00     0.153 HD
BRANCH  16  18
HETATM   18  C8  UNL     1       1.964  -0.871  -0.154  1.00  0.00     0.124 C 
BRANCH  18  19
HETATM   19  C9  UNL     1       2.147   0.439  -0.859  1.00  0.00     0.098 C 
BRANCH  19  20
HETATM   20  S1  UNL     1       3.508   0.441  -2.034  1.00  0.00    -0.128 SA
BRANCH  20  21
HETATM   21  C10 UNL     1       5.061   0.278  -1.164  1.00  0.00     0.000 A 
HETATM   22  C11 UNL     1       5.636  -0.923  -0.900  1.00  0.00     0.020 A 
HETATM   23  C12 UNL     1       6.851  -1.006  -0.217  1.00  0.00     0.025 A 
HETATM   24  C13 UNL     1       7.520   0.121   0.219  1.00  0.00     0.034 A 
HETATM   25 CL1  UNL     1       9.048   0.040   1.076  1.00  0.00    -0.084 Cl
HETATM   26  C14 UNL     1       6.919   1.341  -0.058  1.00  0.00     0.025 A 
HETATM   27  C15 UNL     1       5.721   1.431  -0.731  1.00  0.00     0.020 A 
ENDBRANCH  20  21
ENDBRANCH  19  20
ENDBRANCH  18  19
ENDBRANCH  16  18
ENDBRANCH  15  16
ENDBRANCH   1  15
TORSDOF 10
