REMARK  7 active torsions:
REMARK  status: ('A' for Active; 'I' for Inactive)
REMARK    1  A    between atoms: C3_3  and  S1_4 
REMARK    2  A    between atoms: S1_4  and  C4_5 
REMARK    3  A    between atoms: C4_5  and  C5_6 
REMARK    4  A    between atoms: C5_6  and  C6_7 
REMARK    5  A    between atoms: C6_7  and  C7_8 
REMARK    6  A    between atoms: C7_8  and  C8_9 
REMARK    7  A    between atoms: C8_9  and  N1_10 
ROOT
HETATM    1  C5  UNL     1       1.551   0.898  -0.134  1.00  0.00     0.011 C 
ENDROOT
BRANCH   1   2
HETATM    2  C4  UNL     1       1.762  -0.500   0.376  1.00  0.00     0.079 C 
BRANCH   2   3
HETATM    3  S1  UNL     1       2.971  -1.462  -0.510  1.00  0.00    -0.130 SA
BRANCH   3   4
HETATM    4  C3  UNL     1       4.650  -0.895  -0.303  1.00  0.00     0.003 A 
HETATM    5  C2  UNL     1       5.643  -1.556  -0.985  1.00  0.00     0.035 A 
HETATM    6  C1  UNL     1       6.969  -1.213  -0.890  1.00  0.00     0.089 A 
HETATM    7  N2  UNL     1       7.294  -0.182  -0.091  1.00  0.00    -0.375 N 
HETATM    8  C15 UNL     1       6.340   0.500   0.602  1.00  0.00     0.089 A 
ATOM      9  H2  UNL     1       8.272   0.094  -0.002  1.00  0.00     0.164 HD
HETATM   10  C14 UNL     1       5.019   0.150   0.501  1.00  0.00     0.035 A 
ENDBRANCH   3   4
ENDBRANCH   2   3
ENDBRANCH   1   2
BRANCH   1  11
HETATM   11  C6  UNL     1       0.527   1.605   0.711  1.00  0.00     0.006 C 
BRANCH  11  12
HETATM   12  C7  UNL     1      -0.817   0.971   0.754  1.00  0.00     0.045 C 
BRANCH  12  13
HETATM   13  C8  UNL     1      -1.504   0.851  -0.584  1.00  0.00     0.068 C 
BRANCH  13  14
HETATM   14  N1  UNL     1      -2.763   0.258  -0.403  1.00  0.00    -0.354 N 
HETATM   15  C9  UNL     1      -2.860  -1.073  -0.018  1.00  0.00     0.068 C 
HETATM   16  C10 UNL     1      -4.206  -1.703  -0.052  1.00  0.00     0.045 C 
HETATM   17  C11 UNL     1      -5.370  -0.777  -0.005  1.00  0.00     0.010 C 
HETATM   18  C12 UNL     1      -4.910   0.536   0.607  1.00  0.00     0.045 C 
HETATM   19  C13 UNL     1      -3.888   1.099  -0.347  1.00  0.00     0.068 C 
ENDBRANCH  13  14
ENDBRANCH  12  13
ENDBRANCH  11  12
ENDBRANCH   1  11
TORSDOF 7
