REMARK  2 active torsions:
REMARK  status: ('A' for Active; 'I' for Inactive)
REMARK    1  A    between atoms: C2_2  and  O2_4 
REMARK    2  A    between atoms: O2_4  and  C3_5 
ROOT
HETATM    1  C3  UNL     1       1.270  -0.715   0.268  1.00  0.00     0.314 C 
HETATM    2  O3  UNL     1       1.280  -2.102   0.005  1.00  0.00    -0.206 OA
HETATM    3  O4  UNL     1       0.046  -2.453   0.300  1.00  0.00    -0.227 OA
HETATM    4  C4  UNL     1      -0.786  -1.585  -0.445  1.00  0.00     0.102 C 
HETATM    5  C5  UNL     1      -0.874  -2.161  -1.839  1.00  0.00     0.050 C 
HETATM    6  C6  UNL     1      -2.147  -1.544   0.141  1.00  0.00     0.041 C 
HETATM    7  C7  UNL     1      -2.927  -0.307  -0.127  1.00  0.00     0.004 C 
HETATM    8  C8  UNL     1      -2.110   0.919  -0.345  1.00  0.00     0.009 C 
HETATM    9  C9  UNL     1      -0.720   0.819   0.289  1.00  0.00    -0.036 C 
HETATM   10  C10 UNL     1      -0.902   0.700   1.755  1.00  0.00     0.015 C 
HETATM   11  C11 UNL     1       0.009   2.111  -0.099  1.00  0.00     0.015 C 
HETATM   12  C12 UNL     1      -0.021  -0.305  -0.375  1.00  0.00     0.089 C 
ENDROOT
BRANCH   1  13
HETATM   13  O2  UNL     1       2.394  -0.061  -0.204  1.00  0.00    -0.286 OA
BRANCH  13  14
HETATM   14  C2  UNL     1       3.338   0.582   0.576  1.00  0.00     0.257 C 
HETATM   15  C1  UNL     1       4.526   1.273   0.069  1.00  0.00     0.126 C 
HETATM   16  O1  UNL     1       3.144   0.562   1.818  1.00  0.00    -0.266 OA
ENDBRANCH  13  14
ENDBRANCH   1  13
TORSDOF 2
