REMARK  5 active torsions:
REMARK  status: ('A' for Active; 'I' for Inactive)
REMARK    1  A    between atoms: C3_3  and  C4_4 
REMARK       I    between atoms: C4_4  and  N1_6 
REMARK    2  A    between atoms: N1_6  and  C5_8 
REMARK    3  A    between atoms: C9_13  and  N2_14 
REMARK       I    between atoms: N2_14  and  C10_16 
REMARK    4  A    between atoms: C10_16  and  O3_18 
REMARK    5  A    between atoms: O3_18  and  C11_19 
ROOT
HETATM    1  N2  UNL     1       0.770   0.089  -0.512  1.00  0.00    -0.296 N 
ATOM      2  H2  UNL     1       0.923   0.037  -1.519  1.00  0.00     0.171 HD
HETATM    3  C10 UNL     1      -0.549   0.126   0.034  1.00  0.00     0.365 C 
HETATM    4  O2  UNL     1      -0.712   0.193   1.283  1.00  0.00    -0.238 OA
ENDROOT
BRANCH   1   5
HETATM    5  C9  UNL     1       1.875   0.128   0.409  1.00  0.00     0.085 A 
HETATM    6  C2  UNL     1       3.217   0.112   0.120  1.00  0.00    -0.012 A 
HETATM    7  C1  UNL     1       3.637   0.111  -1.353  1.00  0.00     0.052 C 
HETATM    8  C3  UNL     1       4.075   0.150   1.161  1.00  0.00     0.047 A 
HETATM    9  C8  UNL     1       3.488   0.205   2.432  1.00  0.00     0.069 A 
HETATM   10  S1  UNL     1       1.835   0.198   2.103  1.00  0.00    -0.083 SA
BRANCH   8  11
HETATM   11  C4  UNL     1       5.566   0.078   1.075  1.00  0.00     0.253 C 
HETATM   12  O1  UNL     1       6.248   0.691   1.975  1.00  0.00    -0.268 OA
HETATM   13  N1  UNL     1       6.237  -0.609   0.095  1.00  0.00    -0.353 N 
ATOM     14  H1  UNL     1       5.728  -1.119  -0.627  1.00  0.00     0.163 HD
BRANCH  13  15
HETATM   15  C5  UNL     1       7.712  -0.593   0.109  1.00  0.00     0.076 C 
HETATM   16  C6  UNL     1       8.103   0.112  -1.182  1.00  0.00     0.032 C 
HETATM   17  C7  UNL     1       8.181  -2.020   0.141  1.00  0.00     0.032 C 
ENDBRANCH  13  15
ENDBRANCH   8  11
ENDBRANCH   1   5
BRANCH   3  18
HETATM   18  O3  UNL     1      -1.677   0.092  -0.741  1.00  0.00    -0.298 OA
BRANCH  18  19
HETATM   19  C11 UNL     1      -2.966   0.129  -0.180  1.00  0.00     0.138 C 
HETATM   20  C12 UNL     1      -3.743   1.346  -0.541  1.00  0.00     0.062 C 
HETATM   21  C13 UNL     1      -4.919   1.426   0.428  1.00  0.00     0.021 C 
HETATM   22  C14 UNL     1      -4.341   1.648   1.833  1.00  0.00     0.037 C 
HETATM   23  C15 UNL     1      -5.720   2.658   0.095  1.00  0.00     0.037 C 
HETATM   24  N3  UNL     1      -5.661   0.219   0.481  1.00  0.00    -0.405 N 
HETATM   25  C16 UNL     1      -5.218  -0.843  -0.335  1.00  0.00     0.021 C 
ATOM     26  H3  UNL     1      -6.479   0.123   1.083  1.00  0.00     0.154 HD
HETATM   27  C17 UNL     1      -5.821  -2.121   0.294  1.00  0.00     0.037 C 
HETATM   28  C18 UNL     1      -5.836  -0.787  -1.740  1.00  0.00     0.037 C 
HETATM   29  C19 UNL     1      -3.758  -1.097  -0.421  1.00  0.00     0.062 C 
ENDBRANCH  18  19
ENDBRANCH   3  18
TORSDOF 5
