REMARK  4 active torsions:
REMARK  status: ('A' for Active; 'I' for Inactive)
REMARK    1  A    between atoms: C2_2  and  O1_3 
REMARK    2  A    between atoms: C2_2  and  C3_5 
REMARK    3  A    between atoms: C3_5  and  N1_6 
REMARK    4  A    between atoms: N2_13  and  C7_14 
ROOT
HETATM    1  N1  UNL     1       3.093  -0.560  -0.743  1.00  0.00    -0.262 N 
HETATM    2  C4  UNL     1       3.162  -0.211  -2.037  1.00  0.00     0.273 A 
HETATM    3  O2  UNL     1       4.256  -0.147  -2.661  1.00  0.00    -0.266 OA
HETATM    4  C5  UNL     1       1.964   0.080  -2.674  1.00  0.00     0.135 A 
HETATM    5 BR1  UNL     1       2.048   0.575  -4.508  1.00  0.00    -0.040 Br
HETATM    6  C6  UNL     1       0.748   0.015  -2.009  1.00  0.00     0.219 A 
HETATM    7  F1  UNL     1      -0.387   0.312  -2.690  1.00  0.00    -0.184 F 
HETATM    8  N2  UNL     1       0.745  -0.340  -0.715  1.00  0.00    -0.246 N 
HETATM    9  C16 UNL     1       1.907  -0.620  -0.106  1.00  0.00     0.336 A 
HETATM   10  O4  UNL     1       1.906  -0.953   1.109  1.00  0.00    -0.246 OA
ENDROOT
BRANCH   8  11
HETATM   11  C7  UNL     1      -0.476  -0.425   0.025  1.00  0.00     0.235 C 
HETATM   12  C8  UNL     1      -1.089   0.925   0.312  1.00  0.00     0.059 C 
HETATM   13  C9  UNL     1      -2.548   0.796   0.606  1.00  0.00    -0.004 C 
HETATM   14  C10 UNL     1      -3.404   1.125  -0.582  1.00  0.00     0.005 C 
HETATM   15  C14 UNL     1      -2.839  -0.582   1.154  1.00  0.00     0.014 C 
HETATM   16  C11 UNL     1      -4.847   1.040  -0.199  1.00  0.00     0.000 C 
HETATM   17  C12 UNL     1      -5.194  -0.325   0.334  1.00  0.00     0.000 C 
HETATM   18  C13 UNL     1      -4.287  -0.762   1.459  1.00  0.00     0.007 C 
HETATM   19  C15 UNL     1      -2.326  -1.674   0.257  1.00  0.00     0.175 C 
HETATM   20  O3  UNL     1      -1.451  -1.155  -0.687  1.00  0.00    -0.366 OA
ENDBRANCH   8  11
BRANCH   1  21
HETATM   21  C3  UNL     1       4.296  -0.871  -0.004  1.00  0.00     0.168 C 
BRANCH  21  22
HETATM   22  C2  UNL     1       4.791   0.401   0.642  1.00  0.00     0.132 C 
HETATM   23  C1  UNL     1       6.053   0.073   1.416  1.00  0.00     0.041 C 
BRANCH  22  24
HETATM   24  O1  UNL     1       5.024   1.342  -0.350  1.00  0.00    -0.394 OA
ATOM     25  H1  UNL     1       4.233   1.547  -0.835  1.00  0.00     0.210 HD
ENDBRANCH  22  24
ENDBRANCH  21  22
ENDBRANCH   1  21
TORSDOF 4
