REMARK  10 active torsions:
REMARK  status: ('A' for Active; 'I' for Inactive)
REMARK    1  A    between atoms: C2_2  and  C3_3 
REMARK    2  A    between atoms: C4_4  and  C5_5 
REMARK    3  A    between atoms: C14_14  and  C15_15 
REMARK    4  A    between atoms: C15_15  and  C16_17 
REMARK    5  A    between atoms: C16_17  and  C18_19 
REMARK    6  A    between atoms: C18_19  and  C19_20 
REMARK    7  A    between atoms: C18_19  and  N1_26 
REMARK    8  A    between atoms: C20_21  and  C22_23 
REMARK    9  A    between atoms: N1_26  and  S1_27 
REMARK   10  A    between atoms: S1_27  and  C25_30 
ROOT
HETATM    1  C16 UNL     1      -1.957  -0.517  -0.668  1.00  0.00     0.121 C 
HETATM    2  C17 UNL     1      -1.618  -0.371  -2.155  1.00  0.00     0.026 C 
ENDROOT
BRANCH   1   3
HETATM    3  C15 UNL     1      -0.973   0.316   0.113  1.00  0.00     0.160 C 
HETATM    4  O1  UNL     1      -1.425   1.223   0.816  1.00  0.00    -0.292 OA
BRANCH   3   5
HETATM    5  C14 UNL     1       0.438   0.039   0.022  1.00  0.00     0.057 C 
HETATM    6  C2  UNL     1       1.446   0.624   0.600  1.00  0.00    -0.059 C 
HETATM    7  C1  UNL     1       1.368   1.746   1.513  1.00  0.00     0.048 C 
BRANCH   6   8
HETATM    8  C3  UNL     1       2.815   0.094   0.298  1.00  0.00     0.007 C 
HETATM    9  C4  UNL     1       3.842   0.669   0.868  1.00  0.00     0.009 C 
BRANCH   9  10
HETATM   10  C5  UNL     1       5.244   0.258   0.668  1.00  0.00    -0.048 C 
HETATM   11  C6  UNL     1       6.163   0.963   1.333  1.00  0.00    -0.077 C 
HETATM   12  C7  UNL     1       5.710   2.108   2.226  1.00  0.00     0.044 C 
HETATM   13  C8  UNL     1       7.589   0.653   1.216  1.00  0.00     0.034 C 
HETATM   14  C9  UNL     1       7.964  -0.061  -0.044  1.00  0.00     0.005 C 
HETATM   15  C10 UNL     1       7.042  -1.224  -0.301  1.00  0.00     0.014 C 
HETATM   16  C11 UNL     1       5.588  -0.847  -0.205  1.00  0.00    -0.020 C 
HETATM   17  C12 UNL     1       5.059  -0.584  -1.624  1.00  0.00     0.020 C 
HETATM   18  C13 UNL     1       4.889  -2.122   0.294  1.00  0.00     0.020 C 
ENDBRANCH   9  10
ENDBRANCH   6   8
ENDBRANCH   3   5
ENDBRANCH   1   3
BRANCH   1  19
HETATM   19  C18 UNL     1      -3.319   0.095  -0.483  1.00  0.00     0.110 C 
BRANCH  19  20
HETATM   20  C19 UNL     1      -3.423   1.491  -0.958  1.00  0.00     0.044 C 
HETATM   21  C20 UNL     1      -4.498   2.226  -0.903  1.00  0.00    -0.077 C 
HETATM   22  C21 UNL     1      -5.800   1.760  -0.344  1.00  0.00     0.044 C 
BRANCH  21  23
HETATM   23  C22 UNL     1      -4.488   3.627  -1.412  1.00  0.00     0.006 C 
HETATM   24  C23 UNL     1      -3.118   4.075  -1.805  1.00  0.00     0.014 C 
HETATM   25  C24 UNL     1      -5.505   3.725  -2.512  1.00  0.00     0.014 C 
ENDBRANCH  21  23
ENDBRANCH  19  20
BRANCH  19  26
HETATM   26  N1  UNL     1      -4.239  -0.488   0.005  1.00  0.00    -0.326 NA
BRANCH  26  27
HETATM   27  S1  UNL     1      -5.114  -1.656   0.691  1.00  0.00     0.299 S 
HETATM   28  O2  UNL     1      -6.446  -1.917  -0.022  1.00  0.00    -0.191 OA
HETATM   29  O3  UNL     1      -5.487  -1.288   2.133  1.00  0.00    -0.191 OA
BRANCH  27  30
HETATM   30  C25 UNL     1      -4.380  -3.286   0.836  1.00  0.00     0.084 C 
HETATM   31  C26 UNL     1      -4.026  -3.821  -0.517  1.00  0.00     0.034 C 
HETATM   32  C27 UNL     1      -5.431  -4.239   1.427  1.00  0.00     0.034 C 
HETATM   33  C28 UNL     1      -3.224  -3.269   1.800  1.00  0.00     0.034 C 
ENDBRANCH  27  30
ENDBRANCH  26  27
ENDBRANCH  19  26
ENDBRANCH   1  19
TORSDOF 10
