REMARK  11 active torsions:
REMARK  status: ('A' for Active; 'I' for Inactive)
REMARK    1  A    between atoms: O1_2  and  C2_3 
REMARK    2  A    between atoms: C5_6  and  C6_7 
REMARK    3  A    between atoms: C7_9  and  O3_10 
REMARK    4  A    between atoms: O3_10  and  C8_11 
REMARK    5  A    between atoms: C8_11  and  C9_12 
REMARK    6  A    between atoms: C12_15  and  C13_16 
REMARK    7  A    between atoms: C19_23  and  O4_24 
REMARK    8  A    between atoms: C20_26  and  O5_27 
REMARK    9  A    between atoms: C21_29  and  O6_30 
REMARK   10  A    between atoms: C22_32  and  O7_33 
REMARK   11  A    between atoms: C23_35  and  O8_36 
ROOT
HETATM    1  C6  UNL     1      -2.644  -1.568   0.488  1.00  0.00     0.094 C 
HETATM    2  O2  UNL     1      -1.857  -1.310  -0.626  1.00  0.00    -0.318 OA
HETATM    3  C7  UNL     1      -0.691  -2.082  -0.471  1.00  0.00     0.297 C 
HETATM    4  C19 UNL     1      -0.750  -3.150  -1.533  1.00  0.00     0.205 C 
HETATM    5  C20 UNL     1      -2.185  -3.635  -1.590  1.00  0.00     0.183 C 
HETATM    6  C21 UNL     1      -2.733  -4.011  -0.259  1.00  0.00     0.184 C 
HETATM    7  C22 UNL     1      -3.224  -2.917   0.606  1.00  0.00     0.207 C 
ENDROOT
BRANCH   3   8
HETATM    8  O3  UNL     1       0.401  -1.273  -0.545  1.00  0.00    -0.354 OA
BRANCH   8   9
HETATM    9  C8  UNL     1       1.221  -1.281   0.554  1.00  0.00     0.209 C 
BRANCH   9  10
HETATM   10  C9  UNL     1       2.358  -0.345   0.282  1.00  0.00    -0.032 A 
HETATM   11  C10 UNL     1       2.463   0.376  -0.873  1.00  0.00     0.010 A 
HETATM   12  C11 UNL     1       3.533   1.220  -1.072  1.00  0.00     0.011 A 
HETATM   13  C12 UNL     1       4.535   1.374  -0.126  1.00  0.00    -0.012 A 
HETATM   14  C17 UNL     1       4.443   0.656   1.040  1.00  0.00     0.124 A 
HETATM   15  F1  UNL     1       5.395   0.777   1.986  1.00  0.00    -0.206 F 
HETATM   16  C18 UNL     1       3.373  -0.183   1.230  1.00  0.00     0.052 A 
BRANCH  13  17
HETATM   17  C13 UNL     1       5.679   2.292  -0.371  1.00  0.00    -0.021 C 
HETATM   18  C14 UNL     1       5.765   3.373   0.659  1.00  0.00     0.019 C 
HETATM   19  C15 UNL     1       6.995   1.516  -0.385  1.00  0.00     0.019 C 
HETATM   20  C16 UNL     1       5.516   2.894  -1.739  1.00  0.00     0.019 C 
ENDBRANCH  13  17
ENDBRANCH   9  10
ENDBRANCH   8   9
ENDBRANCH   3   8
BRANCH   4  21
HETATM   21  O4  UNL     1       0.111  -4.217  -1.289  1.00  0.00    -0.388 OA
ATOM     22  H4  UNL     1       0.074  -4.890  -1.958  1.00  0.00     0.210 HD
ENDBRANCH   4  21
BRANCH   1  23
HETATM   23  C5  UNL     1      -3.568  -0.450   0.797  1.00  0.00     0.029 A 
HETATM   24  C4  UNL     1      -4.805  -0.589   1.386  1.00  0.00     0.020 A 
HETATM   25  C3  UNL     1      -5.618   0.516   1.660  1.00  0.00     0.038 A 
HETATM   26  C2  UNL     1      -5.203   1.793   1.346  1.00  0.00     0.070 A 
HETATM   27  C25 UNL     1      -3.970   1.933   0.759  1.00  0.00     0.074 A 
HETATM   28  C23 UNL     1      -3.186   0.841   0.497  1.00  0.00     0.083 A 
BRANCH  26  29
HETATM   29  O1  UNL     1      -6.040   2.864   1.634  1.00  0.00    -0.356 OA
HETATM   30  C1  UNL     1      -5.659   4.203   1.329  1.00  0.00     0.210 C 
ENDBRANCH  26  29
BRANCH  28  31
HETATM   31  O8  UNL     1      -1.971   1.057  -0.089  1.00  0.00    -0.355 OA
HETATM   32  C24 UNL     1      -1.491   2.323  -0.432  1.00  0.00     0.210 C 
ENDBRANCH  28  31
ENDBRANCH   1  23
BRANCH   5  33
HETATM   33  O5  UNL     1      -2.192  -4.772  -2.398  1.00  0.00    -0.390 OA
ATOM     34  H5  UNL     1      -3.091  -5.076  -2.434  1.00  0.00     0.210 HD
ENDBRANCH   5  33
BRANCH   7  35
HETATM   35  O7  UNL     1      -3.215  -3.383   1.938  1.00  0.00    -0.386 OA
ATOM     36  H7  UNL     1      -3.589  -4.253   2.014  1.00  0.00     0.210 HD
ENDBRANCH   7  35
BRANCH   6  37
HETATM   37  O6  UNL     1      -1.761  -4.782   0.388  1.00  0.00    -0.390 OA
ATOM     38  H6  UNL     1      -2.111  -5.022   1.238  1.00  0.00     0.210 HD
ENDBRANCH   6  37
TORSDOF 11
