REMARK  11 active torsions:
REMARK  status: ('A' for Active; 'I' for Inactive)
REMARK    1  A    between atoms: C2_2  and  C4_4 
REMARK    2  A    between atoms: C5_5  and  C6_6 
REMARK    3  A    between atoms: C6_6  and  C7_7 
REMARK    4  A    between atoms: C6_6  and  C9_11 
REMARK    5  A    between atoms: C7_7  and  C8_9 
REMARK    6  A    between atoms: C9_11  and  C11_13 
REMARK    7  A    between atoms: C11_13  and  C12_14 
REMARK    8  A    between atoms: C12_14  and  O2_15 
REMARK    9  A    between atoms: C19_24  and  O3_25 
REMARK   10  A    between atoms: C21_28  and  C22_29 
REMARK   11  A    between atoms: C23_31  and  O5_32 
ROOT
HETATM    1  C4  UNL     1       0.161  -0.534  -0.271  1.00  0.00    -0.034 A 
HETATM    2  C5  UNL     1       1.302   0.328   0.028  1.00  0.00    -0.042 A 
HETATM    3  C13 UNL     1       0.817   1.236   0.914  1.00  0.00    -0.012 A 
HETATM    4  C14 UNL     1      -0.539   1.086   1.227  1.00  0.00     0.027 A 
HETATM    5  C15 UNL     1      -1.144   1.129   2.546  1.00  0.00     0.047 C 
HETATM    6  C16 UNL     1      -2.625   1.319   2.296  1.00  0.00     0.177 C 
HETATM    7  F1  UNL     1      -2.923   2.620   2.751  1.00  0.00    -0.249 F 
HETATM    8  C17 UNL     1      -3.080   1.220   0.874  1.00  0.00     0.058 C 
HETATM    9  C18 UNL     1      -4.541   0.861   0.985  1.00  0.00     0.042 C 
HETATM   10  C19 UNL     1      -5.232   0.556  -0.296  1.00  0.00     0.119 C 
HETATM   11  C20 UNL     1      -4.294   0.298  -1.442  1.00  0.00     0.046 C 
HETATM   12  C21 UNL     1      -3.167  -0.575  -0.858  1.00  0.00     0.085 C 
HETATM   13  C23 UNL     1      -2.298   0.318  -0.072  1.00  0.00     0.086 C 
HETATM   14  C24 UNL     1      -1.040  -0.173   0.513  1.00  0.00     0.023 A 
HETATM   15  C25 UNL     1      -1.198  -1.239   1.571  1.00  0.00     0.024 C 
ENDROOT
BRANCH   2  16
HETATM   16  C6  UNL     1       2.674   0.472  -0.581  1.00  0.00     0.093 C 
BRANCH  16  17
HETATM   17  C7  UNL     1       3.079   1.911  -0.409  1.00  0.00     0.149 C 
HETATM   18  O1  UNL     1       3.945   2.314   0.330  1.00  0.00    -0.296 OA
BRANCH  17  19
HETATM   19  C8  UNL     1       2.366   2.982  -1.205  1.00  0.00     0.193 C 
HETATM   20 CL1  UNL     1       2.983   4.587  -0.843  1.00  0.00    -0.123 Cl
ENDBRANCH  17  19
ENDBRANCH  16  17
BRANCH  16  21
HETATM   21  C9  UNL     1       3.750  -0.438  -0.309  1.00  0.00    -0.001 C 
HETATM   22  C10 UNL     1       4.195  -0.474   1.152  1.00  0.00     0.011 C 
BRANCH  21  23
HETATM   23  C11 UNL     1       4.987  -0.062  -1.107  1.00  0.00     0.031 C 
BRANCH  23  24
HETATM   24  C12 UNL     1       6.147  -0.979  -0.910  1.00  0.00     0.164 C 
BRANCH  24  25
HETATM   25  O2  UNL     1       6.638  -1.062   0.376  1.00  0.00    -0.401 OA
ATOM     26  H2  UNL     1       7.377  -1.646   0.501  1.00  0.00     0.209 HD
ENDBRANCH  24  25
ENDBRANCH  23  24
ENDBRANCH  21  23
ENDBRANCH  16  21
ENDBRANCH   2  16
BRANCH   1  27
HETATM   27  C2  UNL     1       0.344  -2.002  -0.374  1.00  0.00    -0.064 C 
HETATM   28  C1  UNL     1       1.206  -2.746   0.307  1.00  0.00     0.019 C 
HETATM   29  C3  UNL     1      -0.382  -2.824  -1.441  1.00  0.00     0.048 C 
ENDBRANCH   1  27
BRANCH  13  30
HETATM   30  O5  UNL     1      -1.818   1.230  -1.081  1.00  0.00    -0.387 OA
ATOM     31  H5  UNL     1      -1.330   0.667  -1.671  1.00  0.00     0.210 HD
ENDBRANCH  13  30
BRANCH  12  32
HETATM   32  C22 UNL     1      -3.832  -1.672  -0.178  1.00  0.00     0.238 C 
HETATM   33  O4  UNL     1      -4.618  -2.345  -0.866  1.00  0.00    -0.306 OA
ENDBRANCH  12  32
BRANCH  10  34
HETATM   34  O3  UNL     1      -6.076   1.598  -0.706  1.00  0.00    -0.396 OA
ATOM     35  H3  UNL     1      -6.517   1.403  -1.524  1.00  0.00     0.210 HD
ENDBRANCH  10  34
TORSDOF 11
