REMARK  9 active torsions:
REMARK  status: ('A' for Active; 'I' for Inactive)
REMARK    1  A    between atoms: C5_5  and  C6_6 
REMARK    2  A    between atoms: C9_9  and  O1_10 
REMARK    3  A    between atoms: C19_23  and  N1_24 
REMARK    4  A    between atoms: N1_24  and  C20_26 
REMARK    5  A    between atoms: C20_26  and  C21_27 
REMARK    6  A    between atoms: C21_27  and  O3_28 
REMARK    7  A    between atoms: O3_28  and  C22_29 
REMARK    8  A    between atoms: C22_29  and  C23_30 
REMARK    9  A    between atoms: C26_34  and  O4_35 
ROOT
HETATM    1  C1  UNL     1      -5.762   1.969   2.202  1.00  0.00     0.049 C 
HETATM    2  C2  UNL     1      -4.554   1.597   1.294  1.00  0.00     0.091 A 
HETATM    3  C3  UNL     1      -4.141   0.176   1.444  1.00  0.00     0.068 C 
HETATM    4  C4  UNL     1      -4.486  -0.714   0.320  1.00  0.00    -0.014 C 
HETATM    5  C5  UNL     1      -3.930  -1.015  -0.820  1.00  0.00    -0.025 C 
HETATM    6  C9  UNL     1      -2.646  -0.509  -1.428  1.00  0.00     0.096 C 
HETATM    7  C10 UNL     1      -1.484  -0.394  -0.571  1.00  0.00     0.202 C 
HETATM    8  F1  UNL     1      -1.627  -1.516   0.311  1.00  0.00    -0.228 F 
HETATM    9  C11 UNL     1      -1.001   0.805   0.069  1.00  0.00    -0.023 C 
HETATM   10  C12 UNL     1      -1.468   2.020   0.262  1.00  0.00     0.006 C 
HETATM   11  C13 UNL     1      -2.700   2.723  -0.091  1.00  0.00     0.008 C 
HETATM   12  C14 UNL     1      -3.916   2.605   0.695  1.00  0.00     0.180 A 
HETATM   13  O2  UNL     1      -4.926   1.828  -0.127  1.00  0.00    -0.365 OA
HETATM   14  C15 UNL     1       0.395   0.356   0.514  1.00  0.00    -0.011 C 
HETATM   15  C16 UNL     1       0.401  -0.677   1.559  1.00  0.00     0.021 C 
HETATM   16  C17 UNL     1       1.296   1.474   0.942  1.00  0.00     0.016 C 
HETATM   17  C18 UNL     1       2.720   1.018   0.946  1.00  0.00     0.026 C 
HETATM   18  C19 UNL     1       3.188   0.408  -0.320  1.00  0.00     0.077 C 
HETATM   19  C24 UNL     1       2.247  -0.722  -0.785  1.00  0.00     0.033 C 
HETATM   20  C25 UNL     1       0.903  -0.054  -0.851  1.00  0.00     0.033 C 
HETATM   21  C26 UNL     1      -0.219  -0.842  -1.364  1.00  0.00     0.174 C 
ENDROOT
BRANCH  18  22
HETATM   22  N1  UNL     1       4.542  -0.034  -0.243  1.00  0.00    -0.415 N 
ATOM     23  H1  UNL     1       5.275   0.377  -0.821  1.00  0.00     0.153 HD
BRANCH  22  24
HETATM   24  C20 UNL     1       4.816  -1.075   0.680  1.00  0.00     0.140 C 
BRANCH  24  25
HETATM   25  C21 UNL     1       6.281  -1.419   0.696  1.00  0.00     0.186 C 
BRANCH  25  26
HETATM   26  O3  UNL     1       7.138  -0.456   1.048  1.00  0.00    -0.387 OA
BRANCH  26  27
HETATM   27  C22 UNL     1       7.330   0.676   0.358  1.00  0.00     0.199 C 
BRANCH  27  28
HETATM   28  C23 UNL     1       7.858   0.518  -1.058  1.00  0.00     0.248 C 
HETATM   29  F2  UNL     1       9.088  -0.118  -1.006  1.00  0.00    -0.253 F 
ENDBRANCH  27  28
ENDBRANCH  26  27
ENDBRANCH  25  26
ENDBRANCH  24  25
ENDBRANCH  22  24
ENDBRANCH  18  22
BRANCH  21  30
HETATM   30  O4  UNL     1      -0.366  -0.628  -2.723  1.00  0.00    -0.391 OA
ATOM     31  H4  UNL     1       0.405  -0.901  -3.206  1.00  0.00     0.210 HD
ENDBRANCH  21  30
BRANCH   6  32
HETATM   32  O1  UNL     1      -2.859   0.355  -2.466  1.00  0.00    -0.360 OA
ATOM     33  H1  UNL     1      -2.050   0.674  -2.849  1.00  0.00     0.217 HD
ENDBRANCH   6  32
BRANCH   5  34
HETATM   34  C6  UNL     1      -4.678  -2.024  -1.691  1.00  0.00     0.021 A 
HETATM   35  C7  UNL     1      -4.611  -3.467  -1.230  1.00  0.00     0.010 A 
HETATM   36  C8  UNL     1      -5.914  -2.675  -1.392  1.00  0.00     0.010 A 
ENDBRANCH   5  34
TORSDOF 9
