REMARK  14 active torsions:
REMARK  status: ('A' for Active; 'I' for Inactive)
REMARK    1  A    between atoms: C2_2  and  O1_3 
REMARK    2  A    between atoms: O1_3  and  C3_4 
REMARK       I    between atoms: C3_4  and  N1_6 
REMARK    3  A    between atoms: N1_6  and  C4_8 
REMARK    4  A    between atoms: C4_8  and  C5_9 
REMARK    5  A    between atoms: C4_8  and  C7_11 
REMARK    6  A    between atoms: C7_11  and  O3_12 
REMARK    7  A    between atoms: C7_11  and  C8_14 
REMARK    8  A    between atoms: C8_14  and  C9_17 
REMARK    9  A    between atoms: C9_17  and  C10_19 
REMARK   10  A    between atoms: N2_23  and  C14_24 
REMARK   11  A    between atoms: C14_24  and  O5_25 
REMARK   12  A    between atoms: C14_24  and  C15_27 
REMARK   13  A    between atoms: C15_27  and  N3_28 
REMARK   14  A    between atoms: C15_27  and  C22_38 
REMARK       I    between atoms: N3_28  and  C16_30 
REMARK       I    between atoms: C16_30  and  N4_32 
ROOT
HETATM    1  C10 UNL     1       0.543   1.754   1.629  1.00  0.00     0.162 C 
HETATM    2  C11 UNL     1       0.099   1.782   3.091  1.00  0.00     0.035 C 
HETATM    3  C12 UNL     1      -0.901   2.921   3.052  1.00  0.00     0.022 C 
HETATM    4  C13 UNL     1      -0.920   3.376   1.554  1.00  0.00     0.126 C 
HETATM    5  N2  UNL     1      -0.742   2.066   0.951  1.00  0.00    -0.348 N 
ENDROOT
BRANCH   1   6
HETATM    6  C9  UNL     1       1.358   0.674   1.231  1.00  0.00     0.223 C 
HETATM    7  O4  UNL     1       1.274  -0.465   1.574  1.00  0.00    -0.289 OA
BRANCH   6   8
HETATM    8  C8  UNL     1       2.496   1.004   0.240  1.00  0.00     0.332 C 
HETATM    9  F1  UNL     1       3.289   1.978   0.884  1.00  0.00    -0.195 F 
HETATM   10  F2  UNL     1       2.007   1.505  -0.897  1.00  0.00    -0.195 F 
BRANCH   8  11
HETATM   11  C7  UNL     1       3.358  -0.179   0.035  1.00  0.00     0.221 C 
BRANCH  11  12
HETATM   12  C4  UNL     1       4.591   0.190  -0.764  1.00  0.00     0.121 C 
BRANCH  12  13
HETATM   13  N1  UNL     1       5.460  -0.997  -0.858  1.00  0.00    -0.330 N 
HETATM   14  C3  UNL     1       6.738  -1.034  -0.207  1.00  0.00     0.360 C 
HETATM   15  O2  UNL     1       7.181  -0.066   0.462  1.00  0.00    -0.239 OA
ATOM     16  H1  UNL     1       5.147  -1.806  -1.395  1.00  0.00     0.165 HD
BRANCH  14  17
HETATM   17  O1  UNL     1       7.551  -2.149  -0.283  1.00  0.00    -0.304 OA
BRANCH  17  18
HETATM   18  C2  UNL     1       8.795  -2.302   0.307  1.00  0.00     0.176 C 
HETATM   19  C1  UNL     1       9.425  -3.636   0.071  1.00  0.00     0.034 C 
ENDBRANCH  17  18
ENDBRANCH  14  17
ENDBRANCH  12  13
BRANCH  12  20
HETATM   20  C5  UNL     1       4.365   0.661  -2.149  1.00  0.00     0.023 C 
HETATM   21  C6  UNL     1       3.679  -0.315  -3.066  1.00  0.00     0.007 C 
ENDBRANCH  12  20
ENDBRANCH  11  12
BRANCH  11  22
HETATM   22  O3  UNL     1       3.852  -0.607   1.303  1.00  0.00    -0.387 OA
ATOM     23  H3  UNL     1       3.079  -0.838   1.804  1.00  0.00     0.210 HD
ENDBRANCH  11  22
ENDBRANCH   8  11
ENDBRANCH   6   8
ENDBRANCH   1   6
BRANCH   5  24
HETATM   24  C14 UNL     1      -1.404   1.192   0.127  1.00  0.00     0.163 C 
BRANCH  24  25
HETATM   25  O5  UNL     1      -0.892  -0.052   0.037  1.00  0.00    -0.345 OA
ATOM     26  H5  UNL     1      -1.351  -0.657  -0.534  1.00  0.00     0.219 HD
ENDBRANCH  24  25
BRANCH  24  27
HETATM   27  C15 UNL     1      -2.602   1.205  -0.752  1.00  0.00     0.072 C 
BRANCH  27  28
HETATM   28  N3  UNL     1      -3.379   0.063  -0.419  1.00  0.00    -0.308 N 
HETATM   29  C16 UNL     1      -4.400  -0.698  -0.914  1.00  0.00     0.322 C 
HETATM   30  O6  UNL     1      -5.001  -0.484  -1.985  1.00  0.00    -0.247 OA
HETATM   31  N4  UNL     1      -4.889  -1.849  -0.206  1.00  0.00    -0.334 N 
HETATM   32  C17 UNL     1      -6.116  -2.440  -0.659  1.00  0.00     0.127 C 
HETATM   33  C21 UNL     1      -4.054  -2.364   0.851  1.00  0.00     0.127 C 
HETATM   34  C18 UNL     1      -6.599  -3.615   0.105  1.00  0.00     0.020 C 
HETATM   35  C19 UNL     1      -6.009  -3.679   1.519  1.00  0.00     0.003 C 
HETATM   36  C20 UNL     1      -4.488  -3.740   1.309  1.00  0.00     0.020 C 
ATOM     37  H3  UNL     1      -3.077  -0.309   0.481  1.00  0.00     0.170 HD
ENDBRANCH  27  28
BRANCH  27  38
HETATM   38  C22 UNL     1      -3.229   2.512  -0.980  1.00  0.00    -0.004 C 
HETATM   39  C23 UNL     1      -2.127   3.450  -1.539  1.00  0.00     0.021 C 
HETATM   40  C24 UNL     1      -4.159   2.425  -2.261  1.00  0.00     0.021 C 
HETATM   41  C25 UNL     1      -4.054   3.178   0.011  1.00  0.00     0.021 C 
ENDBRANCH  27  38
ENDBRANCH  24  27
ENDBRANCH   5  24
TORSDOF 14
