REMARK  9 active torsions:
REMARK  status: ('A' for Active; 'I' for Inactive)
REMARK    1  A    between atoms: C2_2  and  C3_3 
REMARK    2  A    between atoms: C3_3  and  C4_5 
REMARK    3  A    between atoms: C9_13  and  C10_14 
REMARK       I    between atoms: C10_14  and  N2_16 
REMARK    4  A    between atoms: N2_16  and  C11_18 
REMARK    5  A    between atoms: C11_18  and  C12_19 
REMARK    6  A    between atoms: C11_18  and  C19_26 
REMARK    7  A    between atoms: C12_19  and  C13_20 
REMARK    8  A    between atoms: C19_26  and  C20_28 
REMARK       I    between atoms: C20_28  and  N3_30 
REMARK    9  A    between atoms: N3_30  and  C21_32 
ROOT
HETATM    1  C10 UNL     1       0.306  -0.326   0.189  1.00  0.00     0.225 C 
HETATM    2  O2  UNL     1       0.101  -0.391   1.426  1.00  0.00    -0.273 OA
HETATM    3  N2  UNL     1      -0.780   0.004  -0.645  1.00  0.00    -0.349 N 
ATOM      4  H2  UNL     1      -0.637   0.064  -1.653  1.00  0.00     0.163 HD
ENDROOT
BRANCH   3   5
HETATM    5  C11 UNL     1      -2.111   0.262  -0.092  1.00  0.00     0.164 C 
BRANCH   5   6
HETATM    6  C12 UNL     1      -3.142  -0.588  -0.814  1.00  0.00     0.038 C 
BRANCH   6   7
HETATM    7  C13 UNL     1      -2.827  -2.084  -0.660  1.00  0.00    -0.012 C 
HETATM    8  C14 UNL     1      -2.843  -2.431   0.793  1.00  0.00     0.005 C 
HETATM    9  C15 UNL     1      -3.742  -3.611   1.108  1.00  0.00     0.000 C 
HETATM   10  C16 UNL     1      -3.478  -4.723   0.145  1.00  0.00     0.000 C 
HETATM   11  C17 UNL     1      -3.830  -4.306  -1.245  1.00  0.00     0.000 C 
HETATM   12  C18 UNL     1      -3.868  -2.829  -1.459  1.00  0.00     0.005 C 
ENDBRANCH   6   7
ENDBRANCH   5   6
BRANCH   5  13
HETATM   13  C19 UNL     1      -2.413   1.682  -0.419  1.00  0.00     0.238 C 
HETATM   14  O3  UNL     1      -1.621   2.408  -1.110  1.00  0.00    -0.285 OA
BRANCH  13  15
HETATM   15  C20 UNL     1      -3.651   2.264   0.067  1.00  0.00     0.289 C 
HETATM   16  O4  UNL     1      -4.472   1.635   0.762  1.00  0.00    -0.264 OA
HETATM   17  N3  UNL     1      -3.963   3.626  -0.258  1.00  0.00    -0.347 N 
ATOM     18  H3  UNL     1      -3.322   4.182  -0.825  1.00  0.00     0.163 HD
BRANCH  17  19
HETATM   19  C21 UNL     1      -5.190   4.198   0.225  1.00  0.00     0.118 C 
HETATM   20  C22 UNL     1      -4.922   5.426   1.097  1.00  0.00     0.204 C 
HETATM   21  O5  UNL     1      -5.992   6.296   0.793  1.00  0.00    -0.319 OA
HETATM   22  C23 UNL     1      -6.556   6.004  -0.435  1.00  0.00     0.260 C 
HETATM   23  O6  UNL     1      -7.355   6.746  -1.084  1.00  0.00    -0.265 OA
HETATM   24  C24 UNL     1      -6.078   4.679  -0.873  1.00  0.00     0.138 C 
ENDBRANCH  17  19
ENDBRANCH  13  15
ENDBRANCH   5  13
ENDBRANCH   3   5
BRANCH   1  25
HETATM   25  C9  UNL     1       1.644  -0.591  -0.329  1.00  0.00     0.115 C 
HETATM   26  C6  UNL     1       2.259   0.554  -1.110  1.00  0.00     0.200 C 
HETATM   27  C5  UNL     1       3.724   0.118  -1.136  1.00  0.00     0.046 C 
HETATM   28  N1  UNL     1       2.097   1.612  -0.111  1.00  0.00    -0.070 N 
HETATM   29  C4  UNL     1       3.909  -0.810   0.019  1.00  0.00     0.065 C 
HETATM   30  C8  UNL     1       2.665  -0.502   0.834  1.00  0.00     0.037 C 
HETATM   31  C7  UNL     1       2.613   0.958   1.107  1.00  0.00     0.239 C 
ATOM     32  H12 UNL     1       2.539   2.501  -0.346  1.00  0.00     0.277 HD
ATOM     33  H11 UNL     1       1.154   1.993  -0.032  1.00  0.00     0.277 HD
BRANCH  29  34
HETATM   34  C3  UNL     1       5.097  -0.643   0.838  1.00  0.00     0.145 C 
HETATM   35  O1  UNL     1       4.909  -0.385   2.048  1.00  0.00    -0.296 OA
BRANCH  34  36
HETATM   36  C2  UNL     1       6.507  -0.733   0.456  1.00  0.00     0.083 C 
HETATM   37  C1  UNL     1       7.500  -0.445   1.572  1.00  0.00     0.030 C 
HETATM   38  C25 UNL     1       6.936  -0.118  -0.853  1.00  0.00     0.029 C 
HETATM   39  C26 UNL     1       8.021  -1.223  -0.876  1.00  0.00     0.081 C 
HETATM   40  C27 UNL     1       6.947  -2.075  -0.164  1.00  0.00     0.257 C 
HETATM   41  F1  UNL     1       7.453  -2.926   0.779  1.00  0.00    -0.205 F 
HETATM   42  F2  UNL     1       6.078  -2.611  -1.062  1.00  0.00    -0.205 F 
ENDBRANCH  34  36
ENDBRANCH  29  34
ENDBRANCH   1  25
TORSDOF 9
