REMARK  12 active torsions:
REMARK  status: ('A' for Active; 'I' for Inactive)
REMARK    1  A    between atoms: C2_2  and  C3_3 
REMARK    2  A    between atoms: C3_3  and  C4_4 
REMARK    3  A    between atoms: C5_5  and  C6_6 
REMARK    4  A    between atoms: C7_7  and  C8_8 
REMARK    5  A    between atoms: C8_8  and  O2_10 
REMARK    6  A    between atoms: O2_10  and  C9_11 
REMARK    7  A    between atoms: C10_12  and  O3_13 
REMARK    8  A    between atoms: C11_15  and  O4_16 
REMARK    9  A    between atoms: C15_20  and  O5_21 
REMARK   10  A    between atoms: C16_23  and  O6_24 
REMARK   11  A    between atoms: C24_34  and  O8_35 
REMARK   12  A    between atoms: O8_35  and  C25_36 
ROOT
HETATM    1  C9  UNL     1      -0.775   0.648  -0.626  1.00  0.00     0.186 C 
HETATM    2  C10 UNL     1      -1.190   1.171  -1.958  1.00  0.00     0.143 C 
HETATM    3  C11 UNL     1      -0.703   2.574  -2.257  1.00  0.00     0.183 C 
HETATM    4  C13 UNL     1      -1.278   3.511  -1.273  1.00  0.00     0.007 C 
HETATM    5  C14 UNL     1      -2.429   3.206  -0.696  1.00  0.00     0.012 C 
HETATM    6  C15 UNL     1      -3.213   1.974  -0.956  1.00  0.00     0.109 C 
HETATM    7  C16 UNL     1      -2.696   1.198  -2.148  1.00  0.00     0.196 C 
HETATM    8  C17 UNL     1      -3.108   1.061   0.229  1.00  0.00     0.049 C 
HETATM    9  C18 UNL     1      -2.761   1.666   1.548  1.00  0.00     0.020 C 
HETATM   10  C19 UNL     1      -3.843   1.492   2.623  1.00  0.00     0.013 C 
HETATM   11  C20 UNL     1      -1.669   0.601   1.675  1.00  0.00     0.141 C 
HETATM   12  O7  UNL     1      -2.058  -0.399   2.500  1.00  0.00    -0.372 OA
HETATM   13  C21 UNL     1      -2.151  -1.580   1.793  1.00  0.00     0.082 C 
HETATM   14  C22 UNL     1      -0.917  -2.417   2.073  1.00  0.00     0.048 C 
HETATM   15  C23 UNL     1      -3.372  -2.317   2.287  1.00  0.00     0.048 C 
HETATM   16  C24 UNL     1      -2.227  -1.235   0.328  1.00  0.00     0.179 C 
HETATM   17  C27 UNL     1      -1.900   0.197   0.249  1.00  0.00     0.053 C 
ENDROOT
BRANCH   1  18
HETATM   18  O2  UNL     1       0.150  -0.409  -0.848  1.00  0.00    -0.308 OA
BRANCH  18  19
HETATM   19  C8  UNL     1       1.477  -0.357  -0.450  1.00  0.00     0.283 C 
HETATM   20  O1  UNL     1       1.843   0.674   0.125  1.00  0.00    -0.260 OA
BRANCH  19  21
HETATM   21  C7  UNL     1       2.340  -1.467  -0.715  1.00  0.00     0.082 C 
HETATM   22  C6  UNL     1       3.594  -1.655  -0.448  1.00  0.00     0.006 C 
BRANCH  22  23
HETATM   23  C5  UNL     1       4.430  -0.703   0.223  1.00  0.00    -0.004 C 
HETATM   24  C4  UNL     1       5.733  -1.008   0.451  1.00  0.00    -0.027 C 
BRANCH  24  25
HETATM   25  C3  UNL     1       6.544   0.003   1.143  1.00  0.00     0.027 C 
BRANCH  25  26
HETATM   26  C2  UNL     1       7.120  -0.506   2.446  1.00  0.00    -0.001 C 
HETATM   27  C1  UNL     1       6.033  -0.921   3.398  1.00  0.00     0.005 C 
ENDBRANCH  25  26
ENDBRANCH  24  25
ENDBRANCH  22  23
ENDBRANCH  19  21
ENDBRANCH  18  19
ENDBRANCH   1  18
BRANCH   2  28
HETATM   28  O3  UNL     1      -0.695   0.370  -3.016  1.00  0.00    -0.381 OA
ATOM     29  H3  UNL     1      -0.960   0.703  -3.865  1.00  0.00     0.211 HD
ENDBRANCH   2  28
BRANCH   3  30
HETATM   30  O4  UNL     1       0.676   2.665  -2.353  1.00  0.00    -0.384 OA
HETATM   31  C12 UNL     1       1.116   3.054  -3.594  1.00  0.00     0.202 C 
ENDBRANCH   3  30
BRANCH   7  32
HETATM   32  O6  UNL     1      -2.981   1.806  -3.346  1.00  0.00    -0.389 OA
ATOM     33  H6  UNL     1      -3.923   1.823  -3.465  1.00  0.00     0.210 HD
ENDBRANCH   7  32
BRANCH  16  34
HETATM   34  O8  UNL     1      -1.436  -2.116  -0.377  1.00  0.00    -0.312 OA
BRANCH  34  35
HETATM   35  C25 UNL     1      -1.911  -3.041  -1.290  1.00  0.00     0.255 C 
HETATM   36  C26 UNL     1      -1.058  -3.979  -2.039  1.00  0.00     0.126 C 
HETATM   37  O9  UNL     1      -3.175  -3.049  -1.465  1.00  0.00    -0.266 OA
ENDBRANCH  34  35
ENDBRANCH  16  34
BRANCH   6  38
HETATM   38  O5  UNL     1      -4.543   2.292  -1.231  1.00  0.00    -0.383 OA
ATOM     39  H5  UNL     1      -5.045   1.503  -1.398  1.00  0.00     0.211 HD
ENDBRANCH   6  38
TORSDOF 12
