REMARK  10 active torsions:
REMARK  status: ('A' for Active; 'I' for Inactive)
REMARK    1  A    between atoms: C2_2  and  N1_3 
REMARK    2  A    between atoms: N1_3  and  C4_5 
REMARK    3  A    between atoms: C4_5  and  C5_6 
REMARK    4  A    between atoms: C5_6  and  C6_7 
REMARK    5  A    between atoms: C6_7  and  C7_8 
REMARK    6  A    between atoms: C7_8  and  C8_9 
REMARK    7  A    between atoms: C9_10  and  O1_11 
REMARK    8  A    between atoms: C15_19  and  O3_20 
REMARK    9  A    between atoms: C16_22  and  O4_23 
REMARK   10  A    between atoms: C25_36  and  O8_37 
ROOT
HETATM    1  C8  UNL     1       0.874  -0.538   0.478  1.00  0.00     0.044 C 
HETATM    2  C9  UNL     1       0.444  -1.941   0.446  1.00  0.00     0.127 C 
HETATM    3  C10 UNL     1      -0.905  -2.243  -0.183  1.00  0.00     0.073 C 
HETATM    4  C11 UNL     1      -1.958  -1.658   0.624  1.00  0.00     0.096 A 
HETATM    5  O2  UNL     1      -1.862  -2.033   1.913  1.00  0.00    -0.368 OA
HETATM    6  C12 UNL     1      -2.998  -2.449   1.440  1.00  0.00     0.164 A 
HETATM    7  C13 UNL     1      -3.496  -3.428   0.481  1.00  0.00     0.045 C 
HETATM    8  C14 UNL     1      -4.386  -4.434   1.228  1.00  0.00     0.015 C 
HETATM    9  C15 UNL     1      -4.383  -2.654  -0.468  1.00  0.00     0.153 C 
HETATM   10  C16 UNL     1      -3.958  -1.297  -0.823  1.00  0.00     0.154 C 
HETATM   11  C17 UNL     1      -2.761  -0.705  -0.107  1.00  0.00     0.055 C 
HETATM   12  C18 UNL     1      -2.059   0.126  -1.146  1.00  0.00     0.023 C 
HETATM   13  C19 UNL     1      -0.856   0.838  -0.777  1.00  0.00     0.083 C 
HETATM   14  C20 UNL     1      -0.166   0.540   0.508  1.00  0.00     0.141 C 
HETATM   15  O5  UNL     1       0.632   1.728   0.615  1.00  0.00    -0.349 OA
HETATM   16  C21 UNL     1      -0.251   2.769   0.425  1.00  0.00     0.326 C 
HETATM   17  O6  UNL     1      -0.932   3.146   1.549  1.00  0.00    -0.320 OA
HETATM   18  C22 UNL     1      -2.231   3.332   1.095  1.00  0.00     0.164 C 
HETATM   19  C23 UNL     1      -2.451   4.724   0.548  1.00  0.00     0.078 C 
HETATM   20  C24 UNL     1      -3.240   3.140   2.215  1.00  0.00     0.078 C 
HETATM   21  O7  UNL     1      -2.445   2.407   0.080  1.00  0.00    -0.314 OA
HETATM   22  C25 UNL     1      -1.219   2.327  -0.605  1.00  0.00     0.223 C 
ENDROOT
BRANCH   1  23
HETATM   23  C7  UNL     1       1.731  -0.306   1.704  1.00  0.00     0.010 C 
BRANCH  23  24
HETATM   24  C6  UNL     1       2.975  -1.078   1.831  1.00  0.00     0.006 C 
BRANCH  24  25
HETATM   25  C5  UNL     1       4.020  -0.859   0.768  1.00  0.00     0.044 C 
BRANCH  25  26
HETATM   26  C4  UNL     1       4.476   0.587   0.716  1.00  0.00     0.062 C 
BRANCH  26  27
HETATM   27  N1  UNL     1       5.459   0.883  -0.239  1.00  0.00    -0.379 N 
HETATM   28  C3  UNL     1       5.069   1.396  -1.493  1.00  0.00     0.154 C 
BRANCH  27  29
HETATM   29  C2  UNL     1       6.765   0.379  -0.084  1.00  0.00     0.058 C 
HETATM   30  C1  UNL     1       7.090  -0.877  -0.835  1.00  0.00     0.055 C 
ENDBRANCH  27  29
ENDBRANCH  26  27
ENDBRANCH  25  26
ENDBRANCH  24  25
ENDBRANCH  23  24
ENDBRANCH   1  23
BRANCH   2  31
HETATM   31  O1  UNL     1       1.345  -2.678  -0.325  1.00  0.00    -0.395 OA
ATOM     32  H1  UNL     1       1.067  -3.586  -0.346  1.00  0.00     0.210 HD
ENDBRANCH   2  31
BRANCH  22  33
HETATM   33  O8  UNL     1      -1.303   3.037  -1.746  1.00  0.00    -0.356 OA
HETATM   34  C26 UNL     1      -0.231   3.111  -2.571  1.00  0.00     0.205 C 
ENDBRANCH  22  33
BRANCH  10  35
HETATM   35  O4  UNL     1      -5.057  -0.415  -0.651  1.00  0.00    -0.393 OA
ATOM     36  H4  UNL     1      -4.782   0.465  -0.881  1.00  0.00     0.210 HD
ENDBRANCH  10  35
BRANCH   9  37
HETATM   37  O3  UNL     1      -4.563  -3.490  -1.595  1.00  0.00    -0.393 OA
ATOM     38  H3  UNL     1      -5.120  -3.004  -2.191  1.00  0.00     0.210 HD
ENDBRANCH   9  37
TORSDOF 10
