REMARK  8 active torsions:
REMARK  status: ('A' for Active; 'I' for Inactive)
REMARK    1  A    between atoms: C2_2  and  C3_3 
REMARK    2  A    between atoms: C3_3  and  O1_4 
REMARK    3  A    between atoms: C3_3  and  C12_22 
REMARK    4  A    between atoms: O1_4  and  N1_5 
REMARK    5  A    between atoms: C7_14  and  N4_15 
REMARK    6  A    between atoms: C12_22  and  N5_23 
REMARK    7  A    between atoms: C12_22  and  O3_35 
REMARK    8  A    between atoms: N6_25  and  C13_27 
ROOT
HETATM    1  C3  UNL     1       0.427  -0.615   0.141  1.00  0.00     0.197 C 
ENDROOT
BRANCH   1   2
HETATM    2  C2  UNL     1       0.612  -1.498  -1.079  1.00  0.00     0.034 C 
HETATM    3  C1  UNL     1       0.425  -2.939  -0.615  1.00  0.00     0.008 C 
ENDBRANCH   1   2
BRANCH   1   4
HETATM    4  O1  UNL     1      -0.834  -0.832   0.616  1.00  0.00    -0.288 OA
BRANCH   4   5
HETATM    5  N1  UNL     1      -1.654   0.194   0.636  1.00  0.00    -0.157 NA
HETATM    6  C4  UNL     1      -1.500   1.184  -0.353  1.00  0.00     0.121 C 
HETATM    7  C5  UNL     1      -2.824   1.859  -0.382  1.00  0.00     0.061 A 
HETATM    8  N2  UNL     1      -3.243   3.090  -0.744  1.00  0.00    -0.307 N 
HETATM    9  C8  UNL     1      -3.737   0.927   0.065  1.00  0.00     0.038 A 
HETATM   10  C6  UNL     1      -4.528   3.471  -0.693  1.00  0.00     0.326 A 
ATOM     11  H2  UNL     1      -2.550   3.762  -1.072  1.00  0.00     0.170 HD
HETATM   12  O2  UNL     1      -4.902   4.631  -1.037  1.00  0.00    -0.247 OA
HETATM   13  N3  UNL     1      -5.401   2.556  -0.258  1.00  0.00    -0.294 N 
HETATM   14  C7  UNL     1      -5.060   1.294   0.125  1.00  0.00     0.113 A 
ATOM     15  H3  UNL     1      -6.385   2.820  -0.210  1.00  0.00     0.172 HD
HETATM   16  C9  UNL     1      -3.013  -0.330   0.406  1.00  0.00     0.069 C 
HETATM   17  C10 UNL     1      -3.087  -1.250  -0.761  1.00  0.00     0.040 C 
HETATM   18  C11 UNL     1      -3.464  -0.954   1.699  1.00  0.00     0.040 C 
BRANCH  14  19
HETATM   19  N4  UNL     1      -5.957   0.470   0.524  1.00  0.00    -0.385 N 
ATOM     20  H42 UNL     1      -6.939   0.742   0.569  1.00  0.00     0.157 HD
ATOM     21  H41 UNL     1      -5.702  -0.475   0.811  1.00  0.00     0.157 HD
ENDBRANCH  14  19
ENDBRANCH   4   5
ENDBRANCH   1   4
BRANCH   1  22
HETATM   22  C12 UNL     1       1.509  -1.063   1.132  1.00  0.00     0.289 C 
BRANCH  22  23
HETATM   23  N5  UNL     1       2.784  -0.783   0.520  1.00  0.00    -0.303 N 
HETATM   24  N6  UNL     1       3.673  -0.065   1.071  1.00  0.00    -0.299 N 
ATOM     25  H6  UNL     1       3.471   0.330   1.989  1.00  0.00     0.186 HD
ATOM     26  H5  UNL     1       2.980  -1.181  -0.399  1.00  0.00     0.183 HD
BRANCH  24  27
HETATM   27  C13 UNL     1       4.920   0.217   0.488  1.00  0.00     0.091 A 
HETATM   28  C14 UNL     1       5.635  -0.756  -0.216  1.00  0.00     0.063 A 
HETATM   29 CL1  UNL     1       4.967  -2.374  -0.382  1.00  0.00    -0.082 Cl
HETATM   30  C15 UNL     1       6.846  -0.443  -0.769  1.00  0.00     0.026 A 
HETATM   31  C16 UNL     1       7.394   0.820  -0.654  1.00  0.00     0.003 A 
HETATM   32  C17 UNL     1       6.701   1.781   0.034  1.00  0.00     0.026 A 
HETATM   33  C18 UNL     1       5.472   1.466   0.596  1.00  0.00     0.063 A 
HETATM   34 CL2  UNL     1       4.615   2.721   1.470  1.00  0.00    -0.082 Cl
ENDBRANCH  24  27
ENDBRANCH  22  23
BRANCH  22  35
HETATM   35  O3  UNL     1       1.359  -0.435   2.361  1.00  0.00    -0.254 OA
HETATM   36 CL3  UNL     1       1.065  -1.510   3.623  1.00  0.00     0.064 Cl
ENDBRANCH  22  35
ENDBRANCH   1  22
TORSDOF 8
