REMARK  6 active torsions:
REMARK  status: ('A' for Active; 'I' for Inactive)
REMARK    1  A    between atoms: S1_2  and  N1_4 
REMARK    2  A    between atoms: S1_2  and  N3_16 
REMARK    3  A    between atoms: N1_4  and  C1_6 
REMARK    4  A    between atoms: C3_8  and  C4_9 
REMARK    5  A    between atoms: C4_9  and  O3_10 
REMARK    6  A    between atoms: N2_12  and  O4_14 
ROOT
HETATM    1  N1  UNL     1       0.457  -0.362  -1.446  1.00  0.00    -0.297 N 
ATOM      2  H1  UNL     1       0.443  -1.086  -2.164  1.00  0.00     0.174 HD
ENDROOT
BRANCH   1   3
HETATM    3  S1  UNL     1      -0.948   0.473  -0.912  1.00  0.00     0.320 S 
HETATM    4  O1  UNL     1      -0.529   1.873  -0.549  1.00  0.00    -0.182 OA
HETATM    5  O2  UNL     1      -1.885   0.551  -2.111  1.00  0.00    -0.182 OA
BRANCH   3   6
HETATM    6  N3  UNL     1      -1.743  -0.229   0.363  1.00  0.00    -0.272 N 
HETATM    7  C5  UNL     1      -2.282  -1.508   0.242  1.00  0.00     0.088 C 
HETATM    8  C6  UNL     1      -3.610  -1.607   0.962  1.00  0.00     0.119 C 
HETATM    9  S2  UNL     1      -4.587  -0.073   0.721  1.00  0.00    -0.162 SA
HETATM   10  C7  UNL     1      -3.417   1.294   1.094  1.00  0.00     0.095 C 
HETATM   11  C8  UNL     1      -2.110   0.579   1.459  1.00  0.00     0.152 C 
ENDBRANCH   3   6
ENDBRANCH   1   3
BRANCH   1  12
HETATM   12  C1  UNL     1       1.657   0.068  -0.773  1.00  0.00     0.107 A 
HETATM   13  C2  UNL     1       2.563  -1.115  -0.376  1.00  0.00     0.041 A 
HETATM   14  C3  UNL     1       2.980  -0.044  -1.388  1.00  0.00     0.087 A 
BRANCH  14  15
HETATM   15  C4  UNL     1       4.144   0.724  -0.915  1.00  0.00     0.141 C 
HETATM   16  N2  UNL     1       4.227   1.562   0.014  1.00  0.00    -0.251 N 
ATOM     17  H2  UNL     1       5.164   1.947   0.130  1.00  0.00     0.196 HD
BRANCH  15  18
HETATM   18  O3  UNL     1       5.366   0.489  -1.607  1.00  0.00    -0.348 OA
ATOM     19  H3  UNL     1       6.117   0.984  -1.302  1.00  0.00     0.219 HD
ENDBRANCH  15  18
BRANCH  16  20
HETATM   20  O4  UNL     1       3.341   2.054   0.883  1.00  0.00    -0.288 OA
ATOM     21  H4  UNL     1       3.404   2.689   1.587  1.00  0.00     0.244 HD
ENDBRANCH  16  20
ENDBRANCH  14  15
ENDBRANCH   1  12
TORSDOF 6
