REMARK  5 active torsions:
REMARK  status: ('A' for Active; 'I' for Inactive)
REMARK    1  A    between atoms: O1_2  and  C2_3 
REMARK    2  A    between atoms: N1_6  and  C5_7 
REMARK    3  A    between atoms: C7_10  and  N2_11 
REMARK    4  A    between atoms: C10_14  and  C11_15 
REMARK    5  A    between atoms: C11_15  and  N3_16 
ROOT
HETATM    1  C5  UNL     1      -1.706  -1.177   0.117  1.00  0.00     0.094 A 
HETATM    2  C6  UNL     1      -0.510  -0.473   0.023  1.00  0.00     0.171 A 
HETATM    3  F1  UNL     1      -0.619   0.876  -0.002  1.00  0.00    -0.201 F 
HETATM    4  C7  UNL     1       0.715  -1.110  -0.041  1.00  0.00     0.073 A 
HETATM    5  C14 UNL     1       0.714  -2.504  -0.009  1.00  0.00     0.060 A 
HETATM    6  C15 UNL     1      -0.452  -3.237   0.084  1.00  0.00     0.071 A 
HETATM    7  N4  UNL     1      -0.426  -4.670   0.116  1.00  0.00    -0.101 NA
HETATM    8  C16 UNL     1      -1.654  -2.558   0.146  1.00  0.00     0.098 A 
HETATM    9  C17 UNL     1      -2.893  -3.306   0.244  1.00  0.00     0.104 C 
HETATM   10  N5  UNL     1      -3.882  -3.882   0.311  1.00  0.00    -0.191 NA
ENDROOT
BRANCH   1  11
HETATM   11  N1  UNL     1      -2.964  -0.514   0.183  1.00  0.00    -0.374 N 
HETATM   12  C4  UNL     1      -3.812  -0.135  -0.954  1.00  0.00     0.126 C 
HETATM   13  C3  UNL     1      -4.437   1.177  -0.599  1.00  0.00     0.053 C 
HETATM   14  C2  UNL     1      -4.241   1.290   0.898  1.00  0.00     0.140 C 
HETATM   15  C18 UNL     1      -3.702  -0.060   1.349  1.00  0.00     0.155 C 
BRANCH  14  16
HETATM   16  O1  UNL     1      -5.467   1.573   1.463  1.00  0.00    -0.389 OA
HETATM   17  C1  UNL     1      -5.411   2.803   2.097  1.00  0.00     0.202 C 
ENDBRANCH  14  16
ENDBRANCH   1  11
BRANCH   4  18
HETATM   18  N2  UNL     1       1.927  -0.368  -0.136  1.00  0.00    -0.378 N 
HETATM   19  C8  UNL     1       2.242   0.544   0.941  1.00  0.00     0.123 C 
HETATM   20  C9  UNL     1       3.715   0.887   0.936  1.00  0.00     0.026 C 
HETATM   21  C10 UNL     1       4.000   1.448  -0.462  1.00  0.00     0.014 C 
HETATM   22  C12 UNL     1       3.910   0.328  -1.440  1.00  0.00     0.026 C 
HETATM   23  C13 UNL     1       2.744  -0.580  -1.286  1.00  0.00     0.123 C 
BRANCH  21  24
HETATM   24  C11 UNL     1       5.404   2.007  -0.410  1.00  0.00     0.234 C 
BRANCH  24  25
HETATM   25  N3  UNL     1       6.382   1.017  -0.081  1.00  0.00    -0.079 N 
ATOM     26  H33 UNL     1       6.144   0.544   0.791  1.00  0.00     0.274 HD
ATOM     27  H32 UNL     1       6.328   0.223  -0.720  1.00  0.00     0.274 HD
ATOM     28  H31 UNL     1       7.329   1.394  -0.046  1.00  0.00     0.274 HD
ENDBRANCH  24  25
ENDBRANCH  21  24
ENDBRANCH   4  18
TORSDOF 5
