REMARK  7 active torsions:
REMARK  status: ('A' for Active; 'I' for Inactive)
REMARK    1  A    between atoms: C1_2  and  S2_4 
REMARK    2  A    between atoms: S2_4  and  C2_5 
REMARK    3  A    between atoms: C2_5  and  C3_6 
REMARK       I    between atoms: C3_6  and  N2_8 
REMARK    4  A    between atoms: N2_8  and  C4_10 
REMARK    5  A    between atoms: C5_13  and  C6_14 
REMARK    6  A    between atoms: C6_14  and  N4_15 
REMARK    7  A    between atoms: N5_18  and  C9_19 
ROOT
HETATM    1  C4  UNL     1       3.006   1.769  -0.157  1.00  0.00     0.151 A 
HETATM    2  N3  UNL     1       2.524   0.643   0.358  1.00  0.00    -0.335 N 
ATOM      3  H3  UNL     1       3.151  -0.124   0.599  1.00  0.00     0.168 HD
HETATM    4  C5  UNL     1       1.238   0.531   0.552  1.00  0.00     0.056 A 
HETATM    5  C17 UNL     1       0.453   1.603   0.206  1.00  0.00     0.084 A 
HETATM    6  S3  UNL     1       1.602   2.717  -0.381  1.00  0.00    -0.063 SA
ENDROOT
BRANCH   4   7
HETATM    7  C6  UNL     1       0.561  -0.706   1.138  1.00  0.00     0.125 C 
BRANCH   7   8
HETATM    8  N4  UNL     1      -0.767  -0.838   0.740  1.00  0.00    -0.345 N 
HETATM    9  C7  UNL     1      -1.099  -0.973  -0.623  1.00  0.00     0.088 C 
HETATM   10  C8  UNL     1      -2.438  -0.494  -1.023  1.00  0.00     0.168 C 
HETATM   11  N5  UNL     1      -3.487  -0.608  -0.043  1.00  0.00    -0.371 N 
HETATM   12  C15 UNL     1      -3.151  -1.097   1.258  1.00  0.00     0.168 C 
HETATM   13  C16 UNL     1      -1.795  -0.585   1.649  1.00  0.00     0.088 C 
BRANCH  11  14
HETATM   14  C9  UNL     1      -4.827  -0.247  -0.347  1.00  0.00     0.030 A 
HETATM   15  C10 UNL     1      -5.839  -0.515   0.527  1.00  0.00     0.029 A 
HETATM   16  C11 UNL     1      -7.148  -0.145   0.211  1.00  0.00     0.002 A 
HETATM   17  C12 UNL     1      -7.383   0.487  -0.988  1.00  0.00     0.000 A 
HETATM   18  C13 UNL     1      -6.384   0.769  -1.886  1.00  0.00     0.002 A 
HETATM   19  C14 UNL     1      -5.097   0.393  -1.551  1.00  0.00     0.029 A 
ENDBRANCH  11  14
ENDBRANCH   7   8
ENDBRANCH   4   7
BRANCH   1  20
HETATM   20  N2  UNL     1       4.259   2.075  -0.427  1.00  0.00    -0.306 N 
HETATM   21  C3  UNL     1       5.221   1.078  -0.133  1.00  0.00     0.233 C 
HETATM   22  O1  UNL     1       5.276   0.041  -0.857  1.00  0.00    -0.272 OA
ATOM     23  H2  UNL     1       4.521   2.977  -0.824  1.00  0.00     0.171 HD
BRANCH  21  24
HETATM   24  C2  UNL     1       6.179   1.183   0.990  1.00  0.00     0.184 C 
BRANCH  24  25
HETATM   25  S2  UNL     1       7.270  -0.252   1.054  1.00  0.00    -0.094 SA
BRANCH  25  26
HETATM   26  C1  UNL     1       8.337  -0.276  -0.369  1.00  0.00     0.150 C 
HETATM   27  N1  UNL     1       9.265  -1.321  -0.528  1.00  0.00    -0.082 NA
HETATM   28  S1  UNL     1       8.222   0.922  -1.463  1.00  0.00    -0.056 SA
ENDBRANCH  25  26
ENDBRANCH  24  25
ENDBRANCH  21  24
ENDBRANCH   1  20
TORSDOF 7
