REMARK  7 active torsions:
REMARK  status: ('A' for Active; 'I' for Inactive)
REMARK    1  A    between atoms: O1_2  and  C2_3 
REMARK    2  A    between atoms: C2_3  and  C3_4 
REMARK    3  A    between atoms: C3_4  and  O2_5 
REMARK    4  A    between atoms: C5_8  and  O3_9 
REMARK    5  A    between atoms: O3_9  and  C6_10 
REMARK       I    between atoms: C6_10  and  N1_12 
REMARK    6  A    between atoms: C7_15  and  O5_16 
REMARK    7  A    between atoms: C19_30  and  O6_31 
ROOT
HETATM    1  C3  UNL     1       1.653  -1.247  -0.786  1.00  0.00     0.084 C 
HETATM    2  C4  UNL     1       2.635  -0.151  -0.827  1.00  0.00     0.075 C 
HETATM    3  C5  UNL     1       2.293   1.181  -0.288  1.00  0.00     0.165 C 
HETATM    4  C7  UNL     1       1.555   2.031  -1.292  1.00  0.00     0.148 C 
HETATM    5  C8  UNL     1       0.773   1.272  -2.330  1.00  0.00     0.042 C 
HETATM    6  C9  UNL     1      -0.583   0.848  -1.923  1.00  0.00     0.024 C 
HETATM    7  C10 UNL     1      -0.985   1.621  -0.702  1.00  0.00     0.014 C 
HETATM    8  C11 UNL     1      -2.325   0.961  -0.487  1.00  0.00     0.016 C 
HETATM    9  C12 UNL     1      -2.938   1.287   0.812  1.00  0.00     0.019 C 
HETATM   10  C13 UNL     1      -1.852   1.679   1.792  1.00  0.00     0.028 C 
HETATM   11 BR1  UNL     1      -3.997   2.927   0.597  1.00  0.00    -0.086 Br
HETATM   12  C14 UNL     1      -3.843   0.269   1.401  1.00  0.00     0.021 C 
HETATM   13  C15 UNL     1      -3.610  -1.128   0.969  1.00  0.00     0.002 C 
HETATM   14  C16 UNL     1      -2.259  -1.379   0.332  1.00  0.00     0.012 C 
HETATM   15  C17 UNL     1      -2.115  -0.453  -0.828  1.00  0.00    -0.007 C 
HETATM   16  C18 UNL     1      -3.269  -0.817  -1.780  1.00  0.00     0.019 C 
HETATM   17  C19 UNL     1      -0.754  -0.616  -1.544  1.00  0.00     0.074 C 
HETATM   18  C21 UNL     1       0.246  -1.075  -0.563  1.00  0.00     0.079 C 
ENDROOT
BRANCH   3  19
HETATM   19  O3  UNL     1       3.527   1.880  -0.079  1.00  0.00    -0.295 OA
BRANCH  19  20
HETATM   20  C6  UNL     1       3.881   2.336   1.159  1.00  0.00     0.375 C 
HETATM   21  O4  UNL     1       3.115   2.139   2.116  1.00  0.00    -0.237 OA
HETATM   22  N1  UNL     1       5.100   3.024   1.354  1.00  0.00    -0.244 N 
HETATM   23 CL1  UNL     1       5.507   3.585   2.945  1.00  0.00     0.015 Cl
ATOM     24  H1  UNL     1       5.732   3.189   0.570  1.00  0.00     0.185 HD
ENDBRANCH  19  20
ENDBRANCH   3  19
BRANCH   4  25
HETATM   25  O5  UNL     1       2.466   2.849  -2.009  1.00  0.00    -0.393 OA
ATOM     26  H5  UNL     1       2.001   3.384  -2.641  1.00  0.00     0.210 HD
ENDBRANCH   4  25
BRANCH   1  27
HETATM   27  C2  UNL     1       2.137  -2.126   0.423  1.00  0.00     0.205 C 
BRANCH  27  28
HETATM   28  O1  UNL     1       1.823  -1.436   1.581  1.00  0.00    -0.393 OA
HETATM   29  C1  UNL     1       2.225  -2.162   2.675  1.00  0.00     0.201 C 
ENDBRANCH  27  28
ENDBRANCH   1  27
BRANCH   1  30
HETATM   30  O2  UNL     1       2.055  -2.104  -1.840  1.00  0.00    -0.387 OA
ATOM     31  H2  UNL     1       1.762  -1.573  -2.571  1.00  0.00     0.210 HD
ENDBRANCH   1  30
BRANCH  17  32
HETATM   32  O6  UNL     1      -0.875  -1.287  -2.714  1.00  0.00    -0.384 OA
HETATM   33  C20 UNL     1      -1.070  -2.602  -2.825  1.00  0.00     0.202 C 
ENDBRANCH  17  32
TORSDOF 7
