REMARK  9 active torsions:
REMARK  status: ('A' for Active; 'I' for Inactive)
REMARK    1  A    between atoms: C4_7  and  N3_8 
REMARK    2  A    between atoms: C5_10  and  C6_11 
REMARK    3  A    between atoms: C6_11  and  C7_12 
REMARK    4  A    between atoms: C7_12  and  N4_13 
REMARK    5  A    between atoms: C8_16  and  N5_17 
REMARK    6  A    between atoms: C10_25  and  C11_26 
REMARK    7  A    between atoms: C12_29  and  S1_30 
REMARK    8  A    between atoms: S1_30  and  C13_31 
REMARK    9  A    between atoms: C14_35  and  N9_36 
ROOT
HETATM    1  N1  UNL     1       1.388  -0.659   3.193  1.00  0.00    -0.190 NA
HETATM    2  C1  UNL     1       0.987  -0.737   2.113  1.00  0.00     0.119 C 
HETATM    3  C2  UNL     1       0.495  -0.852   0.744  1.00  0.00     0.135 A 
HETATM    4  N2  UNL     1      -0.812  -0.634   0.529  1.00  0.00    -0.330 N 
ATOM      5  H2  UNL     1      -1.415  -0.387   1.314  1.00  0.00     0.168 HD
HETATM    6  C3  UNL     1      -1.340  -0.735  -0.703  1.00  0.00     0.148 A 
HETATM    7  C4  UNL     1      -2.701  -0.504  -0.878  1.00  0.00     0.121 A 
HETATM    8  C8  UNL     1      -3.294  -0.595  -2.107  1.00  0.00     0.134 A 
HETATM    9  N6  UNL     1      -2.493  -0.919  -3.124  1.00  0.00    -0.292 N 
ATOM     10  H6  UNL     1      -2.894  -0.999  -4.058  1.00  0.00     0.172 HD
HETATM   11  C9  UNL     1      -1.152  -1.148  -2.961  1.00  0.00     0.334 A 
HETATM   12  O3  UNL     1      -0.526  -1.438  -3.974  1.00  0.00    -0.246 OA
HETATM   13  N7  UNL     1      -0.558  -1.062  -1.766  1.00  0.00    -0.239 N 
HETATM   14  C10 UNL     1       0.770  -1.290  -1.585  1.00  0.00     0.142 A 
HETATM   15  C12 UNL     1       1.321  -1.183  -0.295  1.00  0.00     0.076 A 
ENDROOT
BRANCH  15  16
HETATM   16  S1  UNL     1       3.046  -1.448  -0.018  1.00  0.00    -0.063 SA
BRANCH  16  17
HETATM   17  C13 UNL     1       4.069   0.013  -0.163  1.00  0.00     0.458 C 
HETATM   18  N8  UNL     1       5.472  -0.402   0.071  1.00  0.00     0.017 N 
HETATM   19  C14 UNL     1       5.159  -0.186   1.496  1.00  0.00     0.583 C 
ATOM     20  H82 UNL     1       5.844  -1.286  -0.277  1.00  0.00     0.285 HD
ATOM     21  H81 UNL     1       6.259   0.055  -0.389  1.00  0.00     0.285 HD
HETATM   22  N10 UNL     1       4.240   0.827   1.017  1.00  0.00     0.017 N 
ATOM     23 2H10 UNL     1       4.520   1.805   0.948  1.00  0.00     0.285 HD
ATOM     24 1H10 UNL     1       3.440   1.122   1.576  1.00  0.00     0.285 HD
BRANCH  19  25
HETATM   25  N9  UNL     1       6.281   0.329   2.252  1.00  0.00    -0.025 N 
ATOM     26  H93 UNL     1       7.098  -0.273   2.146  1.00  0.00     0.278 HD
ATOM     27  H92 UNL     1       6.645   1.181   1.827  1.00  0.00     0.278 HD
ATOM     28  H91 UNL     1       6.065   0.478   3.238  1.00  0.00     0.278 HD
ENDBRANCH  19  25
ENDBRANCH  16  17
ENDBRANCH  15  16
BRANCH  14  29
HETATM   29  C11 UNL     1       1.684  -1.635  -2.613  1.00  0.00     0.229 C 
HETATM   30  O4  UNL     1       1.498  -1.763  -3.822  1.00  0.00    -0.643 OA
HETATM   31  O5  UNL     1       3.055  -1.896  -2.290  1.00  0.00    -0.643 OA
ENDBRANCH  14  29
BRANCH   7  32
HETATM   32  N3  UNL     1      -3.463  -0.167   0.264  1.00  0.00    -0.363 N 
HETATM   33  C5  UNL     1      -3.141   0.882   0.934  1.00  0.00     0.063 C 
ATOM     34  H3  UNL     1      -4.253  -0.745   0.551  1.00  0.00     0.165 HD
BRANCH  33  35
HETATM   35  C6  UNL     1      -3.889   1.311   2.152  1.00  0.00     0.070 C 
BRANCH  35  36
HETATM   36  C7  UNL     1      -4.243   2.791   2.062  1.00  0.00     0.206 C 
BRANCH  36  37
HETATM   37  N4  UNL     1      -5.066   3.054   0.912  1.00  0.00    -0.155 N 
HETATM   38  O1  UNL     1      -4.697   3.837   0.017  1.00  0.00    -0.537 OA
HETATM   39  O2  UNL     1      -6.279   2.434   0.792  1.00  0.00    -0.537 OA
ENDBRANCH  36  37
ENDBRANCH  35  36
ENDBRANCH  33  35
ENDBRANCH   7  32
BRANCH   8  40
HETATM   40  N5  UNL     1      -4.554  -0.374  -2.227  1.00  0.00    -0.383 N 
ATOM     41  H52 UNL     1      -5.166  -0.126  -1.450  1.00  0.00     0.157 HD
ATOM     42  H51 UNL     1      -4.996  -0.442  -3.144  1.00  0.00     0.157 HD
ENDBRANCH   8  40
TORSDOF 9
