REMARK  5 active torsions:
REMARK  status: ('A' for Active; 'I' for Inactive)
REMARK    1  A    between atoms: C2_2  and  C4_5 
REMARK    2  A    between atoms: C4_5  and  N1_8 
REMARK    3  A    between atoms: N1_8  and  N2_10 
REMARK    4  A    between atoms: C7_12  and  C8_13 
REMARK    5  A    between atoms: C11_16  and  O1_17 
ROOT
HETATM    1  N2  UNL     1       0.419  -0.390   0.298  1.00  0.00    -0.315 N 
ATOM      2  H2  UNL     1       0.608   0.533   0.690  1.00  0.00     0.185 HD
HETATM    3  C7  UNL     1       1.416  -1.106  -0.085  1.00  0.00     0.118 C 
ENDROOT
BRANCH   1   4
HETATM    4  N1  UNL     1      -0.899  -0.807   0.206  1.00  0.00    -0.326 N 
ATOM      5  H1  UNL     1      -1.145  -1.781   0.382  1.00  0.00     0.181 HD
BRANCH   4   6
HETATM    6  C4  UNL     1      -1.917   0.147  -0.140  1.00  0.00     0.059 C 
HETATM    7  C5  UNL     1      -1.581   0.693  -1.512  1.00  0.00     0.041 C 
HETATM    8  C6  UNL     1      -1.937   1.307   0.823  1.00  0.00     0.041 C 
BRANCH   6   9
HETATM    9  C2  UNL     1      -3.273  -0.522  -0.184  1.00  0.00     0.056 C 
HETATM   10  C1  UNL     1      -3.667  -1.088   1.152  1.00  0.00     0.035 C 
HETATM   11  C3  UNL     1      -4.359   0.443  -0.609  1.00  0.00     0.035 C 
HETATM   12 CL1  UNL     1      -3.257  -1.851  -1.357  1.00  0.00    -0.117 Cl
ENDBRANCH   6   9
ENDBRANCH   4   6
ENDBRANCH   1   4
BRANCH   3  13
HETATM   13  C8  UNL     1       2.770  -0.584   0.051  1.00  0.00    -0.018 A 
HETATM   14  C9  UNL     1       3.864  -1.322  -0.349  1.00  0.00     0.015 A 
HETATM   15  C10 UNL     1       5.137  -0.812  -0.212  1.00  0.00     0.039 A 
HETATM   16  C11 UNL     1       5.314   0.446   0.329  1.00  0.00     0.083 A 
HETATM   17  C12 UNL     1       4.235   1.218   0.742  1.00  0.00     0.044 A 
HETATM   18 BR1  UNL     1       4.445   2.952   1.489  1.00  0.00    -0.048 Br
HETATM   19  C13 UNL     1       2.986   0.672   0.588  1.00  0.00     0.034 A 
BRANCH  16  20
HETATM   20  O1  UNL     1       6.574   0.981   0.477  1.00  0.00    -0.359 OA
ATOM     21  H1  UNL     1       6.696   1.847   0.849  1.00  0.00     0.217 HD
ENDBRANCH  16  20
ENDBRANCH   3  13
TORSDOF 5
