REMARK  3 active torsions:
REMARK  status: ('A' for Active; 'I' for Inactive)
REMARK    1  A    between atoms: O1_2  and  C2_3 
REMARK    2  A    between atoms: C5_6  and  C6_7 
REMARK       I    between atoms: C6_7  and  N1_9 
REMARK       I    between atoms: N1_9  and  C7_11 
REMARK       I    between atoms: C7_11  and  N2_13 
REMARK    3  A    between atoms: N2_13  and  C8_15 
ROOT
HETATM    1  C6  UNL     1       0.938  -0.985   0.775  1.00  0.00     0.283 C 
HETATM    2  O2  UNL     1       0.296  -1.680   1.391  1.00  0.00    -0.265 OA
HETATM    3  N1  UNL     1       0.099   0.267  -0.112  1.00  0.00    -0.273 N 
ATOM      4  H1  UNL     1       0.446   1.038  -0.683  1.00  0.00     0.173 HD
HETATM    5  C7  UNL     1      -1.165  -0.120   0.206  1.00  0.00     0.323 C 
HETATM    6  O3  UNL     1      -1.600  -1.091   0.824  1.00  0.00    -0.247 OA
HETATM    7  N2  UNL     1      -2.207   0.830  -0.303  1.00  0.00    -0.335 N 
ATOM      8  H2  UNL     1      -1.921   1.667  -0.811  1.00  0.00     0.165 HD
ENDROOT
BRANCH   1   9
HETATM    9  C5  UNL     1       2.325  -0.850   0.511  1.00  0.00     0.146 A 
HETATM   10  C4  UNL     1       3.341  -1.582   1.155  1.00  0.00     0.048 A 
HETATM   11  C3  UNL     1       4.523  -1.162   0.615  1.00  0.00     0.067 A 
HETATM   12  C2  UNL     1       4.232  -0.191  -0.345  1.00  0.00     0.185 A 
HETATM   13  O4  UNL     1       2.953  -0.072  -0.338  1.00  0.00    -0.282 OA
BRANCH  12  14
HETATM   14  O1  UNL     1       5.106   0.511  -1.145  1.00  0.00    -0.335 OA
HETATM   15  C1  UNL     1       6.500   0.345  -1.124  1.00  0.00     0.212 C 
ENDBRANCH  12  14
ENDBRANCH   1   9
BRANCH   7  16
HETATM   16  C8  UNL     1      -3.593   0.577  -0.085  1.00  0.00     0.023 C 
HETATM   17  C9  UNL     1      -3.971  -0.716  -0.759  1.00  0.00     0.037 C 
HETATM   18  C10 UNL     1      -4.406   1.726  -0.649  1.00  0.00     0.037 C 
HETATM   19  C11 UNL     1      -3.881   0.461   1.405  1.00  0.00     0.037 C 
ENDBRANCH   7  16
TORSDOF 3
