REMARK  1 active torsions:
REMARK  status: ('A' for Active; 'I' for Inactive)
REMARK    1  A    between atoms: C5_5  and  N1_6 
ROOT
HETATM    1  C1  UNL     1      -1.518  -1.547   0.963  1.00  0.00     0.013 C 
HETATM    2  C2  UNL     1      -1.136  -0.929  -0.335  1.00  0.00     0.019 C 
HETATM    3  C3  UNL     1      -2.180   0.176  -0.586  1.00  0.00     0.015 C 
HETATM    4  C4  UNL     1      -1.667   1.381   0.175  1.00  0.00     0.101 C 
HETATM    5  C5  UNL     1      -0.223   1.579  -0.229  1.00  0.00     0.309 C 
HETATM    6  O3  UNL     1       0.574   1.226   0.844  1.00  0.00    -0.320 OA
HETATM    7  C6  UNL     1       1.101  -0.043   0.516  1.00  0.00     0.090 C 
HETATM    8  C7  UNL     1       2.467   0.283  -0.123  1.00  0.00     0.049 C 
HETATM    9  C8  UNL     1       1.304  -0.844   1.717  1.00  0.00     0.049 C 
HETATM   10  C9  UNL     1       0.223  -0.493  -0.556  1.00  0.00     0.097 C 
HETATM   11  C10 UNL     1       0.971  -1.439  -1.509  1.00  0.00     0.050 C 
HETATM   12  O4  UNL     1       0.132   0.726  -1.299  1.00  0.00    -0.320 OA
ENDROOT
BRANCH   5  13
HETATM   13  N1  UNL     1      -0.037   2.958  -0.550  1.00  0.00    -0.087 N 
HETATM   14  O1  UNL     1       0.333   3.404  -1.652  1.00  0.00    -0.532 OA
HETATM   15  O2  UNL     1      -0.286   3.883   0.438  1.00  0.00    -0.532 OA
ENDBRANCH   5  13
TORSDOF 1
