REMARK  2 active torsions:
REMARK  status: ('A' for Active; 'I' for Inactive)
REMARK    1  A    between atoms: C2_2  and  C3_3 
REMARK    2  A    between atoms: C10_13  and  O4_14 
ROOT
HETATM    1  C3  UNL     1       2.044  -0.292  -0.980  1.00  0.00     0.131 C 
HETATM    2  O1  UNL     1       1.497   0.968  -1.215  1.00  0.00    -0.377 OA
HETATM    3  C4  UNL     1       0.439   0.630  -0.409  1.00  0.00     0.162 C 
HETATM    4  C5  UNL     1      -0.709  -0.026  -1.128  1.00  0.00     0.186 C 
HETATM    5  O2  UNL     1      -1.858   0.754  -1.068  1.00  0.00    -0.345 OA
HETATM    6  C6  UNL     1      -2.473   0.509   0.138  1.00  0.00     0.158 C 
HETATM    7  C7  UNL     1      -3.860  -0.115  -0.056  1.00  0.00     0.078 C 
HETATM    8  C8  UNL     1      -2.708   1.807   0.875  1.00  0.00     0.078 C 
HETATM    9  O3  UNL     1      -1.700  -0.384   0.850  1.00  0.00    -0.345 OA
HETATM   10  C9  UNL     1      -1.077  -1.145  -0.145  1.00  0.00     0.186 C 
HETATM   11  C10 UNL     1       0.277  -1.637   0.269  1.00  0.00     0.159 C 
HETATM   12  C11 UNL     1       1.219  -0.481   0.254  1.00  0.00     0.077 C 
ENDROOT
BRANCH   1  13
HETATM   13  C2  UNL     1       3.552  -0.173  -0.724  1.00  0.00     0.028 C 
HETATM   14  C1  UNL     1       3.710   0.713   0.492  1.00  0.00     0.007 C 
ENDBRANCH   1  13
BRANCH  11  15
HETATM   15  O4  UNL     1       0.223  -2.285   1.499  1.00  0.00    -0.392 OA
ATOM     16  H4  UNL     1       1.081  -2.597   1.761  1.00  0.00     0.210 HD
ENDBRANCH  11  15
TORSDOF 2
