REMARK  2 active torsions:
REMARK  status: ('A' for Active; 'I' for Inactive)
REMARK    1  A    between atoms: C2_3  and  N2_4 
REMARK       I    between atoms: N2_4  and  C3_6 
REMARK    2  A    between atoms: C3_6  and  C4_8 
ROOT
HETATM    1  N1  UNL     1      -3.487  -1.867   1.801  1.00  0.00    -0.195 NA
HETATM    2  C1  UNL     1      -2.826  -1.187   1.142  1.00  0.00     0.091 C 
HETATM    3  C2  UNL     1      -2.009  -0.324   0.307  1.00  0.00     0.122 C 
HETATM    4  C7  UNL     1      -2.568   1.060   0.263  1.00  0.00     0.047 C 
HETATM    5  C8  UNL     1      -3.075   0.801  -1.121  1.00  0.00     0.007 C 
HETATM    6  C9  UNL     1      -2.339  -0.506  -1.138  1.00  0.00     0.047 C 
ENDROOT
BRANCH   3   7
HETATM    7  N2  UNL     1      -0.604  -0.419   0.654  1.00  0.00    -0.335 N 
HETATM    8  C3  UNL     1       0.405   0.314   0.007  1.00  0.00     0.274 C 
HETATM    9  O1  UNL     1       0.099   1.091  -0.914  1.00  0.00    -0.268 OA
ATOM     10  H2  UNL     1      -0.334  -1.051   1.408  1.00  0.00     0.164 HD
BRANCH   8  11
HETATM   11  C4  UNL     1       1.811   0.174   0.403  1.00  0.00     0.353 C 
HETATM   12  O2  UNL     1       2.669   0.977  -0.347  1.00  0.00    -0.351 OA
HETATM   13  C5  UNL     1       3.913   0.495   0.126  1.00  0.00     0.197 C 
HETATM   14  C6  UNL     1       3.672  -0.998   0.043  1.00  0.00     0.197 C 
HETATM   15  O3  UNL     1       2.295  -1.106   0.065  1.00  0.00    -0.351 OA
ENDBRANCH   8  11
ENDBRANCH   3   7
TORSDOF 2
