REMARK  10 active torsions:
REMARK  status: ('A' for Active; 'I' for Inactive)
REMARK    1  A    between atoms: O1_2  and  C2_3 
REMARK    2  A    between atoms: C3_4  and  O2_5 
REMARK    3  A    between atoms: C4_7  and  C5_8 
REMARK    4  A    between atoms: C5_8  and  O3_9 
REMARK    5  A    between atoms: C7_12  and  C8_13 
REMARK    6  A    between atoms: C8_13  and  O4_14 
REMARK    7  A    between atoms: C8_13  and  C9_16 
REMARK    8  A    between atoms: C10_17  and  C11_18 
REMARK    9  A    between atoms: C12_19  and  C13_20 
REMARK   10  A    between atoms: C26_35  and  O5_36 
ROOT
HETATM    1  C9  UNL     1       0.667  -1.001  -0.116  1.00  0.00     0.036 C 
HETATM    2  C10 UNL     1       2.100  -0.986  -0.647  1.00  0.00     0.077 C 
HETATM    3  C19 UNL     1       2.603  -2.357  -0.317  1.00  0.00     0.010 C 
HETATM    4  C20 UNL     1       2.631  -2.492   1.188  1.00  0.00     0.007 C 
HETATM    5  C21 UNL     1       1.164  -2.611   1.623  1.00  0.00     0.006 C 
HETATM    6  C22 UNL     1       0.421  -2.422   0.311  1.00  0.00     0.002 C 
HETATM    7  C23 UNL     1       1.343  -3.164  -0.626  1.00  0.00    -0.031 A 
HETATM    8  C24 UNL     1       0.990  -3.600  -1.962  1.00  0.00     0.011 A 
HETATM    9  C25 UNL     1       1.346  -4.589  -0.814  1.00  0.00     0.011 A 
ENDROOT
BRANCH   1  10
HETATM   10  C8  UNL     1      -0.219  -0.492  -1.174  1.00  0.00     0.130 C 
BRANCH  10  11
HETATM   11  C7  UNL     1      -1.672  -0.406  -0.923  1.00  0.00     0.047 C 
HETATM   12  C6  UNL     1      -2.295  -0.036  -2.291  1.00  0.00     0.019 C 
HETATM   13  C4  UNL     1      -3.769   0.151  -2.176  1.00  0.00     0.041 C 
HETATM   14  C3  UNL     1      -4.343  -0.154  -0.837  1.00  0.00     0.155 C 
HETATM   15  C2  UNL     1      -3.588   0.364   0.336  1.00  0.00     0.179 C 
HETATM   16  C26 UNL     1      -2.129   0.697  -0.005  1.00  0.00     0.159 C 
BRANCH  13  17
HETATM   17  C5  UNL     1      -4.194   1.536  -2.678  1.00  0.00     0.171 C 
BRANCH  17  18
HETATM   18  O3  UNL     1      -3.639   1.789  -3.931  1.00  0.00    -0.400 OA
ATOM     19  H3  UNL     1      -3.902   2.647  -4.242  1.00  0.00     0.209 HD
ENDBRANCH  17  18
ENDBRANCH  13  17
BRANCH  14  20
HETATM   20  O2  UNL     1      -5.655   0.377  -0.819  1.00  0.00    -0.392 OA
ATOM     21  H2  UNL     1      -6.137   0.046  -1.568  1.00  0.00     0.210 HD
ENDBRANCH  14  20
BRANCH  15  22
HETATM   22  O1  UNL     1      -4.240   1.425   0.915  1.00  0.00    -0.386 OA
HETATM   23  C1  UNL     1      -4.618   1.179   2.234  1.00  0.00     0.202 C 
ENDBRANCH  15  22
BRANCH  16  24
HETATM   24  O5  UNL     1      -1.414   0.846   1.151  1.00  0.00    -0.388 OA
HETATM   25  C27 UNL     1      -1.022   2.186   1.351  1.00  0.00     0.202 C 
ENDBRANCH  16  24
ENDBRANCH  10  11
BRANCH  10  26
HETATM   26  O4  UNL     1       0.241   0.743  -1.623  1.00  0.00    -0.395 OA
ATOM     27  H4  UNL     1       1.176   0.688  -1.784  1.00  0.00     0.210 HD
ENDBRANCH  10  26
ENDBRANCH   1  10
BRANCH   2  28
HETATM   28  C11 UNL     1       2.942  -0.018   0.051  1.00  0.00    -0.095 C 
HETATM   29  C12 UNL     1       3.631   0.796   0.614  1.00  0.00    -0.063 C 
BRANCH  29  30
HETATM   30  C13 UNL     1       4.482   1.769   1.281  1.00  0.00     0.056 A 
HETATM   31  C14 UNL     1       4.829   1.512   2.587  1.00  0.00     0.027 A 
HETATM   32  C15 UNL     1       5.637   2.434   3.221  1.00  0.00     0.044 A 
HETATM   33  C16 UNL     1       6.092   3.575   2.595  1.00  0.00     0.119 A 
HETATM   34  F1  UNL     1       6.885   4.471   3.230  1.00  0.00    -0.206 F 
HETATM   35  C17 UNL     1       5.738   3.821   1.286  1.00  0.00     0.086 A 
HETATM   36  C18 UNL     1       4.919   2.900   0.623  1.00  0.00     0.138 A 
HETATM   37  F2  UNL     1       4.574   3.146  -0.661  1.00  0.00    -0.204 F 
ENDBRANCH  29  30
ENDBRANCH   2  28
TORSDOF 10
