REMARK  7 active torsions:
REMARK  status: ('A' for Active; 'I' for Inactive)
REMARK    1  A    between atoms: O1_1  and  C1_3 
REMARK    2  A    between atoms: C1_3  and  C2_4 
REMARK    3  A    between atoms: C2_4  and  C3_5 
REMARK    4  A    between atoms: C3_5  and  N1_6 
REMARK    5  A    between atoms: N1_6  and  C4_8 
REMARK    6  A    between atoms: C9_22  and  C10_23 
REMARK    7  A    between atoms: C11_24  and  C12_25 
ROOT
HETATM    1  C4  UNL     1      -2.683   1.239  -0.238  1.00  0.00     0.121 A 
HETATM    2  N2  UNL     1      -2.090   2.462  -0.304  1.00  0.00    -0.338 N 
ATOM      3  H2  UNL     1      -2.626   3.330  -0.301  1.00  0.00     0.168 HD
HETATM    4  C5  UNL     1      -0.755   2.445  -0.373  1.00  0.00     0.182 A 
HETATM    5  N3  UNL     1       0.005   1.346  -0.382  1.00  0.00    -0.349 N 
ATOM      6  H3  UNL     1       1.019   1.440  -0.438  1.00  0.00     0.166 HD
HETATM    7  C6  UNL     1      -0.553   0.089  -0.317  1.00  0.00     0.084 A 
HETATM    8  C7  UNL     1      -1.909   0.066  -0.245  1.00  0.00     0.080 A 
HETATM    9  S1  UNL     1      -2.274  -1.607  -0.179  1.00  0.00    -0.063 SA
HETATM   10  C8  UNL     1      -0.694  -2.229  -0.244  1.00  0.00     0.119 A 
HETATM   11  N4  UNL     1      -0.108  -3.465  -0.241  1.00  0.00    -0.290 N 
ATOM     12  H4  UNL     1      -0.713  -4.284  -0.187  1.00  0.00     0.187 HD
HETATM   13  N5  UNL     1       1.186  -3.655  -0.304  1.00  0.00    -0.285 N 
ATOM     14  H5  UNL     1       1.576  -4.598  -0.298  1.00  0.00     0.188 HD
HETATM   15  C9  UNL     1       2.018  -2.541  -0.379  1.00  0.00     0.120 A 
HETATM   16  N6  UNL     1       1.423  -1.367  -0.380  1.00  0.00    -0.337 N 
ATOM     17  H6  UNL     1       2.033  -0.551  -0.434  1.00  0.00     0.167 HD
HETATM   18  C18 UNL     1       0.092  -1.119  -0.317  1.00  0.00     0.098 A 
ENDROOT
BRANCH  15  19
HETATM   19  C10 UNL     1       3.411  -2.815  -0.532  1.00  0.00     0.051 C 
HETATM   20  C11 UNL     1       4.487  -2.120  -0.462  1.00  0.00     0.015 C 
BRANCH  20  21
HETATM   21  C12 UNL     1       4.766  -0.754  -0.185  1.00  0.00    -0.036 A 
HETATM   22  C13 UNL     1       5.955  -0.211  -0.719  1.00  0.00     0.014 A 
HETATM   23  C14 UNL     1       6.377   1.049  -0.447  1.00  0.00     0.043 A 
HETATM   24  C15 UNL     1       5.653   1.862   0.374  1.00  0.00     0.116 A 
HETATM   25  F1  UNL     1       6.074   3.115   0.643  1.00  0.00    -0.206 F 
HETATM   26  C16 UNL     1       4.495   1.385   0.919  1.00  0.00     0.043 A 
HETATM   27  C17 UNL     1       4.067   0.080   0.633  1.00  0.00     0.014 A 
ENDBRANCH  20  21
ENDBRANCH  15  19
BRANCH   1  28
HETATM   28  N1  UNL     1      -3.935   1.097  -0.168  1.00  0.00    -0.375 N 
ATOM     29  H1  UNL     1      -4.456   1.974  -0.165  1.00  0.00     0.161 HD
BRANCH  28  30
HETATM   30  C3  UNL     1      -4.744  -0.058  -0.093  1.00  0.00     0.123 C 
BRANCH  30  31
HETATM   31  C2  UNL     1      -6.214   0.388  -0.015  1.00  0.00     0.045 C 
BRANCH  31  32
HETATM   32  C1  UNL     1      -6.347   1.244   1.245  1.00  0.00     0.165 C 
BRANCH  32  33
HETATM   33  O1  UNL     1      -6.006   0.516   2.374  1.00  0.00    -0.401 OA
ATOM     34  H1  UNL     1      -6.089   1.048   3.157  1.00  0.00     0.209 HD
ENDBRANCH  32  33
ENDBRANCH  31  32
ENDBRANCH  30  31
ENDBRANCH  28  30
ENDBRANCH   1  28
TORSDOF 7
