REMARK  11 active torsions:
REMARK  status: ('A' for Active; 'I' for Inactive)
REMARK    1  A    between atoms: O1_2  and  C2_3 
REMARK       I    between atoms: C2_3  and  N1_5 
REMARK    2  A    between atoms: N1_5  and  C3_7 
REMARK    3  A    between atoms: C5_14  and  O4_15 
REMARK    4  A    between atoms: C6_17  and  C7_18 
REMARK    5  A    between atoms: C7_18  and  N4_19 
REMARK    6  A    between atoms: C10_22  and  O5_23 
REMARK    7  A    between atoms: O5_23  and  N5_24 
REMARK    8  A    between atoms: N5_24  and  O6_26 
REMARK    9  A    between atoms: N7_31  and  C12_33 
REMARK   10  A    between atoms: C12_33  and  C13_34 
REMARK   11  A    between atoms: C13_34  and  O7_35 
ROOT
HETATM    1  N4  UNL     1       1.021   0.558  -0.678  1.00  0.00    -0.157 N 
HETATM    2  C8  UNL     1       1.146   1.794  -0.171  1.00  0.00     0.083 A 
HETATM    3  C9  UNL     1       0.383   3.048  -0.458  1.00  0.00     0.074 C 
HETATM    4  C10 UNL     1       2.221   1.846   0.703  1.00  0.00     0.210 A 
HETATM    5  N6  UNL     1       2.757   0.615   0.720  1.00  0.00    -0.166 N 
ATOM      6  H6  UNL     1       3.567   0.324   1.267  1.00  0.00     0.186 HD
HETATM    7  C11 UNL     1       2.037  -0.176  -0.115  1.00  0.00     0.690 A 
HETATM    8  N7  UNL     1       2.280  -1.377  -0.321  1.00  0.00    -0.203 N 
ATOM      9  H7  UNL     1       1.598  -1.745  -0.984  1.00  0.00     0.183 HD
ENDROOT
BRANCH   1  10
HETATM   10  C7  UNL     1       0.024   0.056  -1.557  1.00  0.00     0.135 C 
BRANCH  10  11
HETATM   11  C6  UNL     1      -1.045  -0.793  -1.081  1.00  0.00     0.076 A 
HETATM   12  C3  UNL     1      -2.053  -0.386  -0.259  1.00  0.00     0.129 A 
HETATM   13  N2  UNL     1      -3.018  -1.274   0.084  1.00  0.00    -0.293 N 
HETATM   14  C4  UNL     1      -3.010  -2.538  -0.359  1.00  0.00     0.327 A 
ATOM     15  H2  UNL     1      -3.773  -0.970   0.698  1.00  0.00     0.172 HD
HETATM   16  O3  UNL     1      -3.902  -3.350  -0.036  1.00  0.00    -0.247 OA
HETATM   17  N3  UNL     1      -2.027  -2.955  -1.167  1.00  0.00    -0.288 N 
HETATM   18  C5  UNL     1      -1.058  -2.132  -1.538  1.00  0.00     0.159 A 
ATOM     19  H3  UNL     1      -2.024  -3.919  -1.501  1.00  0.00     0.172 HD
BRANCH  12  20
HETATM   20  N1  UNL     1      -2.183   0.785   0.222  1.00  0.00    -0.287 N 
HETATM   21  C2  UNL     1      -3.239   1.194   1.063  1.00  0.00     0.365 C 
HETATM   22  O2  UNL     1      -3.028   1.246   2.301  1.00  0.00    -0.238 OA
ATOM     23  H1  UNL     1      -1.473   1.477  -0.018  1.00  0.00     0.172 HD
BRANCH  21  24
HETATM   24  O1  UNL     1      -4.506   1.547   0.622  1.00  0.00    -0.309 OA
HETATM   25  C1  UNL     1      -5.536   1.952   1.506  1.00  0.00     0.215 C 
ENDBRANCH  21  24
ENDBRANCH  12  20
BRANCH  18  26
HETATM   26  O4  UNL     1      -0.065  -2.623  -2.388  1.00  0.00    -0.345 OA
ATOM     27  H4  UNL     1       0.630  -2.033  -2.654  1.00  0.00     0.219 HD
ENDBRANCH  18  26
ENDBRANCH  10  11
ENDBRANCH   1  10
BRANCH   4  28
HETATM   28  O5  UNL     1       2.705   2.929   1.448  1.00  0.00    -0.196 OA
BRANCH  28  29
HETATM   29  N5  UNL     1       2.175   4.173   1.439  1.00  0.00    -0.167 N 
ATOM     30  H5  UNL     1       2.054   4.629   0.535  1.00  0.00     0.224 HD
BRANCH  29  31
HETATM   31  O6  UNL     1       1.822   4.805   2.461  1.00  0.00    -0.269 OA
ATOM     32  H6  UNL     1       1.450   5.679   2.455  1.00  0.00     0.246 HD
ENDBRANCH  29  31
ENDBRANCH  28  29
ENDBRANCH   4  28
BRANCH   8  33
HETATM   33  C12 UNL     1       3.148  -2.382   0.033  1.00  0.00     0.105 C 
BRANCH  33  34
HETATM   34  C13 UNL     1       4.507  -2.062   0.560  1.00  0.00     0.209 C 
BRANCH  34  35
HETATM   35  O7  UNL     1       5.278  -1.326  -0.337  1.00  0.00    -0.396 OA
ATOM     36  H7  UNL     1       6.143  -1.122  -0.002  1.00  0.00     0.209 HD
ENDBRANCH  34  35
ENDBRANCH  33  34
ENDBRANCH   8  33
TORSDOF 11
