REMARK  9 active torsions:
REMARK  status: ('A' for Active; 'I' for Inactive)
REMARK    1  A    between atoms: N1_2  and  C2_3 
REMARK       I    between atoms: N1_2  and  C8_10 
REMARK    2  A    between atoms: C2_3  and  C3_4 
REMARK    3  A    between atoms: C8_10  and  C9_12 
REMARK       I    between atoms: N2_16  and  C13_17 
REMARK    4  A    between atoms: C13_17  and  C14_19 
REMARK    5  A    between atoms: C14_19  and  C15_20 
REMARK    6  A    between atoms: C15_20  and  C16_21 
REMARK    7  A    between atoms: C17_26  and  C18_27 
REMARK    8  A    between atoms: C18_27  and  C19_28 
REMARK    9  A    between atoms: C19_28  and  C20_29 
ROOT
HETATM    1  C9  UNL     1       3.509   0.271   0.705  1.00  0.00     0.179 C 
HETATM    2  C10 UNL     1       3.904   1.195   1.812  1.00  0.00     0.037 C 
HETATM    3  C11 UNL     1       2.801   1.082   2.862  1.00  0.00     0.022 C 
HETATM    4  C12 UNL     1       1.630   0.580   2.064  1.00  0.00     0.127 C 
HETATM    5  N2  UNL     1       2.039   0.440   0.698  1.00  0.00    -0.339 N 
HETATM    6  C13 UNL     1       1.216   0.450  -0.455  1.00  0.00     0.220 C 
HETATM    7  O3  UNL     1       1.677   0.315  -1.615  1.00  0.00    -0.273 OA
ENDROOT
BRANCH   6   8
HETATM    8  C14 UNL     1      -0.250   0.627  -0.306  1.00  0.00     0.110 C 
BRANCH   8   9
HETATM    9  C15 UNL     1      -0.958   0.508  -1.663  1.00  0.00     0.087 C 
BRANCH   9  10
HETATM   10  C16 UNL     1      -2.410   0.681  -1.502  1.00  0.00     0.099 A 
HETATM   11  N3  UNL     1      -3.064   1.848  -1.585  1.00  0.00    -0.287 N 
HETATM   12  N4  UNL     1      -4.357   1.601  -1.371  1.00  0.00    -0.287 N 
ATOM     13  H3  UNL     1      -2.648   2.759  -1.777  1.00  0.00     0.188 HD
HETATM   14  C17 UNL     1      -4.538   0.287  -1.151  1.00  0.00     0.099 A 
ATOM     15  H4  UNL     1      -5.097   2.303  -1.374  1.00  0.00     0.188 HD
HETATM   16  N5  UNL     1      -3.320  -0.262  -1.238  1.00  0.00    -0.329 N 
HETATM   17  C25 UNL     1      -3.023  -1.664  -1.072  1.00  0.00     0.159 C 
BRANCH  14  18
HETATM   18  C18 UNL     1      -5.812  -0.444  -0.863  1.00  0.00     0.078 C 
BRANCH  18  19
HETATM   19  C19 UNL     1      -6.913   0.564  -0.863  1.00  0.00     0.012 C 
BRANCH  19  20
HETATM   20  C20 UNL     1      -8.270  -0.015  -0.579  1.00  0.00    -0.014 C 
HETATM   21  C21 UNL     1      -8.353  -0.682   0.759  1.00  0.00     0.004 C 
HETATM   22  C22 UNL     1      -9.355   0.103   1.581  1.00  0.00     0.000 C 
HETATM   23  C23 UNL     1      -9.302   1.460   0.938  1.00  0.00     0.000 C 
HETATM   24  C24 UNL     1      -9.266   1.125  -0.537  1.00  0.00     0.004 C 
ENDBRANCH  19  20
ENDBRANCH  18  19
ENDBRANCH  14  18
ENDBRANCH   9  10
ENDBRANCH   8   9
ENDBRANCH   6   8
BRANCH   1  25
HETATM   25  C8  UNL     1       3.825  -1.159   0.933  1.00  0.00     0.242 C 
HETATM   26  N1  UNL     1       4.809  -1.891   0.253  1.00  0.00    -0.352 N 
HETATM   27  C1  UNL     1       4.902  -3.339   0.573  1.00  0.00     0.152 C 
HETATM   28  O2  UNL     1       3.137  -1.807   1.819  1.00  0.00    -0.271 OA
BRANCH  26  29
HETATM   29  C2  UNL     1       5.765  -1.415  -0.678  1.00  0.00     0.157 C 
BRANCH  29  30
HETATM   30  C3  UNL     1       7.135  -1.160  -0.191  1.00  0.00     0.139 C 
HETATM   31  C4  UNL     1       7.356  -0.369   1.030  1.00  0.00     0.034 C 
HETATM   32  C5  UNL     1       7.716   1.070   0.764  1.00  0.00     0.005 C 
HETATM   33  C6  UNL     1       7.151   1.526  -0.543  1.00  0.00     0.026 C 
HETATM   34  C7  UNL     1       7.535   0.595  -1.638  1.00  0.00     0.168 C 
HETATM   35  O1  UNL     1       7.945  -0.659  -1.217  1.00  0.00    -0.384 OA
ENDBRANCH  29  30
ENDBRANCH  26  29
ENDBRANCH   1  25
TORSDOF 9
