REMARK  9 active torsions:
REMARK  status: ('A' for Active; 'I' for Inactive)
REMARK    1  A    between atoms: C3_3  and  C4_4 
REMARK    2  A    between atoms: C4_4  and  N1_5 
REMARK    3  A    between atoms: C10_12  and  O1_13 
REMARK    4  A    between atoms: O1_13  and  C11_14 
REMARK    5  A    between atoms: C11_14  and  C12_15 
REMARK    6  A    between atoms: C12_15  and  C13_16 
REMARK    7  A    between atoms: C13_16  and  N2_17 
REMARK    8  A    between atoms: N3_23  and  C19_24 
REMARK    9  A    between atoms: C19_24  and  C20_25 
ROOT
HETATM    1  C12 UNL     1      -0.286  -0.348  -1.044  1.00  0.00     0.057 C 
ENDROOT
BRANCH   1   2
HETATM    2  C11 UNL     1       1.173  -0.679  -0.769  1.00  0.00     0.177 C 
BRANCH   2   3
HETATM    3  O1  UNL     1       1.794  -1.215  -1.929  1.00  0.00    -0.351 OA
BRANCH   3   4
HETATM    4  C10 UNL     1       3.120  -1.596  -1.951  1.00  0.00     0.069 A 
HETATM    5  C9  UNL     1       3.988  -1.508  -0.887  1.00  0.00     0.045 A 
HETATM    6  C3  UNL     1       5.298  -1.890  -0.929  1.00  0.00    -0.028 A 
HETATM    7  C2  UNL     1       5.757  -2.398  -2.142  1.00  0.00     0.009 A 
HETATM    8  C1  UNL     1       4.944  -2.514  -3.247  1.00  0.00     0.003 A 
HETATM    9  C25 UNL     1       3.630  -2.104  -3.119  1.00  0.00     0.037 A 
BRANCH   6  10
HETATM   10  C4  UNL     1       6.251  -1.833   0.193  1.00  0.00     0.311 C 
BRANCH  10  11
HETATM   11  N1  UNL     1       7.083  -0.627   0.140  1.00  0.00     0.094 N 
HETATM   12  C5  UNL     1       8.092  -0.711   1.211  1.00  0.00     0.283 C 
HETATM   13  C6  UNL     1       9.308   0.031   0.664  1.00  0.00     0.104 C 
HETATM   14  S1  UNL     1       8.805   1.751   0.394  1.00  0.00    -0.166 SA
HETATM   15  C7  UNL     1       7.048   1.788   0.043  1.00  0.00     0.104 C 
HETATM   16  C8  UNL     1       6.302   0.551   0.465  1.00  0.00     0.283 C 
ENDBRANCH  10  11
ENDBRANCH   6  10
ENDBRANCH   3   4
ENDBRANCH   2   3
ENDBRANCH   1   2
BRANCH   1  17
HETATM   17  C13 UNL     1      -0.852   0.204   0.234  1.00  0.00     0.277 C 
BRANCH  17  18
HETATM   18  N2  UNL     1      -2.223   0.586   0.172  1.00  0.00     0.108 N 
HETATM   19  C14 UNL     1      -2.474   1.743  -0.662  1.00  0.00     0.306 C 
HETATM   20  C15 UNL     1      -3.179   2.772   0.225  1.00  0.00     0.153 C 
HETATM   21  C16 UNL     1      -2.979   2.491   1.685  1.00  0.00     0.071 C 
HETATM   22  O3  UNL     1      -4.500   2.401   0.289  1.00  0.00    -0.373 OA
HETATM   23  C17 UNL     1      -4.414   1.955   1.583  1.00  0.00     0.163 C 
HETATM   24  C18 UNL     1      -4.324   0.453   1.731  1.00  0.00     0.097 C 
HETATM   25  N3  UNL     1      -4.416  -0.304   0.567  1.00  0.00    -0.343 N 
HETATM   26  C24 UNL     1      -3.139  -0.499  -0.113  1.00  0.00     0.401 C 
BRANCH  25  27
HETATM   27  C19 UNL     1      -5.527  -0.358  -0.262  1.00  0.00     0.097 C 
BRANCH  27  28
HETATM   28  C20 UNL     1      -6.782  -1.016   0.186  1.00  0.00     0.160 C 
HETATM   29  C21 UNL     1      -7.633  -0.279   1.167  1.00  0.00     0.039 C 
HETATM   30  C22 UNL     1      -8.036   0.943   0.365  1.00  0.00     0.029 C 
HETATM   31  C23 UNL     1      -8.080   0.358  -1.036  1.00  0.00     0.168 C 
HETATM   32  O2  UNL     1      -7.667  -0.946  -0.948  1.00  0.00    -0.381 OA
ENDBRANCH  27  28
ENDBRANCH  25  27
ENDBRANCH  17  18
ENDBRANCH   1  17
TORSDOF 9
