REMARK  8 active torsions:
REMARK  status: ('A' for Active; 'I' for Inactive)
REMARK    1  A    between atoms: C2_2  and  C3_3 
REMARK    2  A    between atoms: C3_3  and  C4_4 
REMARK    3  A    between atoms: C4_4  and  C5_5 
REMARK    4  A    between atoms: C7_7  and  C8_8 
REMARK    5  A    between atoms: C8_8  and  C9_9 
REMARK    6  A    between atoms: C9_9  and  C10_10 
REMARK    7  A    between atoms: C10_10  and  C11_11 
REMARK    8  A    between atoms: C17_19  and  O3_20 
ROOT
HETATM    1  C11 UNL     1      -1.491  -1.327  -1.283  1.00  0.00     0.041 C 
HETATM    2  C12 UNL     1      -2.389  -0.879  -2.455  1.00  0.00     0.175 C 
HETATM    3  O1  UNL     1      -3.500  -0.238  -1.849  1.00  0.00    -0.382 OA
HETATM    4  C13 UNL     1      -2.894   0.396  -0.848  1.00  0.00     0.157 C 
HETATM    5  C14 UNL     1      -2.246  -0.810  -0.139  1.00  0.00     0.157 C 
HETATM    6  O2  UNL     1      -1.693  -0.182   0.900  1.00  0.00    -0.377 OA
HETATM    7  C15 UNL     1      -2.744   0.575   1.448  1.00  0.00     0.131 C 
HETATM    8  C16 UNL     1      -3.719  -0.208   2.240  1.00  0.00     0.064 C 
HETATM    9  C17 UNL     1      -5.017   0.547   2.034  1.00  0.00     0.124 C 
HETATM   10  C18 UNL     1      -4.977   0.838   0.533  1.00  0.00     0.019 C 
HETATM   11  C19 UNL     1      -5.722  -0.177  -0.254  1.00  0.00     0.013 C 
HETATM   12  C20 UNL     1      -3.569   1.054   0.240  1.00  0.00     0.052 C 
ENDROOT
BRANCH   1  13
HETATM   13  C10 UNL     1      -0.148  -0.717  -1.418  1.00  0.00     0.010 C 
BRANCH  13  14
HETATM   14  C9  UNL     1       0.871  -1.047  -0.399  1.00  0.00     0.007 C 
BRANCH  14  15
HETATM   15  C8  UNL     1       2.139  -0.302  -0.791  1.00  0.00     0.067 C 
BRANCH  15  16
HETATM   16  C7  UNL     1       3.234  -0.548   0.148  1.00  0.00     0.078 A 
HETATM   17  C6  UNL     1       4.520   0.001   0.046  1.00  0.00     0.066 A 
HETATM   18  C5  UNL     1       5.283  -0.444   1.094  1.00  0.00     0.057 A 
HETATM   19  N1  UNL     1       4.387  -1.259   1.788  1.00  0.00    -0.261 N 
HETATM   20  O4  UNL     1       3.254  -1.277   1.208  1.00  0.00    -0.242 OA
ATOM     21  H1  UNL     1       4.610  -1.770   2.642  1.00  0.00     0.195 HD
BRANCH  18  22
HETATM   22  C4  UNL     1       6.639  -0.231   1.513  1.00  0.00     0.031 C 
BRANCH  22  23
HETATM   23  C3  UNL     1       7.568   0.465   1.009  1.00  0.00     0.002 C 
BRANCH  23  24
HETATM   24  C2  UNL     1       7.592   1.289  -0.164  1.00  0.00    -0.010 C 
HETATM   25  C1  UNL     1       8.747   1.935  -0.476  1.00  0.00     0.011 C 
ENDBRANCH  23  24
ENDBRANCH  22  23
ENDBRANCH  18  22
ENDBRANCH  15  16
ENDBRANCH  14  15
ENDBRANCH  13  14
ENDBRANCH   1  13
BRANCH   9  26
HETATM   26  O3  UNL     1      -6.129  -0.183   2.388  1.00  0.00    -0.395 OA
ATOM     27  H3  UNL     1      -6.943   0.290   2.259  1.00  0.00     0.210 HD
ENDBRANCH   9  26
TORSDOF 8
