REMARK  3 active torsions:
REMARK  status: ('A' for Active; 'I' for Inactive)
REMARK    1  A    between atoms: C11_11  and  O1_12 
REMARK    2  A    between atoms: C11_11  and  O2_14 
REMARK    3  A    between atoms: O2_14  and  O3_15 
ROOT
HETATM    1  C1  UNL     1      -2.767   1.034  -1.231  1.00  0.00     0.015 C 
HETATM    2  C2  UNL     1      -2.664   0.108  -0.078  1.00  0.00    -0.044 C 
HETATM    3  C3  UNL     1      -3.987   0.044   0.638  1.00  0.00     0.015 C 
HETATM    4  C4  UNL     1      -2.392  -1.355  -0.589  1.00  0.00     0.013 C 
HETATM    5  C5  UNL     1      -0.986  -1.313  -0.333  1.00  0.00    -0.013 C 
HETATM    6  C6  UNL     1       0.194  -2.049  -0.388  1.00  0.00     0.010 C 
HETATM    7  C7  UNL     1       1.218  -1.045   0.195  1.00  0.00    -0.005 C 
HETATM    8  C8  UNL     1       2.472  -1.286  -0.681  1.00  0.00     0.005 C 
HETATM    9  C9  UNL     1       3.663  -0.597  -0.085  1.00  0.00     0.006 C 
HETATM   10  C10 UNL     1       3.351   0.885  -0.048  1.00  0.00     0.072 C 
HETATM   11  C11 UNL     1       2.109   1.081   0.744  1.00  0.00     0.199 C 
HETATM   12  C12 UNL     1       0.895   0.383   0.082  1.00  0.00     0.055 C 
HETATM   13  C13 UNL     1      -0.312   1.074   0.466  1.00  0.00     0.016 C 
HETATM   14  C14 UNL     1      -1.564   0.423   0.896  1.00  0.00    -0.006 C 
HETATM   15  C15 UNL     1      -1.125  -0.984   1.157  1.00  0.00     0.010 C 
ENDROOT
BRANCH  11  16
HETATM   16  O1  UNL     1       2.224   0.551   2.003  1.00  0.00    -0.363 OA
ATOM     17  H1  UNL     1       1.430   0.676   2.509  1.00  0.00     0.213 HD
ENDBRANCH  11  16
BRANCH  11  18
HETATM   18  O2  UNL     1       1.798   2.439   0.740  1.00  0.00    -0.203 OA
BRANCH  18  19
HETATM   19  O3  UNL     1       1.623   2.791  -0.528  1.00  0.00    -0.247 OA
ATOM     20  H3  UNL     1       1.411   3.717  -0.531  1.00  0.00     0.253 HD
ENDBRANCH  18  19
ENDBRANCH  11  18
TORSDOF 3
