REMARK  8 active torsions:
REMARK  status: ('A' for Active; 'I' for Inactive)
REMARK    1  A    between atoms: N1_1  and  C1_4 
REMARK    2  A    between atoms: C2_7  and  N3_8 
REMARK    3  A    between atoms: C3_11  and  N4_12 
REMARK    4  A    between atoms: C4_15  and  C5_16 
REMARK    5  A    between atoms: C6_17  and  C7_18 
REMARK       I    between atoms: C7_18  and  N5_20 
REMARK    6  A    between atoms: N5_20  and  C8_22 
REMARK    7  A    between atoms: C8_22  and  C9_23 
REMARK    8  A    between atoms: C9_23  and  N6_24 
ROOT
HETATM    1  C1  UNL     1       5.385   1.760  -0.113  1.00  0.00     0.678 A 
HETATM    2  N2  UNL     1       6.416   0.901  -0.077  1.00  0.00    -0.168 N 
ATOM      3  H2  UNL     1       7.378   1.241  -0.065  1.00  0.00     0.186 HD
HETATM    4  C2  UNL     1       6.153  -0.419  -0.057  1.00  0.00     0.223 A 
HETATM    5  C3  UNL     1       4.844  -0.847  -0.074  1.00  0.00     0.180 A 
HETATM    6  C4  UNL     1       3.763   0.044  -0.111  1.00  0.00     0.086 A 
HETATM    7  N8  UNL     1       4.093   1.338  -0.130  1.00  0.00    -0.190 N 
ATOM      8  H8  UNL     1       3.349   2.035  -0.158  1.00  0.00     0.184 HD
ENDROOT
BRANCH   6   9
HETATM    9  C5  UNL     1       2.405  -0.476  -0.128  1.00  0.00     0.038 C 
HETATM   10  C6  UNL     1       1.363   0.307  -0.153  1.00  0.00     0.076 C 
BRANCH  10  11
HETATM   11  C7  UNL     1       0.025  -0.267  -0.169  1.00  0.00     0.241 C 
HETATM   12  O5  UNL     1      -0.160  -1.519  -0.162  1.00  0.00    -0.269 OA
HETATM   13  N5  UNL     1      -1.112   0.565  -0.192  1.00  0.00    -0.356 N 
ATOM     14  H5  UNL     1      -0.996   1.578  -0.197  1.00  0.00     0.162 HD
BRANCH  13  15
HETATM   15  C8  UNL     1      -2.428   0.002  -0.208  1.00  0.00     0.143 C 
BRANCH  15  16
HETATM   16  C9  UNL     1      -3.504   1.075  -0.226  1.00  0.00     0.153 C 
BRANCH  16  17
HETATM   17  N6  UNL     1      -4.836   0.506  -0.244  1.00  0.00    -0.308 N 
HETATM   18  C10 UNL     1      -5.467   0.245   0.921  1.00  0.00     0.101 A 
HETATM   19  C11 UNL     1      -6.744  -0.299   0.920  1.00  0.00     0.092 A 
HETATM   20  C12 UNL     1      -7.382  -0.579  -0.269  1.00  0.00     0.250 A 
HETATM   21  O6  UNL     1      -8.550  -1.076  -0.299  1.00  0.00    -0.268 OA
HETATM   22  N7  UNL     1      -6.714  -0.301  -1.398  1.00  0.00    -0.275 N 
HETATM   23  C13 UNL     1      -5.476   0.227  -1.410  1.00  0.00     0.329 A 
ATOM     24  H7  UNL     1      -7.166  -0.499  -2.291  1.00  0.00     0.173 HD
HETATM   25  O7  UNL     1      -4.886   0.472  -2.492  1.00  0.00    -0.246 OA
ENDBRANCH  16  17
ENDBRANCH  15  16
ENDBRANCH  13  15
ENDBRANCH  10  11
ENDBRANCH   6   9
BRANCH   5  26
HETATM   26  N4  UNL     1       4.527  -2.237  -0.051  1.00  0.00    -0.109 N 
HETATM   27  O3  UNL     1       4.630  -2.904   0.996  1.00  0.00    -0.532 OA
HETATM   28  O4  UNL     1       4.091  -2.888  -1.176  1.00  0.00    -0.532 OA
ENDBRANCH   5  26
BRANCH   4  29
HETATM   29  N3  UNL     1       7.187  -1.396  -0.020  1.00  0.00    -0.095 N 
HETATM   30  O1  UNL     1       6.981  -2.484  -0.588  1.00  0.00    -0.530 OA
HETATM   31  O2  UNL     1       8.388  -1.194   0.602  1.00  0.00    -0.530 OA
ENDBRANCH   4  29
BRANCH   1  32
HETATM   32  N1  UNL     1       5.593   3.025  -0.134  1.00  0.00    -0.234 N 
ATOM     33  H12 UNL     1       6.563   3.342  -0.121  1.00  0.00     0.174 HD
ATOM     34  H11 UNL     1       4.810   3.678  -0.161  1.00  0.00     0.174 HD
ENDBRANCH   1  32
TORSDOF 8
