REMARK  7 active torsions:
REMARK  status: ('A' for Active; 'I' for Inactive)
REMARK    1  A    between atoms: C4_4  and  C5_6 
REMARK       I    between atoms: C5_6  and  N1_8 
REMARK    2  A    between atoms: N1_8  and  C6_10 
REMARK    3  A    between atoms: C12_17  and  C13_18 
REMARK       I    between atoms: C13_18  and  N2_20 
REMARK    4  A    between atoms: N2_20  and  C14_22 
REMARK    5  A    between atoms: C14_22  and  C16_24 
REMARK       I    between atoms: C16_24  and  N3_26 
REMARK    6  A    between atoms: C22_32  and  N4_33 
REMARK    7  A    between atoms: N4_33  and  S1_35 
ROOT
HETATM    1  C13 UNL     1      -2.772   0.272  -1.336  1.00  0.00     0.254 C 
HETATM    2  O2  UNL     1      -2.907  -0.137  -0.174  1.00  0.00    -0.268 OA
HETATM    3  N2  UNL     1      -1.519   0.778  -1.729  1.00  0.00    -0.344 N 
ATOM      4  H2  UNL     1      -1.392   1.134  -2.676  1.00  0.00     0.163 HD
ENDROOT
BRANCH   3   5
HETATM    5  C14 UNL     1      -0.399   0.797  -0.791  1.00  0.00     0.173 C 
HETATM    6  C15 UNL     1      -0.546   2.139  -0.049  1.00  0.00     0.042 C 
BRANCH   5   7
HETATM    7  C16 UNL     1       0.901   0.743  -1.454  1.00  0.00     0.242 C 
HETATM    8  O3  UNL     1       0.893   0.759  -2.741  1.00  0.00    -0.271 OA
HETATM    9  N3  UNL     1       2.175   0.683  -0.849  1.00  0.00    -0.350 N 
HETATM   10  C17 UNL     1       3.280   0.796  -1.776  1.00  0.00     0.130 C 
HETATM   11  C27 UNL     1       2.205   0.507   0.565  1.00  0.00     0.130 C 
HETATM   12  C18 UNL     1       4.070  -0.467  -1.969  1.00  0.00     0.059 C 
HETATM   13  C19 UNL     1       4.861  -0.664  -0.730  1.00  0.00    -0.050 A 
HETATM   14  C20 UNL     1       6.202  -0.745  -0.999  1.00  0.00     0.010 A 
HETATM   15  C25 UNL     1       4.361  -0.769   0.547  1.00  0.00    -0.048 A 
HETATM   16  C21 UNL     1       7.107  -0.944   0.046  1.00  0.00     0.030 A 
HETATM   17  C22 UNL     1       6.642  -1.055   1.331  1.00  0.00     0.042 A 
HETATM   18  C24 UNL     1       5.265  -0.964   1.564  1.00  0.00     0.037 A 
HETATM   19  C26 UNL     1       2.993  -0.702   1.030  1.00  0.00     0.059 C 
BRANCH  17  20
HETATM   20  N4  UNL     1       7.501  -1.276   2.455  1.00  0.00    -0.285 N 
ATOM     21  H4  UNL     1       7.262  -2.030   3.099  1.00  0.00     0.178 HD
BRANCH  20  22
HETATM   22  S1  UNL     1       8.907  -0.350   2.786  1.00  0.00     0.227 S 
HETATM   23  C23 UNL     1      10.130  -0.455   1.507  1.00  0.00     0.186 C 
HETATM   24  O4  UNL     1       9.479  -0.842   4.104  1.00  0.00    -0.206 OA
HETATM   25  O5  UNL     1       8.528   1.118   2.969  1.00  0.00    -0.206 OA
ENDBRANCH  20  22
ENDBRANCH  17  20
ENDBRANCH   5   7
ENDBRANCH   3   5
BRANCH   1  26
HETATM   26  C12 UNL     1      -3.872   0.246  -2.281  1.00  0.00     0.060 A 
HETATM   27  C6  UNL     1      -5.159  -0.132  -1.880  1.00  0.00     0.057 A 
HETATM   28  C7  UNL     1      -6.225  -0.243  -2.734  1.00  0.00    -0.033 A 
HETATM   29  C8  UNL     1      -7.560  -0.662  -2.227  1.00  0.00     0.050 C 
HETATM   30  C9  UNL     1      -5.994   0.037  -4.070  1.00  0.00     0.033 A 
HETATM   31  C10 UNL     1      -4.750   0.413  -4.518  1.00  0.00     0.035 A 
HETATM   32 CL2  UNL     1      -4.484   0.760  -6.224  1.00  0.00    -0.084 Cl
HETATM   33  C11 UNL     1      -3.697   0.518  -3.634  1.00  0.00     0.043 A 
BRANCH  27  34
HETATM   34  N1  UNL     1      -5.427  -0.354  -0.478  1.00  0.00    -0.321 N 
HETATM   35  C5  UNL     1      -5.737   0.755   0.317  1.00  0.00     0.268 C 
HETATM   36  O1  UNL     1      -5.734   1.883  -0.315  1.00  0.00    -0.266 OA
ATOM     37  H1  UNL     1      -5.391  -1.292  -0.079  1.00  0.00     0.169 HD
BRANCH  35  38
HETATM   38  C4  UNL     1      -6.052   0.853   1.712  1.00  0.00     0.103 C 
HETATM   39  C2  UNL     1      -6.167  -0.074   2.612  1.00  0.00    -0.060 C 
HETATM   40  C1  UNL     1      -6.465   0.313   4.036  1.00  0.00     0.045 C 
HETATM   41  C3  UNL     1      -6.044  -1.508   2.349  1.00  0.00     0.045 C 
HETATM   42 CL1  UNL     1      -6.291   2.523   2.380  1.00  0.00    -0.078 Cl
ENDBRANCH  35  38
ENDBRANCH  27  34
ENDBRANCH   1  26
TORSDOF 7
