REMARK  4 active torsions:
REMARK  status: ('A' for Active; 'I' for Inactive)
REMARK    1  A    between atoms: C2_2  and  O1_3 
REMARK    2  A    between atoms: O1_3  and  C3_4 
REMARK    3  A    between atoms: C3_4  and  C4_6 
REMARK    4  A    between atoms: C6_9  and  N1_10 
ROOT
HETATM    1  N1  UNL     1       0.811   1.694  -0.369  1.00  0.00    -0.229 N 
HETATM    2  N2  UNL     1       0.328   2.458  -1.313  1.00  0.00    -0.295 N 
ATOM      3  H2  UNL     1       0.889   3.117  -1.852  1.00  0.00     0.187 HD
HETATM    4  C7  UNL     1      -0.995   2.276  -1.493  1.00  0.00     0.033 A 
HETATM    5  C8  UNL     1      -1.827   2.986  -2.480  1.00  0.00     0.070 C 
HETATM    6  C9  UNL     1      -1.400   1.303  -0.575  1.00  0.00     0.021 A 
HETATM    7  C10 UNL     1      -0.248   0.983   0.083  1.00  0.00     0.137 A 
HETATM    8  N3  UNL     1      -0.240  -0.065   1.062  1.00  0.00    -0.347 N 
ATOM      9  H3  UNL     1       0.632  -0.276   1.548  1.00  0.00     0.167 HD
HETATM   10  C11 UNL     1      -1.271  -0.736   1.345  1.00  0.00    -0.007 C 
HETATM   11  C12 UNL     1      -1.304  -1.838   2.374  1.00  0.00     0.053 C 
HETATM   12  C13 UNL     1      -1.596  -3.101   1.582  1.00  0.00     0.006 C 
HETATM   13  C14 UNL     1      -1.628  -2.799   0.097  1.00  0.00     0.001 C 
HETATM   14  C15 UNL     1      -2.654  -1.793  -0.297  1.00  0.00     0.011 C 
HETATM   15  C16 UNL     1      -2.521  -0.551   0.597  1.00  0.00     0.044 C 
HETATM   16  C17 UNL     1      -2.665   0.714  -0.194  1.00  0.00     0.001 C 
HETATM   17  C18 UNL     1      -3.644   0.456  -1.303  1.00  0.00     0.015 C 
HETATM   18  C19 UNL     1      -4.713   1.523  -1.234  1.00  0.00     0.001 C 
HETATM   19  C20 UNL     1      -4.443   2.377  -0.044  1.00  0.00     0.001 C 
HETATM   20  C21 UNL     1      -3.367   1.718   0.737  1.00  0.00     0.015 C 
ENDROOT
BRANCH   1  21
HETATM   21  C6  UNL     1       2.173   1.614   0.102  1.00  0.00     0.138 A 
HETATM   22  S1  UNL     1       3.077   2.787   0.948  1.00  0.00    -0.078 SA
HETATM   23  C5  UNL     1       4.539   1.933   1.119  1.00  0.00     0.072 A 
HETATM   24  C4  UNL     1       4.275   0.737   0.501  1.00  0.00     0.087 A 
HETATM   25  C22 UNL     1       3.055   0.576  -0.022  1.00  0.00     0.168 A 
HETATM   26  F1  UNL     1       2.640  -0.573  -0.676  1.00  0.00    -0.202 F 
BRANCH  24  27
HETATM   27  C3  UNL     1       5.346  -0.299   0.448  1.00  0.00     0.297 C 
HETATM   28  O2  UNL     1       6.478  -0.105   0.953  1.00  0.00    -0.259 OA
BRANCH  27  29
HETATM   29  O1  UNL     1       5.119  -1.528  -0.171  1.00  0.00    -0.318 OA
BRANCH  29  30
HETATM   30  C2  UNL     1       6.167  -2.479  -0.195  1.00  0.00     0.174 C 
HETATM   31  C1  UNL     1       7.381  -1.918  -0.922  1.00  0.00     0.034 C 
ENDBRANCH  29  30
ENDBRANCH  27  29
ENDBRANCH  24  27
ENDBRANCH   1  21
TORSDOF 4
