REMARK  5 active torsions:
REMARK  status: ('A' for Active; 'I' for Inactive)
REMARK    1  A    between atoms: N1_1  and  C1_4 
REMARK    2  A    between atoms: N5_17  and  C6_18 
REMARK    3  A    between atoms: C6_18  and  O3_19 
REMARK    4  A    between atoms: O3_19  and  C7_20 
REMARK    5  A    between atoms: C7_20  and  N6_21 
ROOT
HETATM    1  C1  UNL     1      -0.682  -1.288   1.259  1.00  0.00     0.174 A 
HETATM    2  C2  UNL     1      -1.897  -1.957   1.057  1.00  0.00     0.291 A 
HETATM    3  O1  UNL     1      -2.180  -2.987   1.727  1.00  0.00    -0.264 OA
HETATM    4  N2  UNL     1      -2.719  -1.444   0.129  1.00  0.00    -0.303 N 
ATOM      5  H2  UNL     1      -3.609  -1.913  -0.038  1.00  0.00     0.171 HD
HETATM    6  C3  UNL     1      -2.435  -0.346  -0.594  1.00  0.00     0.157 A 
HETATM    7  N3  UNL     1      -3.061   0.357  -1.557  1.00  0.00    -0.291 N 
ATOM      8  H3  UNL     1      -3.980   0.127  -1.936  1.00  0.00     0.172 HD
HETATM    9  C4  UNL     1      -2.314   1.402  -1.952  1.00  0.00     0.327 A 
HETATM   10  O2  UNL     1      -2.593   2.272  -2.836  1.00  0.00    -0.247 OA
HETATM   11  N4  UNL     1      -1.194   1.347  -1.214  1.00  0.00    -0.291 N 
ATOM     12  H4  UNL     1      -0.423   2.012  -1.281  1.00  0.00     0.172 HD
HETATM   13  C5  UNL     1      -1.227   0.282  -0.363  1.00  0.00     0.160 A 
HETATM   14  N5  UNL     1      -0.370  -0.194   0.556  1.00  0.00    -0.289 N 
ENDROOT
BRANCH  14  15
HETATM   15  C6  UNL     1       0.885   0.468   0.799  1.00  0.00     0.304 C 
BRANCH  15  16
HETATM   16  O3  UNL     1       1.910  -0.045  -0.004  1.00  0.00    -0.345 OA
BRANCH  16  17
HETATM   17  C7  UNL     1       3.117   0.605   0.242  1.00  0.00     0.398 C 
BRANCH  17  18
HETATM   18  N6  UNL     1       4.111   0.002  -0.635  1.00  0.00    -0.058 N 
ATOM     19  H63 UNL     1       4.173  -1.011  -0.534  1.00  0.00     0.276 HD
ATOM     20  H62 UNL     1       3.840   0.018  -1.618  1.00  0.00     0.276 HD
ATOM     21  H61 UNL     1       4.995   0.478  -0.455  1.00  0.00     0.276 HD
ENDBRANCH  17  18
ENDBRANCH  16  17
ENDBRANCH  15  16
ENDBRANCH  14  15
BRANCH   1  22
HETATM   22  N1  UNL     1       0.074  -1.828   2.161  1.00  0.00    -0.381 N 
ATOM     23  H12 UNL     1      -0.164  -2.662   2.697  1.00  0.00     0.157 HD
ATOM     24  H11 UNL     1       0.958  -1.341   2.308  1.00  0.00     0.157 HD
ENDBRANCH   1  22
TORSDOF 5
