REMARK  7 active torsions:
REMARK  status: ('A' for Active; 'I' for Inactive)
REMARK    1  A    between atoms: C2_2  and  N1_3 
REMARK    2  A    between atoms: N1_3  and  C3_5 
REMARK    3  A    between atoms: C4_8  and  N3_9 
REMARK    4  A    between atoms: N3_9  and  N4_11 
REMARK    5  A    between atoms: N4_11  and  C5_13 
REMARK    6  A    between atoms: C5_13  and  C6_14 
REMARK    7  A    between atoms: C8_18  and  C9_19 
ROOT
HETATM    1  C3  UNL     1      -3.979   0.089   0.831  1.00  0.00     0.141 A 
HETATM    2  N2  UNL     1      -2.922   0.564   0.158  1.00  0.00    -0.174 N 
ATOM      3  H2  UNL     1      -3.047   1.371  -0.453  1.00  0.00     0.186 HD
HETATM    4  C4  UNL     1      -1.696   0.007   0.264  1.00  0.00     0.699 A 
HETATM    5  N7  UNL     1      -1.468  -1.074   1.066  1.00  0.00    -0.179 N 
ATOM      6  H7  UNL     1      -0.535  -1.481   1.134  1.00  0.00     0.185 HD
HETATM    7  C11 UNL     1      -2.482  -1.588   1.757  1.00  0.00     0.154 A 
HETATM    8  C12 UNL     1      -2.277  -2.740   2.622  1.00  0.00     0.120 C 
HETATM    9  N8  UNL     1      -2.111  -3.661   3.303  1.00  0.00    -0.190 NA
HETATM   10  C13 UNL     1      -3.733  -1.017   1.647  1.00  0.00     0.126 A 
HETATM   11  C14 UNL     1      -4.804  -1.588   2.400  1.00  0.00     0.106 C 
HETATM   12  N9  UNL     1      -5.662  -2.049   3.014  1.00  0.00    -0.191 NA
ENDROOT
BRANCH   4  13
HETATM   13  N3  UNL     1      -0.744   0.530  -0.418  1.00  0.00    -0.132 N 
ATOM     14  H3  UNL     1      -0.966   1.336  -1.002  1.00  0.00     0.205 HD
BRANCH  13  15
HETATM   15  N4  UNL     1       0.554   0.079  -0.416  1.00  0.00    -0.295 N 
ATOM     16  H4  UNL     1       0.700  -0.929  -0.462  1.00  0.00     0.186 HD
BRANCH  15  17
HETATM   17  C5  UNL     1       1.597   0.824  -0.361  1.00  0.00     0.138 C 
BRANCH  17  18
HETATM   18  C6  UNL     1       2.942   0.281  -0.362  1.00  0.00     0.066 A 
HETATM   19  C7  UNL     1       3.272  -1.069  -0.422  1.00  0.00     0.120 A 
HETATM   20  N5  UNL     1       4.612  -1.187  -0.403  1.00  0.00    -0.353 N 
HETATM   21  C8  UNL     1       5.137   0.038  -0.334  1.00  0.00     0.081 A 
ATOM     22  H5  UNL     1       5.136  -2.061  -0.436  1.00  0.00     0.166 HD
HETATM   23  N6  UNL     1       4.123   0.919  -0.310  1.00  0.00    -0.344 N 
ATOM     24  H6  UNL     1       4.234   1.932  -0.259  1.00  0.00     0.167 HD
BRANCH  21  25
HETATM   25  C9  UNL     1       6.599   0.402  -0.289  1.00  0.00     0.072 C 
HETATM   26  C10 UNL     1       7.073   0.583  -1.716  1.00  0.00     0.013 C 
ENDBRANCH  21  25
ENDBRANCH  17  18
ENDBRANCH  15  17
ENDBRANCH  13  15
ENDBRANCH   4  13
BRANCH   1  27
HETATM   27  N1  UNL     1      -5.158   0.574   0.769  1.00  0.00    -0.375 N 
ATOM     28  H1  UNL     1      -5.890   0.132   1.325  1.00  0.00     0.161 HD
BRANCH  27  29
HETATM   29  C2  UNL     1      -5.509   1.702  -0.036  1.00  0.00     0.116 C 
HETATM   30  C1  UNL     1      -5.721   1.272  -1.470  1.00  0.00     0.026 C 
ENDBRANCH  27  29
ENDBRANCH   1  27
TORSDOF 7
