REMARK  4 active torsions:
REMARK  status: ('A' for Active; 'I' for Inactive)
REMARK    1  A    between atoms: C2_2  and  C5_5 
REMARK    2  A    between atoms: C5_5  and  N1_8 
REMARK    3  A    between atoms: N1_8  and  C8_10 
REMARK    4  A    between atoms: C8_10  and  C9_11 
ROOT
HETATM    1  N1  UNL     1       0.095   0.119   0.568  1.00  0.00    -0.410 N 
ATOM      2  H1  UNL     1       0.378  -0.020   1.538  1.00  0.00     0.154 HD
ENDROOT
BRANCH   1   3
HETATM    3  C5  UNL     1      -1.123   0.756   0.404  1.00  0.00     0.025 C 
HETATM    4  C6  UNL     1      -1.653   1.172   1.815  1.00  0.00     0.038 C 
HETATM    5  C7  UNL     1      -1.085   2.076  -0.345  1.00  0.00     0.038 C 
BRANCH   3   6
HETATM    6  C2  UNL     1      -2.137  -0.115  -0.234  1.00  0.00    -0.027 C 
HETATM    7  C1  UNL     1      -1.770  -0.534  -1.609  1.00  0.00     0.017 C 
HETATM    8  C3  UNL     1      -3.524   0.495  -0.271  1.00  0.00     0.017 C 
HETATM    9  C4  UNL     1      -2.326  -1.432   0.560  1.00  0.00     0.017 C 
ENDBRANCH   3   6
ENDBRANCH   1   3
BRANCH   1  10
HETATM   10  C8  UNL     1       0.975  -0.351  -0.357  1.00  0.00     0.146 C 
BRANCH  10  11
HETATM   11  C9  UNL     1       2.234  -0.865   0.393  1.00  0.00     0.138 C 
HETATM   12  C10 UNL     1       3.248  -1.374  -0.596  1.00  0.00     0.035 C 
HETATM   13  C11 UNL     1       4.489  -0.616  -0.182  1.00  0.00     0.029 C 
HETATM   14  C12 UNL     1       3.852   0.657   0.387  1.00  0.00     0.168 C 
HETATM   15  O1  UNL     1       2.807   0.142   1.108  1.00  0.00    -0.384 OA
ENDBRANCH  10  11
ENDBRANCH   1  10
TORSDOF 4
