REMARK  4 active torsions:
REMARK  status: ('A' for Active; 'I' for Inactive)
REMARK    1  A    between atoms: C3_3  and  C4_4 
REMARK    2  A    between atoms: C4_4  and  C5_5 
REMARK    3  A    between atoms: C5_5  and  C6_6 
REMARK    4  A    between atoms: C7_7  and  N1_8 
ROOT
HETATM    1  C1  UNL     1       4.118   1.831  -0.721  1.00  0.00     0.012 C 
HETATM    2  C2  UNL     1       3.827   0.676  -0.606  1.00  0.00    -0.117 C 
HETATM    3  C3  UNL     1       3.488  -0.722  -0.486  1.00  0.00     0.093 C 
ENDROOT
BRANCH   3   4
HETATM    4  C4  UNL     1       2.094  -0.948   0.078  1.00  0.00     0.013 C 
BRANCH   4   5
HETATM    5  C5  UNL     1       1.128  -0.282  -0.873  1.00  0.00     0.013 C 
BRANCH   5   6
HETATM    6  C6  UNL     1      -0.313  -0.431  -0.429  1.00  0.00     0.001 A 
HETATM    7  C7  UNL     1      -0.863  -1.793  -0.290  1.00  0.00     0.198 A 
HETATM    8  C8  UNL     1      -0.553  -1.074   0.958  1.00  0.00     0.032 A 
HETATM    9  C9  UNL     1      -1.237   0.191   1.351  1.00  0.00    -0.003 A 
HETATM   10  C10 UNL     1      -2.664   0.068   1.819  1.00  0.00     0.011 C 
HETATM   11  C11 UNL     1      -1.058   0.785  -0.022  1.00  0.00    -0.034 A 
HETATM   12  C12 UNL     1      -2.314   1.111  -0.763  1.00  0.00     0.016 C 
HETATM   13  C13 UNL     1      -0.156   2.026   0.008  1.00  0.00     0.016 C 
BRANCH   7  14
HETATM   14  N1  UNL     1      -2.236  -2.094  -0.666  1.00  0.00    -0.074 N 
ATOM     15  H13 UNL     1      -2.849  -1.453  -0.162  1.00  0.00     0.274 HD
ATOM     16  H12 UNL     1      -2.371  -1.796  -1.632  1.00  0.00     0.274 HD
ATOM     17  H11 UNL     1      -2.616  -3.036  -0.570  1.00  0.00     0.274 HD
ENDBRANCH   7  14
ENDBRANCH   5   6
ENDBRANCH   4   5
ENDBRANCH   3   4
TORSDOF 4
