REMARK  14 active torsions:
REMARK  status: ('A' for Active; 'I' for Inactive)
REMARK    1  A    between atoms: C2_2  and  C3_3 
REMARK    2  A    between atoms: C3_3  and  C4_4 
REMARK    3  A    between atoms: C4_4  and  C5_5 
REMARK    4  A    between atoms: C5_5  and  C6_6 
REMARK    5  A    between atoms: C6_6  and  C7_7 
REMARK    6  A    between atoms: C7_7  and  C8_8 
REMARK    7  A    between atoms: C8_8  and  C9_9 
REMARK    8  A    between atoms: C9_9  and  C10_10 
REMARK    9  A    between atoms: C10_10  and  C11_12 
REMARK   10  A    between atoms: C11_12  and  O2_14 
REMARK   11  A    between atoms: O2_14  and  C12_15 
REMARK   12  A    between atoms: N1_21  and  C18_22 
REMARK   13  A    between atoms: C18_22  and  O3_23 
REMARK   14  A    between atoms: C18_22  and  N2_25 
ROOT
HETATM    1  C12 UNL     1      -1.540   0.148  -0.879  1.00  0.00     0.138 C 
HETATM    2  C13 UNL     1      -1.762   0.719   0.494  1.00  0.00     0.039 C 
HETATM    3  C14 UNL     1      -2.695  -0.224   1.206  1.00  0.00     0.006 C 
HETATM    4  C15 UNL     1      -2.550  -1.528   0.448  1.00  0.00     0.015 C 
HETATM    5  C16 UNL     1      -2.515  -1.011  -0.974  1.00  0.00     0.034 C 
HETATM    6  C17 UNL     1      -3.853  -0.506  -1.357  1.00  0.00     0.133 C 
HETATM    7  N1  UNL     1      -4.716  -0.159  -0.202  1.00  0.00    -0.347 N 
HETATM    8  C24 UNL     1      -4.157   0.198   1.057  1.00  0.00     0.131 C 
ENDROOT
BRANCH   1   9
HETATM    9  O2  UNL     1      -0.221  -0.281  -1.018  1.00  0.00    -0.315 OA
BRANCH   9  10
HETATM   10  C11 UNL     1       0.668   0.195  -1.955  1.00  0.00     0.274 C 
HETATM   11  O1  UNL     1       0.237   1.092  -2.741  1.00  0.00    -0.264 OA
BRANCH  10  12
HETATM   12  C10 UNL     1       2.065  -0.287  -2.074  1.00  0.00     0.158 C 
HETATM   13  S1  UNL     1       2.104  -2.078  -2.443  1.00  0.00    -0.082 SA
BRANCH  12  14
HETATM   14  C9  UNL     1       2.786  -0.021  -0.799  1.00  0.00     0.026 C 
BRANCH  14  15
HETATM   15  C8  UNL     1       4.241  -0.451  -0.848  1.00  0.00     0.002 C 
BRANCH  15  16
HETATM   16  C7  UNL     1       5.012   0.252  -1.908  1.00  0.00     0.000 C 
BRANCH  16  17
HETATM   17  C6  UNL     1       6.435  -0.227  -1.919  1.00  0.00     0.000 C 
BRANCH  17  18
HETATM   18  C5  UNL     1       7.071   0.057  -0.589  1.00  0.00     0.000 C 
BRANCH  18  19
HETATM   19  C4  UNL     1       8.529  -0.403  -0.571  1.00  0.00     0.000 C 
BRANCH  19  20
HETATM   20  C3  UNL     1       9.086  -0.090   0.791  1.00  0.00    -0.000 C 
BRANCH  20  21
HETATM   21  C2  UNL     1       9.053   1.374   1.147  1.00  0.00    -0.005 C 
HETATM   22  C1  UNL     1       9.657   1.499   2.537  1.00  0.00     0.005 C 
ENDBRANCH  20  21
ENDBRANCH  19  20
ENDBRANCH  18  19
ENDBRANCH  17  18
ENDBRANCH  16  17
ENDBRANCH  15  16
ENDBRANCH  14  15
ENDBRANCH  12  14
ENDBRANCH  10  12
ENDBRANCH   9  10
ENDBRANCH   1   9
BRANCH   7  23
HETATM   23  C18 UNL     1      -6.099  -0.211  -0.443  1.00  0.00     0.217 C 
BRANCH  23  24
HETATM   24  O3  UNL     1      -6.434  -0.579  -1.663  1.00  0.00    -0.333 OA
ATOM     25  H3  UNL     1      -7.369  -0.614  -1.826  1.00  0.00     0.220 HD
ENDBRANCH  23  24
BRANCH  23  26
HETATM   26  N2  UNL     1      -7.198   0.054   0.371  1.00  0.00    -0.348 N 
HETATM   27  C19 UNL     1      -7.127   0.488   1.737  1.00  0.00     0.126 C 
HETATM   28  C20 UNL     1      -8.464   1.077   2.187  1.00  0.00     0.020 C 
HETATM   29  C21 UNL     1      -9.642   0.219   1.943  1.00  0.00     0.003 C 
HETATM   30  C22 UNL     1      -9.436  -0.728   0.824  1.00  0.00     0.020 C 
HETATM   31  C23 UNL     1      -8.548  -0.133  -0.220  1.00  0.00     0.126 C 
ENDBRANCH  23  26
ENDBRANCH   7  23
TORSDOF 14
