REMARK  1 active torsions:
REMARK  status: ('A' for Active; 'I' for Inactive)
REMARK    1  A    between atoms: N2_11  and  C9_13 
ROOT
HETATM    1  C9  UNL     1      -1.437   0.662  -0.768  1.00  0.00     0.078 A 
HETATM    2  C10 UNL     1      -2.229   1.209   0.220  1.00  0.00     0.020 A 
HETATM    3  C11 UNL     1      -1.724   2.060   1.185  1.00  0.00     0.016 A 
HETATM    4  C12 UNL     1      -2.534   2.589   2.155  1.00  0.00     0.001 A 
HETATM    5  C13 UNL     1      -3.896   2.303   2.223  1.00  0.00     0.002 A 
HETATM    6  C14 UNL     1      -4.388   1.456   1.258  1.00  0.00     0.030 A 
HETATM    7  C15 UNL     1      -3.591   0.915   0.278  1.00  0.00     0.046 A 
HETATM    8  N3  UNL     1      -4.159   0.099  -0.620  1.00  0.00    -0.340 N 
ATOM      9  H3  UNL     1      -5.157  -0.104  -0.562  1.00  0.00     0.167 HD
HETATM   10  C16 UNL     1      -3.421  -0.451  -1.594  1.00  0.00     0.136 A 
HETATM   11  N4  UNL     1      -3.752  -1.292  -2.603  1.00  0.00    -0.337 N 
ATOM     12  H4  UNL     1      -4.676  -1.674  -2.807  1.00  0.00     0.168 HD
HETATM   13  C17 UNL     1      -2.618  -1.519  -3.278  1.00  0.00     0.182 A 
HETATM   14  N5  UNL     1      -1.582  -0.853  -2.733  1.00  0.00    -0.347 N 
ATOM     15  H5  UNL     1      -0.617  -0.863  -3.063  1.00  0.00     0.167 HD
HETATM   16  C18 UNL     1      -2.051  -0.174  -1.677  1.00  0.00     0.105 A 
ENDROOT
BRANCH   1  17
HETATM   17  N2  UNL     1      -0.071   0.956  -0.825  1.00  0.00    -0.319 N 
HETATM   18  C8  UNL     1       0.884   0.250  -0.380  1.00  0.00     0.225 A 
HETATM   19  N1  UNL     1       0.747  -1.002   0.274  1.00  0.00    -0.352 N 
HETATM   20  O1  UNL     1       2.176   0.733  -0.543  1.00  0.00    -0.279 OA
HETATM   21  C7  UNL     1       1.838  -1.779   0.766  1.00  0.00     0.164 A 
ATOM     22  H1  UNL     1      -0.195  -1.371   0.401  1.00  0.00     0.163 HD
HETATM   23  C5  UNL     1       3.149  -1.149   0.526  1.00  0.00    -0.006 A 
HETATM   24  C4  UNL     1       3.303   0.079  -0.114  1.00  0.00     0.087 A 
HETATM   25  C6  UNL     1       4.300  -1.771   0.940  1.00  0.00     0.011 A 
HETATM   26  C3  UNL     1       4.528   0.650  -0.328  1.00  0.00     0.038 A 
HETATM   27  C2  UNL     1       5.673   0.021   0.089  1.00  0.00     0.003 A 
HETATM   28  C1  UNL     1       5.540  -1.203   0.729  1.00  0.00     0.001 A 
ATOM     29  H2  UNL     1       0.186   1.835  -1.274  1.00  0.00     0.169 HD
ENDBRANCH   1  17
TORSDOF 1
