REMARK  7 active torsions:
REMARK  status: ('A' for Active; 'I' for Inactive)
REMARK    1  A    between atoms: N1_1  and  N2_4 
REMARK    2  A    between atoms: N2_4  and  N3_5 
REMARK    3  A    between atoms: N3_5  and  C1_7 
REMARK    4  A    between atoms: C5_11  and  N4_12 
REMARK       I    between atoms: N4_12  and  C6_14 
REMARK    5  A    between atoms: C6_14  and  C7_16 
REMARK    6  A    between atoms: C9_19  and  O2_20 
REMARK    7  A    between atoms: C10_22  and  O3_23 
ROOT
HETATM    1  C7  UNL     1       4.545   0.244   0.182  1.00  0.00     0.007 C 
HETATM    2  C8  UNL     1       5.696  -0.092   0.182  1.00  0.00    -0.013 C 
HETATM    3 BR1  UNL     1       7.494  -0.640   0.168  1.00  0.00     0.011 Br
ENDROOT
BRANCH   1   4
HETATM    4  C6  UNL     1       3.183   0.666   0.175  1.00  0.00     0.297 C 
HETATM    5  N4  UNL     1       2.153  -0.268   0.146  1.00  0.00    -0.343 N 
ATOM      6  H4  UNL     1       2.401  -1.257   0.130  1.00  0.00     0.163 HD
HETATM    7  O1  UNL     1       2.934   1.891   0.195  1.00  0.00    -0.258 OA
BRANCH   5   8
HETATM    8  C5  UNL     1       0.729   0.088   0.137  1.00  0.00     0.116 C 
HETATM    9  C4  UNL     1       0.134  -0.513   1.383  1.00  0.00     0.028 C 
HETATM   10  C3  UNL     1      -0.908   0.482   1.890  1.00  0.00     0.004 C 
HETATM   11  C2  UNL     1      -1.787   0.952   0.756  1.00  0.00     0.030 C 
HETATM   12  C1  UNL     1      -2.132  -0.218  -0.093  1.00  0.00     0.145 C 
HETATM   13  C10 UNL     1      -1.287  -0.428  -1.288  1.00  0.00     0.174 C 
HETATM   14  C9  UNL     1       0.162  -0.496  -1.115  1.00  0.00     0.171 C 
BRANCH  12  15
HETATM   15  N3  UNL     1      -3.516  -0.045  -0.565  1.00  0.00    -0.245 N 
ATOM     16  H3  UNL     1      -3.756  -0.298  -1.524  1.00  0.00     0.197 HD
BRANCH  15  17
HETATM   17  N2  UNL     1      -4.376   0.395   0.172  1.00  0.00    -0.248 NA
BRANCH  17  18
HETATM   18  N1  UNL     1      -5.324   0.888   0.754  1.00  0.00    -0.261 N 
ATOM     19  H12 UNL     1      -5.699   1.123  -0.165  1.00  0.00     0.193 HD
ATOM     20  H11 UNL     1      -6.046   1.257   1.373  1.00  0.00     0.193 HD
ENDBRANCH  17  18
ENDBRANCH  15  17
ENDBRANCH  12  15
BRANCH  13  21
HETATM   21  O3  UNL     1      -1.714  -1.644  -1.880  1.00  0.00    -0.391 OA
ATOM     22  H3  UNL     1      -1.171  -1.779  -2.648  1.00  0.00     0.210 HD
ENDBRANCH  13  21
BRANCH  14  23
HETATM   23  O2  UNL     1       0.782   0.170  -2.195  1.00  0.00    -0.391 OA
ATOM     24  H2  UNL     1       0.421  -0.202  -2.991  1.00  0.00     0.210 HD
ENDBRANCH  14  23
ENDBRANCH   5   8
ENDBRANCH   1   4
TORSDOF 7
