REMARK  5 active torsions:
REMARK  status: ('A' for Active; 'I' for Inactive)
REMARK    1  A    between atoms: N1_1  and  C1_5 
REMARK    2  A    between atoms: C1_5  and  C2_6 
REMARK    3  A    between atoms: C3_7  and  C4_8 
REMARK    4  A    between atoms: C4_8  and  C5_9 
REMARK    5  A    between atoms: C5_9  and  N2_10 
ROOT
HETATM    1  C4  UNL     1       0.473   0.723   0.046  1.00  0.00     0.057 C 
ENDROOT
BRANCH   1   2
HETATM    2  C3  UNL     1       1.809   0.377   0.544  1.00  0.00    -0.027 C 
HETATM    3  C2  UNL     1       2.723  -0.128  -0.260  1.00  0.00    -0.004 C 
BRANCH   3   4
HETATM    4  C1  UNL     1       4.075  -0.456   0.333  1.00  0.00     0.256 C 
BRANCH   4   5
HETATM    5  N1  UNL     1       5.082   0.339  -0.343  1.00  0.00    -0.076 N 
ATOM      6  H13 UNL     1       5.060   0.219  -1.356  1.00  0.00     0.274 HD
ATOM      7  H12 UNL     1       4.875   1.337  -0.316  1.00  0.00     0.274 HD
ATOM      8  H11 UNL     1       5.994   0.118   0.057  1.00  0.00     0.274 HD
ENDBRANCH   4   5
ENDBRANCH   3   4
ENDBRANCH   1   2
BRANCH   1   9
HETATM    9  C5  UNL     1      -0.634  -0.014   0.771  1.00  0.00     0.278 C 
BRANCH   9  10
HETATM   10  N2  UNL     1      -1.872   0.455   0.153  1.00  0.00     0.115 N 
HETATM   11  C6  UNL     1      -3.048   0.055   0.909  1.00  0.00     0.302 C 
HETATM   12  C7  UNL     1      -4.070  -0.122  -0.198  1.00  0.00     0.264 C 
HETATM   13  N3  UNL     1      -3.262  -0.901  -1.141  1.00  0.00    -0.047 N 
HETATM   14  C8  UNL     1      -2.023  -0.102  -1.176  1.00  0.00     0.502 C 
ATOM     15  H32 UNL     1      -3.142  -1.886  -0.906  1.00  0.00     0.279 HD
ATOM     16  H31 UNL     1      -3.695  -1.078  -2.047  1.00  0.00     0.279 HD
ENDBRANCH   9  10
ENDBRANCH   1   9
TORSDOF 5
