REMARK  6 active torsions:
REMARK  status: ('A' for Active; 'I' for Inactive)
REMARK    1  A    between atoms: C2_2  and  C4_4 
REMARK       I    between atoms: C4_4  and  N1_6 
REMARK    2  A    between atoms: N1_6  and  C5_8 
REMARK    3  A    between atoms: C5_8  and  C6_9 
REMARK    4  A    between atoms: C9_17  and  N4_18 
REMARK    5  A    between atoms: C12_21  and  C13_22 
REMARK    6  A    between atoms: C16_27  and  C17_28 
ROOT
HETATM    1  N4  UNL     1      -1.145  -0.784   0.195  1.00  0.00    -0.366 N 
HETATM    2  C10 UNL     1      -0.769   0.275  -0.722  1.00  0.00     0.125 C 
HETATM    3  C11 UNL     1       0.610   0.010  -1.209  1.00  0.00     0.030 C 
HETATM    4  C12 UNL     1       1.593  -0.557  -0.266  1.00  0.00     0.040 C 
HETATM    5  C21 UNL     1       1.090  -1.158   0.998  1.00  0.00     0.030 C 
HETATM    6  C22 UNL     1      -0.293  -0.818   1.388  1.00  0.00     0.125 C 
ENDROOT
BRANCH   1   7
HETATM    7  C9  UNL     1      -2.203  -1.694   0.012  1.00  0.00     0.128 A 
HETATM    8  C6  UNL     1      -3.503  -1.267   0.065  1.00  0.00     0.072 A 
HETATM    9  N2  UNL     1      -4.527  -2.157  -0.124  1.00  0.00    -0.345 N 
HETATM   10  C7  UNL     1      -4.251  -3.447  -0.360  1.00  0.00     0.119 A 
ATOM     11  H2  UNL     1      -5.495  -1.839  -0.085  1.00  0.00     0.167 HD
HETATM   12 CL1  UNL     1      -5.588  -4.564  -0.596  1.00  0.00    -0.063 Cl
HETATM   13  C8  UNL     1      -2.951  -3.903  -0.418  1.00  0.00     0.132 A 
HETATM   14  N3  UNL     1      -1.962  -3.018  -0.230  1.00  0.00    -0.348 N 
ATOM     15  H3  UNL     1      -0.996  -3.344  -0.269  1.00  0.00     0.167 HD
BRANCH   8  16
HETATM   16  C5  UNL     1      -3.815   0.148   0.340  1.00  0.00     0.183 C 
BRANCH  16  17
HETATM   17  N1  UNL     1      -5.268   0.301   0.341  1.00  0.00    -0.351 N 
HETATM   18  C4  UNL     1      -5.895   1.543   0.582  1.00  0.00     0.246 C 
HETATM   19  O1  UNL     1      -5.218   2.574   0.806  1.00  0.00    -0.268 OA
ATOM     20  H1  UNL     1      -5.849  -0.518   0.161  1.00  0.00     0.163 HD
BRANCH  18  21
HETATM   21  C2  UNL     1      -7.349   1.606   0.565  1.00  0.00    -0.004 C 
HETATM   22  C1  UNL     1      -7.948   2.744   0.787  1.00  0.00     0.024 C 
HETATM   23  C3  UNL     1      -8.162   0.367   0.292  1.00  0.00     0.053 C 
ENDBRANCH  18  21
ENDBRANCH  16  17
ENDBRANCH   8  16
ENDBRANCH   1   7
BRANCH   4  24
HETATM   24  C13 UNL     1       2.742   0.381   0.011  1.00  0.00     0.029 A 
HETATM   25  C14 UNL     1       2.555   1.611   0.597  1.00  0.00     0.113 A 
HETATM   26  N5  UNL     1       3.591   2.449   0.848  1.00  0.00    -0.371 N 
HETATM   27  C15 UNL     1       4.838   2.078   0.518  1.00  0.00     0.113 A 
ATOM     28  H5  UNL     1       3.424   3.355   1.285  1.00  0.00     0.164 HD
HETATM   29  C16 UNL     1       5.072   0.852  -0.072  1.00  0.00     0.032 A 
HETATM   30  N6  UNL     1       4.009   0.061  -0.298  1.00  0.00    -0.360 N 
ATOM     31  H6  UNL     1       4.176  -0.845  -0.735  1.00  0.00     0.165 HD
BRANCH  29  32
HETATM   32  C17 UNL     1       6.470   0.467  -0.424  1.00  0.00    -0.007 C 
HETATM   33  C18 UNL     1       6.510  -0.917  -1.027  1.00  0.00     0.021 C 
HETATM   34  C19 UNL     1       7.056   1.414  -1.445  1.00  0.00     0.021 C 
HETATM   35  C20 UNL     1       7.350   0.413   0.826  1.00  0.00     0.021 C 
ENDBRANCH  29  32
ENDBRANCH   4  24
TORSDOF 6
