REMARK  6 active torsions:
REMARK  status: ('A' for Active; 'I' for Inactive)
REMARK    1  A    between atoms: S1_2  and  C2_3 
REMARK    2  A    between atoms: C3_6  and  S2_7 
REMARK    3  A    between atoms: S2_7  and  C4_8 
REMARK    4  A    between atoms: C4_8  and  C5_9 
REMARK       I    between atoms: C5_9  and  N2_11 
REMARK    5  A    between atoms: N3_13  and  C6_15 
REMARK    6  A    between atoms: C9_18  and  C10_19 
ROOT
HETATM    1  C2  UNL     1      -2.229   1.976  -0.407  1.00  0.00     0.091 A 
HETATM    2  N1  UNL     1      -1.075   1.318  -0.352  1.00  0.00    -0.344 N 
ATOM      3  H1  UNL     1      -0.203   1.835  -0.466  1.00  0.00     0.167 HD
HETATM    4  C3  UNL     1      -1.026  -0.014  -0.149  1.00  0.00     0.078 A 
HETATM    5  C9  UNL     1      -2.217  -0.754   0.004  1.00  0.00    -0.009 A 
HETATM    6  C14 UNL     1      -3.430  -0.119  -0.046  1.00  0.00    -0.029 A 
HETATM    7  C15 UNL     1      -4.691  -0.814   0.132  1.00  0.00     0.050 C 
HETATM    8  C16 UNL     1      -3.400   1.266  -0.255  1.00  0.00     0.084 A 
HETATM    9  C17 UNL     1      -4.678   1.958  -0.285  1.00  0.00     0.103 C 
HETATM   10  N4  UNL     1      -5.714   2.525  -0.331  1.00  0.00    -0.191 NA
ENDROOT
BRANCH   1  11
HETATM   11  S1  UNL     1      -2.331   3.748  -0.604  1.00  0.00    -0.115 SA
HETATM   12  C1  UNL     1      -2.334   4.576   1.013  1.00  0.00     0.097 C 
ENDBRANCH   1  11
BRANCH   5  13
HETATM   13  C10 UNL     1      -2.044  -2.169   0.175  1.00  0.00    -0.021 C 
HETATM   14  C11 UNL     1      -3.189  -3.096   0.355  1.00  0.00     0.019 C 
HETATM   15  C12 UNL     1      -1.061  -2.547   1.309  1.00  0.00     0.019 C 
HETATM   16  C13 UNL     1      -1.427  -2.684  -1.161  1.00  0.00     0.019 C 
ENDBRANCH   5  13
BRANCH   4  17
HETATM   17  S2  UNL     1       0.569  -0.743   0.051  1.00  0.00    -0.102 SA
BRANCH  17  18
HETATM   18  C4  UNL     1       1.861   0.470  -0.201  1.00  0.00     0.185 C 
BRANCH  18  19
HETATM   19  C5  UNL     1       2.585   0.311  -1.515  1.00  0.00     0.245 C 
HETATM   20  O1  UNL     1       2.220  -0.653  -2.283  1.00  0.00    -0.271 OA
HETATM   21  N2  UNL     1       3.601   1.195  -1.836  1.00  0.00    -0.273 N 
HETATM   22  N3  UNL     1       4.654   1.375  -1.293  1.00  0.00    -0.330 N 
ATOM     23  H2  UNL     1       3.428   1.779  -2.655  1.00  0.00     0.189 HD
ATOM     24  H3  UNL     1       5.208   2.096  -1.756  1.00  0.00     0.180 HD
BRANCH  22  25
HETATM   25  C6  UNL     1       5.301   0.847  -0.196  1.00  0.00     0.091 C 
HETATM   26  C7  UNL     1       5.985  -0.519  -0.388  1.00  0.00     0.033 C 
HETATM   27  C8  UNL     1       6.419   1.786   0.278  1.00  0.00     0.033 C 
ENDBRANCH  22  25
ENDBRANCH  18  19
ENDBRANCH  17  18
ENDBRANCH   4  17
TORSDOF 6
