REMARK  6 active torsions:
REMARK  status: ('A' for Active; 'I' for Inactive)
REMARK    1  A    between atoms: C1_4  and  N2_5 
REMARK    2  A    between atoms: N3_7  and  N4_9 
REMARK    3  A    between atoms: N4_9  and  C2_11 
REMARK    4  A    between atoms: C2_11  and  N5_13 
REMARK    5  A    between atoms: N5_13  and  C3_15 
REMARK    6  A    between atoms: C3_15  and  C4_16 
ROOT
HETATM    1  N4  UNL     1       1.028   0.705   0.155  1.00  0.00    -0.262 N 
ATOM      2  H4  UNL     1       1.571   1.564   0.243  1.00  0.00     0.191 HD
ENDROOT
BRANCH   1   3
HETATM    3  N3  UNL     1       1.676  -0.484  -0.148  1.00  0.00    -0.240 N 
HETATM    4  N2  UNL     1       2.888  -0.726  -0.173  1.00  0.00    -0.282 N 
ATOM      5  H2  UNL     1       3.219  -1.659  -0.417  1.00  0.00     0.189 HD
ATOM      6  H3  UNL     1       1.067  -1.268  -0.383  1.00  0.00     0.208 HD
BRANCH   4   7
HETATM    7  C1  UNL     1       3.822   0.307   0.141  1.00  0.00     0.192 C 
HETATM    8  N1  UNL     1       5.052   0.033  -0.145  1.00  0.00    -0.394 N 
ATOM      9  H12 UNL     1       5.319  -0.858  -0.563  1.00  0.00     0.156 HD
ATOM     10  H11 UNL     1       5.719   0.771   0.079  1.00  0.00     0.156 HD
ENDBRANCH   4   7
ENDBRANCH   1   3
BRANCH   1  11
HETATM   11  C2  UNL     1      -0.383   0.745   0.345  1.00  0.00     0.187 C 
HETATM   12  S1  UNL     1      -1.096   2.153   0.725  1.00  0.00    -0.040 SA
BRANCH  11  13
HETATM   13  N5  UNL     1      -1.141  -0.436   0.226  1.00  0.00    -0.365 N 
ATOM     14  H5  UNL     1      -0.652  -1.308   0.022  1.00  0.00     0.161 HD
BRANCH  13  15
HETATM   15  C3  UNL     1      -2.567  -0.473   0.378  1.00  0.00     0.137 C 
BRANCH  15  16
HETATM   16  C4  UNL     1      -3.211   0.172  -0.810  1.00  0.00     0.134 C 
HETATM   17 CL1  UNL     1      -4.991   0.153  -0.694  1.00  0.00    -0.129 Cl
ENDBRANCH  15  16
ENDBRANCH  13  15
ENDBRANCH  11  13
ENDBRANCH   1  11
TORSDOF 6
