REMARK  1 active torsions:
REMARK  status: ('A' for Active; 'I' for Inactive)
REMARK    1  A    between atoms: C2_5  and  C3_6 
ROOT
HETATM    1  N1  UNL     1      -2.557   0.048   0.516  1.00  0.00    -0.081 NA
HETATM    2  C1  UNL     1      -1.167   0.014   0.104  1.00  0.00     0.164 A 
HETATM    3  N2  UNL     1      -0.438   0.871  -0.477  1.00  0.00    -0.359 N 
ATOM      4  H2  UNL     1      -0.624   1.816  -0.814  1.00  0.00     0.161 HD
HETATM    5  C2  UNL     1       0.712   0.071  -0.496  1.00  0.00     0.271 A 
HETATM    6  C4  UNL     1      -0.077  -0.968   0.180  1.00  0.00     0.326 A 
HETATM    7  F4  UNL     1       0.293  -1.302   1.466  1.00  0.00    -0.195 F 
HETATM    8  F5  UNL     1      -0.262  -2.102  -0.595  1.00  0.00    -0.195 F 
ENDROOT
BRANCH   5   9
HETATM    9  C3  UNL     1       1.836   0.707   0.290  1.00  0.00     0.413 C 
HETATM   10  F1  UNL     1       2.973  -0.091   0.268  1.00  0.00    -0.169 F 
HETATM   11  F2  UNL     1       1.453   1.045   1.551  1.00  0.00    -0.169 F 
HETATM   12  F3  UNL     1       2.170   1.876  -0.374  1.00  0.00    -0.169 F 
ENDBRANCH   5   9
TORSDOF 1
