REMARK  8 active torsions:
REMARK  status: ('A' for Active; 'I' for Inactive)
REMARK    1  A    between atoms: C2_2  and  C3_3 
REMARK    2  A    between atoms: C3_3  and  N1_4 
REMARK    3  A    between atoms: C6_9  and  N4_10 
REMARK    4  A    between atoms: N6_17  and  N7_19 
REMARK    5  A    between atoms: N7_19  and  O2_20 
REMARK    6  A    between atoms: N7_19  and  C8_22 
REMARK    7  A    between atoms: C8_22  and  N8_23 
REMARK    8  A    between atoms: C9_29  and  N12_30 
ROOT
HETATM    1  C1  UNL     1       0.546   0.914   1.516  1.00  0.00     0.066 C 
HETATM    2  C2  UNL     1       0.169  -0.393   0.930  1.00  0.00     0.020 C 
HETATM    3  N6  UNL     1       0.957  -0.875   0.027  1.00  0.00    -0.285 N 
ATOM      4  H6  UNL     1       0.719  -1.774  -0.392  1.00  0.00     0.188 HD
ENDROOT
BRANCH   2   5
HETATM    5  C3  UNL     1      -1.021  -1.157   1.307  1.00  0.00     0.188 C 
BRANCH   5   6
HETATM    6  N1  UNL     1      -2.265  -0.448   1.075  1.00  0.00    -0.281 N 
HETATM    7  C4  UNL     1      -2.869  -0.594  -0.134  1.00  0.00     0.151 A 
HETATM    8  N2  UNL     1      -2.275  -1.418  -1.109  1.00  0.00    -0.080 NA
HETATM    9  C5  UNL     1      -4.052   0.054  -0.410  1.00  0.00     0.131 A 
HETATM   10  N3  UNL     1      -4.659  -0.118  -1.680  1.00  0.00    -0.095 NA
HETATM   11  C6  UNL     1      -4.621   0.855   0.549  1.00  0.00     0.130 A 
HETATM   12  N5  UNL     1      -4.012   0.989   1.739  1.00  0.00    -0.293 N 
HETATM   13  C7  UNL     1      -2.840   0.336   1.989  1.00  0.00     0.329 A 
ATOM     14  H5  UNL     1      -4.427   1.581   2.458  1.00  0.00     0.172 HD
HETATM   15  O1  UNL     1      -2.315   0.494   3.108  1.00  0.00    -0.246 OA
BRANCH  11  16
HETATM   16  N4  UNL     1      -5.723   1.458   0.288  1.00  0.00    -0.384 N 
ATOM     17  H42 UNL     1      -6.185   1.356  -0.615  1.00  0.00     0.157 HD
ATOM     18  H41 UNL     1      -6.146   2.053   1.000  1.00  0.00     0.157 HD
ENDBRANCH  11  16
ENDBRANCH   5   6
ENDBRANCH   2   5
BRANCH   3  19
HETATM   19  N7  UNL     1       2.118  -0.230  -0.406  1.00  0.00    -0.181 N 
BRANCH  19  20
HETATM   20  O2  UNL     1       2.050   0.617  -1.454  1.00  0.00    -0.271 OA
ATOM     21  H2  UNL     1       2.840   1.056  -1.748  1.00  0.00     0.246 HD
ENDBRANCH  19  20
BRANCH  19  22
HETATM   22  C8  UNL     1       3.378  -0.479   0.278  1.00  0.00     0.341 C 
BRANCH  22  23
HETATM   23  N8  UNL     1       4.451   0.287  -0.327  1.00  0.00    -0.083 N 
HETATM   24  N9  UNL     1       4.813   1.525   0.036  1.00  0.00     0.013 NA
HETATM   25  N10 UNL     1       5.823   1.890  -0.741  1.00  0.00    -0.211 N 
HETATM   26  N11 UNL     1       6.083   0.902  -1.568  1.00  0.00    -0.118 N 
ATOM     27  H10 UNL     1       6.314   2.783  -0.704  1.00  0.00     0.206 HD
HETATM   28  C9  UNL     1       5.252  -0.101  -1.336  1.00  0.00     0.708 A 
ATOM     29  H11 UNL     1       6.814   0.908  -2.280  1.00  0.00     0.207 HD
BRANCH  28  30
HETATM   30  N12 UNL     1       5.169  -1.262  -1.929  1.00  0.00    -0.232 N 
ATOM     31 2H12 UNL     1       4.528  -2.035  -1.750  1.00  0.00     0.174 HD
ATOM     32 1H12 UNL     1       5.776  -1.556  -2.694  1.00  0.00     0.174 HD
ENDBRANCH  28  30
ENDBRANCH  22  23
ENDBRANCH  19  22
ENDBRANCH   3  19
TORSDOF 8
