REMARK  9 active torsions:
REMARK  status: ('A' for Active; 'I' for Inactive)
REMARK    1  A    between atoms: N1_1  and  C1_4 
REMARK    2  A    between atoms: C2_7  and  N3_8 
REMARK    3  A    between atoms: N3_8  and  N4_10 
REMARK    4  A    between atoms: N4_10  and  C3_12 
REMARK    5  A    between atoms: C4_17  and  C5_18 
REMARK    6  A    between atoms: C5_18  and  O1_19 
REMARK    7  A    between atoms: C5_18  and  O2_21 
REMARK    8  A    between atoms: C7_28  and  N9_29 
REMARK    9  A    between atoms: N9_29  and  C8_31 
ROOT
HETATM    1  C1  UNL     1      -0.542  -2.383   1.256  1.00  0.00     0.692 C 
HETATM    2  N2  UNL     1       0.355  -1.642   0.555  1.00  0.00    -0.174 N 
ATOM      3  H2  UNL     1       1.334  -1.888   0.698  1.00  0.00     0.186 HD
HETATM    4  C2  UNL     1       0.129  -0.613  -0.315  1.00  0.00     0.151 C 
HETATM    5  C6  UNL     1      -0.974  -0.468  -1.111  1.00  0.00     0.156 C 
HETATM    6  N8  UNL     1      -2.244  -0.854  -0.777  1.00  0.00    -0.197 N 
ATOM      7  H8  UNL     1      -2.980  -0.583  -1.429  1.00  0.00     0.183 HD
HETATM    8  C7  UNL     1      -2.639  -1.547   0.306  1.00  0.00     0.699 C 
HETATM    9  N12 UNL     1      -1.893  -2.388   1.023  1.00  0.00    -0.022 N 
ATOM     10  H12 UNL     1      -2.405  -3.151   1.465  1.00  0.00     0.203 HD
ENDROOT
BRANCH   4  11
HETATM   11  N3  UNL     1       1.111   0.426  -0.378  1.00  0.00    -0.270 N 
ATOM     12  H3  UNL     1       1.446   0.788  -1.271  1.00  0.00     0.189 HD
BRANCH  11  13
HETATM   13  N4  UNL     1       1.593   0.924   0.840  1.00  0.00    -0.129 N 
ATOM     14  H4  UNL     1       0.913   1.221   1.539  1.00  0.00     0.205 HD
BRANCH  13  15
HETATM   15  C3  UNL     1       2.965   1.039   1.157  1.00  0.00     0.713 A 
HETATM   16  N5  UNL     1       3.521   1.456   2.316  1.00  0.00    -0.129 N 
HETATM   17  N6  UNL     1       4.846   1.424   2.220  1.00  0.00    -0.270 N 
ATOM     18  H5  UNL     1       3.001   1.752   3.142  1.00  0.00     0.205 HD
HETATM   19  C4  UNL     1       5.164   0.984   0.990  1.00  0.00     0.167 A 
ATOM     20  H6  UNL     1       5.506   1.687   2.952  1.00  0.00     0.189 HD
HETATM   21  N7  UNL     1       3.996   0.750   0.345  1.00  0.00    -0.172 N 
ATOM     22  H7  UNL     1       3.912   0.407  -0.612  1.00  0.00     0.186 HD
BRANCH  19  23
HETATM   23  C5  UNL     1       6.531   0.775   0.429  1.00  0.00     0.325 C 
BRANCH  23  24
HETATM   24  O1  UNL     1       6.482  -0.417  -0.294  1.00  0.00    -0.365 OA
ATOM     25  H1  UNL     1       7.352  -0.550  -0.651  1.00  0.00     0.213 HD
ENDBRANCH  23  24
BRANCH  23  26
HETATM   26  O2  UNL     1       6.950   1.849  -0.339  1.00  0.00    -0.365 OA
ATOM     27  H2  UNL     1       7.820   1.716  -0.696  1.00  0.00     0.213 HD
ENDBRANCH  23  26
ENDBRANCH  19  23
ENDBRANCH  13  15
ENDBRANCH  11  13
ENDBRANCH   4  11
BRANCH   1  28
HETATM   28  N1  UNL     1      -0.113  -3.122   2.197  1.00  0.00    -0.234 N 
ATOM     29  H12 UNL     1       0.892  -3.118   2.370  1.00  0.00     0.174 HD
ATOM     30  H11 UNL     1      -0.787  -3.678   2.723  1.00  0.00     0.174 HD
ENDBRANCH   1  28
BRANCH   8  31
HETATM   31  N9  UNL     1      -3.835  -1.369   0.693  1.00  0.00    -0.161 N 
ATOM     32  H9  UNL     1      -4.166  -1.879   1.512  1.00  0.00     0.187 HD
BRANCH  31  33
HETATM   33  C8  UNL     1      -4.736  -0.482   0.027  1.00  0.00     0.190 C 
HETATM   34  N10 UNL     1      -5.566  -0.775  -0.926  1.00  0.00    -0.360 N 
HETATM   35  C9  UNL     1      -6.305   0.396  -1.340  1.00  0.00     0.142 C 
ATOM     36  H10 UNL     1      -5.681  -1.705  -1.328  1.00  0.00     0.162 HD
HETATM   37  C10 UNL     1      -5.420   1.530  -0.848  1.00  0.00     0.142 C 
HETATM   38  N11 UNL     1      -4.844   0.907   0.326  1.00  0.00    -0.360 N 
ATOM     39  H11 UNL     1      -4.571   1.370   1.193  1.00  0.00     0.162 HD
ENDBRANCH  31  33
ENDBRANCH   8  31
TORSDOF 9
