REMARK  8 active torsions:
REMARK  status: ('A' for Active; 'I' for Inactive)
REMARK    1  A    between atoms: N1_1  and  C1_4 
REMARK    2  A    between atoms: C2_7  and  C3_8 
REMARK    3  A    between atoms: C3_8  and  N3_9 
REMARK    4  A    between atoms: C3_8  and  N4_13 
REMARK    5  A    between atoms: N4_13  and  C4_16 
REMARK    6  A    between atoms: C4_16  and  C5_17 
REMARK    7  A    between atoms: N7_22  and  C6_23 
REMARK    8  A    between atoms: C8_36  and  N14_37 
ROOT
HETATM    1  N4  UNL     1      -0.032  -0.012  -0.172  1.00  0.00    -0.034 N 
ATOM      2  H41 UNL     1      -0.023  -0.063  -1.191  1.00  0.00     0.280 HD
ATOM      3  H42 UNL     1      -0.194  -1.002   0.014  1.00  0.00     0.280 HD
ENDROOT
BRANCH   1   4
HETATM    4  C3  UNL     1      -1.081   0.824   0.330  1.00  0.00     0.432 C 
BRANCH   4   5
HETATM    5  C2  UNL     1      -2.422   0.475  -0.133  1.00  0.00     0.112 A 
HETATM    6  N2  UNL     1      -2.675  -0.368  -1.147  1.00  0.00    -0.190 N 
HETATM    7  C1  UNL     1      -3.948  -0.637  -1.513  1.00  0.00     0.677 A 
ATOM      8  H2  UNL     1      -1.901  -0.808  -1.645  1.00  0.00     0.184 HD
HETATM    9  N15 UNL     1      -5.010  -0.093  -0.901  1.00  0.00    -0.175 N 
HETATM   10  C8  UNL     1      -4.813   0.753   0.114  1.00  0.00     0.141 A 
ATOM     11  H15 UNL     1      -5.956  -0.322  -1.206  1.00  0.00     0.186 HD
HETATM   12  C7  UNL     1      -3.510   1.036   0.498  1.00  0.00     0.117 A 
HETATM   13  N13 UNL     1      -3.323   1.935   1.576  1.00  0.00    -0.096 NA
BRANCH   7  14
HETATM   14  N1  UNL     1      -4.189  -1.449  -2.490  1.00  0.00    -0.234 N 
ATOM     15  H12 UNL     1      -3.381  -1.863  -2.955  1.00  0.00     0.174 HD
ATOM     16  H11 UNL     1      -5.150  -1.652  -2.766  1.00  0.00     0.174 HD
ENDBRANCH   7  14
BRANCH  10  17
HETATM   17  N14 UNL     1      -5.806   1.302   0.735  1.00  0.00    -0.383 N 
ATOM     18 2H14 UNL     1      -5.656   1.948   1.510  1.00  0.00     0.157 HD
ATOM     19 1H14 UNL     1      -6.764   1.094   0.453  1.00  0.00     0.157 HD
ENDBRANCH  10  17
ENDBRANCH   4   5
BRANCH   4  20
HETATM   20  N3  UNL     1      -0.994   0.788   1.793  1.00  0.00    -0.044 N 
ATOM     21  H33 UNL     1      -1.704   1.380   2.224  1.00  0.00     0.277 HD
ATOM     22  H32 UNL     1      -1.294  -0.114   2.163  1.00  0.00     0.277 HD
ATOM     23  H31 UNL     1      -0.058   1.032   2.116  1.00  0.00     0.277 HD
ENDBRANCH   4  20
ENDBRANCH   1   4
BRANCH   1  24
HETATM   24  C4  UNL     1       1.219   0.460   0.374  1.00  0.00     0.314 C 
BRANCH  24  25
HETATM   25  C5  UNL     1       2.341  -0.380  -0.121  1.00  0.00     0.140 A 
HETATM   26  N5  UNL     1       2.288  -1.436  -0.953  1.00  0.00    -0.270 N 
HETATM   27  N6  UNL     1       3.533  -1.894  -1.132  1.00  0.00    -0.205 N 
ATOM     28  H5  UNL     1       1.443  -1.822  -1.375  1.00  0.00     0.190 HD
HETATM   29  N7  UNL     1       4.371  -1.159  -0.438  1.00  0.00    -0.001 N 
ATOM     30  H6  UNL     1       3.790  -2.690  -1.716  1.00  0.00     0.211 HD
HETATM   31  N12 UNL     1       3.644  -0.233   0.180  1.00  0.00    -0.249 N 
ATOM     32  H12 UNL     1       4.021   0.487   0.796  1.00  0.00     0.191 HD
BRANCH  29  33
HETATM   33  C6  UNL     1       5.801  -1.278  -0.327  1.00  0.00     0.751 A 
HETATM   34  N8  UNL     1       6.728  -1.298  -1.273  1.00  0.00    -0.112 N 
HETATM   35  N9  UNL     1       7.910  -1.426  -0.668  1.00  0.00    -0.213 N 
ATOM     36  H8  UNL     1       6.568  -1.228  -2.278  1.00  0.00     0.207 HD
HETATM   37  N10 UNL     1       7.755  -1.488   0.636  1.00  0.00    -0.213 N 
ATOM     38  H9  UNL     1       8.808  -1.470  -1.150  1.00  0.00     0.210 HD
HETATM   39  N11 UNL     1       6.453  -1.396   0.844  1.00  0.00    -0.112 N 
ATOM     40  H10 UNL     1       8.487  -1.587   1.340  1.00  0.00     0.210 HD
ATOM     41  H11 UNL     1       6.006  -1.412   1.761  1.00  0.00     0.207 HD
ENDBRANCH  29  33
ENDBRANCH  24  25
ENDBRANCH   1  24
TORSDOF 8
