REMARK  14 active torsions:
REMARK  status: ('A' for Active; 'I' for Inactive)
REMARK    1  A    between atoms: C1_4  and  C2_5 
REMARK    2  A    between atoms: C1_4  and  N3_17 
REMARK    3  A    between atoms: C2_5  and  C3_6 
REMARK    4  A    between atoms: C3_6  and  O1_7 
REMARK    5  A    between atoms: C3_6  and  C4_9 
REMARK    6  A    between atoms: C4_9  and  N2_10 
REMARK    7  A    between atoms: C4_9  and  C5_14 
REMARK    8  A    between atoms: C5_14  and  O2_15 
REMARK    9  A    between atoms: N3_17  and  C6_19 
REMARK   10  A    between atoms: C6_19  and  C7_20 
REMARK   11  A    between atoms: C7_20  and  C8_21 
REMARK   12  A    between atoms: C8_21  and  N4_22 
REMARK   13  A    between atoms: C13_27  and  N5_28 
REMARK   14  A    between atoms: N5_28  and  C14_30 
ROOT
HETATM    1  N1  UNL     1       2.247  -0.848   1.993  1.00  0.00    -0.389 N 
ATOM      2  H11 UNL     1       1.582  -1.200   2.682  1.00  0.00     0.157 HD
ATOM      3  H12 UNL     1       2.836  -0.071   2.293  1.00  0.00     0.157 HD
HETATM    4  C1  UNL     1       2.336  -1.360   0.842  1.00  0.00     0.072 C 
ENDROOT
BRANCH   4   5
HETATM    5  C2  UNL     1       3.298  -0.851  -0.154  1.00  0.00     0.109 C 
BRANCH   5   6
HETATM    6  C3  UNL     1       4.208   0.196   0.383  1.00  0.00     0.157 C 
BRANCH   6   7
HETATM    7  O1  UNL     1       4.969  -0.290   1.438  1.00  0.00    -0.393 OA
ATOM      8  H1  UNL     1       5.550   0.379   1.781  1.00  0.00     0.210 HD
ENDBRANCH   6   7
BRANCH   6   9
HETATM    9  C4  UNL     1       5.111   0.661  -0.761  1.00  0.00     0.235 C 
BRANCH   9  10
HETATM   10  N2  UNL     1       5.881  -0.472  -1.189  1.00  0.00    -0.071 N 
ATOM     11  H23 UNL     1       6.398  -0.912  -0.428  1.00  0.00     0.274 HD
ATOM     12  H22 UNL     1       5.303  -1.274  -1.439  1.00  0.00     0.274 HD
ATOM     13  H21 UNL     1       6.483  -0.162  -1.952  1.00  0.00     0.274 HD
ENDBRANCH   9  10
BRANCH   9  14
HETATM   14  C5  UNL     1       6.054   1.707  -0.183  1.00  0.00     0.199 C 
BRANCH  14  15
HETATM   15  O2  UNL     1       6.972   2.112  -1.143  1.00  0.00    -0.399 OA
ATOM     16  H2  UNL     1       7.560   2.765  -0.782  1.00  0.00     0.209 HD
ENDBRANCH  14  15
ENDBRANCH   9  14
ENDBRANCH   6   9
ENDBRANCH   5   6
ENDBRANCH   4   5
BRANCH   4  17
HETATM   17  N3  UNL     1       1.511  -2.447   0.422  1.00  0.00    -0.380 N 
ATOM     18  H3  UNL     1       1.676  -3.385   0.786  1.00  0.00     0.160 HD
BRANCH  17  19
HETATM   19  C6  UNL     1       0.441  -2.212  -0.522  1.00  0.00     0.122 C 
BRANCH  19  20
HETATM   20  C7  UNL     1      -0.601  -1.364   0.211  1.00  0.00     0.047 C 
BRANCH  20  21
HETATM   21  C8  UNL     1      -1.732  -1.099  -0.756  1.00  0.00     0.239 C 
BRANCH  21  22
HETATM   22  N4  UNL     1      -2.785  -0.319  -0.224  1.00  0.00    -0.065 N 
HETATM   23  C9  UNL     1      -2.992  -0.407   1.190  1.00  0.00     0.238 C 
HETATM   24  C10 UNL     1      -3.727   0.867   1.602  1.00  0.00     0.036 C 
HETATM   25  C11 UNL     1      -3.878   1.560   0.283  1.00  0.00     0.038 C 
HETATM   26  C12 UNL     1      -2.563   1.130  -0.392  1.00  0.00     0.244 C 
HETATM   27  C13 UNL     1      -4.852   0.765  -0.548  1.00  0.00     0.115 C 
HETATM   28  C15 UNL     1      -4.046  -0.466  -0.910  1.00  0.00     0.263 C 
BRANCH  27  29
HETATM   29  N5  UNL     1      -5.300   1.485  -1.714  1.00  0.00    -0.362 N 
ATOM     30  H5  UNL     1      -4.586   1.817  -2.363  1.00  0.00     0.162 HD
BRANCH  29  31
HETATM   31  C14 UNL     1      -6.631   1.764  -2.027  1.00  0.00     0.348 C 
HETATM   32  O3  UNL     1      -7.552   1.383  -1.270  1.00  0.00    -0.284 OA
ENDBRANCH  29  31
ENDBRANCH  27  29
ENDBRANCH  21  22
ENDBRANCH  20  21
ENDBRANCH  19  20
ENDBRANCH  17  19
ENDBRANCH   4  17
TORSDOF 14
