REMARK  12 active torsions:
REMARK  status: ('A' for Active; 'I' for Inactive)
REMARK    1  A    between atoms: N1_2  and  C2_3 
REMARK    2  A    between atoms: N1_2  and  C10_18 
REMARK    3  A    between atoms: C3_4  and  C4_5 
REMARK    4  A    between atoms: C4_5  and  N2_6 
REMARK       I    between atoms: N2_6  and  C5_8 
REMARK    5  A    between atoms: C5_8  and  C6_10 
REMARK    6  A    between atoms: C6_10  and  C7_11 
REMARK    7  A    between atoms: C7_11  and  C8_12 
REMARK    8  A    between atoms: C8_12  and  N3_13 
REMARK    9  A    between atoms: C10_18  and  C11_19 
REMARK   10  A    between atoms: C11_19  and  C12_20 
REMARK   11  A    between atoms: C12_20  and  C13_21 
REMARK   12  A    between atoms: C13_21  and  N6_22 
ROOT
HETATM    1  C2  UNL     1      -0.596   0.915   1.800  1.00  0.00     0.009 C 
HETATM    2  C3  UNL     1       0.534   1.149   2.143  1.00  0.00    -0.064 C 
ENDROOT
BRANCH   2   3
HETATM    3  C4  UNL     1       1.913   1.410   2.571  1.00  0.00     0.219 C 
BRANCH   3   4
HETATM    4  N2  UNL     1       2.821   0.398   2.095  1.00  0.00    -0.351 N 
HETATM    5  C5  UNL     1       2.997   0.146   0.713  1.00  0.00     0.218 C 
HETATM    6  O1  UNL     1       2.304   0.869  -0.083  1.00  0.00    -0.274 OA
ATOM      7  H2  UNL     1       3.351  -0.151   2.771  1.00  0.00     0.163 HD
BRANCH   5   8
HETATM    8  C6  UNL     1       3.927  -0.891   0.265  1.00  0.00     0.104 C 
BRANCH   8   9
HETATM    9  C7  UNL     1       4.027  -0.951  -1.213  1.00  0.00     0.029 C 
BRANCH   9  10
HETATM   10  C8  UNL     1       4.527   0.269  -1.901  1.00  0.00     0.122 C 
BRANCH  10  11
HETATM   11  N3  UNL     1       5.864   0.646  -1.471  1.00  0.00    -0.367 N 
HETATM   12  C9  UNL     1       6.935   0.146  -1.971  1.00  0.00     0.196 C 
HETATM   13  N4  UNL     1       6.910  -0.835  -3.004  1.00  0.00    -0.067 NA
HETATM   14  N5  UNL     1       8.175   0.615  -1.447  1.00  0.00    -0.067 NA
ATOM     15  H3  UNL     1       5.955   1.344  -0.733  1.00  0.00     0.161 HD
ENDBRANCH  10  11
ENDBRANCH   9  10
ENDBRANCH   8   9
ENDBRANCH   5   8
ENDBRANCH   3   4
ENDBRANCH   2   3
BRANCH   1  16
HETATM   16  N1  UNL     1      -1.946   0.614   1.405  1.00  0.00    -0.346 N 
HETATM   17  C1  UNL     1      -3.038   1.040   2.227  1.00  0.00     0.160 C 
BRANCH  16  18
HETATM   18  C10 UNL     1      -2.073  -0.106   0.185  1.00  0.00     0.132 C 
BRANCH  18  19
HETATM   19  C11 UNL     1      -2.633   0.625  -0.964  1.00  0.00     0.022 C 
BRANCH  19  20
HETATM   20  C12 UNL     1      -4.042   1.061  -0.807  1.00  0.00     0.021 C 
BRANCH  20  21
HETATM   21  C13 UNL     1      -4.922  -0.183  -0.652  1.00  0.00     0.122 C 
BRANCH  21  22
HETATM   22  N6  UNL     1      -6.272   0.305  -0.504  1.00  0.00    -0.367 N 
HETATM   23  C14 UNL     1      -7.033  -0.213   0.386  1.00  0.00     0.196 C 
HETATM   24  N7  UNL     1      -8.353   0.282   0.514  1.00  0.00    -0.067 NA
HETATM   25  N8  UNL     1      -6.536  -1.253   1.205  1.00  0.00    -0.067 NA
ATOM     26  H6  UNL     1      -6.617   1.055  -1.103  1.00  0.00     0.161 HD
ENDBRANCH  21  22
ENDBRANCH  20  21
ENDBRANCH  19  20
ENDBRANCH  18  19
ENDBRANCH  16  18
ENDBRANCH   1  16
TORSDOF 12
