REMARK  3 active torsions:
REMARK  status: ('A' for Active; 'I' for Inactive)
REMARK    1  A    between atoms: N2_11  and  C9_12 
REMARK    2  A    between atoms: C9_12  and  O2_13 
REMARK    3  A    between atoms: C9_12  and  C10_15 
ROOT
HETATM    1  C1  UNL     1      -4.643   0.924   0.425  1.00  0.00     0.310 C 
HETATM    2  N1  UNL     1      -3.622   0.285  -0.343  1.00  0.00     0.086 N 
HETATM    3  C2  UNL     1      -3.113  -0.931   0.256  1.00  0.00     0.298 C 
HETATM    4  C3  UNL     1      -2.283  -1.635  -0.778  1.00  0.00     0.199 C 
HETATM    5  O1  UNL     1      -1.331  -0.893  -1.389  1.00  0.00    -0.377 OA
HETATM    6  C4  UNL     1      -0.472  -0.165  -0.563  1.00  0.00     0.078 C 
HETATM    7  C5  UNL     1       0.206  -1.018   0.429  1.00  0.00     0.040 C 
HETATM    8  C6  UNL     1       0.760  -0.406   1.652  1.00  0.00     0.004 C 
HETATM    9  C7  UNL     1       1.835   0.567   1.595  1.00  0.00     0.020 C 
HETATM   10  C8  UNL     1       2.210   1.152   0.278  1.00  0.00     0.125 C 
HETATM   11  N2  UNL     1       1.899   0.387  -0.872  1.00  0.00    -0.358 N 
HETATM   12  C11 UNL     1       0.557   0.419  -1.503  1.00  0.00     0.163 C 
HETATM   13  C12 UNL     1      -1.287   0.970   0.013  1.00  0.00     0.070 C 
HETATM   14  C13 UNL     1      -2.580   1.165  -0.793  1.00  0.00     0.275 C 
ENDROOT
BRANCH  11  15
HETATM   15  C9  UNL     1       2.832  -0.455  -1.490  1.00  0.00     0.151 C 
BRANCH  15  16
HETATM   16  O2  UNL     1       2.352  -1.058  -2.557  1.00  0.00    -0.345 OA
ATOM     17  H2  UNL     1       2.985  -1.629  -2.976  1.00  0.00     0.219 HD
ENDBRANCH  15  16
BRANCH  15  18
HETATM   18  C10 UNL     1       4.214  -0.775  -1.164  1.00  0.00     0.155 C 
HETATM   19  N3  UNL     1       4.832  -0.202  -0.044  1.00  0.00    -0.111 NA
ENDBRANCH  15  18
ENDBRANCH  11  15
TORSDOF 3
