REMARK  12 active torsions:
REMARK  status: ('A' for Active; 'I' for Inactive)
REMARK    1  A    between atoms: C3_5  and  N2_6 
REMARK    2  A    between atoms: N4_11  and  C4_12 
REMARK    3  A    between atoms: C4_12  and  O1_13 
REMARK    4  A    between atoms: O1_13  and  C5_14 
REMARK    5  A    between atoms: C6_15  and  C7_16 
REMARK    6  A    between atoms: C7_16  and  C8_17 
REMARK    7  A    between atoms: C8_17  and  C9_18 
REMARK    8  A    between atoms: C9_18  and  O2_19 
REMARK    9  A    between atoms: C10_21  and  N5_22 
REMARK   10  A    between atoms: N5_22  and  N6_23 
REMARK   11  A    between atoms: N5_22  and  O3_26 
REMARK   12  A    between atoms: C12_34  and  N9_35 
ROOT
HETATM    1  C5  UNL     1      -0.478  -0.152   0.961  1.00  0.00     0.123 A 
HETATM    2  C6  UNL     1      -1.787  -0.311   0.540  1.00  0.00     0.027 A 
HETATM    3  C10 UNL     1      -2.420  -1.509   0.776  1.00  0.00     0.162 A 
HETATM    4  N7  UNL     1      -1.811  -2.528   1.398  1.00  0.00    -0.323 N 
ATOM      5  H7  UNL     1      -2.307  -3.405   1.559  1.00  0.00     0.169 HD
HETATM    6  C11 UNL     1      -0.552  -2.383   1.803  1.00  0.00     0.137 A 
HETATM    7  N8  UNL     1       0.083  -3.350   2.412  1.00  0.00    -0.383 N 
ATOM      8  H81 UNL     1       1.048  -3.239   2.722  1.00  0.00     0.157 HD
ATOM      9  H82 UNL     1      -0.451  -4.208   2.550  1.00  0.00     0.157 HD
HETATM   10  C12 UNL     1       0.174  -1.216   1.615  1.00  0.00     0.180 A 
ENDROOT
BRANCH   1  11
HETATM   11  O1  UNL     1       0.195   0.983   0.779  1.00  0.00    -0.301 OA
BRANCH  11  12
HETATM   12  C4  UNL     1       0.998   1.648  -0.075  1.00  0.00     0.262 C 
BRANCH  12  13
HETATM   13  N4  UNL     1       2.278   1.099  -0.443  1.00  0.00    -0.193 N 
HETATM   14  N3  UNL     1       2.384   0.260  -1.452  1.00  0.00    -0.121 N 
HETATM   15  C3  UNL     1       3.559  -0.255  -1.811  1.00  0.00     0.691 A 
ATOM     16  H3  UNL     1       1.546  -0.002  -1.971  1.00  0.00     0.206 HD
HETATM   17  N1  UNL     1       4.702   0.052  -1.162  1.00  0.00    -0.189 N 
HETATM   18  C2  UNL     1       4.621   0.901  -0.135  1.00  0.00     0.092 A 
ATOM     19  H1  UNL     1       5.595  -0.350  -1.446  1.00  0.00     0.184 HD
HETATM   20  C1  UNL     1       5.845   1.274   0.615  1.00  0.00     0.075 C 
HETATM   21  C13 UNL     1       3.405   1.425   0.226  1.00  0.00     0.291 A 
HETATM   22  O6  UNL     1       3.312   2.236   1.203  1.00  0.00    -0.264 OA
BRANCH  15  23
HETATM   23  N2  UNL     1       3.689  -1.088  -2.807  1.00  0.00    -0.233 N 
ATOM     24  H22 UNL     1       4.589  -1.482  -3.082  1.00  0.00     0.174 HD
ATOM     25  H21 UNL     1       2.825  -1.320  -3.297  1.00  0.00     0.174 HD
ENDBRANCH  15  23
ENDBRANCH  12  13
ENDBRANCH  11  12
ENDBRANCH   1  11
BRANCH   2  26
HETATM   26  C7  UNL     1      -2.517   0.733  -0.179  1.00  0.00     0.047 C 
BRANCH  26  27
HETATM   27  C8  UNL     1      -2.326   0.784  -1.663  1.00  0.00     0.031 C 
BRANCH  27  28
HETATM   28  C9  UNL     1      -3.176   1.976  -2.143  1.00  0.00     0.164 C 
BRANCH  28  29
HETATM   29  O2  UNL     1      -4.506   1.751  -1.803  1.00  0.00    -0.401 OA
ATOM     30  H2  UNL     1      -5.030   2.486  -2.099  1.00  0.00     0.209 HD
ENDBRANCH  28  29
ENDBRANCH  27  28
ENDBRANCH  26  27
ENDBRANCH   2  26
BRANCH  10  31
HETATM   31  N9  UNL     1       1.500  -1.133   2.093  1.00  0.00    -0.109 N 
HETATM   32  O4  UNL     1       1.806  -0.429   3.061  1.00  0.00    -0.532 OA
HETATM   33  O5  UNL     1       2.478  -1.853   1.467  1.00  0.00    -0.532 OA
ENDBRANCH  10  31
BRANCH   3  34
HETATM   34  N5  UNL     1      -3.765  -1.740   0.382  1.00  0.00    -0.152 N 
BRANCH  34  35
HETATM   35  N6  UNL     1      -4.791  -1.345   1.217  1.00  0.00    -0.317 N 
ATOM     36  H62 UNL     1      -4.599  -0.884   2.106  1.00  0.00     0.179 HD
ATOM     37  H61 UNL     1      -5.757  -1.511   0.934  1.00  0.00     0.179 HD
ENDBRANCH  34  35
BRANCH  34  38
HETATM   38  O3  UNL     1      -4.016  -2.341  -0.778  1.00  0.00    -0.267 OA
ATOM     39  H3  UNL     1      -4.916  -2.495  -1.042  1.00  0.00     0.247 HD
ENDBRANCH  34  38
ENDBRANCH   3  34
TORSDOF 12
