REMARK  7 active torsions:
REMARK  status: ('A' for Active; 'I' for Inactive)
REMARK    1  A    between atoms: O1_2  and  C2_3 
REMARK    2  A    between atoms: C2_3  and  C3_5 
REMARK    3  A    between atoms: N1_6  and  N2_8 
REMARK    4  A    between atoms: N2_8  and  C4_10 
REMARK    5  A    between atoms: C5_13  and  N4_14 
REMARK    6  A    between atoms: N8_25  and  C8_26 
REMARK    7  A    between atoms: C10_33  and  N11_34 
ROOT
HETATM    1  C4  UNL     1       1.397   0.714  -1.363  1.00  0.00     0.167 A 
HETATM    2  N3  UNL     1       1.046  -0.078  -2.395  1.00  0.00    -0.173 N 
ATOM      3  H3  UNL     1       1.695  -0.205  -3.172  1.00  0.00     0.186 HD
HETATM    4  C5  UNL     1      -0.142  -0.704  -2.420  1.00  0.00     0.679 A 
HETATM    5  N5  UNL     1      -0.999  -0.542  -1.401  1.00  0.00    -0.172 N 
ATOM      6  H5  UNL     1      -1.899  -1.022  -1.430  1.00  0.00     0.186 HD
HETATM    7  C6  UNL     1      -0.706   0.240  -0.334  1.00  0.00     0.194 A 
HETATM    8  C7  UNL     1       0.518   0.879  -0.319  1.00  0.00     0.142 A 
HETATM    9  N6  UNL     1       0.544   1.575   0.834  1.00  0.00    -0.278 N 
ATOM     10  H6  UNL     1       1.312   2.163   1.160  1.00  0.00     0.189 HD
HETATM   11  N7  UNL     1      -0.587   1.368   1.467  1.00  0.00    -0.219 N 
ATOM     12  H7  UNL     1      -0.825   1.780   2.369  1.00  0.00     0.209 HD
HETATM   13  N8  UNL     1      -1.374   0.561   0.789  1.00  0.00    -0.051 N 
ENDROOT
BRANCH  13  14
HETATM   14  C8  UNL     1      -2.676   0.082   1.111  1.00  0.00     0.725 A 
HETATM   15  N9  UNL     1      -3.040  -1.198   0.908  1.00  0.00    -0.138 N 
HETATM   16  C9  UNL     1      -4.277  -1.626   1.220  1.00  0.00     0.352 A 
ATOM     17  H9  UNL     1      -2.367  -1.854   0.511  1.00  0.00     0.189 HD
HETATM   18  O3  UNL     1      -4.594  -2.842   1.017  1.00  0.00    -0.246 OA
HETATM   19  N10 UNL     1      -5.203  -0.795   1.749  1.00  0.00    -0.141 N 
HETATM   20  C10 UNL     1      -4.851   0.493   1.958  1.00  0.00     0.694 A 
ATOM     21  H10 UNL     1      -6.138  -1.130   1.983  1.00  0.00     0.189 HD
HETATM   22  N12 UNL     1      -3.622   0.899   1.643  1.00  0.00    -0.020 N 
ATOM     23  H12 UNL     1      -3.378   1.875   1.810  1.00  0.00     0.203 HD
BRANCH  20  24
HETATM   24  N11 UNL     1      -5.750   1.279   2.467  1.00  0.00    -0.234 N 
ATOM     25 2H11 UNL     1      -6.691   0.968   2.708  1.00  0.00     0.174 HD
ATOM     26 1H11 UNL     1      -5.484   2.251   2.625  1.00  0.00     0.174 HD
ENDBRANCH  20  24
ENDBRANCH  13  14
BRANCH   4  27
HETATM   27  N4  UNL     1      -0.414  -1.445  -3.434  1.00  0.00    -0.234 N 
ATOM     28  H42 UNL     1       0.238  -1.568  -4.209  1.00  0.00     0.174 HD
ATOM     29  H41 UNL     1      -1.316  -1.920  -3.453  1.00  0.00     0.174 HD
ENDBRANCH   4  27
BRANCH   1  30
HETATM   30  N2  UNL     1       2.645   1.376  -1.330  1.00  0.00    -0.283 N 
ATOM     31  H2  UNL     1       2.863   1.964  -0.526  1.00  0.00     0.188 HD
BRANCH  30  32
HETATM   32  N1  UNL     1       3.593   1.261  -2.349  1.00  0.00    -0.304 N 
HETATM   33  C3  UNL     1       4.636   0.540  -2.135  1.00  0.00     0.189 C 
ATOM     34  H1  UNL     1       3.461   1.737  -3.241  1.00  0.00     0.186 HD
BRANCH  33  35
HETATM   35  C2  UNL     1       4.874  -0.159  -0.885  1.00  0.00     0.299 C 
HETATM   36  O2  UNL     1       5.919  -0.848  -0.743  1.00  0.00    -0.259 OA
BRANCH  35  37
HETATM   37  O1  UNL     1       3.996  -0.107   0.185  1.00  0.00    -0.322 OA
HETATM   38  C1  UNL     1       4.317  -0.822   1.358  1.00  0.00     0.213 C 
ENDBRANCH  35  37
ENDBRANCH  33  35
ENDBRANCH  30  32
ENDBRANCH   1  30
TORSDOF 7
