REMARK  7 active torsions:
REMARK  status: ('A' for Active; 'I' for Inactive)
REMARK    1  A    between atoms: C8_9  and  O2_10 
REMARK    2  A    between atoms: C9_12  and  O3_13 
REMARK    3  A    between atoms: C10_15  and  O4_16 
REMARK    4  A    between atoms: C12_19  and  C13_20 
REMARK    5  A    between atoms: C13_20  and  O5_21 
REMARK    6  A    between atoms: O5_21  and  S1_22 
REMARK    7  A    between atoms: S1_22  and  N1_23 
ROOT
HETATM    1  C1  UNL     1       0.838   5.167   0.559  1.00  0.00     0.102 C 
HETATM    2  C2  UNL     1       1.160   3.989   0.474  1.00  0.00    -0.158 C 
HETATM    3  C3  UNL     1       1.539   2.619   0.363  1.00  0.00     0.083 C 
HETATM    4  C4  UNL     1       0.624   1.681   0.416  1.00  0.00     0.060 C 
HETATM    5  O1  UNL     1      -0.739   2.025   0.582  1.00  0.00    -0.348 OA
HETATM    6  C5  UNL     1      -1.574   0.955   0.826  1.00  0.00     0.144 C 
HETATM    7  C6  UNL     1      -2.968   0.933   0.246  1.00  0.00     0.019 C 
HETATM    8  C7  UNL     1      -3.686  -0.325   0.628  1.00  0.00     0.042 C 
HETATM    9  C8  UNL     1      -2.965  -1.602   0.162  1.00  0.00     0.156 C 
HETATM   10  C9  UNL     1      -1.537  -1.345   0.314  1.00  0.00     0.120 C 
HETATM   11  C10 UNL     1      -0.436  -1.813  -0.508  1.00  0.00     0.161 C 
HETATM   12  C11 UNL     1       0.024  -0.356  -0.661  1.00  0.00     0.044 C 
HETATM   13  C12 UNL     1       0.981   0.213   0.302  1.00  0.00     0.076 C 
HETATM   14  C14 UNL     1      -1.307  -0.006  -0.300  1.00  0.00     0.030 C 
HETATM   15  C15 UNL     1      -2.282   0.668  -1.108  1.00  0.00     0.023 C 
ENDROOT
BRANCH  13  16
HETATM   16  C13 UNL     1       2.425   0.086  -0.099  1.00  0.00     0.203 C 
BRANCH  16  17
HETATM   17  O5  UNL     1       2.725  -1.281  -0.198  1.00  0.00    -0.259 OA
BRANCH  17  18
HETATM   18  S1  UNL     1       4.309  -1.546  -0.639  1.00  0.00     0.355 S 
HETATM   19  O6  UNL     1       4.586  -3.023  -0.442  1.00  0.00    -0.176 OA
HETATM   20  O7  UNL     1       4.576  -1.236  -2.080  1.00  0.00    -0.176 OA
BRANCH  18  21
HETATM   21  N1  UNL     1       5.348  -0.687   0.417  1.00  0.00    -0.306 N 
ATOM     22  H12 UNL     1       5.030  -0.106   1.193  1.00  0.00     0.171 HD
ATOM     23  H11 UNL     1       6.318  -0.849   0.147  1.00  0.00     0.171 HD
ENDBRANCH  18  21
ENDBRANCH  17  18
ENDBRANCH  16  17
ENDBRANCH  13  16
BRANCH  11  24
HETATM   24  O4  UNL     1      -0.853  -2.266  -1.761  1.00  0.00    -0.392 OA
ATOM     25  H4  UNL     1      -0.132  -2.572  -2.299  1.00  0.00     0.210 HD
ENDBRANCH  11  24
BRANCH  10  26
HETATM   26  O3  UNL     1      -1.192  -1.415   1.692  1.00  0.00    -0.384 OA
ATOM     27  H3  UNL     1      -0.262  -1.248   1.791  1.00  0.00     0.210 HD
ENDBRANCH  10  26
BRANCH   9  28
HETATM   28  O2  UNL     1      -3.413  -2.067  -1.038  1.00  0.00    -0.392 OA
ATOM     29  H2  UNL     1      -2.968  -2.855  -1.326  1.00  0.00     0.210 HD
ENDBRANCH   9  28
TORSDOF 7
