REMARK  11 active torsions:
REMARK  status: ('A' for Active; 'I' for Inactive)
REMARK    1  A    between atoms: C2_2  and  C5_9 
REMARK    2  A    between atoms: C3_3  and  C4_4 
REMARK    3  A    between atoms: C4_4  and  N1_5 
REMARK    4  A    between atoms: N1_5  and  N2_6 
REMARK    5  A    between atoms: C5_9  and  O1_10 
REMARK    6  A    between atoms: C5_9  and  C6_12 
REMARK    7  A    between atoms: C9_17  and  O4_18 
REMARK    8  A    between atoms: C10_20  and  O5_21 
REMARK    9  A    between atoms: C11_23  and  O6_24 
REMARK   10  A    between atoms: O6_24  and  C12_25 
REMARK   11  A    between atoms: C19_34  and  O8_35 
ROOT
HETATM    1  C12 UNL     1       1.411  -0.724   0.847  1.00  0.00     0.291 C 
HETATM    2  O7  UNL     1       2.081  -1.685   0.023  1.00  0.00    -0.346 OA
HETATM    3  C13 UNL     1       3.284  -1.187  -0.315  1.00  0.00     0.088 A 
HETATM    4  C14 UNL     1       3.154   0.036  -1.231  1.00  0.00     0.048 C 
HETATM    5  C15 UNL     1       4.594  -1.310   0.229  1.00  0.00     0.142 A 
HETATM    6  C16 UNL     1       5.659  -0.339  -0.108  1.00  0.00     0.068 C 
HETATM    7  N3  UNL     1       6.507   0.426  -0.363  1.00  0.00    -0.197 NA
HETATM    8  C17 UNL     1       3.658  -0.878   1.198  1.00  0.00     0.038 A 
HETATM    9  C18 UNL     1       3.290  -2.003   2.191  1.00  0.00     0.023 C 
HETATM   10  C19 UNL     1       2.627   0.151   1.273  1.00  0.00     0.185 C 
ENDROOT
BRANCH  10  11
HETATM   11  O8  UNL     1       2.406   0.598   2.593  1.00  0.00    -0.390 OA
ATOM     12  H8  UNL     1       3.148   1.132   2.853  1.00  0.00     0.210 HD
ENDBRANCH  10  11
BRANCH   1  13
HETATM   13  O6  UNL     1       0.500  -0.038   0.389  1.00  0.00    -0.347 OA
BRANCH  13  14
HETATM   14  C11 UNL     1      -0.589   0.555   0.185  1.00  0.00     0.196 C 
HETATM   15  C6  UNL     1      -1.408   0.273  -1.056  1.00  0.00     0.150 C 
HETATM   16  O2  UNL     1      -0.890  -0.693  -1.868  1.00  0.00    -0.347 OA
HETATM   17  C8  UNL     1      -1.296   1.507  -1.936  1.00  0.00     0.195 C 
HETATM   18  C7  UNL     1      -0.818  -0.190  -3.168  1.00  0.00     0.340 C 
HETATM   19  O3  UNL     1      -0.351   1.104  -2.906  1.00  0.00    -0.356 OA
HETATM   20  C9  UNL     1      -0.763   2.622  -1.089  1.00  0.00     0.181 C 
HETATM   21  C10 UNL     1      -0.624   2.081   0.292  1.00  0.00     0.181 C 
BRANCH  15  22
HETATM   22  C5  UNL     1      -2.864   0.005  -0.781  1.00  0.00     0.187 C 
BRANCH  22  23
HETATM   23  C2  UNL     1      -3.162  -1.166   0.032  1.00  0.00    -0.050 C 
HETATM   24  C1  UNL     1      -2.740  -2.534  -0.355  1.00  0.00     0.046 C 
HETATM   25  C3  UNL     1      -3.837  -1.066   1.162  1.00  0.00     0.039 C 
BRANCH  25  26
HETATM   26  C4  UNL     1      -4.349   0.169   1.733  1.00  0.00     0.208 C 
BRANCH  26  27
HETATM   27  N1  UNL     1      -5.317   0.763   1.244  1.00  0.00    -0.346 NA
BRANCH  27  28
HETATM   28  N2  UNL     1      -6.400   1.273   0.915  1.00  0.00    -0.281 N 
ATOM     29  H22 UNL     1      -6.829   0.813   1.718  1.00  0.00     0.191 HD
ATOM     30  H21 UNL     1      -7.198   1.763   0.512  1.00  0.00     0.191 HD
ENDBRANCH  27  28
ENDBRANCH  26  27
ENDBRANCH  25  26
ENDBRANCH  22  23
BRANCH  22  31
HETATM   31  O1  UNL     1      -3.624  -0.034  -1.936  1.00  0.00    -0.388 OA
ATOM     32  H1  UNL     1      -3.430   0.730  -2.466  1.00  0.00     0.210 HD
ENDBRANCH  22  31
ENDBRANCH  15  22
BRANCH  20  33
HETATM   33  O4  UNL     1       0.472   3.098  -1.579  1.00  0.00    -0.390 OA
ATOM     34  H4  UNL     1       0.810   3.805  -1.042  1.00  0.00     0.210 HD
ENDBRANCH  20  33
BRANCH  21  35
HETATM   35  O5  UNL     1      -1.699   2.553   1.038  1.00  0.00    -0.390 OA
ATOM     36  H5  UNL     1      -1.610   2.208   1.919  1.00  0.00     0.210 HD
ENDBRANCH  21  35
ENDBRANCH  13  14
ENDBRANCH   1  13
TORSDOF 11
