REMARK  6 active torsions:
REMARK  status: ('A' for Active; 'I' for Inactive)
REMARK    1  A    between atoms: O1_2  and  C2_3 
REMARK    2  A    between atoms: C2_3  and  C3_5 
REMARK    3  A    between atoms: C3_5  and  C4_6 
REMARK    4  A    between atoms: C3_5  and  N1_9 
REMARK    5  A    between atoms: C9_12  and  O3_13 
REMARK    6  A    between atoms: C9_12  and  C10_15 
ROOT
HETATM    1  N1  UNL     1       1.723  -0.574   0.144  1.00  0.00    -0.335 N 
HETATM    2  C7  UNL     1       1.541  -1.401  -1.048  1.00  0.00     0.130 C 
HETATM    3  C8  UNL     1       0.050  -1.310  -1.292  1.00  0.00     0.068 C 
HETATM    4  C9  UNL     1      -0.510  -1.165   0.107  1.00  0.00     0.147 C 
HETATM    5  C20 UNL     1       0.552  -0.614   0.938  1.00  0.00     0.256 C 
HETATM    6  O4  UNL     1       0.519  -0.230   2.126  1.00  0.00    -0.270 OA
ENDROOT
BRANCH   4   7
HETATM    7  O3  UNL     1      -0.751  -2.478   0.577  1.00  0.00    -0.379 OA
ATOM      8  H3  UNL     1      -1.102  -2.387   1.455  1.00  0.00     0.211 HD
ENDBRANCH   4   7
BRANCH   4   9
HETATM    9  C10 UNL     1      -1.822  -0.469   0.119  1.00  0.00     0.004 C 
HETATM   10  C11 UNL     1      -2.309  -0.384   1.546  1.00  0.00     0.018 C 
HETATM   11  C12 UNL     1      -3.771   0.050   1.613  1.00  0.00    -0.010 C 
HETATM   12  C13 UNL     1      -4.594  -0.831   0.733  1.00  0.00     0.009 C 
HETATM   13  C17 UNL     1      -3.770   1.488   1.088  1.00  0.00     0.048 C 
HETATM   14  C14 UNL     1      -4.152  -0.665  -0.702  1.00  0.00    -0.010 C 
HETATM   15  C15 UNL     1      -4.164   0.748  -1.183  1.00  0.00     0.048 C 
HETATM   16  C19 UNL     1      -2.760  -1.246  -0.784  1.00  0.00     0.018 C 
HETATM   17  C16 UNL     1      -3.190   1.520  -0.287  1.00  0.00     0.105 C 
HETATM   18  F1  UNL     1      -3.190   2.834  -0.726  1.00  0.00    -0.243 F 
HETATM   19  C18 UNL     1      -1.804   0.947  -0.401  1.00  0.00     0.056 C 
ENDBRANCH   4   9
BRANCH   1  20
HETATM   20  C3  UNL     1       2.928   0.164   0.443  1.00  0.00     0.190 C 
BRANCH  20  21
HETATM   21  C2  UNL     1       4.101  -0.752   0.497  1.00  0.00     0.281 C 
HETATM   22  O2  UNL     1       3.928  -1.979   0.302  1.00  0.00    -0.263 OA
BRANCH  21  23
HETATM   23  O1  UNL     1       5.383  -0.319   0.753  1.00  0.00    -0.325 OA
HETATM   24  C1  UNL     1       6.519  -1.126   0.817  1.00  0.00     0.213 C 
ENDBRANCH  21  23
ENDBRANCH  20  21
BRANCH  20  25
HETATM   25  C4  UNL     1       3.091   1.203  -0.653  1.00  0.00     0.010 C 
HETATM   26  C5  UNL     1       4.327   2.049  -0.426  1.00  0.00     0.012 C 
HETATM   27  C6  UNL     1       1.896   2.133  -0.546  1.00  0.00     0.012 C 
ENDBRANCH  20  25
ENDBRANCH   1  20
TORSDOF 6
