REMARK  9 active torsions:
REMARK  status: ('A' for Active; 'I' for Inactive)
REMARK    1  A    between atoms: C2_2  and  C5_5 
REMARK    2  A    between atoms: C5_5  and  C6_6 
REMARK    3  A    between atoms: C6_6  and  O1_7 
REMARK    4  A    between atoms: C6_6  and  C21_28 
REMARK    5  A    between atoms: O1_7  and  C7_8 
REMARK    6  A    between atoms: C13_17  and  C14_18 
REMARK    7  A    between atoms: N3_22  and  O3_23 
REMARK       I    between atoms: C21_28  and  N4_30 
REMARK    8  A    between atoms: N4_30  and  C22_32 
REMARK    9  A    between atoms: C22_32  and  C23_33 
ROOT
HETATM    1  C7  UNL     1      -0.755  -1.702  -0.411  1.00  0.00     0.158 C 
HETATM    2  C8  UNL     1      -1.553  -2.612  -1.331  1.00  0.00     0.064 C 
HETATM    3  C9  UNL     1      -2.975  -2.253  -1.063  1.00  0.00     0.278 C 
HETATM    4  N1  UNL     1      -2.965  -1.492   0.196  1.00  0.00     0.119 N 
HETATM    5  C10 UNL     1      -1.771  -0.726   0.104  1.00  0.00     0.263 C 
HETATM    6  C11 UNL     1      -1.865   0.442  -0.829  1.00  0.00     0.141 C 
HETATM    7  C12 UNL     1      -3.120   1.213  -0.629  1.00  0.00     0.224 C 
HETATM    8  O2  UNL     1      -3.116   2.433  -0.900  1.00  0.00    -0.273 OA
HETATM    9  N2  UNL     1      -4.255   0.550  -0.147  1.00  0.00    -0.315 N 
HETATM   10  C13 UNL     1      -5.635   0.855   0.062  1.00  0.00     0.109 C 
HETATM   11  C18 UNL     1      -5.910   0.249   1.445  1.00  0.00     0.031 C 
HETATM   12  C19 UNL     1      -4.776  -0.721   1.690  1.00  0.00     0.059 C 
HETATM   13  C20 UNL     1      -4.194  -0.853   0.315  1.00  0.00     0.327 C 
ENDROOT
BRANCH   1  14
HETATM   14  O1  UNL     1       0.310  -1.177  -1.083  1.00  0.00    -0.369 OA
BRANCH  14  15
HETATM   15  C6  UNL     1       1.575  -1.550  -0.461  1.00  0.00     0.214 C 
BRANCH  15  16
HETATM   16  C5  UNL     1       2.308  -2.348  -1.480  1.00  0.00     0.050 C 
BRANCH  16  17
HETATM   17  C2  UNL     1       3.643  -2.889  -1.204  1.00  0.00    -0.049 C 
HETATM   18  C1  UNL     1       3.766  -3.791  -0.013  1.00  0.00     0.014 C 
HETATM   19  C3  UNL     1       4.778  -1.908  -1.232  1.00  0.00     0.014 C 
HETATM   20  C4  UNL     1       4.001  -3.867  -2.403  1.00  0.00     0.014 C 
ENDBRANCH  16  17
ENDBRANCH  15  16
BRANCH  15  21
HETATM   21  C21 UNL     1       2.170  -0.277  -0.068  1.00  0.00     0.246 C 
HETATM   22  O4  UNL     1       1.788   0.794  -0.653  1.00  0.00    -0.271 OA
HETATM   23  N4  UNL     1       3.166  -0.088   0.947  1.00  0.00    -0.358 N 
ATOM     24  H4  UNL     1       3.518  -0.897   1.459  1.00  0.00     0.162 HD
BRANCH  23  25
HETATM   25  C22 UNL     1       3.677   1.215   1.256  1.00  0.00     0.133 C 
BRANCH  25  26
HETATM   26  C23 UNL     1       4.671   1.323   2.345  1.00  0.00     0.076 C 
HETATM   27  C24 UNL     1       5.060   2.796   2.494  1.00  0.00     0.012 C 
HETATM   28  C25 UNL     1       6.403   3.153   1.997  1.00  0.00     0.001 C 
HETATM   29  C26 UNL     1       7.083   2.283   1.016  1.00  0.00     0.006 C 
HETATM   30  C27 UNL     1       6.642   0.863   0.935  1.00  0.00     0.079 C 
HETATM   31  C28 UNL     1       5.910   0.505   2.210  1.00  0.00     0.248 C 
HETATM   32  F1  UNL     1       5.743  -0.845   2.396  1.00  0.00    -0.206 F 
HETATM   33  F2  UNL     1       6.776   0.930   3.242  1.00  0.00    -0.206 F 
ENDBRANCH  25  26
ENDBRANCH  23  25
ENDBRANCH  15  21
ENDBRANCH  14  15
ENDBRANCH   1  14
BRANCH  10  34
HETATM   34  C14 UNL     1      -6.019   2.281   0.129  1.00  0.00     0.109 C 
HETATM   35  C15 UNL     1      -7.533   2.318   0.405  1.00  0.00     0.025 C 
HETATM   36  C16 UNL     1      -8.097   1.860  -0.908  1.00  0.00     0.018 C 
HETATM   37  C17 UNL     1      -7.115   2.423  -1.912  1.00  0.00     0.121 C 
HETATM   38  N3  UNL     1      -6.022   2.969  -1.162  1.00  0.00    -0.193 NA
BRANCH  38  39
HETATM   39  O3  UNL     1      -6.076   4.290  -0.977  1.00  0.00    -0.313 OA
ATOM     40  H3  UNL     1      -6.078   4.737  -1.815  1.00  0.00     0.237 HD
ENDBRANCH  38  39
ENDBRANCH  10  34
TORSDOF 9
