REMARK  9 active torsions:
REMARK  status: ('A' for Active; 'I' for Inactive)
REMARK    1  A    between atoms: C2_2  and  C3_3 
REMARK    2  A    between atoms: C3_3  and  N1_4 
REMARK    3  A    between atoms: C6_7  and  N2_8 
REMARK       I    between atoms: N2_8  and  C7_9 
REMARK    4  A    between atoms: C7_9  and  C8_11 
REMARK    5  A    between atoms: C8_11  and  C9_12 
REMARK    6  A    between atoms: C14_18  and  C15_19 
REMARK    7  A    between atoms: C15_19  and  C16_20 
REMARK    8  A    between atoms: C18_22  and  C20_24 
REMARK    9  A    between atoms: C20_24  and  O2_25 
ROOT
HETATM    1  C9  UNL     1      -1.754  -0.084   1.291  1.00  0.00     0.001 C 
HETATM    2  C10 UNL     1      -1.772   1.320   1.727  1.00  0.00     0.012 C 
HETATM    3  C11 UNL     1      -3.098   2.036   1.613  1.00  0.00     0.017 C 
HETATM    4  C12 UNL     1      -4.300   1.166   1.617  1.00  0.00     0.278 C 
HETATM    5  N3  UNL     1      -4.445   0.855   0.227  1.00  0.00     0.100 N 
HETATM    6  C13 UNL     1      -3.766  -0.299  -0.195  1.00  0.00     0.278 C 
HETATM    7  C14 UNL     1      -2.275  -0.332  -0.102  1.00  0.00     0.018 C 
HETATM    8  C18 UNL     1      -4.274   2.065  -0.492  1.00  0.00     0.177 C 
HETATM    9  C19 UNL     1      -4.112   1.956  -1.952  1.00  0.00     0.051 C 
HETATM   10  C21 UNL     1      -3.138   2.725   0.242  1.00  0.00     0.050 C 
ENDROOT
BRANCH   1  11
HETATM   11  C8  UNL     1      -0.429  -0.720   1.526  1.00  0.00     0.123 C 
BRANCH  11  12
HETATM   12  C7  UNL     1       0.726  -0.102   0.781  1.00  0.00     0.287 C 
HETATM   13  N2  UNL     1       1.929  -0.754   0.961  1.00  0.00    -0.409 NA
HETATM   14  O1  UNL     1       0.566   0.904   0.071  1.00  0.00    -0.258 OA
BRANCH  13  15
HETATM   15  C6  UNL     1       3.130  -1.403   1.138  1.00  0.00     0.170 C 
HETATM   16  C5  UNL     1       3.608  -2.147  -0.108  1.00  0.00     0.069 C 
HETATM   17  C4  UNL     1       4.307  -1.289  -1.096  1.00  0.00     0.276 C 
HETATM   18  N1  UNL     1       5.303  -0.378  -0.498  1.00  0.00     0.091 N 
HETATM   19  C23 UNL     1       5.533  -0.874   0.882  1.00  0.00     0.276 C 
HETATM   20  C22 UNL     1       4.288  -0.543   1.639  1.00  0.00     0.069 C 
BRANCH  18  21
HETATM   21  C3  UNL     1       6.555  -0.492  -1.242  1.00  0.00     0.299 C 
BRANCH  21  22
HETATM   22  C2  UNL     1       7.456   0.620  -0.902  1.00  0.00    -0.007 C 
HETATM   23  C1  UNL     1       7.218   1.636  -0.112  1.00  0.00     0.008 C 
ENDBRANCH  21  22
ENDBRANCH  18  21
ENDBRANCH  13  15
ENDBRANCH  11  12
ENDBRANCH   1  11
BRANCH   7  24
HETATM   24  C15 UNL     1      -1.835  -1.735  -0.469  1.00  0.00     0.006 C 
BRANCH  24  25
HETATM   25  C16 UNL     1      -2.267  -2.159  -1.858  1.00  0.00    -0.004 C 
HETATM   26  C17 UNL     1      -1.707  -3.583  -2.013  1.00  0.00     0.005 C 
ENDBRANCH  24  25
ENDBRANCH   7  24
BRANCH   8  27
HETATM   27  C20 UNL     1      -5.481   3.003  -0.287  1.00  0.00     0.205 C 
BRANCH  27  28
HETATM   28  O2  UNL     1      -6.654   2.379  -0.740  1.00  0.00    -0.398 OA
ATOM     29  H2  UNL     1      -7.397   2.957  -0.614  1.00  0.00     0.209 HD
ENDBRANCH  27  28
ENDBRANCH   8  27
TORSDOF 9
