REMARK  6 active torsions:
REMARK  status: ('A' for Active; 'I' for Inactive)
REMARK    1  A    between atoms: C2_2  and  C3_3 
REMARK    2  A    between atoms: C5_5  and  O1_6 
REMARK    3  A    between atoms: O1_6  and  C6_7 
REMARK    4  A    between atoms: C10_12  and  C11_13 
REMARK    5  A    between atoms: C11_13  and  O3_15 
REMARK    6  A    between atoms: O3_15  and  C12_16 
ROOT
HETATM    1  C3  UNL     1      -0.345   1.783  -0.036  1.00  0.00    -0.009 A 
HETATM    2  C4  UNL     1      -1.472   0.923  -0.051  1.00  0.00     0.051 A 
HETATM    3  C5  UNL     1      -1.361  -0.431   0.054  1.00  0.00     0.088 A 
HETATM    4  C9  UNL     1      -0.086  -0.935   0.176  1.00  0.00     0.062 A 
HETATM    5 BR1  UNL     1       0.187  -2.837   0.331  1.00  0.00    -0.047 Br
HETATM    6  C10 UNL     1       1.028  -0.142   0.193  1.00  0.00     0.084 A 
HETATM    7  C14 UNL     1       0.918   1.252   0.086  1.00  0.00     0.074 A 
HETATM    8  N1  UNL     1       2.113   2.033   0.083  1.00  0.00    -0.100 NA
ENDROOT
BRANCH   6   9
HETATM    9  C11 UNL     1       2.352  -0.726   0.321  1.00  0.00     0.296 C 
HETATM   10  O2  UNL     1       2.471  -1.974   0.419  1.00  0.00    -0.259 OA
BRANCH   9  11
HETATM   11  O3  UNL     1       3.515   0.028   0.340  1.00  0.00    -0.318 OA
BRANCH  11  12
HETATM   12  C12 UNL     1       4.750  -0.610   0.465  1.00  0.00     0.174 C 
HETATM   13  C13 UNL     1       5.037  -1.580  -0.646  1.00  0.00     0.034 C 
ENDBRANCH  11  12
ENDBRANCH   9  11
ENDBRANCH   6   9
BRANCH   3  14
HETATM   14  O1  UNL     1      -2.414  -1.300   0.045  1.00  0.00    -0.345 OA
BRANCH  14  15
HETATM   15  C6  UNL     1      -3.768  -0.991  -0.068  1.00  0.00     0.120 C 
HETATM   16  C7  UNL     1      -4.568  -1.512   1.131  1.00  0.00     0.040 C 
HETATM   17  C8  UNL     1      -4.299  -1.795  -1.266  1.00  0.00     0.040 C 
ENDBRANCH  14  15
ENDBRANCH   3  14
BRANCH   1  18
HETATM   18  C2  UNL     1      -0.565   3.200  -0.184  1.00  0.00     0.003 C 
HETATM   19  C1  UNL     1       0.164   4.129   0.321  1.00  0.00     0.012 C 
ENDBRANCH   1  18
TORSDOF 6
