REMARK  6 active torsions:
REMARK  status: ('A' for Active; 'I' for Inactive)
REMARK       I    between atoms: C2_2  and  N1_4 
REMARK    1  A    between atoms: N1_4  and  C3_6 
REMARK    2  A    between atoms: C4_7  and  C5_8 
REMARK    3  A    between atoms: N2_9  and  N3_11 
REMARK       I    between atoms: N3_11  and  C6_13 
REMARK    4  A    between atoms: C6_13  and  C7_15 
REMARK       I    between atoms: C7_15  and  N4_17 
REMARK    5  A    between atoms: N4_17  and  N5_19 
REMARK    6  A    between atoms: C9_23  and  N6_24 
ROOT
HETATM    1  C3  UNL     1      -2.405  -0.208  -0.005  1.00  0.00     0.062 A 
HETATM    2  C4  UNL     1      -1.283  -0.893   0.297  1.00  0.00     0.013 A 
HETATM    3  C8  UNL     1      -1.316  -2.360   0.479  1.00  0.00     0.070 A 
HETATM    4  C9  UNL     1      -2.433  -3.031   0.351  1.00  0.00     0.174 A 
HETATM    5  N7  UNL     1      -3.597  -2.298   0.035  1.00  0.00    -0.345 N 
ATOM      6  H7  UNL     1      -4.475  -2.808  -0.067  1.00  0.00     0.167 HD
HETATM    7  C10 UNL     1      -3.612  -1.009  -0.133  1.00  0.00     0.120 A 
ENDROOT
BRANCH   2   8
HETATM    8  C5  UNL     1      -0.031  -0.178   0.444  1.00  0.00     0.121 C 
HETATM    9  N2  UNL     1       1.028  -0.910   0.740  1.00  0.00    -0.308 N 
ATOM     10  H2  UNL     1       0.923  -1.919   0.850  1.00  0.00     0.186 HD
BRANCH   9  11
HETATM   11  N3  UNL     1       2.281  -0.334   0.905  1.00  0.00    -0.262 N 
HETATM   12  C6  UNL     1       3.085  -0.071  -0.220  1.00  0.00     0.329 C 
HETATM   13  O2  UNL     1       2.663  -0.359  -1.362  1.00  0.00    -0.261 OA
ATOM     14  H3  UNL     1       2.618  -0.102   1.839  1.00  0.00     0.190 HD
BRANCH  12  15
HETATM   15  C7  UNL     1       4.391   0.529  -0.054  1.00  0.00     0.329 C 
HETATM   16  O3  UNL     1       4.841   0.828   1.075  1.00  0.00    -0.261 OA
HETATM   17  N4  UNL     1       5.225   0.804  -1.188  1.00  0.00    -0.268 N 
ATOM     18  H4  UNL     1       4.881   0.569  -2.119  1.00  0.00     0.190 HD
BRANCH  17  19
HETATM   19  N5  UNL     1       6.479   1.377  -1.066  1.00  0.00    -0.342 N 
ATOM     20  H52 UNL     1       6.807   1.606  -0.128  1.00  0.00     0.176 HD
ATOM     21  H51 UNL     1       7.072   1.573  -1.872  1.00  0.00     0.176 HD
ENDBRANCH  17  19
ENDBRANCH  12  15
ENDBRANCH   9  11
ENDBRANCH   2   8
BRANCH   1  22
HETATM   22  N1  UNL     1      -2.363   1.190  -0.176  1.00  0.00    -0.326 N 
HETATM   23  C2  UNL     1      -3.416   2.055  -0.488  1.00  0.00     0.218 C 
HETATM   24  C1  UNL     1      -3.151   3.538  -0.628  1.00  0.00     0.117 C 
HETATM   25  O1  UNL     1      -4.583   1.653  -0.659  1.00  0.00    -0.274 OA
ATOM     26  H1  UNL     1      -1.449   1.626  -0.057  1.00  0.00     0.169 HD
ENDBRANCH   1  22
BRANCH   4  27
HETATM   27  N6  UNL     1      -2.482  -4.452   0.524  1.00  0.00    -0.098 N 
HETATM   28  O4  UNL     1      -2.858  -5.238  -0.342  1.00  0.00    -0.531 OA
HETATM   29  O5  UNL     1      -2.081  -4.951   1.738  1.00  0.00    -0.531 OA
ENDBRANCH   4  27
TORSDOF 6
