REMARK  9 active torsions:
REMARK  status: ('A' for Active; 'I' for Inactive)
REMARK    1  A    between atoms: N1_1  and  N2_4 
REMARK    2  A    between atoms: C2_9  and  N4_10 
REMARK    3  A    between atoms: C3_11  and  C4_12 
REMARK    4  A    between atoms: C4_12  and  N5_13 
REMARK       I    between atoms: N5_13  and  C5_15 
REMARK    5  A    between atoms: C5_15  and  O2_17 
REMARK    6  A    between atoms: O2_17  and  N6_18 
REMARK    7  A    between atoms: C6_21  and  O3_22 
REMARK    8  A    between atoms: C9_30  and  O6_31 
REMARK    9  A    between atoms: C10_33  and  O7_34 
ROOT
HETATM    1  N4  UNL     1      -0.167   1.282   0.332  1.00  0.00    -0.249 N 
HETATM    2  C3  UNL     1       0.827   1.414  -0.498  1.00  0.00     0.079 A 
HETATM    3  C6  UNL     1       1.634   2.596  -0.396  1.00  0.00     0.159 A 
HETATM    4  C7  UNL     1       1.431   3.568   0.510  1.00  0.00     0.284 A 
HETATM    5  O4  UNL     1       2.117   4.611   0.637  1.00  0.00    -0.265 OA
HETATM    6  N7  UNL     1       0.398   3.403   1.361  1.00  0.00    -0.273 N 
ATOM      7  H7  UNL     1       0.189   4.104   2.072  1.00  0.00     0.173 HD
HETATM    8  C8  UNL     1      -0.341   2.304   1.250  1.00  0.00     0.335 A 
HETATM    9  O5  UNL     1      -1.297   2.216   2.095  1.00  0.00    -0.246 OA
ENDROOT
BRANCH   1  10
HETATM   10  C2  UNL     1      -1.191   0.327   0.199  1.00  0.00     0.126 C 
HETATM   11  N3  UNL     1      -1.165  -0.987   0.698  1.00  0.00    -0.330 N 
HETATM   12  C1  UNL     1      -2.518  -1.454   0.501  1.00  0.00     0.129 C 
ATOM     13  H3  UNL     1      -0.377  -1.492   1.104  1.00  0.00     0.168 HD
HETATM   14  N2  UNL     1      -3.151  -2.336   1.183  1.00  0.00    -0.293 N 
HETATM   15  C10 UNL     1      -3.110  -0.723  -0.649  1.00  0.00     0.223 C 
ATOM     16  H2  UNL     1      -4.108  -2.543   0.898  1.00  0.00     0.187 HD
HETATM   17  C9  UNL     1      -2.171   0.455  -0.924  1.00  0.00     0.222 C 
BRANCH  14  18
HETATM   18  N1  UNL     1      -2.650  -3.038   2.279  1.00  0.00    -0.344 N 
ATOM     19  H12 UNL     1      -1.691  -2.818   2.549  1.00  0.00     0.176 HD
ATOM     20  H11 UNL     1      -3.154  -3.740   2.822  1.00  0.00     0.176 HD
ENDBRANCH  14  18
BRANCH  15  21
HETATM   21  O7  UNL     1      -3.156  -1.587  -1.736  1.00  0.00    -0.385 OA
ATOM     22  H7  UNL     1      -3.535  -1.120  -2.471  1.00  0.00     0.210 HD
ENDBRANCH  15  21
BRANCH  17  23
HETATM   23  O6  UNL     1      -1.823   0.430  -2.207  1.00  0.00    -0.385 OA
ATOM     24  H6  UNL     1      -2.445   0.511  -2.920  1.00  0.00     0.210 HD
ENDBRANCH  17  23
ENDBRANCH   1  10
BRANCH   2  25
HETATM   25  C4  UNL     1       1.265   0.620  -1.624  1.00  0.00     0.185 C 
BRANCH  25  26
HETATM   26  N5  UNL     1       2.506  -0.050  -1.298  1.00  0.00    -0.330 N 
HETATM   27  C5  UNL     1       2.906  -1.089  -0.501  1.00  0.00     0.382 C 
HETATM   28  O1  UNL     1       2.174  -1.800   0.206  1.00  0.00    -0.236 OA
ATOM     29  H5  UNL     1       3.295   0.363  -1.796  1.00  0.00     0.165 HD
BRANCH  27  30
HETATM   30  O2  UNL     1       4.276  -1.411  -0.445  1.00  0.00    -0.188 OA
BRANCH  30  31
HETATM   31  N6  UNL     1       4.724  -2.410   0.321  1.00  0.00    -0.301 N 
ATOM     32  H62 UNL     1       4.047  -2.940   0.870  1.00  0.00     0.184 HD
ATOM     33  H61 UNL     1       5.716  -2.643   0.362  1.00  0.00     0.184 HD
ENDBRANCH  30  31
ENDBRANCH  27  30
ENDBRANCH  25  26
ENDBRANCH   2  25
BRANCH   3  34
HETATM   34  O3  UNL     1       2.712   2.786  -1.280  1.00  0.00    -0.354 OA
ATOM     35  H3  UNL     1       3.246   3.569  -1.212  1.00  0.00     0.218 HD
ENDBRANCH   3  34
TORSDOF 9
