REMARK  8 active torsions:
REMARK  status: ('A' for Active; 'I' for Inactive)
REMARK    1  A    between atoms: N2_4  and  C1_6 
REMARK    2  A    between atoms: C1_6  and  O1_7 
REMARK    3  A    between atoms: O1_7  and  C2_8 
REMARK    4  A    between atoms: C2_8  and  C3_9 
REMARK    5  A    between atoms: C2_8  and  C4_13 
REMARK    6  A    between atoms: C3_9  and  O2_10 
REMARK    7  A    between atoms: O2_10  and  O3_11 
REMARK    8  A    between atoms: N5_18  and  O5_19 
ROOT
HETATM    1  C2  UNL     1      -0.264   0.192  -0.403  1.00  0.00     0.223 C 
ENDROOT
BRANCH   1   2
HETATM    2  O1  UNL     1       0.905   0.013   0.323  1.00  0.00    -0.356 OA
BRANCH   2   3
HETATM    3  C1  UNL     1       2.008  -0.118  -0.522  1.00  0.00     0.308 C 
BRANCH   3   4
HETATM    4  N2  UNL     1       3.141  -0.295   0.322  1.00  0.00    -0.320 N 
HETATM    5  N1  UNL     1       3.659   0.698   0.832  1.00  0.00    -0.348 N 
ATOM      6  H12 UNL     1       3.272   1.623   0.644  1.00  0.00     0.176 HD
ATOM      7  H11 UNL     1       4.471   0.571   1.437  1.00  0.00     0.176 HD
ATOM      8  H2  UNL     1       3.516  -1.227   0.500  1.00  0.00     0.182 HD
ENDBRANCH   3   4
ENDBRANCH   2   3
ENDBRANCH   1   2
BRANCH   1   9
HETATM    9  C3  UNL     1      -0.810   1.560  -0.038  1.00  0.00     0.249 C 
BRANCH   9  10
HETATM   10  O2  UNL     1      -1.987   1.841  -0.713  1.00  0.00    -0.240 OA
BRANCH  10  11
HETATM   11  O3  UNL     1      -2.372   3.044  -0.324  1.00  0.00    -0.251 OA
ATOM     12  H3  UNL     1      -3.179   3.237  -0.787  1.00  0.00     0.253 HD
ENDBRANCH  10  11
ENDBRANCH   9  10
ENDBRANCH   1   9
BRANCH   1  13
HETATM   13  C4  UNL     1      -1.186  -0.890  -0.073  1.00  0.00     0.182 A 
HETATM   14  N3  UNL     1      -1.911  -1.598  -0.956  1.00  0.00    -0.259 N 
HETATM   15  N4  UNL     1      -2.616  -2.480  -0.261  1.00  0.00     0.051 NA
ATOM     16  H3  UNL     1      -1.918  -1.479  -1.969  1.00  0.00     0.186 HD
HETATM   17  O4  UNL     1      -2.368  -2.359   1.003  1.00  0.00    -0.112 OA
HETATM   18  N5  UNL     1      -1.503  -1.398   1.132  1.00  0.00    -0.088 N 
BRANCH  18  19
HETATM   19  O5  UNL     1      -1.055  -1.032   2.241  1.00  0.00    -0.260 OA
ATOM     20  H5  UNL     1      -1.279  -1.391   3.092  1.00  0.00     0.247 HD
ENDBRANCH  18  19
ENDBRANCH   1  13
TORSDOF 8
