REMARK  7 active torsions:
REMARK  status: ('A' for Active; 'I' for Inactive)
REMARK    1  A    between atoms: O1_2  and  N1_3 
REMARK    2  A    between atoms: N1_3  and  C2_5 
REMARK    3  A    between atoms: C2_5  and  C3_6 
REMARK    4  A    between atoms: C3_6  and  N2_7 
REMARK    5  A    between atoms: N2_7  and  C4_9 
REMARK    6  A    between atoms: C5_12  and  N4_13 
REMARK    7  A    between atoms: C10_21  and  N6_22 
REMARK       I    between atoms: N6_22  and  C11_24 
ROOT
HETATM    1  C4  UNL     1       0.743   0.298  -0.006  1.00  0.00     0.707 A 
HETATM    2  N3  UNL     1      -0.419   1.003   0.039  1.00  0.00    -0.021 N 
ATOM      3  H3  UNL     1      -0.394   2.020   0.108  1.00  0.00     0.203 HD
HETATM    4  C5  UNL     1      -1.595   0.367  -0.007  1.00  0.00     0.709 A 
HETATM    5  N5  UNL     1      -1.591  -0.959  -0.096  1.00  0.00    -0.021 N 
ATOM      6  H5  UNL     1      -2.493  -1.434  -0.130  1.00  0.00     0.203 HD
HETATM    7  C10 UNL     1      -0.451  -1.740  -0.146  1.00  0.00     0.713 A 
HETATM    8  N9  UNL     1       0.714  -1.042  -0.096  1.00  0.00    -0.021 N 
ATOM      9  H9  UNL     1       1.596  -1.553  -0.128  1.00  0.00     0.203 HD
ENDROOT
BRANCH   1  10
HETATM   10  N2  UNL     1       1.811   0.970   0.030  1.00  0.00    -0.220 N 
ATOM     11  H2  UNL     1       1.682   1.980   0.089  1.00  0.00     0.178 HD
BRANCH  10  12
HETATM   12  C3  UNL     1       3.165   0.540   0.001  1.00  0.00     0.184 C 
BRANCH  12  13
HETATM   13  C2  UNL     1       3.915   1.610  -0.749  1.00  0.00     0.107 C 
BRANCH  13  14
HETATM   14  N1  UNL     1       5.091   1.905  -0.358  1.00  0.00    -0.281 N 
ATOM     15  H1  UNL     1       5.625   2.624  -0.846  1.00  0.00     0.193 HD
BRANCH  14  16
HETATM   16  O1  UNL     1       5.637   1.257   0.716  1.00  0.00    -0.286 OA
HETATM   17  C1  UNL     1       6.965   0.762   0.537  1.00  0.00     0.237 C 
ENDBRANCH  14  16
ENDBRANCH  13  14
ENDBRANCH  12  13
ENDBRANCH  10  12
ENDBRANCH   1  10
BRANCH   4  18
HETATM   18  N4  UNL     1      -2.826   1.089   0.048  1.00  0.00    -0.213 N 
HETATM   19  C6  UNL     1      -3.207   1.850  -1.119  1.00  0.00     0.167 C 
HETATM   20  C7  UNL     1      -4.703   1.773  -1.354  1.00  0.00     0.188 C 
HETATM   21  O2  UNL     1      -5.330   1.032  -0.350  1.00  0.00    -0.388 OA
HETATM   22  C8  UNL     1      -5.000   1.570   0.894  1.00  0.00     0.188 C 
HETATM   23  C9  UNL     1      -3.616   1.004   1.253  1.00  0.00     0.167 C 
ENDBRANCH   4  18
BRANCH   7  24
HETATM   24  N6  UNL     1      -0.575  -2.966  -0.234  1.00  0.00    -0.163 N 
HETATM   25  C11 UNL     1       0.085  -4.125  -0.312  1.00  0.00     0.200 C 
HETATM   26  N7  UNL     1       1.318  -4.307  -0.509  1.00  0.00    -0.373 N 
HETATM   27  N8  UNL     1      -0.729  -5.350  -0.147  1.00  0.00    -0.063 NA
ATOM     28  H72 UNL     1       1.879  -3.463  -0.623  1.00  0.00     0.158 HD
ATOM     29  H71 UNL     1       1.822  -5.192  -0.569  1.00  0.00     0.158 HD
ATOM     30  H6  UNL     1      -1.573  -3.176  -0.256  1.00  0.00     0.187 HD
ENDBRANCH   7  24
TORSDOF 7
