REMARK  5 active torsions:
REMARK  status: ('A' for Active; 'I' for Inactive)
REMARK    1  A    between atoms: C5_9  and  C6_10 
REMARK    2  A    between atoms: C6_10  and  N3_11 
REMARK    3  A    between atoms: N3_11  and  C7_14 
REMARK    4  A    between atoms: C7_14  and  C9_16 
REMARK    5  A    between atoms: N7_26  and  O2_27 
ROOT
HETATM    1  C9  UNL     1      -3.060  -0.266  -0.234  1.00  0.00     0.158 A 
HETATM    2  N4  UNL     1      -4.151  -0.875   0.345  1.00  0.00    -0.284 N 
ATOM      3  H4  UNL     1      -4.111  -1.870   0.565  1.00  0.00     0.188 HD
HETATM    4  N5  UNL     1      -5.265  -0.183   0.624  1.00  0.00    -0.285 N 
ATOM      5  H5  UNL     1      -6.052  -0.668   1.056  1.00  0.00     0.188 HD
HETATM    6  C10 UNL     1      -5.377   1.110   0.357  1.00  0.00     0.199 A 
HETATM    7  C11 UNL     1      -6.590   1.810   0.635  1.00  0.00     0.125 C 
HETATM    8  N6  UNL     1      -7.560   2.417   0.824  1.00  0.00    -0.190 NA
HETATM    9  C12 UNL     1      -4.313   1.751  -0.219  1.00  0.00     0.312 A 
HETATM   10  O1  UNL     1      -4.421   2.967  -0.465  1.00  0.00    -0.262 OA
HETATM   11  N7  UNL     1      -3.192   1.035  -0.497  1.00  0.00    -0.169 N 
ENDROOT
BRANCH  11  12
HETATM   12  O2  UNL     1      -2.156   1.701  -1.062  1.00  0.00    -0.278 OA
ATOM     13  H2  UNL     1      -2.250   2.628  -1.249  1.00  0.00     0.245 HD
ENDBRANCH  11  12
BRANCH   1  14
HETATM   14  C7  UNL     1      -1.817  -1.082  -0.517  1.00  0.00     0.253 C 
HETATM   15  C8  UNL     1      -1.889  -2.145   0.606  1.00  0.00     0.048 C 
BRANCH  14  16
HETATM   16  N3  UNL     1      -0.612  -0.294  -0.364  1.00  0.00    -0.059 N 
ATOM     17  H32 UNL     1      -0.713   0.436   0.342  1.00  0.00     0.278 HD
ATOM     18  H31 UNL     1      -0.438   0.308  -1.169  1.00  0.00     0.278 HD
BRANCH  16  19
HETATM   19  C6  UNL     1       0.503  -1.179  -0.086  1.00  0.00     0.292 C 
BRANCH  19  20
HETATM   20  C5  UNL     1       1.822  -0.526  -0.118  1.00  0.00     0.074 A 
HETATM   21  C3  UNL     1       2.523  -0.193   1.027  1.00  0.00     0.047 A 
HETATM   22  N2  UNL     1       3.761   0.196   0.716  1.00  0.00    -0.194 N 
HETATM   23  C4  UNL     1       1.871  -0.187   2.390  1.00  0.00     0.071 C 
HETATM   24  C2  UNL     1       3.888   0.133  -0.649  1.00  0.00     0.678 A 
ATOM     25  H2  UNL     1       4.483   0.488   1.375  1.00  0.00     0.184 HD
HETATM   26  N1  UNL     1       4.947   0.442  -1.285  1.00  0.00    -0.230 N 
HETATM   27  N8  UNL     1       2.692  -0.311  -1.131  1.00  0.00    -0.192 N 
HETATM   28  C1  UNL     1       6.106   0.907  -0.499  1.00  0.00     0.165 C 
ATOM     29  H1  UNL     1       4.992   0.371  -2.301  1.00  0.00     0.177 HD
ATOM     30  H8  UNL     1       2.483  -0.460  -2.118  1.00  0.00     0.184 HD
ENDBRANCH  19  20
ENDBRANCH  16  19
ENDBRANCH  14  16
ENDBRANCH   1  14
TORSDOF 5
