REMARK  4 active torsions:
REMARK  status: ('A' for Active; 'I' for Inactive)
REMARK    1  A    between atoms: C2_2  and  C3_3 
REMARK    2  A    between atoms: C3_3  and  C4_4 
REMARK    3  A    between atoms: C4_4  and  C5_5 
REMARK    4  A    between atoms: C8_13  and  N3_14 
ROOT
HETATM    1  C5  UNL     1       3.188  -1.596   0.593  1.00  0.00     0.098 A 
HETATM    2  N1  UNL     1       2.419  -0.907   1.443  1.00  0.00    -0.324 N 
ATOM      3  H1  UNL     1       2.728  -0.468   2.310  1.00  0.00     0.169 HD
HETATM    4  C6  UNL     1       1.184  -0.894   0.960  1.00  0.00     0.216 A 
HETATM    5  C7  UNL     1       0.088  -0.270   1.557  1.00  0.00     0.306 C 
HETATM    6  O1  UNL     1       0.384   0.452   2.536  1.00  0.00    -0.263 OA
HETATM    7  N2  UNL     1      -1.218  -0.354   1.209  1.00  0.00    -0.152 N 
ATOM      8  H2  UNL     1      -1.892  -0.218   1.963  1.00  0.00     0.187 HD
HETATM    9  C8  UNL     1      -1.742  -0.597  -0.023  1.00  0.00     0.698 C 
HETATM   10  N5  UNL     1      -1.198  -1.392  -0.951  1.00  0.00    -0.021 N 
ATOM     11  H5  UNL     1      -1.821  -1.722  -1.689  1.00  0.00     0.203 HD
HETATM   12  C14 UNL     1       0.101  -1.811  -1.019  1.00  0.00     0.713 C 
HETATM   13  N6  UNL     1       0.364  -2.552  -2.034  1.00  0.00    -0.232 N 
ATOM     14  H61 UNL     1       1.334  -2.865  -2.085  1.00  0.00     0.174 HD
ATOM     15  H62 UNL     1      -0.427  -2.731  -2.652  1.00  0.00     0.174 HD
HETATM   16  N7  UNL     1       1.150  -1.574  -0.199  1.00  0.00    -0.062 N 
HETATM   17  N8  UNL     1       2.387  -2.008  -0.427  1.00  0.00    -0.266 N 
ATOM     18  H8  UNL     1       2.685  -2.558  -1.232  1.00  0.00     0.189 HD
ENDROOT
BRANCH   9  19
HETATM   19  N3  UNL     1      -2.963   0.041  -0.347  1.00  0.00    -0.215 N 
HETATM   20  C9  UNL     1      -4.188  -0.664  -0.126  1.00  0.00     0.143 C 
HETATM   21  C10 UNL     1      -5.267  -0.027  -0.981  1.00  0.00     0.048 C 
HETATM   22  C11 UNL     1      -5.563   1.391  -0.596  1.00  0.00     0.234 C 
HETATM   23  N4  UNL     1      -4.771   1.898   0.486  1.00  0.00    -0.074 N 
HETATM   24  C12 UNL     1      -3.469   2.378   0.057  1.00  0.00     0.252 C 
ATOM     25  H42 UNL     1      -5.275   2.621   0.999  1.00  0.00     0.277 HD
ATOM     26  H41 UNL     1      -4.678   1.203   1.227  1.00  0.00     0.277 HD
HETATM   27  C13 UNL     1      -2.797   1.386  -0.873  1.00  0.00     0.168 C 
ENDBRANCH   9  19
BRANCH   1  28
HETATM   28  C4  UNL     1       4.617  -1.875   0.726  1.00  0.00     0.078 C 
BRANCH  28  29
HETATM   29  C3  UNL     1       5.427  -0.780   0.080  1.00  0.00     0.007 C 
BRANCH  29  30
HETATM   30  C2  UNL     1       5.139   0.529   0.749  1.00  0.00    -0.004 C 
HETATM   31  C1  UNL     1       6.000   1.601   0.076  1.00  0.00     0.005 C 
ENDBRANCH  29  30
ENDBRANCH  28  29
ENDBRANCH   1  28
TORSDOF 4
