REMARK  10 active torsions:
REMARK  status: ('A' for Active; 'I' for Inactive)
REMARK    1  A    between atoms: C2_2  and  C3_3 
REMARK    2  A    between atoms: C3_3  and  C4_4 
REMARK    3  A    between atoms: C4_4  and  C5_5 
REMARK    4  A    between atoms: C5_5  and  O1_6 
REMARK    5  A    between atoms: C11_13  and  C13_15 
REMARK    6  A    between atoms: C19_21  and  C20_22 
REMARK       I    between atoms: C20_22  and  N1_24 
REMARK    7  A    between atoms: N1_24  and  C21_26 
REMARK    8  A    between atoms: C21_26  and  C22_27 
REMARK       I    between atoms: C22_27  and  N2_29 
REMARK    9  A    between atoms: C23_31  and  C24_32 
REMARK   10  A    between atoms: C24_32  and  N3_33 
ROOT
HETATM    1  C13 UNL     1      -1.722   1.362  -0.230  1.00  0.00    -0.006 C 
HETATM    2  C14 UNL     1      -0.743   2.039  -1.142  1.00  0.00     0.006 C 
HETATM    3  C15 UNL     1       0.364   2.606  -0.296  1.00  0.00     0.006 C 
HETATM    4  C16 UNL     1       1.278   1.681   0.362  1.00  0.00    -0.005 C 
HETATM    5  C17 UNL     1       1.135   1.813   1.887  1.00  0.00     0.006 C 
HETATM    6  C18 UNL     1       1.593   0.511   2.443  1.00  0.00     0.015 C 
HETATM    7  C19 UNL     1       1.735  -0.450   1.294  1.00  0.00     0.086 C 
HETATM    8  C28 UNL     1       1.284   0.258   0.034  1.00  0.00    -0.028 C 
HETATM    9  C29 UNL     1       2.372  -0.007  -1.024  1.00  0.00     0.016 C 
HETATM   10  C30 UNL     1       0.070  -0.404  -0.473  1.00  0.00     0.011 C 
HETATM   11  C31 UNL     1      -1.242   0.001   0.098  1.00  0.00     0.006 C 
ENDROOT
BRANCH   1  12
HETATM   12  C11 UNL     1      -3.144   1.453  -0.737  1.00  0.00    -0.036 C 
HETATM   13  C7  UNL     1      -4.171   0.843   0.098  1.00  0.00     0.002 C 
HETATM   14  C6  UNL     1      -4.634  -0.526  -0.070  1.00  0.00     0.044 C 
HETATM   15  C8  UNL     1      -5.414   1.599  -0.424  1.00  0.00     0.001 C 
HETATM   16  C5  UNL     1      -6.054  -0.446   0.516  1.00  0.00     0.065 C 
HETATM   17  C32 UNL     1      -6.452   1.013   0.430  1.00  0.00    -0.013 C 
HETATM   18  C33 UNL     1      -7.802   1.171  -0.267  1.00  0.00     0.018 C 
HETATM   19  C34 UNL     1      -6.582   1.636   1.797  1.00  0.00     0.018 C 
HETATM   20  C9  UNL     1      -4.977   2.977  -0.187  1.00  0.00     0.007 C 
HETATM   21  C10 UNL     1      -3.516   2.944  -0.598  1.00  0.00     0.010 C 
HETATM   22  C12 UNL     1      -3.258   1.151  -2.211  1.00  0.00     0.016 C 
BRANCH  16  23
HETATM   23  C4  UNL     1      -6.968  -1.355  -0.261  1.00  0.00     0.038 C 
BRANCH  23  24
HETATM   24  C3  UNL     1      -6.420  -2.767  -0.097  1.00  0.00     0.002 C 
BRANCH  24  25
HETATM   25  C2  UNL     1      -7.290  -3.760  -0.853  1.00  0.00    -0.004 C 
HETATM   26  C1  UNL     1      -8.706  -3.724  -0.319  1.00  0.00     0.005 C 
ENDBRANCH  24  25
ENDBRANCH  23  24
ENDBRANCH  16  23
BRANCH  16  27
HETATM   27  O1  UNL     1      -6.024  -0.797   1.872  1.00  0.00    -0.389 OA
ATOM     28  H1  UNL     1      -5.447  -0.223   2.362  1.00  0.00     0.210 HD
ENDBRANCH  16  27
ENDBRANCH   1  12
BRANCH   7  29
HETATM   29  C20 UNL     1       3.087  -1.036   1.205  1.00  0.00     0.223 C 
HETATM   30  O2  UNL     1       3.248  -2.285   1.212  1.00  0.00    -0.273 OA
HETATM   31  N1  UNL     1       4.230  -0.226   1.110  1.00  0.00    -0.352 N 
ATOM     32  H1  UNL     1       4.133   0.789   1.103  1.00  0.00     0.162 HD
BRANCH  31  33
HETATM   33  C21 UNL     1       5.534  -0.819   1.023  1.00  0.00     0.225 C 
BRANCH  33  34
HETATM   34  C22 UNL     1       6.611   0.193   0.931  1.00  0.00     0.238 C 
HETATM   35  O3  UNL     1       6.284   1.406   0.937  1.00  0.00    -0.271 OA
HETATM   36  N2  UNL     1       7.962  -0.212   0.839  1.00  0.00    -0.338 N 
HETATM   37  C23 UNL     1       8.249  -1.459   0.771  1.00  0.00     0.091 C 
ATOM     38  H2  UNL     1       8.706   0.486   0.827  1.00  0.00     0.167 HD
BRANCH  37  39
HETATM   39  C24 UNL     1       9.676  -1.877   0.675  1.00  0.00     0.280 C 
BRANCH  39  40
HETATM   40  N3  UNL     1      10.426  -0.995  -0.166  1.00  0.00    -0.074 N 
HETATM   41  C25 UNL     1      11.624  -1.741  -0.582  1.00  0.00     0.272 C 
HETATM   42  C26 UNL     1      10.834   0.190   0.578  1.00  0.00     0.272 C 
HETATM   43  C27 UNL     1       9.700  -0.554  -1.328  1.00  0.00     0.272 C 
ENDBRANCH  39  40
ENDBRANCH  37  39
ENDBRANCH  33  34
ENDBRANCH  31  33
ENDBRANCH   7  29
TORSDOF 10
