REMARK  16 active torsions:
REMARK  status: ('A' for Active; 'I' for Inactive)
REMARK    1  A    between atoms: O1_2  and  C2_3 
REMARK    2  A    between atoms: C2_3  and  C3_5 
REMARK    3  A    between atoms: C3_5  and  N1_6 
REMARK    4  A    between atoms: C3_5  and  C21_45 
REMARK    5  A    between atoms: N1_6  and  C4_8 
REMARK    6  A    between atoms: C7_14  and  C8_15 
REMARK    7  A    between atoms: C8_15  and  O3_16 
REMARK    8  A    between atoms: C8_15  and  O4_18 
REMARK    9  A    between atoms: C9_20  and  C10_21 
REMARK   10  A    between atoms: C10_21  and  O6_23 
REMARK   11  A    between atoms: O6_23  and  C11_24 
REMARK   12  A    between atoms: C11_24  and  O7_27 
REMARK   13  A    between atoms: C16_34  and  N4_35 
REMARK       I    between atoms: N4_35  and  C17_37 
REMARK   14  A    between atoms: C19_40  and  N5_41 
REMARK   15  A    between atoms: C21_45  and  O12_46 
REMARK   16  A    between atoms: C21_45  and  N6_48 
ROOT
HETATM    1  C4  UNL     1      -2.147   0.772   0.708  1.00  0.00     0.112 C 
HETATM    2  C5  UNL     1      -1.560  -0.178   1.728  1.00  0.00     0.106 C 
HETATM    3  S1  UNL     1      -0.081  -0.989   0.984  1.00  0.00    -0.102 SA
HETATM    4  C6  UNL     1       1.042   0.402   0.674  1.00  0.00     0.213 C 
HETATM    5  N2  UNL     1       1.963   0.057  -0.381  1.00  0.00    -0.345 N 
ATOM      6  H2  UNL     1       1.717   0.303  -1.340  1.00  0.00     0.163 HD
HETATM    7  C7  UNL     1       3.212  -0.617  -0.146  1.00  0.00     0.076 C 
HETATM    8  C9  UNL     1       4.032  -0.246   0.797  1.00  0.00     0.054 C 
HETATM    9  C14 UNL     1       3.696   0.973   1.651  1.00  0.00     0.126 C 
HETATM   10  S2  UNL     1       1.987   0.766   2.212  1.00  0.00    -0.099 SA
HETATM   11  N3  UNL     1       0.204   1.545   0.379  1.00  0.00    -0.296 N 
HETATM   12  C15 UNL     1       0.616   2.925   0.525  1.00  0.00     0.248 C 
HETATM   13  O8  UNL     1       1.470   3.419   1.281  1.00  0.00    -0.271 OA
HETATM   14  C16 UNL     1      -0.216   3.694  -0.451  1.00  0.00     0.208 C 
HETATM   15  C19 UNL     1      -1.550   2.955  -0.216  1.00  0.00     0.212 C 
HETATM   16  C20 UNL     1      -1.137   1.493  -0.108  1.00  0.00     0.146 C 
ENDROOT
BRANCH   7  17
HETATM   17  C8  UNL     1       3.516  -1.736  -1.065  1.00  0.00     0.305 C 
BRANCH  17  18
HETATM   18  O3  UNL     1       2.890  -1.429  -2.325  1.00  0.00    -0.366 OA
ATOM     19  H3  UNL     1       3.085  -2.147  -2.915  1.00  0.00     0.213 HD
ENDBRANCH  17  18
BRANCH  17  20
HETATM   20  O4  UNL     1       3.112  -2.964  -0.623  1.00  0.00    -0.366 OA
ATOM     21  H4  UNL     1       3.307  -3.682  -1.213  1.00  0.00     0.213 HD
ENDBRANCH  17  20
ENDBRANCH   7  17
BRANCH   1  22
HETATM   22  N1  UNL     1      -2.957  -0.018  -0.185  1.00  0.00    -0.398 N 
ATOM     23  H1  UNL     1      -2.726  -0.098  -1.175  1.00  0.00     0.154 HD
BRANCH  22  24
HETATM   24  C3  UNL     1      -4.081  -0.677   0.358  1.00  0.00     0.226 C 
BRANCH  24  25
HETATM   25  C2  UNL     1      -5.161   0.192   0.880  1.00  0.00     0.285 C 
HETATM   26  O2  UNL     1      -5.172   1.445   0.820  1.00  0.00    -0.263 OA
BRANCH  25  27
HETATM   27  O1  UNL     1      -6.249  -0.428   1.484  1.00  0.00    -0.325 OA
HETATM   28  C1  UNL     1      -7.332   0.329   2.013  1.00  0.00     0.213 C 
ENDBRANCH  25  27
ENDBRANCH  24  25
BRANCH  24  29
HETATM   29  C21 UNL     1      -4.763  -1.472  -0.783  1.00  0.00     0.250 C 
BRANCH  29  30
HETATM   30  O12 UNL     1      -5.851  -2.087  -0.166  1.00  0.00    -0.374 OA
ATOM     31  H12 UNL     1      -6.269  -2.575  -0.866  1.00  0.00     0.212 HD
ENDBRANCH  29  30
BRANCH  29  32
HETATM   32  N6  UNL     1      -3.863  -2.373  -1.382  1.00  0.00    -0.369 N 
HETATM   33  C22 UNL     1      -4.283  -3.435  -1.940  1.00  0.00    -0.024 C 
HETATM   34  C23 UNL     1      -5.702  -3.856  -2.034  1.00  0.00     0.062 C 
HETATM   35  C24 UNL     1      -3.252  -4.330  -2.546  1.00  0.00     0.062 C 
ATOM     36  H6  UNL     1      -2.863  -2.172  -1.368  1.00  0.00     0.161 HD
ENDBRANCH  29  32
ENDBRANCH  24  29
ENDBRANCH  22  24
ENDBRANCH   1  22
BRANCH   8  37
HETATM   37  C10 UNL     1       5.276  -0.897   1.069  1.00  0.00     0.294 C 
HETATM   38  O5  UNL     1       6.019  -0.442   2.009  1.00  0.00    -0.259 OA
BRANCH  37  39
HETATM   39  O6  UNL     1       5.766  -1.975   0.425  1.00  0.00    -0.281 OA
BRANCH  39  40
HETATM   40  C11 UNL     1       7.007  -2.573   0.750  1.00  0.00     0.163 C 
HETATM   41  C12 UNL     1       7.193  -3.746  -0.199  1.00  0.00     0.078 C 
HETATM   42  C13 UNL     1       8.162  -1.645   0.574  1.00  0.00     0.078 C 
BRANCH  40  43
HETATM   43  O7  UNL     1       7.039  -3.069   2.056  1.00  0.00    -0.365 OA
ATOM     44  H7  UNL     1       7.872  -3.470   2.274  1.00  0.00     0.213 HD
ENDBRANCH  40  43
ENDBRANCH  39  40
ENDBRANCH  37  39
ENDBRANCH   8  37
BRANCH  14  45
HETATM   45  N4  UNL     1      -0.299   5.091  -0.171  1.00  0.00    -0.346 N 
HETATM   46  C17 UNL     1       0.113   5.997  -1.187  1.00  0.00     0.214 C 
HETATM   47  C18 UNL     1       0.066   7.465  -0.990  1.00  0.00     0.117 C 
HETATM   48  O9  UNL     1       0.541   5.595  -2.309  1.00  0.00    -0.274 OA
ATOM     49  H4  UNL     1      -0.642   5.429   0.728  1.00  0.00     0.163 HD
ENDBRANCH  14  45
BRANCH  15  50
HETATM   50  N5  UNL     1      -2.043   3.498   1.023  1.00  0.00    -0.146 N 
HETATM   51  O10 UNL     1      -3.124   4.112   1.020  1.00  0.00    -0.536 OA
HETATM   52  O11 UNL     1      -1.346   3.354   2.172  1.00  0.00    -0.536 OA
ENDBRANCH  15  50
TORSDOF 16
