REMARK  2 active torsions:
REMARK  status: ('A' for Active; 'I' for Inactive)
REMARK    1  A    between atoms: N1_1  and  C1_5 
REMARK    2  A    between atoms: C5_9  and  C6_10 
ROOT
HETATM    1  C1  UNL     1      -1.783   0.136   0.854  1.00  0.00     0.188 C 
HETATM    2  C2  UNL     1      -3.089   0.174   0.045  1.00  0.00     0.033 C 
HETATM    3  C3  UNL     1      -2.819  -0.845  -1.017  1.00  0.00     0.002 C 
HETATM    4  C4  UNL     1      -1.391  -0.535  -1.410  1.00  0.00     0.007 C 
HETATM    5  C5  UNL     1      -0.760   0.164  -0.223  1.00  0.00     0.020 C 
ENDROOT
BRANCH   5   6
HETATM    6  C6  UNL     1       0.495  -0.645   0.130  1.00  0.00    -0.008 C 
HETATM    7  C7  UNL     1       1.166  -0.129   1.366  1.00  0.00     0.005 C 
HETATM    8  C8  UNL     1       2.197   0.934   1.098  1.00  0.00     0.000 C 
HETATM    9  C9  UNL     1       3.241   0.237   0.259  1.00  0.00     0.000 C 
HETATM   10  C10 UNL     1       2.662  -0.098  -1.063  1.00  0.00     0.000 C 
HETATM   11  C11 UNL     1       1.345  -0.779  -1.061  1.00  0.00     0.005 C 
ENDBRANCH   5   6
BRANCH   1  12
HETATM   12  N1  UNL     1      -1.810   1.378   1.643  1.00  0.00    -0.075 N 
ATOM     13  H13 UNL     1      -1.933   2.224   1.087  1.00  0.00     0.274 HD
ATOM     14  H12 UNL     1      -2.650   1.495   2.210  1.00  0.00     0.274 HD
ATOM     15  H11 UNL     1      -0.943   1.353   2.180  1.00  0.00     0.274 HD
ENDBRANCH   1  12
TORSDOF 2
