REMARK  18 active torsions:
REMARK  status: ('A' for Active; 'I' for Inactive)
REMARK    1  A    between atoms: C2_2  and  C3_3 
REMARK    2  A    between atoms: C2_2  and  C7_9 
REMARK    3  A    between atoms: C3_3  and  C4_4 
REMARK    4  A    between atoms: C4_4  and  O2_6 
REMARK    5  A    between atoms: O2_6  and  C5_7 
REMARK    6  A    between atoms: C7_9  and  N1_10 
REMARK    7  A    between atoms: C7_9  and  C12_24 
REMARK       I    between atoms: N1_10  and  C8_12 
REMARK    8  A    between atoms: C8_12  and  O4_14 
REMARK    9  A    between atoms: O4_14  and  C9_15 
REMARK   10  A    between atoms: C9_15  and  O5_16 
REMARK   11  A    between atoms: C9_15  and  C10_18 
REMARK   12  A    between atoms: C10_18  and  O6_19 
REMARK   13  A    between atoms: C10_18  and  C11_21 
REMARK   14  A    between atoms: C11_21  and  O7_22 
REMARK   15  A    between atoms: C12_24  and  C14_26 
REMARK   16  A    between atoms: C14_26  and  O9_28 
REMARK   17  A    between atoms: O9_28  and  C15_29 
REMARK   18  A    between atoms: C15_29  and  C16_30 
ROOT
HETATM    1  C7  UNL     1       0.096  -0.435  -0.181  1.00  0.00     0.129 C 
ENDROOT
BRANCH   1   2
HETATM    2  C2  UNL     1      -0.269   0.754   0.709  1.00  0.00    -0.057 C 
HETATM    3  C1  UNL     1      -0.729   0.458   1.873  1.00  0.00     0.017 C 
BRANCH   2   4
HETATM    4  C3  UNL     1      -0.060   2.096   0.168  1.00  0.00     0.146 C 
BRANCH   4   5
HETATM    5  C4  UNL     1      -0.351   3.269   0.990  1.00  0.00     0.262 C 
HETATM    6  O1  UNL     1      -0.766   3.268   2.163  1.00  0.00    -0.265 OA
BRANCH   5   7
HETATM    7  O2  UNL     1      -0.162   4.566   0.453  1.00  0.00    -0.322 OA
BRANCH   7   8
HETATM    8  C5  UNL     1      -0.446   5.684   1.265  1.00  0.00     0.174 C 
HETATM    9  C6  UNL     1      -0.160   6.919   0.441  1.00  0.00     0.034 C 
ENDBRANCH   7   8
ENDBRANCH   5   7
ENDBRANCH   4   5
ENDBRANCH   2   4
ENDBRANCH   1   2
BRANCH   1  10
HETATM   10  N1  UNL     1       1.509  -0.393  -0.381  1.00  0.00    -0.328 N 
HETATM   11  C8  UNL     1       2.404  -1.412   0.091  1.00  0.00     0.363 C 
HETATM   12  O3  UNL     1       1.970  -2.421   0.721  1.00  0.00    -0.238 OA
ATOM     13  H1  UNL     1       1.903   0.401  -0.885  1.00  0.00     0.165 HD
BRANCH  11  14
HETATM   14  O4  UNL     1       3.758  -1.340  -0.117  1.00  0.00    -0.270 OA
BRANCH  14  15
HETATM   15  C9  UNL     1       4.706  -2.282   0.302  1.00  0.00     0.298 C 
BRANCH  15  16
HETATM   16  O5  UNL     1       5.438  -2.806  -0.786  1.00  0.00    -0.368 OA
ATOM     17  H5  UNL     1       6.081  -3.445  -0.502  1.00  0.00     0.212 HD
ENDBRANCH  15  16
BRANCH  15  18
HETATM   18  C10 UNL     1       5.723  -1.544   1.162  1.00  0.00     0.197 C 
BRANCH  18  19
HETATM   19  O6  UNL     1       6.720  -2.393   1.635  1.00  0.00    -0.388 OA
ATOM     20  H6  UNL     1       7.355  -1.933   2.172  1.00  0.00     0.210 HD
ENDBRANCH  18  19
BRANCH  18  21
HETATM   21  C11 UNL     1       5.034  -0.874   2.346  1.00  0.00     0.200 C 
BRANCH  21  22
HETATM   22  O7  UNL     1       5.950  -0.133   3.083  1.00  0.00    -0.398 OA
ATOM     23  H7  UNL     1       5.521   0.284   3.821  1.00  0.00     0.209 HD
ENDBRANCH  21  22
ENDBRANCH  18  21
ENDBRANCH  15  18
ENDBRANCH  14  15
ENDBRANCH  11  14
ENDBRANCH   1  10
BRANCH   1  24
HETATM   24  C12 UNL     1      -0.699  -0.415  -1.448  1.00  0.00     0.108 C 
HETATM   25  C13 UNL     1      -0.335  -1.594  -2.324  1.00  0.00     0.023 C 
BRANCH  24  26
HETATM   26  C14 UNL     1      -2.172  -0.437  -1.186  1.00  0.00     0.265 C 
HETATM   27  O8  UNL     1      -2.886   0.491  -1.630  1.00  0.00    -0.265 OA
BRANCH  26  28
HETATM   28  O9  UNL     1      -2.785  -1.430  -0.479  1.00  0.00    -0.321 OA
BRANCH  28  29
HETATM   29  C15 UNL     1      -4.144  -1.569  -0.174  1.00  0.00     0.182 C 
BRANCH  29  30
HETATM   30  C16 UNL     1      -4.937  -1.724  -1.424  1.00  0.00     0.002 C 
HETATM   31  C17 UNL     1      -6.422  -1.882  -1.152  1.00  0.00     0.011 C 
HETATM   32  C18 UNL     1      -4.466  -2.993  -2.106  1.00  0.00     0.011 C 
ENDBRANCH  29  30
ENDBRANCH  28  29
ENDBRANCH  26  28
ENDBRANCH  24  26
ENDBRANCH   1  24
TORSDOF 18
