REMARK  10 active torsions:
REMARK  status: ('A' for Active; 'I' for Inactive)
REMARK       I    between atoms: N1_2  and  C3_4 
REMARK    1  A    between atoms: C3_4  and  C4_6 
REMARK    2  A    between atoms: C4_6  and  C5_8 
REMARK    3  A    between atoms: C5_8  and  N2_9 
REMARK    4  A    between atoms: C5_8  and  C6_13 
REMARK    5  A    between atoms: C9_17  and  N3_18 
REMARK       I    between atoms: N3_18  and  C10_20 
REMARK    6  A    between atoms: C10_20  and  C11_22 
REMARK       I    between atoms: C11_22  and  N4_24 
REMARK    7  A    between atoms: N4_24  and  N5_26 
REMARK    8  A    between atoms: N5_26  and  C12_27 
REMARK    9  A    between atoms: C12_27  and  C13_28 
REMARK       I    between atoms: C13_28  and  N6_30 
REMARK   10  A    between atoms: N6_30  and  N7_32 
ROOT
HETATM    1  C6  UNL     1      -2.137  -0.530  -1.547  1.00  0.00     0.014 A 
HETATM    2  C7  UNL     1      -3.034  -0.123  -2.493  1.00  0.00     0.020 A 
HETATM    3  C8  UNL     1      -2.594   0.733  -3.452  1.00  0.00     0.052 A 
HETATM    4  S1  UNL     1      -0.970   0.968  -3.054  1.00  0.00    -0.084 SA
HETATM    5  C9  UNL     1      -0.876  -0.051  -1.639  1.00  0.00     0.085 A 
ENDROOT
BRANCH   5   6
HETATM    6  N3  UNL     1       0.321  -0.255  -0.867  1.00  0.00    -0.312 N 
HETATM    7  C10 UNL     1       1.476   0.455  -1.279  1.00  0.00     0.315 C 
HETATM    8  O3  UNL     1       1.472   1.229  -2.264  1.00  0.00    -0.262 OA
ATOM      9  H3  UNL     1       0.337  -0.881  -0.062  1.00  0.00     0.170 HD
BRANCH   7  10
HETATM   10  C11 UNL     1       2.718   0.298  -0.551  1.00  0.00     0.325 C 
HETATM   11  O4  UNL     1       2.726  -0.485   0.447  1.00  0.00    -0.261 OA
HETATM   12  N4  UNL     1       3.907   0.974  -0.907  1.00  0.00    -0.265 N 
ATOM     13  H4  UNL     1       3.915   1.607  -1.706  1.00  0.00     0.185 HD
BRANCH  12  14
HETATM   14  N5  UNL     1       5.061   0.775  -0.169  1.00  0.00    -0.129 NA
BRANCH  14  15
HETATM   15  C12 UNL     1       5.893  -0.149  -0.923  1.00  0.00     0.239 C 
BRANCH  15  16
HETATM   16  C13 UNL     1       7.141  -0.378  -0.171  1.00  0.00     0.251 C 
HETATM   17  O5  UNL     1       8.004  -1.154  -0.648  1.00  0.00    -0.270 OA
HETATM   18  N6  UNL     1       7.347   0.274   1.064  1.00  0.00    -0.276 N 
ATOM     19  H6  UNL     1       6.638   0.902   1.442  1.00  0.00     0.189 HD
BRANCH  18  20
HETATM   20  N7  UNL     1       8.550   0.044   1.769  1.00  0.00    -0.343 N 
ATOM     21  H72 UNL     1       9.249  -0.587   1.377  1.00  0.00     0.176 HD
ATOM     22  H71 UNL     1       8.699   0.515   2.661  1.00  0.00     0.176 HD
ENDBRANCH  18  20
ENDBRANCH  15  16
ENDBRANCH  14  15
ENDBRANCH  12  14
ENDBRANCH   7  10
ENDBRANCH   5   6
BRANCH   1  23
HETATM   23  C5  UNL     1      -2.628  -1.472  -0.440  1.00  0.00     0.298 C 
BRANCH  23  24
HETATM   24  C4  UNL     1      -3.985  -0.996  -0.008  1.00  0.00     0.251 C 
HETATM   25  O2  UNL     1      -4.959  -1.534  -0.582  1.00  0.00    -0.285 OA
BRANCH  24  26
HETATM   26  C3  UNL     1      -4.203   0.016   0.999  1.00  0.00     0.291 C 
HETATM   27  N1  UNL     1      -5.489   0.418   1.431  1.00  0.00    -0.354 N 
HETATM   28  C1  UNL     1      -6.669  -0.187   0.861  1.00  0.00     0.152 C 
HETATM   29  C2  UNL     1      -5.660   1.433   2.445  1.00  0.00     0.152 C 
HETATM   30  O1  UNL     1      -3.233   0.625   1.572  1.00  0.00    -0.264 OA
ENDBRANCH  24  26
ENDBRANCH  23  24
BRANCH  23  31
HETATM   31  N2  UNL     1      -1.771  -1.452   0.691  1.00  0.00    -0.064 N 
ATOM     32  H23 UNL     1      -1.741  -0.540   1.146  1.00  0.00     0.275 HD
ATOM     33  H22 UNL     1      -2.144  -1.986   1.476  1.00  0.00     0.275 HD
ATOM     34  H21 UNL     1      -0.849  -1.775   0.398  1.00  0.00     0.275 HD
ENDBRANCH  23  31
ENDBRANCH   1  23
TORSDOF 10
