REMARK  2 active torsions:
REMARK  status: ('A' for Active; 'I' for Inactive)
REMARK    1  A    between atoms: N1_2  and  C2_4 
REMARK    2  A    between atoms: C3_7  and  N3_8 
REMARK       I    between atoms: N5_15  and  C5_16 
REMARK       I    between atoms: C5_16  and  N6_17 
REMARK       I    between atoms: C5_16  and  N7_21 
ROOT
HETATM    1  C2  UNL     1      -0.488  -0.542   0.024  1.00  0.00     0.701 A 
HETATM    2  N2  UNL     1       0.039  -1.737  -0.296  1.00  0.00    -0.022 N 
ATOM      3  H2  UNL     1      -0.550  -2.563  -0.406  1.00  0.00     0.203 HD
HETATM    4  C3  UNL     1       1.371  -1.803  -0.466  1.00  0.00     0.694 A 
HETATM    5  N4  UNL     1       2.157  -0.718  -0.323  1.00  0.00    -0.140 N 
ATOM      6  H4  UNL     1       3.164  -0.807  -0.459  1.00  0.00     0.189 HD
HETATM    7  C4  UNL     1       1.634   0.485  -0.002  1.00  0.00     0.358 A 
HETATM    8  O1  UNL     1       2.359   1.504   0.134  1.00  0.00    -0.245 OA
HETATM    9  N5  UNL     1       0.286   0.542   0.168  1.00  0.00    -0.076 N 
HETATM   10  C5  UNL     1      -0.294   1.811   0.510  1.00  0.00     0.505 C 
HETATM   11  N6  UNL     1      -0.653   2.602  -0.653  1.00  0.00    -0.032 N 
ATOM     12  H61 UNL     1      -1.065   3.503  -0.410  1.00  0.00     0.279 HD
ATOM     13  H62 UNL     1      -1.267   2.077  -1.275  1.00  0.00     0.279 HD
ATOM     14  H63 UNL     1       0.148   2.723  -1.273  1.00  0.00     0.279 HD
HETATM   15  N7  UNL     1       0.511   2.614   1.373  1.00  0.00    -0.032 N 
ATOM     16  H71 UNL     1       0.099   3.515   1.616  1.00  0.00     0.279 HD
ATOM     17  H72 UNL     1       1.440   2.744   0.973  1.00  0.00     0.279 HD
ATOM     18  H73 UNL     1       0.755   2.095   2.217  1.00  0.00     0.279 HD
ENDROOT
BRANCH   1  19
HETATM   19  N1  UNL     1      -1.755  -0.448   0.192  1.00  0.00    -0.229 N 
HETATM   20  C1  UNL     1      -2.691  -1.515   0.071  1.00  0.00     0.165 C 
ATOM     21  H1  UNL     1      -2.126   0.471   0.433  1.00  0.00     0.177 HD
ENDBRANCH   1  19
BRANCH   4  22
HETATM   22  N3  UNL     1       1.888  -2.942  -0.772  1.00  0.00    -0.234 N 
ATOM     23  H32 UNL     1       1.293  -3.763  -0.880  1.00  0.00     0.174 HD
ATOM     24  H31 UNL     1       2.899  -2.992  -0.901  1.00  0.00     0.174 HD
ENDBRANCH   4  22
TORSDOF 2
