REMARK  10 active torsions:
REMARK  status: ('A' for Active; 'I' for Inactive)
REMARK    1  A    between atoms: C3_3  and  C4_4 
REMARK    2  A    between atoms: C4_4  and  C5_5 
REMARK    3  A    between atoms: C10_11  and  C11_12 
REMARK    4  A    between atoms: C11_12  and  C12_13 
REMARK    5  A    between atoms: C14_18  and  C15_19 
REMARK    6  A    between atoms: C15_19  and  C16_20 
REMARK    7  A    between atoms: C19_23  and  C20_24 
REMARK    8  A    between atoms: N3_36  and  C29_37 
REMARK    9  A    between atoms: C33_41  and  O3_42 
REMARK   10  A    between atoms: O3_42  and  C34_43 
ROOT
HETATM    1  C5  UNL     1       0.986   1.371   2.053  1.00  0.00    -0.023 A 
HETATM    2  C6  UNL     1       1.202   2.497   2.812  1.00  0.00     0.012 A 
HETATM    3  C7  UNL     1       0.630   2.630   4.071  1.00  0.00     0.003 A 
HETATM    4  C8  UNL     1      -0.170   1.636   4.592  1.00  0.00     0.024 A 
HETATM    5  C9  UNL     1      -0.392   0.506   3.840  1.00  0.00     0.045 A 
HETATM    6 CL1  UNL     1      -1.411  -0.789   4.468  1.00  0.00    -0.083 Cl
HETATM    7  C10 UNL     1       0.185   0.376   2.574  1.00  0.00    -0.002 A 
ENDROOT
BRANCH   7   8
HETATM    8  C11 UNL     1      -0.029  -0.796   1.765  1.00  0.00     0.049 C 
BRANCH   8   9
HETATM    9  C12 UNL     1      -1.153  -1.069   1.126  1.00  0.00     0.104 A 
HETATM   10  N1  UNL     1      -2.232  -0.275   1.160  1.00  0.00    -0.317 N 
HETATM   11  C13 UNL     1      -3.389  -0.570   0.499  1.00  0.00     0.273 A 
ATOM     12  H1  UNL     1      -2.187   0.587   1.703  1.00  0.00     0.169 HD
HETATM   13  O1  UNL     1      -4.319   0.256   0.613  1.00  0.00    -0.266 OA
HETATM   14  C14 UNL     1      -3.492  -1.714  -0.240  1.00  0.00     0.104 A 
HETATM   15  N2  UNL     1      -2.404  -2.532  -0.285  1.00  0.00    -0.317 N 
HETATM   16  C25 UNL     1      -1.289  -2.225   0.365  1.00  0.00     0.273 A 
ATOM     17  H2  UNL     1      -2.447  -3.395  -0.827  1.00  0.00     0.169 HD
HETATM   18  O2  UNL     1      -0.301  -3.011   0.298  1.00  0.00    -0.266 OA
BRANCH  14  19
HETATM   19  C15 UNL     1      -4.591  -2.027  -0.878  1.00  0.00     0.046 C 
BRANCH  19  20
HETATM   20  C16 UNL     1      -5.789  -1.237  -0.883  1.00  0.00    -0.034 A 
HETATM   21  C17 UNL     1      -6.069  -0.267  -1.840  1.00  0.00     0.012 A 
HETATM   22  C18 UNL     1      -7.233   0.470  -1.839  1.00  0.00     0.008 A 
HETATM   23  C19 UNL     1      -8.178   0.271  -0.875  1.00  0.00    -0.055 A 
HETATM   24  C23 UNL     1      -7.952  -0.670   0.089  1.00  0.00     0.008 A 
HETATM   25  C24 UNL     1      -6.789  -1.405   0.085  1.00  0.00     0.012 A 
BRANCH  23  26
HETATM   26  C20 UNL     1      -9.449   1.045  -0.846  1.00  0.00     0.010 C 
HETATM   27  C21 UNL     1      -9.436   1.919   0.392  1.00  0.00     0.015 C 
HETATM   28  C22 UNL     1     -10.609   0.094  -0.765  1.00  0.00     0.015 C 
ENDBRANCH  23  26
ENDBRANCH  19  20
ENDBRANCH  14  19
ENDBRANCH   8   9
ENDBRANCH   7   8
BRANCH   1  29
HETATM   29  C4  UNL     1       1.608   1.279   0.743  1.00  0.00     0.026 C 
BRANCH  29  30
HETATM   30  C3  UNL     1       2.791   0.699   0.618  1.00  0.00    -0.007 A 
HETATM   31  C2  UNL     1       3.548   0.508  -0.516  1.00  0.00     0.040 A 
HETATM   32  C1  UNL     1       3.206   0.887  -1.729  1.00  0.00     0.044 C 
HETATM   33  N3  UNL     1       4.709  -0.136  -0.196  1.00  0.00    -0.316 N 
HETATM   34  C27 UNL     1       4.729  -0.369   1.121  1.00  0.00     0.014 A 
HETATM   35  C26 UNL     1       3.535   0.148   1.640  1.00  0.00     0.039 A 
HETATM   36  C28 UNL     1       5.805  -1.039   1.856  1.00  0.00     0.068 C 
BRANCH  33  37
HETATM   37  C29 UNL     1       5.747  -0.510  -1.090  1.00  0.00     0.042 A 
HETATM   38  C30 UNL     1       5.455  -1.384  -2.120  1.00  0.00     0.030 A 
HETATM   39  C31 UNL     1       6.386  -1.798  -3.034  1.00  0.00     0.005 A 
HETATM   40  C32 UNL     1       7.694  -1.321  -2.933  1.00  0.00     0.037 A 
HETATM   41  C33 UNL     1       8.017  -0.454  -1.925  1.00  0.00     0.081 A 
HETATM   42  C36 UNL     1       7.041  -0.055  -1.010  1.00  0.00     0.067 A 
BRANCH  41  43
HETATM   43  O3  UNL     1       9.317   0.034  -1.806  1.00  0.00    -0.279 OA
BRANCH  43  44
HETATM   44  C34 UNL     1       9.705   1.221  -2.407  1.00  0.00     0.260 C 
HETATM   45  C35 UNL     1      11.106   1.739  -2.274  1.00  0.00     0.126 C 
HETATM   46  O4  UNL     1       8.838   1.853  -3.070  1.00  0.00    -0.265 OA
ENDBRANCH  43  44
ENDBRANCH  41  43
ENDBRANCH  33  37
ENDBRANCH  29  30
ENDBRANCH   1  29
TORSDOF 10
