REMARK  12 active torsions:
REMARK  status: ('A' for Active; 'I' for Inactive)
REMARK    1  A    between atoms: O1_2  and  C2_3 
REMARK    2  A    between atoms: C2_3  and  C3_4 
REMARK       I    between atoms: C3_4  and  N1_6 
REMARK    3  A    between atoms: N1_6  and  N2_8 
REMARK    4  A    between atoms: N2_8  and  N3_9 
REMARK    5  A    between atoms: N3_9  and  O3_10 
REMARK    6  A    between atoms: N3_9  and  O4_12 
REMARK    7  A    between atoms: O4_12  and  C4_13 
REMARK    8  A    between atoms: C7_19  and  N5_20 
REMARK    9  A    between atoms: N5_20  and  N6_22 
REMARK   10  A    between atoms: C8_24  and  C9_25 
REMARK   11  A    between atoms: C12_28  and  O6_29 
REMARK   12  A    between atoms: C13_31  and  O7_32 
ROOT
HETATM    1  C2  UNL     1      -1.266  -0.925   0.493  1.00  0.00     0.213 C 
HETATM    2  C6  UNL     1      -1.191   0.477   1.106  1.00  0.00     0.182 C 
HETATM    3  N4  UNL     1      -0.091   1.181   0.597  1.00  0.00    -0.365 N 
ATOM      4  H4  UNL     1       0.346   1.912   1.159  1.00  0.00     0.161 HD
HETATM    5  C7  UNL     1       0.357   0.921  -0.536  1.00  0.00     0.158 C 
HETATM    6  S1  UNL     1      -0.648  -0.409  -1.182  1.00  0.00    -0.043 SA
ENDROOT
BRANCH   5   7
HETATM    7  N5  UNL     1       1.432   1.498  -1.224  1.00  0.00    -0.280 N 
ATOM      8  H5  UNL     1       1.231   2.217  -1.919  1.00  0.00     0.189 HD
BRANCH   7   9
HETATM    9  N6  UNL     1       2.774   1.137  -1.007  1.00  0.00    -0.309 N 
HETATM   10  C8  UNL     1       3.125   0.277  -0.127  1.00  0.00     0.118 C 
ATOM     11  H6  UNL     1       3.497   1.579  -1.575  1.00  0.00     0.186 HD
BRANCH  10  12
HETATM   12  C9  UNL     1       4.547  -0.026   0.018  1.00  0.00    -0.017 A 
HETATM   13  C10 UNL     1       5.021  -0.942   0.943  1.00  0.00     0.016 A 
HETATM   14  C11 UNL     1       6.366  -1.210   1.061  1.00  0.00     0.040 A 
HETATM   15  C12 UNL     1       7.295  -0.576   0.263  1.00  0.00     0.098 A 
HETATM   16  C13 UNL     1       6.849   0.345  -0.672  1.00  0.00     0.099 A 
HETATM   17  C14 UNL     1       5.498   0.596  -0.770  1.00  0.00     0.052 A 
BRANCH  15  18
HETATM   18  O6  UNL     1       8.659  -0.868   0.405  1.00  0.00    -0.358 OA
ATOM     19  H6  UNL     1       9.299  -0.431  -0.145  1.00  0.00     0.217 HD
ENDBRANCH  15  18
BRANCH  16  20
HETATM   20  O7  UNL     1       7.793   0.976  -1.468  1.00  0.00    -0.358 OA
ATOM     21  H7  UNL     1       7.487   1.607  -2.109  1.00  0.00     0.217 HD
ENDBRANCH  16  20
ENDBRANCH  10  12
ENDBRANCH   7   9
ENDBRANCH   5   7
BRANCH   1  22
HETATM   22  O1  UNL     1      -0.323  -1.760   1.017  1.00  0.00    -0.363 OA
HETATM   23  C1  UNL     1      -0.083  -2.922   0.323  1.00  0.00     0.204 C 
ENDBRANCH   1  22
BRANCH   1  24
HETATM   24  C3  UNL     1      -2.628  -1.416   0.392  1.00  0.00     0.282 C 
HETATM   25  O2  UNL     1      -2.949  -2.532   0.793  1.00  0.00    -0.268 OA
HETATM   26  N1  UNL     1      -3.610  -0.563  -0.193  1.00  0.00    -0.251 N 
ATOM     27  H1  UNL     1      -3.343   0.363  -0.526  1.00  0.00     0.187 HD
BRANCH  26  28
HETATM   28  N2  UNL     1      -4.932  -0.988  -0.312  1.00  0.00     0.009 NA
BRANCH  28  29
HETATM   29  N3  UNL     1      -5.738  -0.072  -0.953  1.00  0.00     0.058 NA
BRANCH  29  30
HETATM   30  O3  UNL     1      -5.026   0.791  -1.692  1.00  0.00    -0.272 OA
ATOM     31  H3  UNL     1      -5.582   1.422  -2.134  1.00  0.00     0.241 HD
ENDBRANCH  29  30
BRANCH  29  32
HETATM   32  O4  UNL     1      -6.626   0.551  -0.106  1.00  0.00    -0.182 OA
BRANCH  32  33
HETATM   33  C4  UNL     1      -6.574   1.909   0.179  1.00  0.00     0.275 C 
HETATM   34  C5  UNL     1      -7.548   2.562   1.101  1.00  0.00     0.128 C 
HETATM   35  O5  UNL     1      -5.661   2.573  -0.379  1.00  0.00    -0.264 OA
ENDBRANCH  32  33
ENDBRANCH  29  32
ENDBRANCH  28  29
ENDBRANCH  26  28
ENDBRANCH   1  24
TORSDOF 12
