REMARK  8 active torsions:
REMARK  status: ('A' for Active; 'I' for Inactive)
REMARK    1  A    between atoms: C2_2  and  C3_4 
REMARK    2  A    between atoms: C7_10  and  C8_11 
REMARK    3  A    between atoms: C9_12  and  C10_13 
REMARK    4  A    between atoms: C10_13  and  O2_14 
REMARK    5  A    between atoms: C10_13  and  C11_16 
REMARK    6  A    between atoms: C15_20  and  O3_21 
REMARK    7  A    between atoms: C16_23  and  O4_24 
REMARK    8  A    between atoms: N2_26  and  C17_27 
ROOT
HETATM    1  C3  UNL     1       3.900  -0.868   0.814  1.00  0.00     0.056 A 
HETATM    2  C4  UNL     1       3.049  -1.042   1.846  1.00  0.00     0.094 A 
HETATM    3  C5  UNL     1       3.262  -1.511   3.186  1.00  0.00     0.103 C 
HETATM    4  N1  UNL     1       3.452  -1.887   4.266  1.00  0.00    -0.191 NA
HETATM    5  C6  UNL     1       1.795  -0.652   1.348  1.00  0.00     0.103 A 
HETATM    6  S1  UNL     1       0.135  -0.474   1.745  1.00  0.00    -0.067 SA
HETATM    7  C7  UNL     1      -0.430   0.107   0.257  1.00  0.00     0.051 A 
HETATM    8  C22 UNL     1       0.728   0.134  -0.492  1.00  0.00     0.119 A 
HETATM    9  N3  UNL     1       1.842  -0.260   0.097  1.00  0.00    -0.317 N 
HETATM   10  C23 UNL     1       3.169  -0.392  -0.253  1.00  0.00     0.028 A 
HETATM   11  C24 UNL     1       3.804  -0.087  -1.568  1.00  0.00     0.070 C 
ENDROOT
BRANCH   1  12
HETATM   12  C2  UNL     1       5.334  -1.151   0.874  1.00  0.00     0.159 C 
HETATM   13  C1  UNL     1       5.769  -2.532   0.501  1.00  0.00     0.097 C 
HETATM   14  O1  UNL     1       6.165  -0.277   1.222  1.00  0.00    -0.293 OA
ENDBRANCH   1  12
BRANCH   7  15
HETATM   15  C8  UNL     1      -1.784   0.485  -0.166  1.00  0.00     0.071 A 
HETATM   16  C9  UNL     1      -2.875  -0.243  -0.526  1.00  0.00     0.059 A 
HETATM   17  C15 UNL     1      -3.878   0.724  -0.808  1.00  0.00     0.132 A 
HETATM   18  C16 UNL     1      -3.335   1.939  -0.602  1.00  0.00     0.178 A 
HETATM   19  N2  UNL     1      -2.050   1.832  -0.205  1.00  0.00    -0.319 N 
BRANCH  16  20
HETATM   20  C10 UNL     1      -3.085  -1.651  -0.680  1.00  0.00     0.066 C 
BRANCH  20  21
HETATM   21  O2  UNL     1      -4.230  -1.896  -1.342  1.00  0.00    -0.363 OA
ATOM     22  H2  UNL     1      -4.369  -2.830  -1.444  1.00  0.00     0.217 HD
ENDBRANCH  20  21
BRANCH  20  23
HETATM   23  C11 UNL     1      -2.396  -2.869  -0.307  1.00  0.00    -0.002 C 
HETATM   24  C12 UNL     1      -3.231  -4.095  -0.846  1.00  0.00     0.021 C 
HETATM   25  C13 UNL     1      -1.076  -3.046  -0.979  1.00  0.00     0.021 C 
HETATM   26  C14 UNL     1      -2.289  -3.163   1.153  1.00  0.00     0.021 C 
ENDBRANCH  20  23
ENDBRANCH  16  20
BRANCH  17  27
HETATM   27  O3  UNL     1      -5.184   0.456  -1.222  1.00  0.00    -0.356 OA
ATOM     28  H3  UNL     1      -5.854   1.102  -1.410  1.00  0.00     0.218 HD
ENDBRANCH  17  27
BRANCH  18  29
HETATM   29  O4  UNL     1      -4.076   3.129  -0.797  1.00  0.00    -0.344 OA
ATOM     30  H4  UNL     1      -3.693   3.986  -0.652  1.00  0.00     0.219 HD
ENDBRANCH  18  29
BRANCH  19  31
HETATM   31  C17 UNL     1      -1.284   2.963   0.097  1.00  0.00     0.092 C 
HETATM   32  C18 UNL     1      -0.484   3.609  -0.979  1.00  0.00     0.026 C 
HETATM   33  C19 UNL     1       0.324   4.652  -0.216  1.00  0.00     0.002 C 
HETATM   34  C20 UNL     1      -0.095   4.527   1.257  1.00  0.00     0.002 C 
HETATM   35  C21 UNL     1      -0.377   2.987   1.269  1.00  0.00     0.026 C 
ENDBRANCH  19  31
ENDBRANCH   7  15
TORSDOF 8
