REMARK  7 active torsions:
REMARK  status: ('A' for Active; 'I' for Inactive)
REMARK    1  A    between atoms: C2_2  and  C3_3 
REMARK    2  A    between atoms: C3_3  and  C5_5 
REMARK    3  A    between atoms: C5_5  and  O2_7 
REMARK    4  A    between atoms: O2_7  and  C6_8 
REMARK    5  A    between atoms: C6_8  and  C7_9 
REMARK    6  A    between atoms: N1_23  and  O5_25 
REMARK    7  A    between atoms: C24_32  and  O6_33 
ROOT
HETATM    1  C7  UNL     1       1.178   1.099  -1.382  1.00  0.00     0.256 C 
HETATM    2  O3  UNL     1       0.440   1.844  -2.291  1.00  0.00    -0.194 OA
HETATM    3  O4  UNL     1       1.154   1.211  -3.234  1.00  0.00    -0.221 OA
HETATM    4  C8  UNL     1       0.953   0.055  -2.488  1.00  0.00     0.157 C 
HETATM    5  C9  UNL     1       1.962  -1.015  -2.577  1.00  0.00     0.056 C 
HETATM    6  C10 UNL     1      -0.507  -0.361  -2.527  1.00  0.00     0.074 C 
HETATM    7  C11 UNL     1      -0.761  -1.614  -1.813  1.00  0.00    -0.023 C 
HETATM    8  C12 UNL     1      -2.066  -2.213  -1.699  1.00  0.00    -0.002 C 
HETATM    9  C13 UNL     1      -3.306  -1.814  -1.626  1.00  0.00    -0.084 C 
HETATM   10  C14 UNL     1      -4.405  -2.880  -1.508  1.00  0.00     0.043 C 
HETATM   11  C15 UNL     1      -3.869  -0.442  -1.638  1.00  0.00     0.034 C 
HETATM   12  C16 UNL     1      -4.309   0.056  -0.273  1.00  0.00     0.015 C 
HETATM   13  C17 UNL     1      -3.234   0.087   0.723  1.00  0.00     0.038 C 
HETATM   14  C18 UNL     1      -2.216   1.152   0.564  1.00  0.00     0.023 C 
HETATM   15  N1  UNL     1      -2.305   2.207  -0.068  1.00  0.00    -0.277 N 
ATOM     16  H1  UNL     1      -1.454   2.767  -0.018  1.00  0.00     0.193 HD
HETATM   17  C19 UNL     1      -0.976   0.813   1.331  1.00  0.00     0.089 C 
HETATM   18  C20 UNL     1      -1.340   1.135   2.749  1.00  0.00     0.016 C 
HETATM   19  C21 UNL     1      -2.611   0.446   3.147  1.00  0.00     0.006 C 
HETATM   20  C22 UNL     1      -3.682   0.273   2.158  1.00  0.00    -0.009 C 
HETATM   21  C23 UNL     1      -4.514  -0.958   2.509  1.00  0.00     0.011 C 
HETATM   22  C24 UNL     1       0.185   1.472   0.726  1.00  0.00     0.270 C 
HETATM   23  O7  UNL     1       0.645   0.636  -0.258  1.00  0.00    -0.317 OA
ENDROOT
BRANCH   1  24
HETATM   24  C6  UNL     1       2.585   1.631  -1.349  1.00  0.00     0.253 C 
BRANCH  24  25
HETATM   25  O2  UNL     1       3.410   0.926  -0.445  1.00  0.00    -0.316 OA
BRANCH  25  26
HETATM   26  C5  UNL     1       4.739   1.293  -0.296  1.00  0.00     0.262 C 
HETATM   27  O1  UNL     1       5.147   2.258  -0.992  1.00  0.00    -0.265 OA
BRANCH  26  28
HETATM   28  C3  UNL     1       5.653   0.574   0.652  1.00  0.00     0.081 C 
HETATM   29  C4  UNL     1       5.132   0.784   2.038  1.00  0.00     0.020 C 
BRANCH  28  30
HETATM   30  C2  UNL     1       5.765  -0.890   0.287  1.00  0.00     0.010 C 
HETATM   31  C1  UNL     1       6.728  -1.511   1.291  1.00  0.00     0.006 C 
ENDBRANCH  28  30
ENDBRANCH  26  28
ENDBRANCH  25  26
ENDBRANCH  24  25
ENDBRANCH   1  24
BRANCH  22  32
HETATM   32  O6  UNL     1       0.033   2.782   0.330  1.00  0.00    -0.370 OA
ATOM     33  H6  UNL     1       0.786   3.209  -0.062  1.00  0.00     0.212 HD
ENDBRANCH  22  32
BRANCH  15  34
HETATM   34  O5  UNL     1      -3.258   2.786  -0.803  1.00  0.00    -0.290 OA
ATOM     35  H5  UNL     1      -3.327   3.599  -1.290  1.00  0.00     0.244 HD
ENDBRANCH  15  34
TORSDOF 7
