REMARK  7 active torsions:
REMARK  status: ('A' for Active; 'I' for Inactive)
REMARK       I    between atoms: C2_2  and  N1_4 
REMARK    1  A    between atoms: N1_4  and  C3_6 
REMARK    2  A    between atoms: C4_9  and  N3_10 
REMARK    3  A    between atoms: N3_10  and  N4_12 
REMARK    4  A    between atoms: C6_19  and  N6_20 
REMARK    5  A    between atoms: C7_23  and  N7_24 
REMARK    6  A    between atoms: N7_24  and  N8_26 
REMARK    7  A    between atoms: C8_28  and  C9_29 
ROOT
HETATM    1  C3  UNL     1       1.696   1.146   0.485  1.00  0.00     0.154 C 
HETATM    2  N2  UNL     1       2.885   0.513   0.317  1.00  0.00    -0.173 N 
ATOM      3  H2  UNL     1       3.694   1.132   0.267  1.00  0.00     0.186 HD
HETATM    4  C4  UNL     1       3.175  -0.817   0.204  1.00  0.00     0.701 C 
HETATM    5  N5  UNL     1       2.331  -1.871   0.409  1.00  0.00    -0.152 N 
ATOM      6  H5  UNL     1       2.695  -2.785   0.142  1.00  0.00     0.187 HD
HETATM    7  C5  UNL     1       1.081  -1.868   0.917  1.00  0.00     0.295 C 
HETATM    8  O2  UNL     1       0.530  -2.965   1.133  1.00  0.00    -0.265 OA
HETATM    9  C6  UNL     1       0.287  -0.756   1.251  1.00  0.00     0.202 C 
HETATM   10  C7  UNL     1       0.481   0.491   0.693  1.00  0.00     0.131 C 
ENDROOT
BRANCH  10  11
HETATM   11  N7  UNL     1      -0.653   1.204   0.278  1.00  0.00    -0.295 N 
ATOM     12  H7  UNL     1      -0.510   2.193   0.075  1.00  0.00     0.187 HD
BRANCH  11  13
HETATM   13  N8  UNL     1      -1.946   0.730   0.109  1.00  0.00    -0.309 N 
HETATM   14  C8  UNL     1      -2.326  -0.173  -0.704  1.00  0.00     0.138 C 
ATOM     15  H8  UNL     1      -2.667   1.148   0.697  1.00  0.00     0.186 HD
BRANCH  14  16
HETATM   16  C9  UNL     1      -3.726  -0.575  -0.774  1.00  0.00     0.065 A 
HETATM   17  C10 UNL     1      -4.648   0.047   0.060  1.00  0.00     0.037 A 
HETATM   18  C11 UNL     1      -5.958  -0.345  -0.023  1.00  0.00     0.065 A 
HETATM   19  C12 UNL     1      -6.395  -1.326  -0.893  1.00  0.00     0.202 A 
HETATM   20  F1  UNL     1      -7.695  -1.698  -0.957  1.00  0.00    -0.185 F 
HETATM   21  N9  UNL     1      -5.440  -1.894  -1.681  1.00  0.00    -0.276 N 
HETATM   22  N10 UNL     1      -4.173  -1.517  -1.604  1.00  0.00    -0.297 N 
ATOM     23  H9  UNL     1      -5.706  -2.623  -2.343  1.00  0.00     0.189 HD
ATOM     24  H10 UNL     1      -3.499  -1.975  -2.217  1.00  0.00     0.187 HD
ENDBRANCH  14  16
ENDBRANCH  11  13
ENDBRANCH  10  11
BRANCH   1  25
HETATM   25  N1  UNL     1       1.642   2.414   0.453  1.00  0.00    -0.311 N 
HETATM   26  C2  UNL     1       2.856   3.122   0.237  1.00  0.00     0.219 C 
HETATM   27  C1  UNL     1       3.278   3.434  -1.166  1.00  0.00     0.117 C 
HETATM   28  O1  UNL     1       3.614   3.511   1.161  1.00  0.00    -0.274 OA
ATOM     29  H1  UNL     1       0.758   2.908   0.578  1.00  0.00     0.170 HD
ENDBRANCH   1  25
BRANCH   9  30
HETATM   30  N6  UNL     1      -0.702  -0.903   2.220  1.00  0.00    -0.107 N 
HETATM   31  O3  UNL     1      -1.004  -2.053   2.578  1.00  0.00    -0.531 OA
HETATM   32  O4  UNL     1      -1.352   0.139   2.786  1.00  0.00    -0.531 OA
ENDBRANCH   9  30
BRANCH   4  33
HETATM   33  N3  UNL     1       4.381  -1.085  -0.134  1.00  0.00    -0.138 N 
ATOM     34  H3  UNL     1       5.055  -0.338  -0.300  1.00  0.00     0.205 HD
BRANCH  33  35
HETATM   35  N4  UNL     1       4.751  -2.424  -0.270  1.00  0.00    -0.331 N 
ATOM     36  H42 UNL     1       4.065  -3.160  -0.101  1.00  0.00     0.177 HD
ATOM     37  H41 UNL     1       5.711  -2.637  -0.539  1.00  0.00     0.177 HD
ENDBRANCH  33  35
ENDBRANCH   4  33
TORSDOF 7
