REMARK  4 active torsions:
REMARK  status: ('A' for Active; 'I' for Inactive)
REMARK    1  A    between atoms: C2_2  and  N1_4 
REMARK    2  A    between atoms: C2_2  and  N2_8 
REMARK    3  A    between atoms: N2_8  and  C4_10 
REMARK    4  A    between atoms: C4_10  and  C7_13 
ROOT
HETATM    1  N2  UNL     1       1.220  -0.187  -0.781  1.00  0.00    -0.383 N 
ATOM      2  H2  UNL     1       1.716  -0.507  -1.612  1.00  0.00     0.156 HD
ENDROOT
BRANCH   1   3
HETATM    3  C2  UNL     1       2.066   0.335   0.141  1.00  0.00     0.185 C 
HETATM    4  C1  UNL     1       3.252   0.952  -0.688  1.00  0.00     0.070 C 
HETATM    5  C3  UNL     1       2.801  -0.665   1.023  1.00  0.00     0.070 C 
BRANCH   3   6
HETATM    6  N1  UNL     1       1.706   1.440   0.974  1.00  0.00    -0.054 N 
ATOM      7  H13 UNL     1       2.466   1.837   1.527  1.00  0.00     0.277 HD
ATOM      8  H12 UNL     1       1.491   2.307   0.482  1.00  0.00     0.277 HD
ATOM      9  H11 UNL     1       0.937   1.040   1.512  1.00  0.00     0.277 HD
ENDBRANCH   3   6
ENDBRANCH   1   3
BRANCH   1  10
HETATM   10  C4  UNL     1      -0.119  -0.393  -0.882  1.00  0.00     0.024 C 
HETATM   11  C5  UNL     1      -0.553  -0.345  -2.336  1.00  0.00     0.038 C 
HETATM   12  C6  UNL     1      -0.338  -2.006  -0.654  1.00  0.00     0.038 C 
BRANCH  10  13
HETATM   13  C7  UNL     1      -1.152   0.176  -0.021  1.00  0.00     0.012 C 
HETATM   14  C8  UNL     1      -1.229  -0.236   1.418  1.00  0.00     0.007 C 
HETATM   15  C9  UNL     1      -2.487   0.538   1.872  1.00  0.00     0.000 C 
HETATM   16  C10 UNL     1      -3.234   0.936   0.628  1.00  0.00     0.000 C 
HETATM   17  C11 UNL     1      -2.588   0.043  -0.462  1.00  0.00     0.007 C 
ENDBRANCH  10  13
ENDBRANCH   1  10
TORSDOF 4
