REMARK  7 active torsions:
REMARK  status: ('A' for Active; 'I' for Inactive)
REMARK    1  A    between atoms: C2_2  and  C3_3 
REMARK    2  A    between atoms: C3_3  and  C4_4 
REMARK    3  A    between atoms: C3_3  and  N1_6 
REMARK    4  A    between atoms: N1_6  and  C6_8 
REMARK    5  A    between atoms: C7_11  and  N3_12 
REMARK    6  A    between atoms: N3_12  and  C8_14 
REMARK    7  A    between atoms: C14_22  and  N5_23 
ROOT
HETATM    1  C6  UNL     1      -1.460   0.355   0.235  1.00  0.00     0.707 A 
HETATM    2  N2  UNL     1      -0.271  -0.112  -0.142  1.00  0.00    -0.021 N 
ATOM      3  H2  UNL     1      -0.073  -1.112  -0.106  1.00  0.00     0.203 HD
HETATM    4  C7  UNL     1       0.662   0.751  -0.570  1.00  0.00     0.707 A 
HETATM    5  N4  UNL     1       0.449   2.072  -0.635  1.00  0.00    -0.021 N 
ATOM      6  H4  UNL     1       1.173   2.711  -0.963  1.00  0.00     0.203 HD
HETATM    7  C14 UNL     1      -0.760   2.522  -0.249  1.00  0.00     0.709 A 
HETATM    8  N6  UNL     1      -1.707   1.658   0.183  1.00  0.00    -0.021 N 
ATOM      9  H6  UNL     1      -2.619   2.011   0.471  1.00  0.00     0.203 HD
ENDROOT
BRANCH   4  10
HETATM   10  N3  UNL     1       1.916   0.238  -0.965  1.00  0.00    -0.220 N 
ATOM     11  H3  UNL     1       2.628   0.892  -1.291  1.00  0.00     0.178 HD
BRANCH  10  12
HETATM   12  C8  UNL     1       2.240  -1.173  -0.929  1.00  0.00     0.099 C 
HETATM   13  C9  UNL     1       2.128  -1.702   0.476  1.00  0.00     0.026 C 
HETATM   14  C10 UNL     1       3.444  -2.267   0.969  1.00  0.00     0.002 C 
HETATM   15  C11 UNL     1       3.971  -3.314   0.046  1.00  0.00     0.000 C 
HETATM   16  C12 UNL     1       4.148  -2.749  -1.320  1.00  0.00     0.002 C 
HETATM   17  C13 UNL     1       3.624  -1.348  -1.495  1.00  0.00     0.026 C 
ENDBRANCH  10  12
ENDBRANCH   4  10
BRANCH   1  18
HETATM   18  N1  UNL     1      -2.360  -0.456   0.644  1.00  0.00    -0.221 N 
ATOM     19  H1  UNL     1      -3.266  -0.085   0.929  1.00  0.00     0.178 HD
BRANCH  18  20
HETATM   20  C3  UNL     1      -2.133  -1.886   0.716  1.00  0.00     0.098 C 
BRANCH  20  21
HETATM   21  C2  UNL     1      -1.651  -2.192   2.117  1.00  0.00     0.021 C 
HETATM   22  C1  UNL     1      -1.476  -3.697   2.227  1.00  0.00     0.007 C 
ENDBRANCH  20  21
BRANCH  20  23
HETATM   23  C4  UNL     1      -3.451  -2.602   0.506  1.00  0.00     0.021 C 
HETATM   24  C5  UNL     1      -4.016  -2.360  -0.866  1.00  0.00     0.007 C 
ENDBRANCH  20  23
ENDBRANCH  18  20
ENDBRANCH   1  18
BRANCH   7  25
HETATM   25  N5  UNL     1      -0.990   3.917  -0.317  1.00  0.00    -0.217 N 
HETATM   26  C15 UNL     1      -0.728   4.845   0.746  1.00  0.00     0.141 C 
HETATM   27  C16 UNL     1      -1.229   6.182   0.295  1.00  0.00     0.022 C 
HETATM   28  C17 UNL     1      -1.250   6.094  -1.205  1.00  0.00     0.022 C 
HETATM   29  C18 UNL     1      -1.523   4.627  -1.458  1.00  0.00     0.141 C 
ENDBRANCH   7  25
TORSDOF 7
