REMARK  3 active torsions:
REMARK  status: ('A' for Active; 'I' for Inactive)
REMARK    1  A    between atoms: N2_6  and  C4_8 
REMARK    2  A    between atoms: C4_8  and  C5_9 
REMARK    3  A    between atoms: C5_9  and  N3_10 
ROOT
HETATM    1  C1  UNL     1       4.697  -0.025   0.170  1.00  0.00     0.030 C 
HETATM    2  C2  UNL     1       3.663  -1.018  -0.165  1.00  0.00     0.122 C 
HETATM    3  N1  UNL     1       2.311  -0.724   0.154  1.00  0.00    -0.371 N 
ATOM      4  H1  UNL     1       1.774  -1.343   0.761  1.00  0.00     0.161 HD
HETATM    5  C3  UNL     1       1.724   0.444  -0.386  1.00  0.00     0.136 C 
HETATM    6  N2  UNL     1       0.491   0.647  -0.480  1.00  0.00    -0.369 N 
ATOM      7  H2  UNL     1       0.164   1.524  -0.886  1.00  0.00     0.161 HD
HETATM    8  S2  UNL     1       2.933   1.666  -0.952  1.00  0.00    -0.095 SA
HETATM    9  C9  UNL     1       4.322   1.406   0.224  1.00  0.00     0.084 C 
ENDROOT
BRANCH   6  10
HETATM   10  C4  UNL     1      -0.488  -0.329  -0.028  1.00  0.00     0.152 C 
BRANCH  10  11
HETATM   11  C5  UNL     1      -1.753   0.451   0.246  1.00  0.00     0.293 C 
BRANCH  11  12
HETATM   12  N3  UNL     1      -2.774  -0.411   0.715  1.00  0.00     0.099 N 
HETATM   13  C6  UNL     1      -3.959   0.358   1.057  1.00  0.00     0.283 C 
HETATM   14  C7  UNL     1      -4.535   0.912  -0.229  1.00  0.00     0.105 C 
HETATM   15  S1  UNL     1      -4.266  -0.553  -1.310  1.00  0.00    -0.138 SA
HETATM   16  C8  UNL     1      -3.185  -1.473  -0.135  1.00  0.00     0.346 C 
ENDBRANCH  11  12
ENDBRANCH  10  11
ENDBRANCH   6  10
TORSDOF 3
