REMARK  22 active torsions:
REMARK  status: ('A' for Active; 'I' for Inactive)
REMARK    1  A    between atoms: N1_1  and  C1_5 
REMARK    2  A    between atoms: C1_5  and  O1_6 
REMARK    3  A    between atoms: C1_5  and  C2_8 
REMARK    4  A    between atoms: C3_9  and  O2_10 
REMARK    5  A    between atoms: C4_14  and  C5_15 
REMARK    6  A    between atoms: C5_15  and  O3_16 
REMARK    7  A    between atoms: C5_15  and  O4_18 
REMARK    8  A    between atoms: C7_21  and  N3_22 
REMARK    9  A    between atoms: N3_22  and  C8_23 
REMARK   10  A    between atoms: C8_23  and  C9_24 
REMARK   11  A    between atoms: C8_23  and  C24_52 
REMARK   12  A    between atoms: C9_24  and  O5_25 
REMARK   13  A    between atoms: O5_25  and  C10_26 
REMARK   14  A    between atoms: C10_26  and  N4_27 
REMARK   15  A    between atoms: C10_26  and  C11_31 
REMARK   16  A    between atoms: C14_34  and  C15_35 
REMARK   17  A    between atoms: C15_35  and  N5_36 
REMARK   18  A    between atoms: N5_36  and  C16_38 
REMARK   19  A    between atoms: C17_39  and  O6_40 
REMARK   20  A    between atoms: C22_48  and  O9_49 
REMARK   21  A    between atoms: C24_52  and  O10_53 
REMARK   22  A    between atoms: C24_52  and  O11_55 
ROOT
HETATM    1  C8  UNL     1      -1.937   0.522   0.939  1.00  0.00     0.241 C 
ENDROOT
BRANCH   1   2
HETATM    2  N3  UNL     1      -3.183   0.046   0.720  1.00  0.00    -0.435 NA
BRANCH   2   3
HETATM    3  C7  UNL     1      -4.380  -0.172   0.861  1.00  0.00     0.117 A 
HETATM    4  C2  UNL     1      -5.087  -0.972  -0.046  1.00  0.00     0.088 A 
HETATM    5  C3  UNL     1      -6.414  -1.191   0.182  1.00  0.00     0.154 A 
HETATM    6  N2  UNL     1      -7.074  -0.660   1.234  1.00  0.00    -0.336 N 
HETATM    7  C4  UNL     1      -6.454   0.099   2.112  1.00  0.00     0.069 A 
ATOM      8  H2  UNL     1      -8.069  -0.850   1.350  1.00  0.00     0.168 HD
HETATM    9  C6  UNL     1      -5.099   0.340   1.921  1.00  0.00     0.075 A 
BRANCH   4  10
HETATM   10  C1  UNL     1      -4.456  -1.617  -1.265  1.00  0.00     0.358 C 
BRANCH  10  11
HETATM   11  N1  UNL     1      -5.581  -1.638  -2.290  1.00  0.00    -0.049 N 
ATOM     12  H13 UNL     1      -6.060  -0.757  -2.475  1.00  0.00     0.277 HD
ATOM     13  H12 UNL     1      -5.319  -1.765  -3.268  1.00  0.00     0.277 HD
ATOM     14  H11 UNL     1      -6.124  -2.382  -1.852  1.00  0.00     0.277 HD
ENDBRANCH  10  11
BRANCH  10  15
HETATM   15  O1  UNL     1      -3.690  -0.569  -1.883  1.00  0.00    -0.366 OA
ATOM     16  H1  UNL     1      -2.988  -0.556  -1.243  1.00  0.00     0.212 HD
ENDBRANCH  10  15
ENDBRANCH   4  10
BRANCH   5  17
HETATM   17  O2  UNL     1      -7.129  -2.019  -0.728  1.00  0.00    -0.345 OA
ATOM     18  H2  UNL     1      -8.053  -2.172  -0.569  1.00  0.00     0.219 HD
ENDBRANCH   5  17
BRANCH   7  19
HETATM   19  C5  UNL     1      -7.177   0.673   3.309  1.00  0.00     0.305 C 
BRANCH  19  20
HETATM   20  O3  UNL     1      -6.978   2.086   3.330  1.00  0.00    -0.366 OA
ATOM     21  H3  UNL     1      -7.432   2.447   4.082  1.00  0.00     0.213 HD
ENDBRANCH  19  20
BRANCH  19  22
HETATM   22  O4  UNL     1      -8.526   0.505   3.225  1.00  0.00    -0.366 OA
ATOM     23  H4  UNL     1      -8.980   0.866   3.977  1.00  0.00     0.213 HD
ENDBRANCH  19  22
ENDBRANCH   7  19
ENDBRANCH   2   3
ENDBRANCH   1   2
BRANCH   1  24
HETATM   24  C9  UNL     1      -1.150   0.942  -0.340  1.00  0.00     0.215 C 
BRANCH  24  25
HETATM   25  O5  UNL     1      -0.822  -0.215  -1.041  1.00  0.00    -0.352 OA
BRANCH  25  26
HETATM   26  C10 UNL     1      -0.252   0.120  -2.321  1.00  0.00     0.353 C 
BRANCH  26  27
HETATM   27  N4  UNL     1      -0.572  -0.919  -3.221  1.00  0.00    -0.049 N 
ATOM     28  H43 UNL     1      -0.280  -1.837  -2.886  1.00  0.00     0.277 HD
ATOM     29  H42 UNL     1      -1.574  -1.105  -3.270  1.00  0.00     0.277 HD
ATOM     30  H41 UNL     1      -0.168  -0.682  -4.127  1.00  0.00     0.277 HD
ENDBRANCH  26  27
BRANCH  26  31
HETATM   31  C11 UNL     1       1.245   0.050  -1.984  1.00  0.00    -0.000 A 
HETATM   32  C12 UNL     1       1.978   1.206  -1.922  1.00  0.00     0.012 A 
HETATM   33  C13 UNL     1       3.301   1.228  -1.504  1.00  0.00     0.016 A 
HETATM   34  C14 UNL     1       3.830   0.016  -1.155  1.00  0.00     0.012 A 
HETATM   35  C22 UNL     1       3.113  -1.197  -1.217  1.00  0.00     0.077 A 
HETATM   36  C23 UNL     1       1.806  -1.131  -1.640  1.00  0.00     0.049 A 
BRANCH  34  37
HETATM   37  C15 UNL     1       5.055  -0.100  -0.294  1.00  0.00     0.102 C 
BRANCH  37  38
HETATM   38  N5  UNL     1       6.286   0.010  -0.943  1.00  0.00    -0.359 N 
ATOM     39  H5  UNL     1       6.283   0.134  -1.955  1.00  0.00     0.165 HD
BRANCH  38  40
HETATM   40  C16 UNL     1       7.551  -0.040  -0.279  1.00  0.00     0.120 A 
HETATM   41  C17 UNL     1       7.739  -0.454   0.931  1.00  0.00     0.147 A 
HETATM   42  C18 UNL     1       9.066  -0.515   1.610  1.00  0.00     0.207 A 
HETATM   43  O7  UNL     1       9.186  -0.928   2.784  1.00  0.00    -0.285 OA
HETATM   44  C19 UNL     1      10.203  -0.051   0.782  1.00  0.00     0.062 A 
HETATM   45  C20 UNL     1      10.071   0.370  -0.450  1.00  0.00     0.061 A 
HETATM   46  C21 UNL     1       8.755   0.405  -1.065  1.00  0.00     0.201 A 
HETATM   47  O8  UNL     1       8.561   0.789  -2.236  1.00  0.00    -0.286 OA
BRANCH  41  48
HETATM   48  O6  UNL     1       6.679  -0.871   1.692  1.00  0.00    -0.355 OA
ATOM     49  H6  UNL     1       6.817  -1.175   2.581  1.00  0.00     0.218 HD
ENDBRANCH  41  48
ENDBRANCH  38  40
ENDBRANCH  37  38
ENDBRANCH  34  37
BRANCH  35  50
HETATM   50  O9  UNL     1       3.772  -2.362  -0.873  1.00  0.00    -0.360 OA
ATOM     51  H9  UNL     1       3.289  -3.179  -0.915  1.00  0.00     0.217 HD
ENDBRANCH  35  50
ENDBRANCH  26  31
ENDBRANCH  25  26
ENDBRANCH  24  25
ENDBRANCH   1  24
BRANCH   1  52
HETATM   52  C24 UNL     1      -1.652   1.605   1.955  1.00  0.00     0.291 C 
BRANCH  52  53
HETATM   53  O10 UNL     1      -1.962   1.266   3.238  1.00  0.00    -0.368 OA
ATOM     54  H10 UNL     1      -1.783   1.946   3.876  1.00  0.00     0.212 HD
ENDBRANCH  52  53
BRANCH  52  55
HETATM   55  O11 UNL     1      -2.144   2.851   1.579  1.00  0.00    -0.368 OA
ATOM     56  H11 UNL     1      -1.965   3.531   2.217  1.00  0.00     0.212 HD
ENDBRANCH  52  55
ENDBRANCH   1  52
TORSDOF 22
