REMARK  8 active torsions:
REMARK  status: ('A' for Active; 'I' for Inactive)
REMARK    1  A    between atoms: C2_2  and  C3_3 
REMARK    2  A    between atoms: C2_2  and  C25_31 
REMARK    3  A    between atoms: C3_3  and  C4_4 
REMARK    4  A    between atoms: C7_7  and  O1_8 
REMARK    5  A    between atoms: O1_8  and  C8_9 
REMARK    6  A    between atoms: C8_9  and  C9_11 
REMARK    7  A    between atoms: C21_24  and  C22_25 
REMARK    8  A    between atoms: C24_28  and  O5_29 
ROOT
HETATM    1  C4  UNL     1       4.167  -0.911   1.118  1.00  0.00    -0.019 A 
HETATM    2  C5  UNL     1       3.173  -1.754   1.523  1.00  0.00     0.013 A 
HETATM    3  C6  UNL     1       1.851  -1.382   1.532  1.00  0.00     0.039 A 
HETATM    4  C7  UNL     1       1.510  -0.088   1.110  1.00  0.00     0.095 A 
HETATM    5  C21 UNL     1       2.471   0.802   0.693  1.00  0.00     0.077 A 
HETATM    6  C24 UNL     1       3.797   0.392   0.696  1.00  0.00     0.088 A 
ENDROOT
BRANCH   4   7
HETATM    7  O1  UNL     1       0.122   0.234   1.140  1.00  0.00    -0.277 OA
BRANCH   7   8
HETATM    8  C8  UNL     1      -0.742  -0.475   0.314  1.00  0.00     0.274 C 
HETATM    9  O2  UNL     1      -0.143  -1.338  -0.418  1.00  0.00    -0.264 OA
BRANCH   8  10
HETATM   10  C9  UNL     1      -2.197  -0.368   0.188  1.00  0.00     0.061 C 
HETATM   11  C10 UNL     1      -2.604  -1.503  -0.772  1.00  0.00     0.025 C 
HETATM   12  C11 UNL     1      -4.073  -1.647  -0.920  1.00  0.00    -0.008 C 
HETATM   13  C12 UNL     1      -4.688  -1.920   0.432  1.00  0.00     0.037 C 
HETATM   14  C17 UNL     1      -4.595  -0.318  -1.458  1.00  0.00     0.043 C 
HETATM   15  C13 UNL     1      -4.355  -0.723   1.300  1.00  0.00     0.124 C 
HETATM   16  C14 UNL     1      -2.875  -0.705   1.528  1.00  0.00     0.052 C 
HETATM   17  O3  UNL     1      -4.829   0.467   0.754  1.00  0.00    -0.374 OA
HETATM   18  C15 UNL     1      -4.269   0.751  -0.467  1.00  0.00     0.066 C 
HETATM   19  C16 UNL     1      -4.882   2.046  -0.974  1.00  0.00     0.047 C 
HETATM   20  C18 UNL     1      -2.763   0.932  -0.251  1.00  0.00     0.000 C 
HETATM   21  C19 UNL     1      -2.129   1.536  -1.467  1.00  0.00     0.019 C 
HETATM   22  C20 UNL     1      -2.675   1.929   0.900  1.00  0.00     0.019 C 
ENDBRANCH   8  10
ENDBRANCH   7   8
ENDBRANCH   4   7
BRANCH   5  23
HETATM   23  C22 UNL     1       2.060   2.122   0.291  1.00  0.00     0.161 C 
HETATM   24  C23 UNL     1       2.870   3.241  -0.178  1.00  0.00     0.097 C 
HETATM   25  O4  UNL     1       0.803   2.355   0.352  1.00  0.00    -0.293 OA
ENDBRANCH   5  23
BRANCH   6  26
HETATM   26  O5  UNL     1       4.801   1.166   0.314  1.00  0.00    -0.359 OA
ATOM     27  H5  UNL     1       4.553   2.039   0.031  1.00  0.00     0.217 HD
ENDBRANCH   6  26
BRANCH   1  28
HETATM   28  C3  UNL     1       5.607  -1.250   1.092  1.00  0.00     0.086 C 
BRANCH  28  29
HETATM   29  C2  UNL     1       6.158  -1.504  -0.241  1.00  0.00     0.013 C 
HETATM   30  C1  UNL     1       7.129  -0.751  -0.704  1.00  0.00     0.026 C 
BRANCH  29  31
HETATM   31  C25 UNL     1       5.657  -2.572  -1.060  1.00  0.00     0.204 C 
HETATM   32  O6  UNL     1       4.737  -3.306  -0.652  1.00  0.00    -0.644 OA
HETATM   33  O7  UNL     1       6.187  -2.803  -2.309  1.00  0.00    -0.644 OA
ENDBRANCH  29  31
ENDBRANCH  28  29
ENDBRANCH   1  28
TORSDOF 8
