REMARK  8 active torsions:
REMARK  status: ('A' for Active; 'I' for Inactive)
REMARK    1  A    between atoms: N1_1  and  C1_4 
REMARK    2  A    between atoms: N4_9  and  C2_10 
REMARK    3  A    between atoms: C2_10  and  C3_11 
REMARK    4  A    between atoms: N5_12  and  N6_14 
REMARK       I    between atoms: N6_14  and  C4_16 
REMARK    5  A    between atoms: C4_16  and  C5_18 
REMARK    6  A    between atoms: C7_20  and  C8_21 
REMARK    7  A    between atoms: C10_26  and  S1_27 
REMARK    8  A    between atoms: S1_27  and  N7_28 
ROOT
HETATM    1  N6  UNL     1       0.759   0.123   0.973  1.00  0.00    -0.266 N 
ATOM      2  H6  UNL     1       0.461  -0.810   1.259  1.00  0.00     0.190 HD
HETATM    3  C4  UNL     1      -0.167   1.024   0.397  1.00  0.00     0.270 C 
HETATM    4  O1  UNL     1       0.276   2.169   0.050  1.00  0.00    -0.266 OA
ENDROOT
BRANCH   3   5
HETATM    5  C5  UNL     1      -1.581   0.719   0.184  1.00  0.00     0.035 A 
HETATM    6  C6  UNL     1      -2.341   1.473  -0.665  1.00  0.00     0.033 A 
HETATM    7  C7  UNL     1      -3.693   1.196  -0.834  1.00  0.00     0.050 A 
HETATM    8  C9  UNL     1      -4.268   0.130  -0.124  1.00  0.00     0.041 A 
HETATM    9  C10 UNL     1      -3.506  -0.637   0.735  1.00  0.00     0.081 A 
HETATM   10  C11 UNL     1      -2.150  -0.316   0.870  1.00  0.00     0.042 A 
BRANCH   7  11
HETATM   11  C8  UNL     1      -4.505   2.020  -1.746  1.00  0.00     0.417 C 
HETATM   12  F1  UNL     1      -4.560   1.411  -2.980  1.00  0.00    -0.166 F 
HETATM   13  F2  UNL     1      -4.073   3.312  -1.827  1.00  0.00    -0.166 F 
HETATM   14  F3  UNL     1      -5.835   2.096  -1.305  1.00  0.00    -0.166 F 
ENDBRANCH   7  11
BRANCH   9  15
HETATM   15  S1  UNL     1      -4.249  -1.955   1.608  1.00  0.00     0.256 S 
HETATM   16  O2  UNL     1      -5.710  -1.668   1.878  1.00  0.00    -0.201 OA
HETATM   17  O3  UNL     1      -3.574  -2.095   2.942  1.00  0.00    -0.201 OA
BRANCH  15  18
HETATM   18  N7  UNL     1      -4.091  -3.427   0.733  1.00  0.00    -0.324 N 
ATOM     19  H72 UNL     1      -3.624  -3.504  -0.171  1.00  0.00     0.169 HD
ATOM     20  H71 UNL     1      -4.525  -4.197   1.243  1.00  0.00     0.169 HD
ENDBRANCH  15  18
ENDBRANCH   9  15
ENDBRANCH   3   5
BRANCH   1  21
HETATM   21  N5  UNL     1       2.077   0.521   1.145  1.00  0.00    -0.311 N 
HETATM   22  C3  UNL     1       2.828   0.944   0.176  1.00  0.00     0.103 C 
ATOM     23  H5  UNL     1       2.476   0.479   2.083  1.00  0.00     0.185 HD
BRANCH  22  24
HETATM   24  C2  UNL     1       4.224   1.366   0.412  1.00  0.00     0.217 C 
BRANCH  24  25
HETATM   25  N4  UNL     1       5.117   0.225   0.338  1.00  0.00    -0.200 N 
HETATM   26  N3  UNL     1       5.489  -0.568   1.339  1.00  0.00    -0.211 N 
HETATM   27  N2  UNL     1       6.317  -1.493   0.911  1.00  0.00    -0.115 N 
ATOM     28  H3  UNL     1       5.175  -0.471   2.305  1.00  0.00     0.210 HD
HETATM   29  C1  UNL     1       6.492  -1.307  -0.400  1.00  0.00     0.707 A 
ATOM     30  H2  UNL     1       6.749  -2.223   1.478  1.00  0.00     0.207 HD
HETATM   31  N8  UNL     1       5.748  -0.241  -0.753  1.00  0.00    -0.113 N 
ATOM     32  H8  UNL     1       5.676   0.148  -1.693  1.00  0.00     0.207 HD
BRANCH  29  33
HETATM   33  N1  UNL     1       7.222  -1.995  -1.243  1.00  0.00    -0.232 N 
ATOM     34  H12 UNL     1       7.785  -2.802  -0.976  1.00  0.00     0.174 HD
ATOM     35  H11 UNL     1       7.356  -1.853  -2.244  1.00  0.00     0.174 HD
ENDBRANCH  29  33
ENDBRANCH  24  25
ENDBRANCH  22  24
ENDBRANCH   1  21
TORSDOF 8
