REMARK  13 active torsions:
REMARK  status: ('A' for Active; 'I' for Inactive)
REMARK    1  A    between atoms: C2_2  and  O2_4 
REMARK    2  A    between atoms: O2_4  and  C3_5 
REMARK    3  A    between atoms: C3_5  and  C4_6 
REMARK    4  A    between atoms: C3_5  and  C9_12 
REMARK    5  A    between atoms: C5_7  and  C6_8 
REMARK    6  A    between atoms: C9_12  and  C10_13 
REMARK    7  A    between atoms: C10_13  and  C11_14 
REMARK    8  A    between atoms: C11_14  and  C12_15 
REMARK    9  A    between atoms: C11_14  and  C17_27 
REMARK   10  A    between atoms: C13_16  and  O3_17 
REMARK   11  A    between atoms: C14_20  and  C15_21 
REMARK   12  A    between atoms: C15_21  and  O5_22 
REMARK   13  A    between atoms: C16_24  and  O6_25 
ROOT
HETATM    1  C11 UNL     1       1.621  -0.942  -0.092  1.00  0.00     0.056 C 
ENDROOT
BRANCH   1   2
HETATM    2  C10 UNL     1       0.222  -0.459   0.151  1.00  0.00     0.015 C 
BRANCH   2   3
HETATM    3  C9  UNL     1      -0.482  -0.067  -1.083  1.00  0.00     0.037 C 
BRANCH   3   4
HETATM    4  C3  UNL     1      -1.864   0.457  -0.928  1.00  0.00     0.154 C 
BRANCH   4   5
HETATM    5  O2  UNL     1      -1.886   1.624  -0.117  1.00  0.00    -0.312 OA
BRANCH   5   6
HETATM    6  C2  UNL     1      -2.253   2.876  -0.559  1.00  0.00     0.255 C 
HETATM    7  C1  UNL     1      -2.233   4.026   0.393  1.00  0.00     0.126 C 
HETATM    8  O1  UNL     1      -2.595   3.003  -1.766  1.00  0.00    -0.266 OA
ENDBRANCH   5   6
ENDBRANCH   4   5
BRANCH   4   9
HETATM    9  C4  UNL     1      -2.861  -0.461  -0.428  1.00  0.00     0.006 C 
HETATM   10  C5  UNL     1      -4.079  -0.045  -0.167  1.00  0.00     0.006 C 
BRANCH  10  11
HETATM   11  C6  UNL     1      -5.127  -0.929   0.340  1.00  0.00    -0.056 C 
HETATM   12  C7  UNL     1      -4.809  -2.352   0.570  1.00  0.00     0.048 C 
HETATM   13  C8  UNL     1      -6.325  -0.449   0.582  1.00  0.00     0.062 C 
HETATM   14 BR1  UNL     1      -7.698  -1.595   1.243  1.00  0.00    -0.063 Br
ENDBRANCH  10  11
ENDBRANCH   4   9
ENDBRANCH   3   4
ENDBRANCH   2   3
ENDBRANCH   1   2
BRANCH   1  15
HETATM   15  C12 UNL     1       2.528   0.064  -0.668  1.00  0.00     0.042 A 
HETATM   16  C13 UNL     1       3.719  -0.222  -1.363  1.00  0.00     0.193 A 
HETATM   17  O4  UNL     1       4.311   0.894  -1.689  1.00  0.00    -0.287 OA
HETATM   18  C14 UNL     1       3.632   1.930  -1.281  1.00  0.00     0.113 A 
HETATM   19  C16 UNL     1       2.497   1.431  -0.629  1.00  0.00     0.109 A 
BRANCH  16  20
HETATM   20  O3  UNL     1       4.213  -1.474  -1.668  1.00  0.00    -0.340 OA
ATOM     21  H3  UNL     1       5.016  -1.667  -2.137  1.00  0.00     0.220 HD
ENDBRANCH  16  20
BRANCH  18  22
HETATM   22  C15 UNL     1       3.941   3.381  -1.439  1.00  0.00     0.232 C 
BRANCH  22  23
HETATM   23  O5  UNL     1       5.140   3.538  -2.132  1.00  0.00    -0.394 OA
ATOM     24  H5  UNL     1       5.337   4.462  -2.233  1.00  0.00     0.209 HD
ENDBRANCH  22  23
ENDBRANCH  18  22
BRANCH  19  25
HETATM   25  O6  UNL     1       1.530   2.236  -0.050  1.00  0.00    -0.357 OA
ATOM     26  H6  UNL     1       1.508   3.185  -0.023  1.00  0.00     0.217 HD
ENDBRANCH  19  25
ENDBRANCH   1  15
BRANCH   1  27
HETATM   27  C17 UNL     1       2.177  -1.508   1.214  1.00  0.00     0.141 C 
HETATM   28  C18 UNL     1       1.347  -2.652   1.705  1.00  0.00     0.043 C 
HETATM   29  C19 UNL     1       2.327  -3.684   2.146  1.00  0.00     0.113 C 
HETATM   30  C20 UNL     1       3.650  -3.073   1.966  1.00  0.00     0.259 C 
HETATM   31  O7  UNL     1       4.766  -3.364   2.481  1.00  0.00    -0.265 OA
HETATM   32  O8  UNL     1       3.487  -2.026   1.060  1.00  0.00    -0.315 OA
ENDBRANCH   1  27
TORSDOF 13
