REMARK  5 active torsions:
REMARK  status: ('A' for Active; 'I' for Inactive)
REMARK    1  A    between atoms: C2_2  and  C3_3 
REMARK    2  A    between atoms: C9_9  and  O1_10 
REMARK    3  A    between atoms: O1_10  and  C10_11 
REMARK    4  A    between atoms: C17_21  and  C18_22 
REMARK    5  A    between atoms: C24_28  and  C25_29 
ROOT
HETATM    1  C3  UNL     1      -0.005  -2.793   0.969  1.00  0.00    -0.026 C 
HETATM    2  C4  UNL     1      -0.958  -3.486   1.951  1.00  0.00     0.019 C 
HETATM    3  C5  UNL     1       1.075  -2.070   1.670  1.00  0.00     0.020 C 
HETATM    4  C6  UNL     1       1.473  -0.750   1.181  1.00  0.00     0.023 C 
HETATM    5  C7  UNL     1       0.402   0.071   0.441  1.00  0.00    -0.001 C 
HETATM    6  C8  UNL     1       0.799   1.469   0.593  1.00  0.00     0.041 C 
HETATM    7  C9  UNL     1       2.310   1.692   0.687  1.00  0.00     0.164 C 
HETATM    8  C12 UNL     1       3.129   0.640   0.063  1.00  0.00     0.184 C 
HETATM    9  O3  UNL     1       3.197   0.705  -1.338  1.00  0.00    -0.345 OA
HETATM   10  C13 UNL     1       3.519  -0.638  -1.649  1.00  0.00     0.158 C 
HETATM   11  C14 UNL     1       3.364  -0.898  -3.125  1.00  0.00     0.078 C 
HETATM   12  C15 UNL     1       4.903  -1.001  -1.223  1.00  0.00     0.078 C 
HETATM   13  O4  UNL     1       2.526  -1.296  -0.926  1.00  0.00    -0.348 OA
HETATM   14  C16 UNL     1       2.699  -0.758   0.324  1.00  0.00     0.161 C 
HETATM   15  C17 UNL     1      -0.884  -0.475   0.764  1.00  0.00    -0.004 C 
HETATM   16  C28 UNL     1      -0.894  -1.888   0.127  1.00  0.00     0.018 C 
ENDROOT
BRANCH  15  17
HETATM   17  C18 UNL     1      -2.200   0.091   0.668  1.00  0.00    -0.000 C 
HETATM   18  C19 UNL     1      -2.381   1.280   1.609  1.00  0.00     0.006 C 
HETATM   19  C20 UNL     1      -2.614   2.478   0.758  1.00  0.00     0.010 C 
HETATM   20  C21 UNL     1      -2.629   2.063  -0.675  1.00  0.00     0.017 C 
HETATM   21  C22 UNL     1      -3.834   2.598  -1.363  1.00  0.00    -0.024 C 
HETATM   22  C26 UNL     1      -2.836   0.549  -0.559  1.00  0.00    -0.017 C 
HETATM   23  C23 UNL     1      -4.805   1.747  -1.177  1.00  0.00    -0.014 C 
HETATM   24  C24 UNL     1      -4.355   0.582  -0.364  1.00  0.00     0.118 C 
HETATM   25  C27 UNL     1      -2.559  -0.027  -1.867  1.00  0.00     0.017 C 
BRANCH  24  26
HETATM   26  C25 UNL     1      -5.036  -0.648  -0.725  1.00  0.00     0.181 C 
HETATM   27  O5  UNL     1      -4.502  -1.685  -1.128  1.00  0.00    -0.647 OA
HETATM   28  O6  UNL     1      -6.438  -0.680  -0.610  1.00  0.00    -0.647 OA
ENDBRANCH  24  26
ENDBRANCH  15  17
BRANCH   1  29
HETATM   29  C2  UNL     1       0.539  -3.873   0.100  1.00  0.00    -0.028 C 
HETATM   30  C1  UNL     1       0.688  -5.123   0.527  1.00  0.00     0.007 C 
ENDBRANCH   1  29
BRANCH   7  31
HETATM   31  O1  UNL     1       2.559   2.981   0.214  1.00  0.00    -0.314 OA
BRANCH  31  32
HETATM   32  C10 UNL     1       3.024   4.035   0.945  1.00  0.00     0.255 C 
HETATM   33  C11 UNL     1       3.270   5.396   0.374  1.00  0.00     0.126 C 
HETATM   34  O2  UNL     1       3.247   3.818   2.160  1.00  0.00    -0.266 OA
ENDBRANCH  31  32
ENDBRANCH   7  31
TORSDOF 5
