REMARK  7 active torsions:
REMARK  status: ('A' for Active; 'I' for Inactive)
REMARK    1  A    between atoms: C2_3  and  O1_4 
REMARK    2  A    between atoms: C3_6  and  N2_7 
REMARK    3  A    between atoms: N3_9  and  C4_11 
REMARK    4  A    between atoms: C4_11  and  C5_12 
REMARK    5  A    between atoms: C5_12  and  C6_13 
REMARK    6  A    between atoms: N4_16  and  N5_18 
REMARK    7  A    between atoms: C7_20  and  C8_21 
ROOT
HETATM    1  C4  UNL     1       0.164   2.352  -0.651  1.00  0.00     0.120 C 
HETATM    2  N4  UNL     1      -1.036   2.215  -1.045  1.00  0.00    -0.288 N 
ATOM      3  H4  UNL     1      -1.542   3.007  -1.441  1.00  0.00     0.188 HD
ENDROOT
BRANCH   1   4
HETATM    4  N3  UNL     1       0.857   1.251  -0.104  1.00  0.00    -0.286 N 
HETATM    5  N2  UNL     1       1.831   1.422   0.701  1.00  0.00    -0.289 N 
ATOM      6  H2  UNL     1       2.148   2.350   0.982  1.00  0.00     0.188 HD
ATOM      7  H3  UNL     1       0.574   0.304  -0.356  1.00  0.00     0.188 HD
BRANCH   5   8
HETATM    8  C3  UNL     1       2.455   0.213   1.189  1.00  0.00     0.145 A 
HETATM    9  C2  UNL     1       3.019  -0.802   0.457  1.00  0.00     0.181 A 
HETATM   10  N1  UNL     1       3.530  -1.807   1.107  1.00  0.00    -0.291 N 
HETATM   11  C1  UNL     1       4.166  -2.962   0.420  1.00  0.00     0.162 C 
HETATM   12  C14 UNL     1       3.480  -1.799   2.439  1.00  0.00     0.294 A 
HETATM   13  S1  UNL     1       2.689  -0.330   2.790  1.00  0.00    -0.005 SA
HETATM   14  O4  UNL     1       3.923  -2.687   3.254  1.00  0.00    -0.259 OA
BRANCH   9  15
HETATM   15  O1  UNL     1       3.010  -0.694  -0.967  1.00  0.00    -0.344 OA
ATOM     16  H1  UNL     1       2.637   0.040  -1.441  1.00  0.00     0.219 HD
ENDBRANCH   9  15
ENDBRANCH   5   8
ENDBRANCH   1   4
BRANCH   1  17
HETATM   17  C5  UNL     1       0.848   3.652  -0.756  1.00  0.00     0.192 C 
BRANCH  17  18
HETATM   18  C6  UNL     1       0.068   4.739  -1.331  1.00  0.00     0.179 C 
HETATM   19  O2  UNL     1      -1.112   4.560  -1.707  1.00  0.00    -0.648 OA
HETATM   20  O3  UNL     1       0.663   5.985  -1.454  1.00  0.00    -0.648 OA
ENDBRANCH  17  18
ENDBRANCH   1  17
BRANCH   2  21
HETATM   21  N5  UNL     1      -1.654   0.972  -0.931  1.00  0.00    -0.310 N 
HETATM   22  C7  UNL     1      -2.610   0.728  -0.100  1.00  0.00     0.122 C 
ATOM     23  H5  UNL     1      -1.334   0.216  -1.536  1.00  0.00     0.186 HD
BRANCH  22  24
HETATM   24  C8  UNL     1      -3.166  -0.619  -0.087  1.00  0.00     0.024 A 
HETATM   25  C9  UNL     1      -2.682  -1.599  -0.940  1.00  0.00     0.047 A 
HETATM   26 CL1  UNL     1      -1.384  -1.192  -2.038  1.00  0.00    -0.083 Cl
HETATM   27  C10 UNL     1      -3.220  -2.866  -0.913  1.00  0.00     0.025 A 
HETATM   28  C11 UNL     1      -4.235  -3.166  -0.046  1.00  0.00     0.003 A 
HETATM   29  C12 UNL     1      -4.705  -2.168   0.799  1.00  0.00     0.025 A 
HETATM   30  C13 UNL     1      -4.188  -0.892   0.796  1.00  0.00     0.047 A 
HETATM   31 CL2  UNL     1      -4.797   0.347   1.871  1.00  0.00    -0.083 Cl
ENDBRANCH  22  24
ENDBRANCH   2  21
TORSDOF 7
