REMARK  11 active torsions:
REMARK  status: ('A' for Active; 'I' for Inactive)
REMARK    1  A    between atoms: C2_2  and  C3_3 
REMARK    2  A    between atoms: C3_3  and  C4_4 
REMARK    3  A    between atoms: C9_9  and  N1_10 
REMARK    4  A    between atoms: C10_11  and  C11_12 
REMARK    5  A    between atoms: C11_12  and  C12_13 
REMARK    6  A    between atoms: C12_13  and  C15_16 
REMARK    7  A    between atoms: C20_25  and  O3_26 
REMARK    8  A    between atoms: O3_26  and  C21_27 
REMARK    9  A    between atoms: C21_27  and  C22_28 
REMARK   10  A    between atoms: C26_34  and  C27_35 
REMARK   11  A    between atoms: C28_39  and  C29_40 
ROOT
HETATM    1  N1  UNL     1      -0.924  -1.144  -0.291  1.00  0.00    -0.324 N 
HETATM    2  C10 UNL     1      -0.705  -1.827   0.804  1.00  0.00     0.086 A 
HETATM    3  N2  UNL     1       0.648  -1.837   1.012  1.00  0.00    -0.347 N 
ATOM      4  H2  UNL     1       1.113  -2.296   1.796  1.00  0.00     0.167 HD
HETATM    5  C16 UNL     1       1.263  -1.174   0.062  1.00  0.00     0.049 A 
HETATM    6  C17 UNL     1       0.285  -0.721  -0.786  1.00  0.00     0.037 A 
HETATM    7  C18 UNL     1       0.757   0.048  -1.960  1.00  0.00     0.062 C 
HETATM    8  C19 UNL     1       1.729   1.060  -1.461  1.00  0.00     0.039 C 
HETATM    9  C20 UNL     1       2.977   0.433  -0.785  1.00  0.00     0.140 C 
HETATM   10  C28 UNL     1       2.731  -0.884  -0.191  1.00  0.00     0.174 C 
ENDROOT
BRANCH   9  11
HETATM   11  O3  UNL     1       3.978   0.569  -1.694  1.00  0.00    -0.379 OA
BRANCH  11  12
HETATM   12  C21 UNL     1       4.826   1.611  -1.624  1.00  0.00     0.226 C 
BRANCH  12  13
HETATM   13  C22 UNL     1       5.649   1.764  -0.412  1.00  0.00     0.048 A 
HETATM   14  N3  UNL     1       5.574   0.917   0.611  1.00  0.00    -0.367 N 
HETATM   15  C23 UNL     1       6.300   1.018   1.722  1.00  0.00     0.088 A 
ATOM     16  H3  UNL     1       4.917   0.140   0.539  1.00  0.00     0.165 HD
HETATM   17  C24 UNL     1       7.184   2.041   1.851  1.00  0.00     0.018 A 
HETATM   18  C25 UNL     1       7.310   2.944   0.840  1.00  0.00     0.019 A 
HETATM   19  C26 UNL     1       6.556   2.830  -0.303  1.00  0.00     0.072 A 
BRANCH  19  20
HETATM   20  C27 UNL     1       6.705   3.817  -1.397  1.00  0.00     0.419 C 
HETATM   21  F1  UNL     1       5.566   4.503  -1.674  1.00  0.00    -0.166 F 
HETATM   22  F2  UNL     1       7.320   3.273  -2.524  1.00  0.00    -0.166 F 
HETATM   23  F3  UNL     1       7.627   4.784  -0.952  1.00  0.00    -0.166 F 
ENDBRANCH  19  20
ENDBRANCH  12  13
ENDBRANCH  11  12
ENDBRANCH   9  11
BRANCH  10  24
HETATM   24  C29 UNL     1       3.382  -2.097  -0.721  1.00  0.00     0.399 C 
HETATM   25  F4  UNL     1       3.232  -3.090   0.280  1.00  0.00    -0.170 F 
HETATM   26  F5  UNL     1       4.731  -2.037  -0.942  1.00  0.00    -0.170 F 
HETATM   27  F6  UNL     1       2.832  -2.679  -1.836  1.00  0.00    -0.170 F 
ENDBRANCH  10  24
BRANCH   1  28
HETATM   28  C9  UNL     1      -2.090  -0.746  -0.976  1.00  0.00     0.153 C 
HETATM   29  C8  UNL     1      -3.425  -1.154  -0.651  1.00  0.00     0.037 C 
HETATM   30  C7  UNL     1      -4.387  -0.324  -1.542  1.00  0.00     0.004 C 
HETATM   31  C6  UNL     1      -4.844   0.843  -0.675  1.00  0.00     0.020 C 
HETATM   32  C4  UNL     1      -3.718   1.813  -0.630  1.00  0.00     0.006 C 
HETATM   33  C5  UNL     1      -3.941   2.801  -1.803  1.00  0.00     0.027 C 
HETATM   34  S1  UNL     1      -2.090   1.104  -0.943  1.00  0.00    -0.134 SA
BRANCH  32  35
HETATM   35  C3  UNL     1      -3.674   2.550   0.658  1.00  0.00     0.020 C 
BRANCH  35  36
HETATM   36  C2  UNL     1      -4.830   3.362   1.074  1.00  0.00    -0.003 C 
HETATM   37  C1  UNL     1      -6.133   2.695   1.309  1.00  0.00     0.005 C 
ENDBRANCH  35  36
ENDBRANCH  32  35
ENDBRANCH   1  28
BRANCH   2  38
HETATM   38  C11 UNL     1      -1.583  -2.576   1.698  1.00  0.00     0.096 C 
BRANCH  38  39
HETATM   39  C12 UNL     1      -1.569  -4.085   1.489  1.00  0.00     0.048 C 
HETATM   40  C13 UNL     1      -0.159  -4.631   1.724  1.00  0.00     0.027 C 
HETATM   41  C14 UNL     1      -2.020  -4.558   0.160  1.00  0.00     0.027 C 
BRANCH  39  42
HETATM   42  C15 UNL     1      -2.405  -4.737   2.526  1.00  0.00     0.181 C 
HETATM   43  O1  UNL     1      -3.395  -5.426   2.225  1.00  0.00    -0.647 OA
HETATM   44  O2  UNL     1      -2.065  -4.565   3.851  1.00  0.00    -0.647 OA
ENDBRANCH  39  42
ENDBRANCH  38  39
ENDBRANCH   2  38
TORSDOF 11
