REMARK  1 active torsions:
REMARK  status: ('A' for Active; 'I' for Inactive)
REMARK    1  A    between atoms: C4_6  and  C5_7 
ROOT
HETATM    1  C1  UNL     1      -3.369   0.913  -0.442  1.00  0.00     0.069 C 
HETATM    2  C2  UNL     1      -2.101   0.406   0.181  1.00  0.00     0.022 A 
HETATM    3  C3  UNL     1      -1.951  -0.087   1.460  1.00  0.00     0.114 A 
HETATM    4  N1  UNL     1      -0.660  -0.429   1.611  1.00  0.00    -0.349 N 
ATOM      5  H1  UNL     1      -0.256  -0.824   2.460  1.00  0.00     0.167 HD
HETATM    6  C4  UNL     1       0.024  -0.174   0.474  1.00  0.00     0.134 A 
HETATM    7  N4  UNL     1      -0.881   0.335  -0.379  1.00  0.00    -0.343 N 
ATOM      8  H4  UNL     1      -0.669   0.630  -1.332  1.00  0.00     0.167 HD
ENDROOT
BRANCH   6   9
HETATM    9  C5  UNL     1       1.450  -0.408   0.239  1.00  0.00     0.093 A 
HETATM   10  C6  UNL     1       2.157  -0.154  -0.909  1.00  0.00     0.122 A 
HETATM   11  N2  UNL     1       3.435  -0.510  -0.710  1.00  0.00    -0.360 N 
HETATM   12  C7  UNL     1       3.563  -0.995   0.561  1.00  0.00     0.180 A 
ATOM     13  H2  UNL     1       4.187  -0.432  -1.395  1.00  0.00     0.166 HD
HETATM   14  N3  UNL     1       2.329  -0.917   1.112  1.00  0.00    -0.348 N 
ATOM     15  H3  UNL     1       2.100  -1.207   2.063  1.00  0.00     0.167 HD
ENDBRANCH   6   9
TORSDOF 1
