REMARK  1 active torsions:
REMARK  status: ('A' for Active; 'I' for Inactive)
REMARK    1  A    between atoms: C3_5  and  C4_6 
ROOT
HETATM    1  C4  UNL     1      -1.030  -0.152   0.198  1.00  0.00     0.093 A 
HETATM    2  C5  UNL     1      -1.939   0.316  -0.729  1.00  0.00     0.141 A 
HETATM    3  N2  UNL     1      -3.194   0.037  -0.316  1.00  0.00    -0.295 N 
ATOM      4  H2  UNL     1      -4.063   0.265  -0.800  1.00  0.00     0.187 HD
HETATM    5  N3  UNL     1      -3.072  -0.586   0.833  1.00  0.00    -0.243 N 
ATOM      6  H3  UNL     1      -3.852  -0.926   1.395  1.00  0.00     0.208 HD
HETATM    7  N4  UNL     1      -1.779  -0.713   1.165  1.00  0.00    -0.283 N 
ATOM      8  H4  UNL     1      -1.423  -1.160   2.010  1.00  0.00     0.188 HD
ENDROOT
BRANCH   1   9
HETATM    9  C3  UNL     1       0.426  -0.065   0.152  1.00  0.00     0.061 A 
HETATM   10  N1  UNL     1       1.261  -0.543   1.092  1.00  0.00    -0.364 N 
HETATM   11  C2  UNL     1       2.551  -0.303   0.753  1.00  0.00     0.088 A 
ATOM     12  H1  UNL     1       0.964  -1.020   1.943  1.00  0.00     0.165 HD
HETATM   13  C1  UNL     1       2.546   0.359  -0.458  1.00  0.00     0.019 A 
HETATM   14  C6  UNL     1       1.223   0.495  -0.810  1.00  0.00     0.033 A 
ENDBRANCH   1   9
TORSDOF 1
