REMARK  11 active torsions:
REMARK  status: ('A' for Active; 'I' for Inactive)
REMARK    1  A    between atoms: N1_4  and  C4_5 
REMARK    2  A    between atoms: C4_5  and  C5_6 
REMARK    3  A    between atoms: C5_6  and  N2_7 
REMARK    4  A    between atoms: C5_6  and  C6_11 
REMARK       I    between atoms: C6_11  and  N3_13 
REMARK    5  A    between atoms: N3_13  and  C7_15 
REMARK    6  A    between atoms: N4_18  and  C9_19 
REMARK    7  A    between atoms: C10_22  and  N6_23 
REMARK    8  A    between atoms: C11_28  and  N8_29 
REMARK    9  A    between atoms: C13_35  and  O3_36 
REMARK   10  A    between atoms: C13_35  and  C14_38 
REMARK   11  A    between atoms: C14_38  and  O4_39 
ROOT
HETATM    1  C7  UNL     1      -0.542  -0.765  -0.442  1.00  0.00     0.216 C 
HETATM    2  C8  UNL     1      -1.198   0.264   0.371  1.00  0.00     0.264 C 
HETATM    3  O2  UNL     1      -0.705   1.104   1.199  1.00  0.00    -0.270 OA
HETATM    4  N4  UNL     1      -2.608   0.193   0.080  1.00  0.00    -0.145 N 
HETATM    5  C12 UNL     1      -2.917  -1.217  -0.122  1.00  0.00     0.193 C 
HETATM    6  C13 UNL     1      -1.609  -1.859  -0.472  1.00  0.00     0.125 C 
ENDROOT
BRANCH   1   7
HETATM    7  N3  UNL     1       0.705  -1.273   0.022  1.00  0.00    -0.343 N 
HETATM    8  C6  UNL     1       1.709  -1.531  -0.965  1.00  0.00     0.250 C 
HETATM    9  O1  UNL     1       1.498  -1.308  -2.207  1.00  0.00    -0.271 OA
ATOM     10  H3  UNL     1       0.875  -1.445   1.013  1.00  0.00     0.163 HD
BRANCH   8  11
HETATM   11  C5  UNL     1       3.031  -2.071  -0.607  1.00  0.00     0.294 C 
BRANCH  11  12
HETATM   12  C4  UNL     1       4.164  -1.461  -1.362  1.00  0.00     0.192 C 
BRANCH  12  13
HETATM   13  N1  UNL     1       4.335  -0.075  -0.981  1.00  0.00    -0.285 N 
HETATM   14  C3  UNL     1       5.142   0.385   0.023  1.00  0.00     0.137 A 
HETATM   15  C2  UNL     1       5.038   1.758   0.067  1.00  0.00     0.040 A 
HETATM   16  C1  UNL     1       5.768   2.653   1.025  1.00  0.00     0.071 C 
HETATM   17  N11 UNL     1       4.179   2.098  -0.901  1.00  0.00    -0.289 N 
HETATM   18  N10 UNL     1       3.776   0.997  -1.507  1.00  0.00    -0.241 N 
ATOM     19  H11 UNL     1       3.885   3.047  -1.131  1.00  0.00     0.188 HD
ATOM     20  H10 UNL     1       3.116   0.978  -2.284  1.00  0.00     0.208 HD
ENDBRANCH  12  13
ENDBRANCH  11  12
BRANCH  11  21
HETATM   21  N2  UNL     1       3.200  -2.035   0.825  1.00  0.00    -0.065 N 
ATOM     22  H23 UNL     1       4.084  -2.466   1.093  1.00  0.00     0.275 HD
ATOM     23  H22 UNL     1       3.371  -1.081   1.143  1.00  0.00     0.275 HD
ATOM     24  H21 UNL     1       2.425  -2.452   1.341  1.00  0.00     0.275 HD
ENDBRANCH  11  21
ENDBRANCH   8  11
ENDBRANCH   1   7
BRANCH   6  25
HETATM   25  O3  UNL     1      -1.574  -2.430  -1.739  1.00  0.00    -0.383 OA
ATOM     26  H3  UNL     1      -2.237  -3.110  -1.758  1.00  0.00     0.210 HD
ENDBRANCH   6  25
BRANCH   6  27
HETATM   27  C14 UNL     1      -1.221  -2.951   0.500  1.00  0.00     0.206 C 
BRANCH  27  28
HETATM   28  O4  UNL     1      -1.234  -2.497   1.815  1.00  0.00    -0.398 OA
ATOM     29  H4  UNL     1      -0.990  -3.183   2.425  1.00  0.00     0.209 HD
ENDBRANCH  27  28
ENDBRANCH   6  27
BRANCH   4  30
HETATM   30  C9  UNL     1      -3.541   1.253  -0.003  1.00  0.00     0.716 A 
HETATM   31  N5  UNL     1      -4.746   0.980  -0.579  1.00  0.00    -0.021 N 
HETATM   32  C10 UNL     1      -5.719   1.899  -0.714  1.00  0.00     0.705 A 
ATOM     33  H5  UNL     1      -4.918   0.035  -0.923  1.00  0.00     0.203 HD
HETATM   34  N7  UNL     1      -5.504   3.159  -0.260  1.00  0.00    -0.022 N 
HETATM   35  C11 UNL     1      -4.315   3.449   0.315  1.00  0.00     0.705 A 
ATOM     36  H7  UNL     1      -6.226   3.874  -0.351  1.00  0.00     0.203 HD
HETATM   37  N9  UNL     1      -3.368   2.489   0.427  1.00  0.00    -0.021 N 
ATOM     38  H9  UNL     1      -2.479   2.732   0.864  1.00  0.00     0.203 HD
BRANCH  32  39
HETATM   39  N6  UNL     1      -6.855   1.632  -1.264  1.00  0.00    -0.234 N 
ATOM     40  H62 UNL     1      -7.017   0.685  -1.605  1.00  0.00     0.174 HD
ATOM     41  H61 UNL     1      -7.593   2.329  -1.366  1.00  0.00     0.174 HD
ENDBRANCH  32  39
BRANCH  35  42
HETATM   42  N8  UNL     1      -4.108   4.663   0.752  1.00  0.00    -0.234 N 
ATOM     43  H82 UNL     1      -4.822   5.387   0.668  1.00  0.00     0.174 HD
ATOM     44  H81 UNL     1      -3.211   4.882   1.186  1.00  0.00     0.174 HD
ENDBRANCH  35  42
ENDBRANCH   4  30
TORSDOF 11
