REMARK  10 active torsions:
REMARK  status: ('A' for Active; 'I' for Inactive)
REMARK    1  A    between atoms: N1_1  and  C1_4 
REMARK    2  A    between atoms: C5_15  and  N5_16 
REMARK    3  A    between atoms: N5_16  and  C6_17 
REMARK    4  A    between atoms: C6_17  and  C7_18 
REMARK    5  A    between atoms: C6_17  and  C14_36 
REMARK    6  A    between atoms: C7_18  and  C8_19 
REMARK    7  A    between atoms: C8_19  and  N6_20 
REMARK    8  A    between atoms: C12_29  and  N9_30 
REMARK    9  A    between atoms: C14_36  and  N11_37 
REMARK   10  A    between atoms: C14_36  and  O3_41 
ROOT
HETATM    1  C6  UNL     1      -0.547   1.714   1.123  1.00  0.00     0.222 C 
ENDROOT
BRANCH   1   2
HETATM    2  N5  UNL     1      -1.253   1.350   0.064  1.00  0.00    -0.418 NA
BRANCH   2   3
HETATM    3  C5  UNL     1      -1.942   0.904  -0.794  1.00  0.00     0.204 A 
HETATM    4  N4  UNL     1      -1.976   1.505  -2.043  1.00  0.00    -0.326 N 
HETATM    5  C4  UNL     1      -2.759   0.977  -2.971  1.00  0.00     0.183 A 
ATOM      6  H4  UNL     1      -1.413   2.332  -2.242  1.00  0.00     0.169 HD
HETATM    7  N3  UNL     1      -3.524  -0.110  -2.776  1.00  0.00    -0.346 N 
HETATM    8  C3  UNL     1      -3.518  -0.719  -1.580  1.00  0.00     0.135 A 
ATOM      9  H3  UNL     1      -4.106  -0.470  -3.532  1.00  0.00     0.167 HD
HETATM   10  C2  UNL     1      -4.288  -1.842  -1.327  1.00  0.00     0.288 A 
HETATM   11  C15 UNL     1      -2.739  -0.237  -0.574  1.00  0.00     0.139 A 
HETATM   12  N2  UNL     1      -4.302  -2.473  -0.142  1.00  0.00    -0.154 N 
HETATM   13  O1  UNL     1      -4.998  -2.263  -2.285  1.00  0.00    -0.265 OA
HETATM   14  C1  UNL     1      -3.523  -1.974   0.835  1.00  0.00     0.679 A 
ATOM     15  H2  UNL     1      -4.881  -3.299   0.012  1.00  0.00     0.187 HD
HETATM   16  N12 UNL     1      -2.765  -0.879   0.605  1.00  0.00    -0.185 N 
ATOM     17  H12 UNL     1      -2.184  -0.523   1.364  1.00  0.00     0.184 HD
BRANCH  14  18
HETATM   18  N1  UNL     1      -3.531  -2.575   1.976  1.00  0.00    -0.234 N 
ATOM     19  H12 UNL     1      -4.103  -3.401   2.150  1.00  0.00     0.174 HD
ATOM     20  H11 UNL     1      -2.940  -2.197   2.717  1.00  0.00     0.174 HD
ENDBRANCH  14  18
ENDBRANCH   2   3
ENDBRANCH   1   2
BRANCH   1  21
HETATM   21  C7  UNL     1       0.933   1.238   1.127  1.00  0.00     0.064 C 
BRANCH  21  22
HETATM   22  C8  UNL     1       0.941  -0.258   1.080  1.00  0.00     0.134 C 
BRANCH  22  23
HETATM   23  N6  UNL     1       2.244  -0.834   1.078  1.00  0.00    -0.327 N 
HETATM   24  C9  UNL     1       3.005  -1.210   2.124  1.00  0.00     0.185 A 
HETATM   25  N7  UNL     1       4.181  -1.715   1.690  1.00  0.00    -0.345 N 
HETATM   26  C10 UNL     1       4.194  -1.670   0.357  1.00  0.00     0.147 A 
ATOM     27  H7  UNL     1       4.932  -2.071   2.282  1.00  0.00     0.167 HD
HETATM   28  C11 UNL     1       5.097  -2.033  -0.640  1.00  0.00     0.290 A 
HETATM   29  C13 UNL     1       2.987  -1.122  -0.029  1.00  0.00     0.156 A 
HETATM   30  O2  UNL     1       6.192  -2.531  -0.278  1.00  0.00    -0.265 OA
HETATM   31  N8  UNL     1       4.769  -1.839  -1.928  1.00  0.00    -0.154 N 
HETATM   32  C12 UNL     1       3.590  -1.304  -2.293  1.00  0.00     0.680 A 
ATOM     33  H8  UNL     1       5.435  -2.106  -2.653  1.00  0.00     0.187 HD
HETATM   34  N10 UNL     1       2.724  -0.956  -1.336  1.00  0.00    -0.174 N 
ATOM     35  H10 UNL     1       1.829  -0.549  -1.608  1.00  0.00     0.186 HD
BRANCH  32  36
HETATM   36  N9  UNL     1       3.313  -1.134  -3.560  1.00  0.00    -0.234 N 
ATOM     37  H92 UNL     1       3.974  -1.400  -4.290  1.00  0.00     0.174 HD
ATOM     38  H91 UNL     1       2.419  -0.728  -3.837  1.00  0.00     0.174 HD
ENDBRANCH  32  36
ENDBRANCH  22  23
ENDBRANCH  21  22
ENDBRANCH   1  21
BRANCH   1  39
HETATM   39  C14 UNL     1      -0.462   3.230   1.386  1.00  0.00     0.352 C 
BRANCH  39  40
HETATM   40  N11 UNL     1      -1.778   3.775   1.620  1.00  0.00    -0.050 N 
ATOM     41 3H11 UNL     1      -2.420   3.557   0.858  1.00  0.00     0.277 HD
ATOM     42 2H11 UNL     1      -2.263   3.286   2.372  1.00  0.00     0.277 HD
ATOM     43 1H11 UNL     1      -1.722   4.778   1.794  1.00  0.00     0.277 HD
ENDBRANCH  39  40
BRANCH  39  44
HETATM   44  O3  UNL     1       0.305   3.439   2.519  1.00  0.00    -0.368 OA
ATOM     45  H3  UNL     1       0.357   4.374   2.681  1.00  0.00     0.212 HD
ENDBRANCH  39  44
ENDBRANCH   1  39
TORSDOF 10
