REMARK  13 active torsions:
REMARK  status: ('A' for Active; 'I' for Inactive)
REMARK    1  A    between atoms: N1_2  and  C3_4 
REMARK    2  A    between atoms: C4_7  and  N3_8 
REMARK    3  A    between atoms: N5_15  and  C7_16 
REMARK    4  A    between atoms: C7_16  and  N6_19 
REMARK    5  A    between atoms: N6_19  and  C10_21 
REMARK    6  A    between atoms: C10_21  and  C11_22 
REMARK    7  A    between atoms: C11_22  and  N7_23 
REMARK    8  A    between atoms: N7_23  and  C12_26 
REMARK    9  A    between atoms: C12_26  and  C13_27 
REMARK   10  A    between atoms: C16_32  and  N9_33 
REMARK   11  A    between atoms: N9_33  and  N10_35 
REMARK   12  A    between atoms: C17_40  and  N12_41 
REMARK   13  A    between atoms: N14_46  and  N15_47 
ROOT
HETATM    1  N7  UNL     1       1.655  -1.547   0.379  1.00  0.00    -0.064 N 
ATOM      2  H71 UNL     1       2.144  -2.255   0.926  1.00  0.00     0.278 HD
ATOM      3  H72 UNL     1       1.478  -0.881   1.131  1.00  0.00     0.278 HD
ENDROOT
BRANCH   1   4
HETATM    4  C11 UNL     1       0.407  -2.063  -0.218  1.00  0.00     0.277 C 
BRANCH   4   5
HETATM    5  C10 UNL     1      -0.504  -0.936  -0.644  1.00  0.00     0.085 C 
BRANCH   5   6
HETATM    6  N6  UNL     1      -1.701  -1.249  -1.265  1.00  0.00    -0.375 N 
ATOM      7  H6  UNL     1      -1.803  -1.005  -2.250  1.00  0.00     0.161 HD
BRANCH   6   8
HETATM    8  C7  UNL     1      -2.797  -1.887  -0.623  1.00  0.00     0.104 C 
HETATM    9  C8  UNL     1      -2.479  -3.311  -0.126  1.00  0.00     0.063 C 
HETATM   10  C9  UNL     1      -3.791  -2.136  -1.720  1.00  0.00     0.063 C 
BRANCH   8  11
HETATM   11  N5  UNL     1      -3.215  -1.130   0.498  1.00  0.00    -0.300 N 
HETATM   12  C6  UNL     1      -2.605  -1.220   1.699  1.00  0.00     0.187 A 
HETATM   13  N4  UNL     1      -3.240  -0.415   2.565  1.00  0.00    -0.346 N 
HETATM   14  C5  UNL     1      -4.248   0.201   1.968  1.00  0.00     0.123 A 
ATOM     15  H4  UNL     1      -2.982  -0.295   3.545  1.00  0.00     0.167 HD
HETATM   16  C4  UNL     1      -5.205   1.095   2.333  1.00  0.00     0.145 A 
HETATM   17  C19 UNL     1      -4.233  -0.256   0.636  1.00  0.00     0.157 A 
HETATM   18  N2  UNL     1      -6.109   1.528   1.444  1.00  0.00    -0.175 N 
HETATM   19  C3  UNL     1      -6.103   1.100   0.175  1.00  0.00     0.682 A 
ATOM     20  H2  UNL     1      -6.818   2.199   1.740  1.00  0.00     0.186 HD
HETATM   21  N16 UNL     1      -5.157   0.207  -0.213  1.00  0.00    -0.174 N 
ATOM     22  H16 UNL     1      -5.151  -0.120  -1.179  1.00  0.00     0.186 HD
BRANCH  16  23
HETATM   23  N3  UNL     1      -5.201   1.496   3.570  1.00  0.00    -0.383 N 
ATOM     24  H32 UNL     1      -5.919   2.167   3.844  1.00  0.00     0.157 HD
ATOM     25  H31 UNL     1      -4.513   1.166   4.247  1.00  0.00     0.157 HD
ENDBRANCH  16  23
BRANCH  19  26
HETATM   26  N1  UNL     1      -7.094   1.597  -0.708  1.00  0.00    -0.226 N 
HETATM   27  C1  UNL     1      -6.977   2.936  -1.242  1.00  0.00     0.168 C 
HETATM   28  C2  UNL     1      -8.233   0.801  -1.123  1.00  0.00     0.168 C 
ENDBRANCH  19  26
ENDBRANCH   8  11
ENDBRANCH   6   8
ENDBRANCH   5   6
ENDBRANCH   4   5
ENDBRANCH   1   4
BRANCH   1  29
HETATM   29  C12 UNL     1       2.468  -1.001  -0.643  1.00  0.00     0.310 C 
BRANCH  29  30
HETATM   30  C13 UNL     1       3.731  -0.390  -0.149  1.00  0.00     0.131 A 
HETATM   31  N8  UNL     1       4.181  -0.182   1.096  1.00  0.00    -0.327 N 
HETATM   32  C14 UNL     1       5.378   0.431   1.034  1.00  0.00     0.157 A 
ATOM     33  H8  UNL     1       3.695  -0.446   1.953  1.00  0.00     0.169 HD
HETATM   34  C15 UNL     1       5.683   0.609  -0.278  1.00  0.00     0.148 A 
HETATM   35  N13 UNL     1       6.268   0.879   1.970  1.00  0.00    -0.170 N 
HETATM   36  C16 UNL     1       6.878   1.236  -0.617  1.00  0.00     0.168 A 
HETATM   37  N14 UNL     1       4.677   0.107  -0.989  1.00  0.00    -0.241 N 
HETATM   38  N11 UNL     1       7.733   1.667   0.314  1.00  0.00    -0.173 N 
HETATM   39  C17 UNL     1       7.412   1.480   1.629  1.00  0.00     0.681 A 
ATOM     40  H11 UNL     1       8.605   2.125   0.050  1.00  0.00     0.186 HD
HETATM   41  C18 UNL     1       5.938   0.682   3.358  1.00  0.00     0.177 C 
BRANCH  36  42
HETATM   42  N9  UNL     1       7.179   1.410  -1.870  1.00  0.00    -0.290 N 
ATOM     43  H9  UNL     1       6.528   1.079  -2.582  1.00  0.00     0.188 HD
BRANCH  42  44
HETATM   44  N10 UNL     1       8.352   2.029  -2.275  1.00  0.00    -0.344 N 
ATOM     45 2H10 UNL     1       8.992   2.354  -1.550  1.00  0.00     0.176 HD
ATOM     46 1H10 UNL     1       8.588   2.165  -3.258  1.00  0.00     0.176 HD
ENDBRANCH  42  44
ENDBRANCH  36  42
BRANCH  39  47
HETATM   47  N12 UNL     1       8.268   1.923   2.472  1.00  0.00    -0.234 N 
ATOM     48 2H12 UNL     1       9.141   2.382   2.212  1.00  0.00     0.174 HD
ATOM     49 1H12 UNL     1       8.028   1.783   3.454  1.00  0.00     0.174 HD
ENDBRANCH  39  47
BRANCH  37  50
HETATM   50  N15 UNL     1       4.611   0.089  -2.384  1.00  0.00    -0.337 N 
ATOM     51 2H15 UNL     1       3.840  -0.296  -2.929  1.00  0.00     0.177 HD
ATOM     52 1H15 UNL     1       5.321   0.462  -3.014  1.00  0.00     0.177 HD
ENDBRANCH  37  50
ENDBRANCH  29  30
ENDBRANCH   1  29
TORSDOF 13
