REMARK  13 active torsions:
REMARK  status: ('A' for Active; 'I' for Inactive)
REMARK    1  A    between atoms: N3_8  and  C3_9 
REMARK    2  A    between atoms: C4_12  and  O1_13 
REMARK    3  A    between atoms: O1_13  and  C5_14 
REMARK    4  A    between atoms: C5_14  and  O2_15 
REMARK    5  A    between atoms: C6_17  and  C7_18 
REMARK    6  A    between atoms: C7_18  and  N5_19 
REMARK       I    between atoms: N5_19  and  C8_21 
REMARK    7  A    between atoms: C8_21  and  S1_23 
REMARK    8  A    between atoms: S1_23  and  C9_24 
REMARK    9  A    between atoms: C10_29  and  C11_30 
REMARK   10  A    between atoms: C11_30  and  C12_31 
REMARK   11  A    between atoms: C13_34  and  N9_35 
REMARK   12  A    between atoms: C14_40  and  N11_41 
REMARK   13  A    between atoms: N13_46  and  N14_47 
ROOT
HETATM    1  C9  UNL     1      -1.791   0.747   0.843  1.00  0.00     0.191 A 
HETATM    2  N6  UNL     1      -2.107   1.919   0.291  1.00  0.00    -0.277 N 
ATOM      3  H6  UNL     1      -1.563   2.777   0.387  1.00  0.00     0.189 HD
HETATM    4  N7  UNL     1      -3.226   1.805  -0.397  1.00  0.00    -0.285 N 
ATOM      5  H7  UNL     1      -3.681   2.558  -0.913  1.00  0.00     0.188 HD
HETATM    6  C10 UNL     1      -3.683   0.509  -0.309  1.00  0.00     0.125 A 
HETATM    7  N13 UNL     1      -2.790  -0.111   0.451  1.00  0.00    -0.225 N 
ENDROOT
BRANCH   1   8
HETATM    8  S1  UNL     1      -0.354   0.330   1.846  1.00  0.00     0.010 SA
BRANCH   8   9
HETATM    9  C8  UNL     1       0.936  -0.290   0.782  1.00  0.00     0.287 C 
HETATM   10  N5  UNL     1       2.217  -0.680   1.235  1.00  0.00    -0.349 N 
ATOM     11  H5  UNL     1       2.456  -0.601   2.224  1.00  0.00     0.163 HD
HETATM   12  O3  UNL     1       0.683  -0.389  -0.460  1.00  0.00    -0.260 OA
BRANCH  10  13
HETATM   13  C7  UNL     1       3.177  -1.185   0.304  1.00  0.00     0.160 C 
BRANCH  13  14
HETATM   14  C6  UNL     1       4.496  -1.563   0.864  1.00  0.00     0.198 C 
HETATM   15  C4  UNL     1       5.429  -1.947  -0.264  1.00  0.00     0.257 C 
HETATM   16  N4  UNL     1       6.164  -0.726  -0.448  1.00  0.00    -0.325 N 
HETATM   17  C3  UNL     1       6.038   0.100   0.524  1.00  0.00     0.259 C 
ATOM     18  H4  UNL     1       6.732  -0.535  -1.273  1.00  0.00     0.165 HD
HETATM   19  O4  UNL     1       5.203  -0.491   1.459  1.00  0.00    -0.308 OA
BRANCH  15  20
HETATM   20  O1  UNL     1       4.725  -2.270  -1.425  1.00  0.00    -0.340 OA
BRANCH  20  21
HETATM   21  C5  UNL     1       5.038  -3.542  -1.888  1.00  0.00     0.337 C 
BRANCH  21  22
HETATM   22  O2  UNL     1       4.722  -4.501  -0.918  1.00  0.00    -0.377 OA
ATOM     23  H2  UNL     1       4.936  -5.371  -1.235  1.00  0.00     0.212 HD
ENDBRANCH  21  22
ENDBRANCH  20  21
ENDBRANCH  15  20
BRANCH  17  24
HETATM   24  N3  UNL     1       6.652   1.407   0.631  1.00  0.00    -0.154 N 
HETATM   25  N2  UNL     1       7.110   2.018   1.701  1.00  0.00    -0.284 N 
HETATM   26  C2  UNL     1       7.607   3.226   1.387  1.00  0.00     0.158 A 
ATOM     27  H2  UNL     1       7.091   1.627   2.643  1.00  0.00     0.188 HD
HETATM   28  C1  UNL     1       7.445   3.370   0.036  1.00  0.00     0.132 A 
HETATM   29  N1  UNL     1       7.786   4.388  -0.685  1.00  0.00    -0.383 N 
HETATM   30  N15 UNL     1       6.856   2.230  -0.386  1.00  0.00    -0.260 N 
ATOM     31  H12 UNL     1       8.231   5.249  -0.366  1.00  0.00     0.157 HD
ATOM     32  H11 UNL     1       7.665   4.495  -1.692  1.00  0.00     0.157 HD
ATOM     33  H15 UNL     1       6.603   2.031  -1.354  1.00  0.00     0.191 HD
ENDBRANCH  17  24
ENDBRANCH  13  14
ENDBRANCH  10  13
ENDBRANCH   8   9
ENDBRANCH   1   8
BRANCH   7  34
HETATM   34  N14 UNL     1      -2.760  -1.460   0.838  1.00  0.00    -0.335 N 
ATOM     35 2H14 UNL     1      -2.073  -1.937   1.422  1.00  0.00     0.177 HD
ATOM     36 1H14 UNL     1      -3.502  -2.097   0.547  1.00  0.00     0.177 HD
ENDBRANCH   7  34
BRANCH   6  37
HETATM   37  C11 UNL     1      -4.869  -0.029  -0.979  1.00  0.00     0.139 C 
BRANCH  37  38
HETATM   38  C12 UNL     1      -6.174   0.442  -0.507  1.00  0.00     0.061 A 
HETATM   39  N8  UNL     1      -6.822   1.435  -1.203  1.00  0.00    -0.193 N 
HETATM   40  C13 UNL     1      -8.017   1.908  -0.818  1.00  0.00     0.677 A 
ATOM     41  H8  UNL     1      -6.381   1.824  -2.037  1.00  0.00     0.184 HD
HETATM   42  N10 UNL     1      -8.632   1.426   0.270  1.00  0.00    -0.175 N 
HETATM   43  C14 UNL     1      -8.068   0.464   0.994  1.00  0.00     0.141 A 
ATOM     44  H10 UNL     1      -9.540   1.800   0.545  1.00  0.00     0.186 HD
HETATM   45  C15 UNL     1      -6.829  -0.020   0.588  1.00  0.00     0.114 A 
HETATM   46  N12 UNL     1      -6.254  -1.067   1.378  1.00  0.00    -0.096 NA
BRANCH  40  47
HETATM   47  N9  UNL     1      -8.639   2.839  -1.457  1.00  0.00    -0.234 N 
ATOM     48  H92 UNL     1      -8.171   3.206  -2.285  1.00  0.00     0.174 HD
ATOM     49  H91 UNL     1      -9.548   3.199  -1.164  1.00  0.00     0.174 HD
ENDBRANCH  40  47
BRANCH  43  50
HETATM   50  N11 UNL     1      -8.607  -0.044   2.039  1.00  0.00    -0.383 N 
ATOM     51 2H11 UNL     1      -9.516   0.311   2.337  1.00  0.00     0.157 HD
ATOM     52 1H11 UNL     1      -8.174  -0.782   2.594  1.00  0.00     0.157 HD
ENDBRANCH  43  50
ENDBRANCH  37  38
ENDBRANCH   6  37
TORSDOF 13
