REMARK  2 active torsions:
REMARK  status: ('A' for Active; 'I' for Inactive)
REMARK    1  A    between atoms: C3_3  and  S1_4 
REMARK    2  A    between atoms: C5_6  and  O1_7 
ROOT
HETATM    1  C1  UNL     1       1.318   1.736   0.889  1.00  0.00     0.017 C 
HETATM    2  C2  UNL     1       0.529   0.920   0.272  1.00  0.00    -0.045 C 
HETATM    3  C3  UNL     1       0.958  -0.362  -0.302  1.00  0.00     0.111 C 
HETATM    4  C5  UNL     1      -0.271  -1.257  -0.262  1.00  0.00     0.077 C 
HETATM    5  C6  UNL     1      -1.081  -1.035   1.016  1.00  0.00     0.046 C 
HETATM    6  C7  UNL     1      -1.761   0.304   0.996  1.00  0.00     0.023 C 
HETATM    7  C8  UNL     1      -2.801   0.433  -0.096  1.00  0.00     0.053 C 
HETATM    8  C9  UNL     1      -1.596   0.621  -1.043  1.00  0.00     0.132 C 
HETATM    9  F1  UNL     1      -1.877   1.423  -2.115  1.00  0.00    -0.240 F 
HETATM   10  C10 UNL     1      -1.167  -0.771  -1.387  1.00  0.00     0.085 C 
HETATM   11  C11 UNL     1      -0.911   1.240   0.119  1.00  0.00     0.101 C 
HETATM   12 CL1  UNL     1      -1.356   2.907   0.403  1.00  0.00    -0.110 Cl
ENDROOT
BRANCH   3  13
HETATM   13  S1  UNL     1       2.407  -1.125   0.367  1.00  0.00    -0.161 SA
HETATM   14  C4  UNL     1       3.886  -0.190  -0.092  1.00  0.00     0.090 C 
ENDBRANCH   3  13
BRANCH   4  15
HETATM   15  O1  UNL     1       0.134  -2.553  -0.411  1.00  0.00    -0.388 OA
ATOM     16  H1  UNL     1      -0.634  -3.112  -0.386  1.00  0.00     0.210 HD
ENDBRANCH   4  15
TORSDOF 2
