REMARK  3 active torsions:
REMARK  status: ('A' for Active; 'I' for Inactive)
REMARK    1  A    between atoms: C2_2  and  N1_3 
REMARK    2  A    between atoms: N2_6  and  C5_7 
REMARK    3  A    between atoms: C10_14  and  O1_15 
ROOT
HETATM    1  N1  UNL     1      -1.151  -0.455   0.448  1.00  0.00    -0.380 N 
HETATM    2  C3  UNL     1      -0.411  -1.557  -0.029  1.00  0.00     0.139 C 
HETATM    3  C4  UNL     1       1.055  -1.373   0.402  1.00  0.00     0.142 C 
HETATM    4  N2  UNL     1       1.527  -0.253  -0.359  1.00  0.00    -0.377 N 
HETATM    5  C7  UNL     1       0.660   0.863  -0.617  1.00  0.00     0.139 C 
HETATM    6  C8  UNL     1       1.032   2.053   0.224  1.00  0.00     0.035 C 
HETATM    7  C9  UNL     1       0.016   1.592   1.232  1.00  0.00     0.065 C 
HETATM    8  C10 UNL     1      -0.651   0.821   0.113  1.00  0.00     0.150 C 
ENDROOT
BRANCH   4   9
HETATM    9  C5  UNL     1       2.833  -0.236  -0.884  1.00  0.00     0.122 C 
HETATM   10  C6  UNL     1       3.879  -0.579  -0.176  1.00  0.00     0.118 C 
HETATM   11 CL1  UNL     1       5.464  -0.531  -0.903  1.00  0.00    -0.069 Cl
HETATM   12 CL2  UNL     1       3.685  -1.076   1.482  1.00  0.00    -0.069 Cl
ENDBRANCH   4   9
BRANCH   8  13
HETATM   13  O1  UNL     1      -1.556   1.655  -0.576  1.00  0.00    -0.369 OA
ATOM     14  H1  UNL     1      -1.219   2.514  -0.802  1.00  0.00     0.212 HD
ENDBRANCH   8  13
BRANCH   1  15
HETATM   15  C2  UNL     1      -2.564  -0.611   0.530  1.00  0.00     0.115 C 
HETATM   16  C1  UNL     1      -3.257  -0.741  -0.820  1.00  0.00     0.026 C 
ENDBRANCH   1  15
TORSDOF 3
