REMARK  4 active torsions:
REMARK  status: ('A' for Active; 'I' for Inactive)
REMARK    1  A    between atoms: O1_2  and  C2_3 
REMARK    2  A    between atoms: C3_6  and  N2_7 
REMARK    3  A    between atoms: C4_12  and  N4_13 
REMARK    4  A    between atoms: N4_13  and  C5_15 
ROOT
HETATM    1  C2  UNL     1      -1.101  -0.117  -0.328  1.00  0.00     0.252 A 
HETATM    2  N1  UNL     1      -1.357   1.123  -0.725  1.00  0.00    -0.154 N 
ATOM      3  H1  UNL     1      -2.234   1.342  -1.197  1.00  0.00     0.188 HD
HETATM    4  C3  UNL     1      -0.439   2.098  -0.496  1.00  0.00     0.693 A 
HETATM    5  N3  UNL     1       0.712   1.822   0.121  1.00  0.00    -0.022 N 
ATOM      6  H3  UNL     1       1.391   2.565   0.286  1.00  0.00     0.203 HD
HETATM    7  C4  UNL     1       0.976   0.586   0.520  1.00  0.00     0.701 A 
HETATM    8  N6  UNL     1       0.063  -0.372   0.290  1.00  0.00    -0.153 N 
ATOM      9  H6  UNL     1       0.261  -1.325   0.595  1.00  0.00     0.188 HD
ENDROOT
BRANCH   7  10
HETATM   10  N4  UNL     1       2.055   0.257   1.114  1.00  0.00    -0.168 N 
ATOM     11  H4  UNL     1       2.755   0.977   1.294  1.00  0.00     0.186 HD
BRANCH  10  12
HETATM   12  C5  UNL     1       2.320  -1.072   1.535  1.00  0.00     0.199 C 
HETATM   13  N5  UNL     1       3.090  -1.895   0.675  1.00  0.00    -0.069 NA
HETATM   14  S1  UNL     1       1.794  -1.703   2.939  1.00  0.00    -0.044 SA
ENDBRANCH  10  12
ENDBRANCH   7  10
BRANCH   4  15
HETATM   15  N2  UNL     1      -0.711   3.293  -0.890  1.00  0.00    -0.234 N 
ATOM     16  H22 UNL     1      -1.591   3.504  -1.361  1.00  0.00     0.174 HD
ATOM     17  H21 UNL     1      -0.022   4.025  -0.718  1.00  0.00     0.174 HD
ENDBRANCH   4  15
BRANCH   1  18
HETATM   18  O1  UNL     1      -1.987  -1.156  -0.527  1.00  0.00    -0.326 OA
HETATM   19  C1  UNL     1      -3.234  -0.970  -1.171  1.00  0.00     0.213 C 
ENDBRANCH   1  18
TORSDOF 4
