REMARK  3 active torsions:
REMARK  status: ('A' for Active; 'I' for Inactive)
REMARK    1  A    between atoms: N1_2  and  C2_4 
REMARK    2  A    between atoms: C2_4  and  C8_12 
REMARK    3  A    between atoms: N2_5  and  C3_7 
ROOT
HETATM    1  C2  UNL     1      -0.817   0.025   0.367  1.00  0.00     0.080 C 
HETATM    2  N2  UNL     1       0.287   0.670   0.309  1.00  0.00    -0.375 N 
ATOM      3  H2  UNL     1       0.244   1.627  -0.040  1.00  0.00     0.161 HD
ENDROOT
BRANCH   1   4
HETATM    4  N1  UNL     1      -0.800  -1.303   0.846  1.00  0.00    -0.384 N 
HETATM    5  C1  UNL     1      -1.113  -2.454   0.028  1.00  0.00     0.147 C 
ATOM      6  H1  UNL     1      -0.553  -1.459   1.823  1.00  0.00     0.160 HD
ENDBRANCH   1   4
BRANCH   1   7
HETATM    7  C8  UNL     1      -2.070   0.671  -0.059  1.00  0.00     0.007 C 
HETATM    8  C9  UNL     1      -1.827   2.089  -0.528  1.00  0.00     0.022 C 
HETATM    9  C10 UNL     1      -2.680  -0.099  -1.231  1.00  0.00     0.022 C 
HETATM   10  C11 UNL     1      -3.116   0.676   1.033  1.00  0.00     0.022 C 
ENDBRANCH   1   7
BRANCH   2  11
HETATM   11  C3  UNL     1       1.573   0.179   0.686  1.00  0.00     0.082 C 
HETATM   12  C4  UNL     1       2.061  -0.947  -0.179  1.00  0.00     0.025 C 
HETATM   13  C5  UNL     1       3.484  -0.679  -0.542  1.00  0.00     0.002 C 
HETATM   14  C6  UNL     1       3.859   0.654   0.054  1.00  0.00     0.002 C 
HETATM   15  C7  UNL     1       2.575   1.309   0.451  1.00  0.00     0.025 C 
ENDBRANCH   2  11
TORSDOF 3
