REMARK  2 active torsions:
REMARK  status: ('A' for Active; 'I' for Inactive)
REMARK    1  A    between atoms: C2_2  and  O2_4 
REMARK    2  A    between atoms: O2_4  and  C3_5 
ROOT
HETATM    1  C3  UNL     1       0.911  -0.628   0.442  1.00  0.00     0.279 C 
HETATM    2  O3  UNL     1       0.582  -0.131   1.662  1.00  0.00    -0.345 OA
HETATM    3  C4  UNL     1      -0.220   0.966   1.772  1.00  0.00     0.086 A 
HETATM    4  C5  UNL     1      -0.496   1.682   0.545  1.00  0.00     0.014 C 
HETATM    5  C6  UNL     1      -1.184   0.993  -0.353  1.00  0.00    -0.080 C 
HETATM    6  C7  UNL     1      -1.569   1.567  -1.684  1.00  0.00     0.043 C 
HETATM    7  C8  UNL     1      -1.535  -0.408   0.018  1.00  0.00     0.027 C 
HETATM    8  C9  UNL     1      -1.835  -0.650   1.475  1.00  0.00     0.018 C 
HETATM    9  C10 UNL     1      -1.692   0.595   2.208  1.00  0.00     0.028 A 
HETATM   10  C11 UNL     1      -0.767   1.167   3.102  1.00  0.00     0.050 A 
HETATM   11  C12 UNL     1      -0.249  -1.182  -0.345  1.00  0.00     0.010 C 
HETATM   12  C13 UNL     1      -0.541  -2.634  -0.052  1.00  0.00     0.020 C 
HETATM   13  C14 UNL     1      -0.024  -1.027  -1.823  1.00  0.00     0.020 C 
ENDROOT
BRANCH   1  14
HETATM   14  O2  UNL     1       1.653   0.335  -0.283  1.00  0.00    -0.289 OA
BRANCH  14  15
HETATM   15  C2  UNL     1       2.968   0.143  -0.657  1.00  0.00     0.257 C 
HETATM   16  C1  UNL     1       3.779   1.114  -1.410  1.00  0.00     0.126 C 
HETATM   17  O1  UNL     1       3.537  -0.949  -0.336  1.00  0.00    -0.266 OA
ENDBRANCH  14  15
ENDBRANCH   1  14
TORSDOF 2
