REMARK  15 active torsions:
REMARK  status: ('A' for Active; 'I' for Inactive)
REMARK    1  A    between atoms: C1_2  and  C2_3 
REMARK       I    between atoms: C1_2  and  N2_11 
REMARK    2  A    between atoms: C2_3  and  C3_4 
REMARK    3  A    between atoms: C3_4  and  N1_5 
REMARK    4  A    between atoms: N2_11  and  C8_13 
REMARK    5  A    between atoms: C9_18  and  C10_19 
REMARK    6  A    between atoms: C10_19  and  C11_20 
REMARK    7  A    between atoms: C11_20  and  C12_21 
REMARK    8  A    between atoms: C12_21  and  C13_22 
REMARK    9  A    between atoms: C13_22  and  C14_23 
REMARK   10  A    between atoms: C15_28  and  C16_29 
REMARK   11  A    between atoms: C16_29  and  C17_30 
REMARK   12  A    between atoms: C17_30  and  C18_31 
REMARK   13  A    between atoms: C19_32  and  C20_33 
REMARK   14  A    between atoms: C20_33  and  O3_34 
REMARK   15  A    between atoms: N7_36  and  C21_37 
ROOT
HETATM    1  C14 UNL     1      -3.054   1.099   0.533  1.00  0.00     0.104 A 
HETATM    2  N5  UNL     1      -2.689   2.049   1.408  1.00  0.00    -0.287 N 
ATOM      3  H5  UNL     1      -1.738   2.223   1.734  1.00  0.00     0.188 HD
HETATM    4  N6  UNL     1      -3.756   2.716   1.774  1.00  0.00    -0.287 N 
ATOM      5  H6  UNL     1      -3.784   3.497   2.430  1.00  0.00     0.188 HD
HETATM    6  C15 UNL     1      -4.830   2.172   1.113  1.00  0.00     0.105 A 
HETATM    7  N7  UNL     1      -4.408   1.172   0.342  1.00  0.00    -0.288 N 
ENDROOT
BRANCH   1   8
HETATM    8  C13 UNL     1      -2.234   0.102  -0.179  1.00  0.00     0.078 C 
BRANCH   8   9
HETATM    9  C12 UNL     1      -0.752   0.208   0.053  1.00  0.00     0.008 C 
BRANCH   9  10
HETATM   10  C11 UNL     1      -0.122   1.476  -0.401  1.00  0.00     0.007 C 
BRANCH  10  11
HETATM   11  C10 UNL     1       1.341   1.603  -0.184  1.00  0.00     0.066 C 
BRANCH  11  12
HETATM   12  C9  UNL     1       2.181   0.598  -0.902  1.00  0.00     0.069 A 
HETATM   13  N4  UNL     1       1.871  -0.373  -1.740  1.00  0.00    -0.296 N 
HETATM   14  N3  UNL     1       2.753  -1.122  -2.240  1.00  0.00    -0.279 N 
ATOM     15  H4  UNL     1       0.893  -0.521  -1.989  1.00  0.00     0.187 HD
HETATM   16  C8  UNL     1       4.042  -0.920  -1.907  1.00  0.00     0.167 A 
ATOM     17  H3  UNL     1       2.495  -1.868  -2.886  1.00  0.00     0.189 HD
HETATM   18  S1  UNL     1       3.901   0.405  -0.836  1.00  0.00    -0.038 SA
BRANCH  16  19
HETATM   19  N2  UNL     1       5.050  -1.600  -2.336  1.00  0.00    -0.306 N 
HETATM   20  C1  UNL     1       6.356  -1.305  -1.924  1.00  0.00     0.225 C 
HETATM   21  O1  UNL     1       7.279  -1.885  -2.597  1.00  0.00    -0.273 OA
ATOM     22  H2  UNL     1       4.893  -2.368  -2.988  1.00  0.00     0.171 HD
BRANCH  20  23
HETATM   23  C2  UNL     1       6.737  -0.410  -0.814  1.00  0.00     0.133 C 
BRANCH  23  24
HETATM   24  C3  UNL     1       8.247  -0.488  -0.635  1.00  0.00     0.282 C 
BRANCH  24  25
HETATM   25  N1  UNL     1       8.733   0.346   0.429  1.00  0.00     0.093 N 
HETATM   26  C4  UNL     1      10.167   0.218   0.471  1.00  0.00     0.298 C 
HETATM   27  C5  UNL     1      10.567  -1.168   0.875  1.00  0.00     0.198 C 
HETATM   28  O2  UNL     1       9.956  -1.573   2.072  1.00  0.00    -0.388 OA
HETATM   29  C6  UNL     1       9.290  -0.496   2.658  1.00  0.00     0.198 C 
HETATM   30  C7  UNL     1       8.198  -0.004   1.718  1.00  0.00     0.298 C 
ENDBRANCH  24  25
ENDBRANCH  23  24
ENDBRANCH  20  23
ENDBRANCH  16  19
ENDBRANCH  11  12
ENDBRANCH  10  11
ENDBRANCH   9  10
ENDBRANCH   8   9
ENDBRANCH   1   8
BRANCH   7  31
HETATM   31  C21 UNL     1      -5.164   0.374  -0.524  1.00  0.00     0.044 A 
HETATM   32  C22 UNL     1      -5.304  -0.998  -0.434  1.00  0.00     0.031 A 
HETATM   33  C23 UNL     1      -6.041  -1.758  -1.311  1.00  0.00     0.016 A 
HETATM   34  C24 UNL     1      -6.690  -1.117  -2.355  1.00  0.00    -0.008 A 
HETATM   35  C25 UNL     1      -7.492  -1.571  -3.387  1.00  0.00     0.030 A 
HETATM   36  C27 UNL     1      -6.573   0.253  -2.476  1.00  0.00     0.044 A 
HETATM   37  C26 UNL     1      -7.850  -0.468  -4.120  1.00  0.00     0.089 A 
HETATM   38  N8  UNL     1      -7.298   0.627  -3.573  1.00  0.00    -0.365 N 
ATOM     39  H8  UNL     1      -7.402   1.581  -3.919  1.00  0.00     0.165 HD
HETATM   40  C28 UNL     1      -5.830   0.989  -1.587  1.00  0.00     0.060 A 
ENDBRANCH   7  31
BRANCH   6  41
HETATM   41  C16 UNL     1      -6.185   2.740   1.270  1.00  0.00     0.090 C 
BRANCH  41  42
HETATM   42  C17 UNL     1      -6.825   2.249   2.510  1.00  0.00     0.101 C 
BRANCH  42  43
HETATM   43  C18 UNL     1      -7.024   0.828   2.640  1.00  0.00    -0.104 C 
HETATM   44  C19 UNL     1      -7.205  -0.344   2.777  1.00  0.00    -0.081 C 
BRANCH  44  45
HETATM   45  C20 UNL     1      -7.411  -1.776   2.955  1.00  0.00     0.257 C 
BRANCH  45  46
HETATM   46  O3  UNL     1      -7.914  -1.997   4.242  1.00  0.00    -0.389 OA
ATOM     47  H3  UNL     1      -8.048  -2.930   4.358  1.00  0.00     0.210 HD
ENDBRANCH  45  46
ENDBRANCH  44  45
ENDBRANCH  42  43
ENDBRANCH  41  42
ENDBRANCH   6  41
TORSDOF 15
