REMARK  16 active torsions:
REMARK  status: ('A' for Active; 'I' for Inactive)
REMARK    1  A    between atoms: C2_2  and  C3_3 
REMARK    2  A    between atoms: C3_3  and  N1_4 
REMARK    3  A    between atoms: C3_3  and  C5_7 
REMARK    4  A    between atoms: C5_7  and  O1_8 
REMARK    5  A    between atoms: C5_7  and  N2_10 
REMARK    6  A    between atoms: N2_10  and  C6_11 
REMARK    7  A    between atoms: C7_14  and  C8_15 
REMARK    8  A    between atoms: C8_15  and  C10_17 
REMARK    9  A    between atoms: C10_17  and  C11_18 
REMARK   10  A    between atoms: C11_18  and  C12_20 
REMARK       I    between atoms: C12_20  and  N4_22 
REMARK   11  A    between atoms: N4_22  and  C13_23 
REMARK   12  A    between atoms: N4_22  and  C20_33 
REMARK   13  A    between atoms: C13_23  and  C14_24 
REMARK       I    between atoms: C14_24  and  N5_26 
REMARK   14  A    between atoms: N5_26  and  C15_28 
REMARK   15  A    between atoms: C15_28  and  C16_29 
REMARK   16  A    between atoms: C20_33  and  C21_34 
ROOT
HETATM    1  C11 UNL     1       0.805   0.666  -1.222  1.00  0.00     0.217 C 
HETATM    2  O2  UNL     1       1.598   1.565  -0.720  1.00  0.00    -0.287 OA
ENDROOT
BRANCH   1   3
HETATM    3  C10 UNL     1      -0.627   0.911  -0.927  1.00  0.00     0.099 C 
BRANCH   3   4
HETATM    4  C8  UNL     1      -1.087   0.382   0.382  1.00  0.00     0.040 C 
HETATM    5  C9  UNL     1      -1.001  -1.138   0.418  1.00  0.00     0.017 C 
BRANCH   4   6
HETATM    6  C7  UNL     1      -2.575   0.759   0.567  1.00  0.00     0.029 A 
HETATM    7  N3  UNL     1      -3.557  -0.037   0.418  1.00  0.00    -0.327 N 
HETATM    8  C6  UNL     1      -4.839   0.436   0.568  1.00  0.00     0.225 A 
ATOM      9  H3  UNL     1      -3.394  -1.018   0.189  1.00  0.00     0.169 HD
HETATM   10  S2  UNL     1      -4.506   2.100   0.940  1.00  0.00    -0.042 SA
HETATM   11  C25 UNL     1      -2.819   2.076   0.878  1.00  0.00     0.006 A 
HETATM   12  C26 UNL     1      -1.878   3.215   1.105  1.00  0.00     0.058 C 
BRANCH   8  13
HETATM   13  N2  UNL     1      -5.885  -0.195   0.419  1.00  0.00    -0.358 NA
BRANCH  13  14
HETATM   14  C5  UNL     1      -6.982  -0.853   0.263  1.00  0.00     0.215 C 
BRANCH  14  15
HETATM   15  C3  UNL     1      -8.280  -0.295  -0.197  1.00  0.00     0.166 C 
BRANCH  15  16
HETATM   16  C2  UNL     1      -9.008   0.472   0.878  1.00  0.00     0.030 C 
HETATM   17  C1  UNL     1      -8.217   1.609   1.439  1.00  0.00     0.007 C 
ENDBRANCH  15  16
BRANCH  15  18
HETATM   18  N1  UNL     1      -9.203  -1.343  -0.607  1.00  0.00    -0.414 N 
HETATM   19  C4  UNL     1      -9.580  -2.286   0.365  1.00  0.00     0.140 C 
ATOM     20  H1  UNL     1      -9.562  -1.391  -1.561  1.00  0.00     0.153 HD
ENDBRANCH  15  18
ENDBRANCH  14  15
BRANCH  14  21
HETATM   21  O1  UNL     1      -7.028  -2.133   0.504  1.00  0.00    -0.337 OA
ATOM     22  H1  UNL     1      -6.198  -2.490   0.798  1.00  0.00     0.220 HD
ENDBRANCH  14  21
ENDBRANCH  13  14
ENDBRANCH   8  13
ENDBRANCH   4   6
ENDBRANCH   3   4
ENDBRANCH   1   3
BRANCH   1  23
HETATM   23  C12 UNL     1       1.318  -0.442  -1.989  1.00  0.00     0.290 C 
HETATM   24  O3  UNL     1       0.501  -1.328  -2.355  1.00  0.00    -0.264 OA
HETATM   25  N4  UNL     1       2.657  -0.644  -2.380  1.00  0.00    -0.331 N 
BRANCH  25  26
HETATM   26  C13 UNL     1       3.661   0.333  -2.103  1.00  0.00     0.229 C 
BRANCH  26  27
HETATM   27  C14 UNL     1       4.290   0.177  -0.782  1.00  0.00     0.235 C 
HETATM   28  O4  UNL     1       4.021  -0.694   0.048  1.00  0.00    -0.272 OA
HETATM   29  N5  UNL     1       5.316   1.127  -0.407  1.00  0.00    -0.359 N 
ATOM     30  H5  UNL     1       5.575   1.867  -1.059  1.00  0.00     0.162 HD
BRANCH  29  31
HETATM   31  C15 UNL     1       5.977   1.046   0.870  1.00  0.00     0.131 C 
BRANCH  31  32
HETATM   32  C16 UNL     1       6.979   2.172   0.965  1.00  0.00    -0.035 C 
HETATM   33  C17 UNL     1       6.241   3.484   0.840  1.00  0.00     0.016 C 
HETATM   34  C18 UNL     1       7.784   2.115   2.236  1.00  0.00     0.016 C 
HETATM   35  C19 UNL     1       7.915   2.003  -0.240  1.00  0.00     0.016 C 
ENDBRANCH  31  32
ENDBRANCH  29  31
ENDBRANCH  26  27
ENDBRANCH  25  26
BRANCH  25  36
HETATM   36  C20 UNL     1       3.036  -1.859  -3.119  1.00  0.00     0.184 C 
BRANCH  36  37
HETATM   37  C21 UNL     1       3.427  -2.981  -2.187  1.00  0.00     0.034 A 
HETATM   38  C22 UNL     1       4.720  -3.475  -2.175  1.00  0.00     0.078 A 
HETATM   39  S1  UNL     1       4.614  -4.692  -0.981  1.00  0.00    -0.087 SA
HETATM   40  C23 UNL     1       2.971  -4.510  -0.573  1.00  0.00     0.047 A 
HETATM   41  C24 UNL     1       2.153  -5.268   0.444  1.00  0.00     0.076 C 
HETATM   42  N6  UNL     1       2.588  -3.529  -1.371  1.00  0.00    -0.356 N 
ATOM     43  H6  UNL     1       1.622  -3.202  -1.343  1.00  0.00     0.166 HD
ENDBRANCH  36  37
ENDBRANCH  25  36
ENDBRANCH   1  23
TORSDOF 16
