REMARK  15 active torsions:
REMARK  status: ('A' for Active; 'I' for Inactive)
REMARK    1  A    between atoms: C3_3  and  N1_4 
REMARK    2  A    between atoms: N1_4  and  C4_5 
REMARK    3  A    between atoms: N1_4  and  C26_37 
REMARK    4  A    between atoms: C4_5  and  C5_6 
REMARK    5  A    between atoms: C8_9  and  O1_10 
REMARK    6  A    between atoms: O1_10  and  C9_11 
REMARK    7  A    between atoms: C12_14  and  C13_15 
REMARK    8  A    between atoms: C13_15  and  N2_16 
REMARK    9  A    between atoms: C16_22  and  O2_23 
REMARK   10  A    between atoms: O2_23  and  C17_24 
REMARK   11  A    between atoms: C17_24  and  C18_25 
REMARK   12  A    between atoms: C18_25  and  N5_26 
REMARK   13  A    between atoms: N5_26  and  C19_28 
REMARK   14  A    between atoms: C28_39  and  C29_40 
REMARK   15  A    between atoms: C29_40  and  O3_43 
ROOT
HETATM    1  C1  UNL     1       6.305  -5.089  -0.948  1.00  0.00     0.014 C 
HETATM    2  C2  UNL     1       5.782  -4.073  -1.316  1.00  0.00    -0.098 C 
HETATM    3  C3  UNL     1       5.162  -2.811  -1.767  1.00  0.00     0.218 C 
ENDROOT
BRANCH   3   4
HETATM    4  N1  UNL     1       4.876  -2.000  -0.605  1.00  0.00    -0.345 N 
BRANCH   4   5
HETATM    5  C4  UNL     1       3.832  -2.346   0.362  1.00  0.00     0.164 C 
BRANCH   5   6
HETATM    6  C5  UNL     1       2.672  -1.439   0.112  1.00  0.00    -0.040 A 
HETATM    7  C6  UNL     1       1.816  -1.119   1.138  1.00  0.00     0.011 A 
HETATM    8  C7  UNL     1       0.755  -0.248   0.930  1.00  0.00     0.038 A 
HETATM    9  C8  UNL     1       0.530   0.310  -0.273  1.00  0.00     0.076 A 
HETATM   10  C24 UNL     1       1.397  -0.008  -1.340  1.00  0.00     0.038 A 
HETATM   11  C25 UNL     1       2.422  -0.860  -1.106  1.00  0.00     0.011 A 
BRANCH   9  12
HETATM   12  O1  UNL     1      -0.463   1.181  -0.612  1.00  0.00    -0.308 OA
BRANCH  12  13
HETATM   13  C9  UNL     1      -1.700   0.901  -1.091  1.00  0.00     0.109 A 
HETATM   14  C10 UNL     1      -1.921   1.275  -2.450  1.00  0.00     0.041 A 
HETATM   15  C11 UNL     1      -3.134   1.049  -3.046  1.00  0.00     0.012 A 
HETATM   16  C12 UNL     1      -4.148   0.456  -2.333  1.00  0.00    -0.038 A 
HETATM   17  C15 UNL     1      -3.911   0.108  -1.036  1.00  0.00     0.048 A 
HETATM   18  C16 UNL     1      -2.712   0.311  -0.378  1.00  0.00     0.103 A 
BRANCH  16  19
HETATM   19  C13 UNL     1      -5.503   0.173  -2.925  1.00  0.00     0.160 C 
BRANCH  19  20
HETATM   20  N2  UNL     1      -6.143  -0.910  -2.184  1.00  0.00    -0.363 N 
HETATM   21  C14 UNL     1      -7.409  -1.080  -2.110  1.00  0.00     0.197 C 
HETATM   22  N3  UNL     1      -8.276  -0.182  -2.779  1.00  0.00    -0.067 NA
HETATM   23  N4  UNL     1      -7.960  -2.158  -1.375  1.00  0.00    -0.067 NA
ATOM     24  H2  UNL     1      -5.543  -1.573  -1.694  1.00  0.00     0.162 HD
ENDBRANCH  19  20
ENDBRANCH  16  19
BRANCH  18  25
HETATM   25  O2  UNL     1      -2.547  -0.047   0.937  1.00  0.00    -0.347 OA
BRANCH  25  26
HETATM   26  C17 UNL     1      -3.590  -0.534   1.773  1.00  0.00     0.195 C 
BRANCH  26  27
HETATM   27  C18 UNL     1      -4.594   0.577   2.054  1.00  0.00     0.148 C 
BRANCH  27  28
HETATM   28  N5  UNL     1      -5.667   0.079   2.871  1.00  0.00    -0.374 N 
ATOM     29  H5  UNL     1      -5.585  -0.852   3.281  1.00  0.00     0.161 HD
BRANCH  28  30
HETATM   30  C19 UNL     1      -6.742   0.780   3.105  1.00  0.00     0.100 A 
HETATM   31  C20 UNL     1      -7.715   0.212   3.903  1.00  0.00     0.048 A 
HETATM   32  C21 UNL     1      -8.866   0.938   4.173  1.00  0.00     0.005 A 
HETATM   33  C22 UNL     1      -9.019   2.206   3.640  1.00  0.00     0.017 A 
HETATM   34  C23 UNL     1      -8.028   2.758   2.840  1.00  0.00     0.089 A 
HETATM   35  N6  UNL     1      -6.921   2.027   2.598  1.00  0.00    -0.353 N 
ATOM     36  H6  UNL     1      -6.189   2.427   2.011  1.00  0.00     0.166 HD
ENDBRANCH  28  30
ENDBRANCH  27  28
ENDBRANCH  26  27
ENDBRANCH  25  26
ENDBRANCH  18  25
ENDBRANCH  12  13
ENDBRANCH   9  12
ENDBRANCH   5   6
ENDBRANCH   4   5
BRANCH   4  37
HETATM   37  C26 UNL     1       5.596  -0.791  -0.351  1.00  0.00     0.171 A 
HETATM   38  C27 UNL     1       6.821  -0.670   0.270  1.00  0.00     0.088 A 
HETATM   39  C28 UNL     1       7.143   0.675   0.304  1.00  0.00     0.070 A 
HETATM   40  N7  UNL     1       6.087   1.305  -0.302  1.00  0.00    -0.260 N 
HETATM   41  O4  UNL     1       5.217   0.409  -0.665  1.00  0.00    -0.220 OA
ATOM     42  H7  UNL     1       5.998   2.311  -0.445  1.00  0.00     0.194 HD
BRANCH  39  43
HETATM   43  C29 UNL     1       8.353   1.298   0.885  1.00  0.00     0.097 C 
HETATM   44  C30 UNL     1       9.546   0.409   0.570  1.00  0.00     0.052 C 
HETATM   45  C31 UNL     1       8.211   1.344   2.408  1.00  0.00     0.052 C 
BRANCH  43  46
HETATM   46  O3  UNL     1       8.549   2.587   0.470  1.00  0.00    -0.379 OA
HETATM   47  C32 UNL     1       8.746   2.794  -0.866  1.00  0.00     0.203 C 
ENDBRANCH  43  46
ENDBRANCH  39  43
ENDBRANCH   4  37
ENDBRANCH   3   4
TORSDOF 15
