REMARK  7 active torsions:
REMARK  status: ('A' for Active; 'I' for Inactive)
REMARK    1  A    between atoms: C2_2  and  C3_3 
REMARK    2  A    between atoms: C2_2  and  N1_6 
REMARK    3  A    between atoms: C3_3  and  O1_4 
REMARK    4  A    between atoms: N1_6  and  C4_8 
REMARK    5  A    between atoms: C4_8  and  N3_11 
REMARK    6  A    between atoms: N3_11  and  C6_13 
REMARK    7  A    between atoms: C6_13  and  C7_14 
ROOT
HETATM    1  C4  UNL     1       1.550   0.890   0.712  1.00  0.00     0.180 C 
HETATM    2  C5  UNL     1       1.853   0.433   2.028  1.00  0.00     0.136 C 
HETATM    3  N2  UNL     1       2.096   0.081   3.122  1.00  0.00    -0.188 NA
ENDROOT
BRANCH   1   4
HETATM    4  N1  UNL     1       2.625   1.212  -0.126  1.00  0.00    -0.361 N 
ATOM      5  H1  UNL     1       2.674   2.151  -0.522  1.00  0.00     0.162 HD
BRANCH   4   6
HETATM    6  C2  UNL     1       3.631   0.299  -0.440  1.00  0.00     0.103 C 
HETATM    7  C1  UNL     1       4.492   0.002   0.777  1.00  0.00     0.034 C 
BRANCH   6   8
HETATM    8  C3  UNL     1       3.145  -1.057  -0.935  1.00  0.00     0.188 C 
BRANCH   8   9
HETATM    9  O1  UNL     1       4.280  -1.825  -1.193  1.00  0.00    -0.399 OA
ATOM     10  H1  UNL     1       3.977  -2.671  -1.502  1.00  0.00     0.209 HD
ENDBRANCH   8   9
ENDBRANCH   6   8
ENDBRANCH   4   6
ENDBRANCH   1   4
BRANCH   1  11
HETATM   11  N3  UNL     1       0.413   0.243   0.080  1.00  0.00    -0.367 N 
ATOM     12  H3  UNL     1       0.437  -0.315  -0.773  1.00  0.00     0.161 HD
BRANCH  11  13
HETATM   13  C6  UNL     1      -0.752   0.531   0.873  1.00  0.00     0.127 C 
BRANCH  13  14
HETATM   14  C7  UNL     1      -2.008   0.286   0.115  1.00  0.00     0.010 C 
HETATM   15  C8  UNL     1      -2.279  -1.063  -0.405  1.00  0.00     0.050 C 
HETATM   16  C9  UNL     1      -3.710  -1.505  -0.333  1.00  0.00     0.056 C 
HETATM   17  N4  UNL     1      -4.711  -0.523  -0.272  1.00  0.00    -0.402 N 
HETATM   18  C10 UNL     1      -4.329   0.830  -0.024  1.00  0.00     0.119 C 
ATOM     19  H4  UNL     1      -5.692  -0.771  -0.402  1.00  0.00     0.158 HD
HETATM   20  C11 UNL     1      -3.164   0.823   0.959  1.00  0.00     0.026 C 
ENDBRANCH  13  14
ENDBRANCH  11  13
ENDBRANCH   1  11
TORSDOF 7
