REMARK  10 active torsions:
REMARK  status: ('A' for Active; 'I' for Inactive)
REMARK       I    between atoms: N1_2  and  C2_3 
REMARK       I    between atoms: N1_2  and  C7_11 
REMARK       I    between atoms: C2_3  and  N2_5 
REMARK    1  A    between atoms: N2_5  and  C3_7 
REMARK    2  A    between atoms: C7_11  and  C8_13 
REMARK    3  A    between atoms: C10_15  and  C11_16 
REMARK    4  A    between atoms: C11_16  and  N3_18 
REMARK    5  A    between atoms: N3_18  and  C12_20 
REMARK    6  A    between atoms: C12_20  and  C13_21 
REMARK    7  A    between atoms: C12_20  and  C20_28 
REMARK    8  A    between atoms: C13_21  and  C14_22 
REMARK    9  A    between atoms: C20_28  and  C21_30 
REMARK       I    between atoms: C21_30  and  N4_32 
REMARK   10  A    between atoms: C25_36  and  C26_37 
ROOT
HETATM    1  C12 UNL     1      -2.181   0.050   0.427  1.00  0.00     0.159 C 
ENDROOT
BRANCH   1   2
HETATM    2  N3  UNL     1      -0.976   0.261   1.099  1.00  0.00    -0.381 N 
ATOM      3  H3  UNL     1      -0.917   1.127   1.634  1.00  0.00     0.156 HD
BRANCH   2   4
HETATM    4  C11 UNL     1       0.143  -0.539   1.139  1.00  0.00     0.270 C 
HETATM    5  F1  UNL     1       0.313  -0.995   2.484  1.00  0.00    -0.227 F 
BRANCH   4   6
HETATM    6  C10 UNL     1       1.440   0.263   0.818  1.00  0.00     0.053 A 
HETATM    7  C8  UNL     1       2.695  -0.483   0.956  1.00  0.00     0.087 A 
HETATM    8  C9  UNL     1       2.314   0.511   2.052  1.00  0.00     0.024 A 
BRANCH   7   9
HETATM    9  C7  UNL     1       3.974  -0.057   0.251  1.00  0.00     0.232 C 
HETATM   10  N1  UNL     1       5.103  -0.869   0.332  1.00  0.00    -0.274 N 
HETATM   11  C1  UNL     1       4.962  -2.115   1.128  1.00  0.00     0.164 C 
HETATM   12  C2  UNL     1       6.344  -0.620  -0.209  1.00  0.00     0.325 C 
HETATM   13  O1  UNL     1       7.273  -1.468   0.094  1.00  0.00    -0.247 OA
HETATM   14  N2  UNL     1       6.712   0.448  -1.049  1.00  0.00    -0.335 N 
ATOM     15  H2  UNL     1       6.025   1.147  -1.330  1.00  0.00     0.165 HD
HETATM   16  O2  UNL     1       3.960   1.039  -0.381  1.00  0.00    -0.272 OA
BRANCH  14  17
HETATM   17  C3  UNL     1       8.122   0.540  -1.521  1.00  0.00     0.023 C 
HETATM   18  C4  UNL     1       8.517  -0.682  -2.283  1.00  0.00     0.037 C 
HETATM   19  C5  UNL     1       8.224   1.741  -2.404  1.00  0.00     0.037 C 
HETATM   20  C6  UNL     1       9.023   0.760  -0.310  1.00  0.00     0.037 C 
ENDBRANCH  14  17
ENDBRANCH   7   9
ENDBRANCH   4   6
ENDBRANCH   2   4
ENDBRANCH   1   2
BRANCH   1  21
HETATM   21  C13 UNL     1      -3.022  -1.079   0.817  1.00  0.00     0.037 C 
BRANCH  21  22
HETATM   22  C14 UNL     1      -2.527  -2.490   0.688  1.00  0.00    -0.012 C 
HETATM   23  C15 UNL     1      -3.646  -3.383   1.229  1.00  0.00     0.005 C 
HETATM   24  C16 UNL     1      -3.800  -4.652   0.494  1.00  0.00     0.000 C 
HETATM   25  C17 UNL     1      -3.979  -4.499  -0.995  1.00  0.00     0.000 C 
HETATM   26  C18 UNL     1      -3.593  -3.078  -1.431  1.00  0.00     0.000 C 
HETATM   27  C19 UNL     1      -2.264  -2.801  -0.764  1.00  0.00     0.005 C 
ENDBRANCH  21  22
ENDBRANCH   1  21
BRANCH   1  28
HETATM   28  C20 UNL     1      -2.915   1.365   0.248  1.00  0.00     0.238 C 
HETATM   29  O3  UNL     1      -2.171   2.292  -0.233  1.00  0.00    -0.285 OA
BRANCH  28  30
HETATM   30  C21 UNL     1      -4.256   1.624   0.556  1.00  0.00     0.292 C 
HETATM   31  O4  UNL     1      -4.988   0.739   1.134  1.00  0.00    -0.264 OA
HETATM   32  N4  UNL     1      -4.869   2.893   0.243  1.00  0.00    -0.332 N 
HETATM   33  C22 UNL     1      -4.263   4.005  -0.406  1.00  0.00     0.127 C 
HETATM   34  C25 UNL     1      -6.241   3.185   0.596  1.00  0.00     0.176 C 
HETATM   35  C23 UNL     1      -5.137   5.199  -0.047  1.00  0.00     0.022 C 
HETATM   36  C24 UNL     1      -6.465   4.605   0.216  1.00  0.00     0.036 C 
BRANCH  34  37
HETATM   37  C26 UNL     1      -7.215   2.310  -0.144  1.00  0.00     0.254 C 
HETATM   38  N5  UNL     1      -6.753   1.454  -1.145  1.00  0.00    -0.060 NA
HETATM   39  O5  UNL     1      -8.422   2.345   0.131  1.00  0.00    -0.275 OA
ENDBRANCH  34  37
ENDBRANCH  28  30
ENDBRANCH   1  28
TORSDOF 10
