REMARK  18 active torsions:
REMARK  status: ('A' for Active; 'I' for Inactive)
REMARK    1  A    between atoms: C2_2  and  C3_3 
REMARK    2  A    between atoms: C3_3  and  C4_4 
REMARK    3  A    between atoms: C5_5  and  C6_6 
REMARK    4  A    between atoms: C6_6  and  C7_7 
REMARK    5  A    between atoms: C9_11  and  C10_12 
REMARK    6  A    between atoms: C10_12  and  C12_14 
REMARK    7  A    between atoms: C14_17  and  O4_18 
REMARK    8  A    between atoms: C15_20  and  C16_21 
REMARK    9  A    between atoms: C16_21  and  C18_23 
REMARK   10  A    between atoms: C23_31  and  C24_32 
REMARK   11  A    between atoms: C24_32  and  O6_33 
REMARK   12  A    between atoms: C24_32  and  N2_35 
REMARK   13  A    between atoms: N2_35  and  C25_36 
REMARK   14  A    between atoms: N2_35  and  C28_39 
REMARK   15  A    between atoms: C28_39  and  N3_41 
REMARK   16  A    between atoms: C28_39  and  C30_45 
REMARK   17  A    between atoms: C32_47  and  O7_48 
REMARK   18  A    between atoms: O7_48  and  C33_49 
ROOT
HETATM    1  C7  UNL     1       0.368   1.520  -1.238  1.00  0.00     0.165 C 
HETATM    2  O1  UNL     1       1.475   0.903  -0.755  1.00  0.00    -0.311 OA
HETATM    3  C8  UNL     1       2.717   1.013  -0.363  1.00  0.00     0.289 C 
HETATM    4  O2  UNL     1       3.710   1.557  -0.912  1.00  0.00    -0.262 OA
HETATM    5  C9  UNL     1       3.135   0.408   0.972  1.00  0.00     0.228 C 
HETATM    6  O3  UNL     1       3.328  -0.897   0.816  1.00  0.00    -0.344 OA
HETATM    7  C14 UNL     1       3.182  -2.157   0.681  1.00  0.00     0.280 C 
HETATM    8  C15 UNL     1       3.217  -2.899  -0.599  1.00  0.00     0.143 C 
HETATM    9  N1  UNL     1       1.947  -3.271  -1.151  1.00  0.00    -0.351 N 
ATOM     10  H1  UNL     1       1.996  -4.143  -1.677  1.00  0.00     0.163 HD
HETATM   11  C20 UNL     1       0.674  -2.736  -1.144  1.00  0.00     0.222 C 
HETATM   12  O5  UNL     1      -0.205  -3.391  -0.486  1.00  0.00    -0.273 OA
HETATM   13  C21 UNL     1       0.116  -1.509  -1.781  1.00  0.00     0.088 C 
HETATM   14  C22 UNL     1      -0.648  -1.993  -2.969  1.00  0.00     0.021 C 
HETATM   15  C23 UNL     1      -0.672  -0.712  -0.757  1.00  0.00     0.104 C 
HETATM   16  C32 UNL     1      -0.942   0.715  -1.254  1.00  0.00     0.165 C 
ENDROOT
BRANCH  15  17
HETATM   17  C24 UNL     1      -1.800  -1.425  -0.187  1.00  0.00     0.123 C 
BRANCH  17  18
HETATM   18  O6  UNL     1      -2.583  -2.063  -1.023  1.00  0.00    -0.349 OA
ATOM     19  H6  UNL     1      -3.321  -2.530  -0.650  1.00  0.00     0.219 HD
ENDBRANCH  17  18
BRANCH  17  20
HETATM   20  N2  UNL     1      -2.238  -1.571   1.155  1.00  0.00    -0.329 N 
BRANCH  20  21
HETATM   21  C25 UNL     1      -1.632  -1.077   2.351  1.00  0.00     0.080 C 
HETATM   22  C26 UNL     1      -0.255  -1.622   2.663  1.00  0.00     0.032 C 
HETATM   23  C27 UNL     1      -1.621   0.434   2.483  1.00  0.00     0.032 C 
ENDBRANCH  20  21
BRANCH  20  24
HETATM   24  C28 UNL     1      -3.516  -2.309   1.305  1.00  0.00     0.195 C 
HETATM   25  C29 UNL     1      -4.540  -1.488   0.551  1.00  0.00     0.070 C 
BRANCH  24  26
HETATM   26  N3  UNL     1      -3.468  -3.608   0.655  1.00  0.00    -0.053 N 
ATOM     27  H33 UNL     1      -3.201  -3.523  -0.326  1.00  0.00     0.277 HD
ATOM     28  H32 UNL     1      -2.678  -4.161   0.988  1.00  0.00     0.277 HD
ATOM     29  H31 UNL     1      -4.347  -4.115   0.758  1.00  0.00     0.277 HD
ENDBRANCH  24  26
BRANCH  24  30
HETATM   30  C30 UNL     1      -3.970  -2.447   2.719  1.00  0.00     0.056 C 
HETATM   31  C31 UNL     1      -5.296  -3.230   2.715  1.00  0.00     0.009 C 
ENDBRANCH  24  30
ENDBRANCH  20  24
ENDBRANCH  17  20
ENDBRANCH  15  17
BRANCH  16  32
HETATM   32  O7  UNL     1      -1.512   0.715  -2.462  1.00  0.00    -0.373 OA
BRANCH  32  33
HETATM   33  C33 UNL     1      -2.596   1.227  -2.950  1.00  0.00     0.051 C 
HETATM   34  C34 UNL     1      -2.779   2.757  -2.911  1.00  0.00     0.045 C 
HETATM   35  C35 UNL     1      -3.960   0.646  -2.656  1.00  0.00     0.045 C 
HETATM   36  C36 UNL     1      -2.502   1.001  -4.513  1.00  0.00     0.045 C 
ENDBRANCH  32  33
ENDBRANCH  16  32
BRANCH   1  37
HETATM   37  C6  UNL     1       0.292   2.945  -0.809  1.00  0.00     0.062 C 
BRANCH  37  38
HETATM   38  C5  UNL     1       0.251   3.222   0.615  1.00  0.00    -0.028 C 
HETATM   39  C4  UNL     1      -0.677   3.891   1.215  1.00  0.00    -0.031 C 
BRANCH  39  40
HETATM   40  C3  UNL     1      -1.870   4.512   0.620  1.00  0.00     0.026 C 
BRANCH  40  41
HETATM   41  C2  UNL     1      -1.903   6.018   0.866  1.00  0.00    -0.001 C 
HETATM   42  C1  UNL     1      -3.151   6.574   0.229  1.00  0.00     0.005 C 
ENDBRANCH  40  41
ENDBRANCH  39  40
ENDBRANCH  37  38
ENDBRANCH   1  37
BRANCH   8  43
HETATM   43  C16 UNL     1       4.145  -2.297  -1.641  1.00  0.00     0.009 C 
HETATM   44  C17 UNL     1       4.110  -3.144  -2.918  1.00  0.00     0.012 C 
BRANCH  43  45
HETATM   45  C18 UNL     1       5.583  -2.299  -1.169  1.00  0.00     0.002 C 
HETATM   46  C19 UNL     1       6.069  -3.681  -0.887  1.00  0.00     0.005 C 
ENDBRANCH  43  45
ENDBRANCH   8  43
BRANCH   7  47
HETATM   47  O4  UNL     1       2.980  -2.932   1.707  1.00  0.00    -0.369 OA
ATOM     48  H4  UNL     1       2.871  -3.870   1.606  1.00  0.00     0.212 HD
ENDBRANCH   7  47
BRANCH   5  49
HETATM   49  C10 UNL     1       4.320   1.142   1.569  1.00  0.00     0.020 C 
HETATM   50  C11 UNL     1       4.096   2.583   1.842  1.00  0.00     0.013 C 
BRANCH  49  51
HETATM   51  C12 UNL     1       4.648   0.438   2.867  1.00  0.00     0.003 C 
HETATM   52  C13 UNL     1       3.500   0.452   3.850  1.00  0.00     0.005 C 
ENDBRANCH  49  51
ENDBRANCH   5  49
TORSDOF 18
