REMARK  14 active torsions:
REMARK  status: ('A' for Active; 'I' for Inactive)
REMARK    1  A    between atoms: C2_2  and  C3_3 
REMARK    2  A    between atoms: C3_3  and  C4_4 
REMARK    3  A    between atoms: C4_4  and  C5_5 
REMARK    4  A    between atoms: C5_5  and  O2_7 
REMARK    5  A    between atoms: O2_7  and  C6_8 
REMARK    6  A    between atoms: C6_8  and  C7_9 
REMARK    7  A    between atoms: C6_8  and  C9_14 
REMARK    8  A    between atoms: C7_9  and  N1_10 
REMARK    9  A    between atoms: N2_17  and  C11_18 
REMARK   10  A    between atoms: C11_18  and  C12_19 
REMARK   11  A    between atoms: C12_19  and  C13_20 
REMARK   12  A    between atoms: C13_20  and  N3_21 
REMARK       I    between atoms: C14_23  and  N5_25 
REMARK   13  A    between atoms: N5_25  and  C15_27 
REMARK   14  A    between atoms: C18_32  and  C19_33 
ROOT
HETATM    1  C9  UNL     1      -2.304  -0.523   0.843  1.00  0.00     0.133 C 
HETATM    2  C10 UNL     1      -0.992   0.088   1.088  1.00  0.00     0.240 C 
HETATM    3  O3  UNL     1      -0.577   0.343   2.261  1.00  0.00    -0.272 OA
HETATM    4  N2  UNL     1      -0.101   0.433   0.004  1.00  0.00    -0.248 N 
HETATM    5  C21 UNL     1      -0.125  -0.518  -1.060  1.00  0.00     0.331 C 
HETATM    6  O5  UNL     1       0.562  -0.432  -2.101  1.00  0.00    -0.246 OA
HETATM    7  N7  UNL     1      -1.001  -1.621  -0.882  1.00  0.00    -0.328 N 
HETATM    8  C22 UNL     1      -0.369  -2.879  -1.351  1.00  0.00     0.128 C 
HETATM    9  C23 UNL     1      -1.142  -3.455  -2.507  1.00  0.00     0.020 C 
HETATM   10  C24 UNL     1      -2.247  -4.316  -1.933  1.00  0.00     0.002 C 
HETATM   11  C25 UNL     1      -3.312  -3.337  -1.422  1.00  0.00     0.002 C 
HETATM   12  C26 UNL     1      -2.908  -2.774  -0.075  1.00  0.00     0.026 C 
HETATM   13  C27 UNL     1      -2.305  -1.404  -0.329  1.00  0.00     0.104 C 
ENDROOT
BRANCH   4  14
HETATM   14  C11 UNL     1       0.727   1.571  -0.043  1.00  0.00     0.083 C 
BRANCH  14  15
HETATM   15  C12 UNL     1       2.116   1.368   0.550  1.00  0.00     0.089 C 
BRANCH  15  16
HETATM   16  C13 UNL     1       2.824   2.695   0.399  1.00  0.00     0.068 C 
BRANCH  16  17
HETATM   17  N3  UNL     1       4.143   2.757   0.893  1.00  0.00    -0.344 N 
HETATM   18  C14 UNL     1       4.912   1.904   1.418  1.00  0.00     0.193 C 
HETATM   19  N4  UNL     1       4.540   0.560   1.630  1.00  0.00    -0.063 NA
HETATM   20  N5  UNL     1       6.232   2.263   1.848  1.00  0.00    -0.311 N 
ATOM     21  H5  UNL     1       6.397   3.004   2.529  1.00  0.00     0.170 HD
ATOM     22  H3  UNL     1       4.563   3.683   0.809  1.00  0.00     0.167 HD
BRANCH  20  23
HETATM   23  C15 UNL     1       7.217   1.576   1.309  1.00  0.00     0.152 A 
HETATM   24  N6  UNL     1       8.516   1.733   1.556  1.00  0.00    -0.339 N 
HETATM   25  C16 UNL     1       9.378   0.968   0.939  1.00  0.00     0.028 A 
ATOM     26  H6  UNL     1       8.834   2.441   2.218  1.00  0.00     0.168 HD
HETATM   27  C17 UNL     1      10.876   1.108   1.188  1.00  0.00     0.070 C 
HETATM   28  C18 UNL     1       8.912   0.040   0.066  1.00  0.00     0.076 A 
HETATM   29  S1  UNL     1       7.192   0.316   0.174  1.00  0.00    -0.048 SA
BRANCH  28  30
HETATM   30  C19 UNL     1       9.552  -0.969  -0.789  1.00  0.00     0.164 C 
HETATM   31  C20 UNL     1      10.977  -1.192  -0.875  1.00  0.00     0.097 C 
HETATM   32  O4  UNL     1       8.801  -1.716  -1.520  1.00  0.00    -0.292 OA
ENDBRANCH  28  30
ENDBRANCH  20  23
ENDBRANCH  16  17
ENDBRANCH  15  16
ENDBRANCH  14  15
ENDBRANCH   4  14
BRANCH   1  33
HETATM   33  C6  UNL     1      -3.340   0.581   0.791  1.00  0.00     0.172 C 
BRANCH  33  34
HETATM   34  O2  UNL     1      -4.636   0.070   0.546  1.00  0.00    -0.313 OA
BRANCH  34  35
HETATM   35  C5  UNL     1      -5.418   0.499  -0.536  1.00  0.00     0.259 C 
HETATM   36  O1  UNL     1      -4.877   1.362  -1.257  1.00  0.00    -0.265 OA
BRANCH  35  37
HETATM   37  C4  UNL     1      -6.752  -0.025  -0.790  1.00  0.00     0.111 C 
BRANCH  37  38
HETATM   38  C3  UNL     1      -7.448   0.691  -1.886  1.00  0.00     0.009 C 
BRANCH  38  39
HETATM   39  C2  UNL     1      -7.700   2.134  -1.570  1.00  0.00    -0.004 C 
HETATM   40  C1  UNL     1      -8.426   2.783  -2.741  1.00  0.00     0.005 C 
ENDBRANCH  38  39
ENDBRANCH  37  38
ENDBRANCH  35  37
ENDBRANCH  34  35
ENDBRANCH  33  34
BRANCH  33  41
HETATM   41  C7  UNL     1      -3.424   1.344   2.093  1.00  0.00     0.265 C 
BRANCH  41  42
HETATM   42  N1  UNL     1      -3.821   0.538   3.218  1.00  0.00    -0.077 N 
HETATM   43  C8  UNL     1      -5.183   0.076   3.175  1.00  0.00     0.267 C 
ATOM     44  H12 UNL     1      -3.183  -0.250   3.332  1.00  0.00     0.276 HD
ATOM     45  H11 UNL     1      -3.643   1.036   4.090  1.00  0.00     0.276 HD
ENDBRANCH  41  42
ENDBRANCH  33  41
ENDBRANCH   1  33
TORSDOF 14
