REMARK  14 active torsions:
REMARK  status: ('A' for Active; 'I' for Inactive)
REMARK    1  A    between atoms: C2_2  and  O1_3 
REMARK    2  A    between atoms: O1_3  and  C3_4 
REMARK       I    between atoms: C3_4  and  N1_6 
REMARK    3  A    between atoms: C6_9  and  C7_10 
REMARK       I    between atoms: C7_10  and  N2_12 
REMARK    4  A    between atoms: N3_15  and  C10_16 
REMARK    5  A    between atoms: C11_19  and  C12_20 
REMARK    6  A    between atoms: C12_20  and  N5_22 
REMARK    7  A    between atoms: N5_22  and  C13_24 
REMARK    8  A    between atoms: C13_24  and  C14_25 
REMARK    9  A    between atoms: C13_24  and  C20_34 
REMARK   10  A    between atoms: C14_25  and  C15_26 
REMARK   11  A    between atoms: C15_26  and  C16_27 
REMARK   12  A    between atoms: C16_27  and  C17_28 
REMARK   13  A    between atoms: C17_28  and  C18_29 
REMARK   14  A    between atoms: C18_29  and  N6_30 
ROOT
HETATM    1  C10 UNL     1      -0.534  -0.481  -0.738  1.00  0.00     0.117 A 
HETATM    2  N4  UNL     1      -1.335  -1.037   0.119  1.00  0.00    -0.334 N 
ATOM      3  H4  UNL     1      -0.977  -1.760   0.743  1.00  0.00     0.168 HD
HETATM    4  C11 UNL     1      -2.619  -0.679   0.198  1.00  0.00     0.114 A 
HETATM    5  S2  UNL     1      -2.678   0.507  -1.010  1.00  0.00    -0.070 SA
HETATM    6  C21 UNL     1      -1.054   0.480  -1.551  1.00  0.00     0.025 A 
HETATM    7  C22 UNL     1      -0.496   1.347  -2.623  1.00  0.00     0.060 C 
ENDROOT
BRANCH   1   8
HETATM    8  N3  UNL     1       0.842  -0.927  -0.829  1.00  0.00    -0.363 N 
HETATM    9  C9  UNL     1       1.476  -1.505   0.365  1.00  0.00     0.144 C 
HETATM   10  C8  UNL     1       2.882  -1.984   0.087  1.00  0.00     0.145 C 
HETATM   11  N2  UNL     1       3.648  -1.105  -0.746  1.00  0.00    -0.349 N 
HETATM   12  C7  UNL     1       5.051  -1.128  -0.755  1.00  0.00     0.224 C 
HETATM   13  C24 UNL     1       2.952  -0.172  -1.608  1.00  0.00     0.145 C 
HETATM   14  O3  UNL     1       5.658  -0.327  -1.550  1.00  0.00    -0.273 OA
HETATM   15  C23 UNL     1       1.651  -0.902  -2.001  1.00  0.00     0.144 C 
BRANCH  12  16
HETATM   16  C6  UNL     1       5.934  -1.984   0.059  1.00  0.00     0.081 C 
HETATM   17  C5  UNL     1       6.110  -1.545   1.476  1.00  0.00     0.034 C 
HETATM   18  C4  UNL     1       7.154  -0.461   1.658  1.00  0.00     0.129 C 
HETATM   19  N1  UNL     1       8.106  -0.473   0.559  1.00  0.00    -0.328 N 
HETATM   20  C3  UNL     1       8.682   0.731   0.131  1.00  0.00     0.362 C 
HETATM   21  C26 UNL     1       8.414  -1.731  -0.040  1.00  0.00     0.129 C 
HETATM   22  O2  UNL     1       9.507   0.765  -0.819  1.00  0.00    -0.238 OA
HETATM   23  C25 UNL     1       7.179  -2.291  -0.691  1.00  0.00     0.034 C 
BRANCH  20  24
HETATM   24  O1  UNL     1       8.358   1.921   0.742  1.00  0.00    -0.304 OA
BRANCH  24  25
HETATM   25  C2  UNL     1       8.847   3.187   0.424  1.00  0.00     0.176 C 
HETATM   26  C1  UNL     1      10.330   3.334   0.545  1.00  0.00     0.034 C 
ENDBRANCH  24  25
ENDBRANCH  20  24
ENDBRANCH  12  16
ENDBRANCH   1   8
BRANCH   4  27
HETATM   27  C12 UNL     1      -3.591  -1.263   1.143  1.00  0.00     0.135 C 
HETATM   28  S1  UNL     1      -3.041  -2.611   1.980  1.00  0.00    -0.057 SA
BRANCH  27  29
HETATM   29  N5  UNL     1      -4.864  -0.787   1.360  1.00  0.00    -0.343 N 
ATOM     30  H5  UNL     1      -5.352  -1.335   2.068  1.00  0.00     0.167 HD
BRANCH  29  31
HETATM   31  C13 UNL     1      -5.677   0.261   0.863  1.00  0.00     0.087 C 
BRANCH  31  32
HETATM   32  C14 UNL     1      -6.283   0.054  -0.503  1.00  0.00     0.064 C 
BRANCH  32  33
HETATM   33  C15 UNL     1      -7.209  -1.124  -0.542  1.00  0.00     0.006 C 
BRANCH  33  34
HETATM   34  C16 UNL     1      -8.438  -1.145   0.248  1.00  0.00     0.002 C 
BRANCH  34  35
HETATM   35  C17 UNL     1      -9.545  -0.230  -0.073  1.00  0.00     0.027 C 
BRANCH  35  36
HETATM   36  C18 UNL     1      -9.418   1.226   0.006  1.00  0.00     0.231 C 
BRANCH  36  37
HETATM   37  N6  UNL     1      -9.103   1.789   1.292  1.00  0.00    -0.079 N 
HETATM   38  C19 UNL     1     -10.202   1.635   2.192  1.00  0.00     0.266 C 
ATOM     39  H62 UNL     1      -8.242   1.399   1.675  1.00  0.00     0.276 HD
ATOM     40  H61 UNL     1      -8.809   2.763   1.217  1.00  0.00     0.276 HD
ENDBRANCH  36  37
ENDBRANCH  35  36
ENDBRANCH  34  35
ENDBRANCH  33  34
ENDBRANCH  32  33
ENDBRANCH  31  32
BRANCH  31  41
HETATM   41  C20 UNL     1      -5.189   1.613   1.154  1.00  0.00     0.222 C 
HETATM   42  O4  UNL     1      -4.193   1.797   1.910  1.00  0.00    -0.643 OA
HETATM   43  O5  UNL     1      -5.761   2.768   0.641  1.00  0.00    -0.643 OA
ENDBRANCH  31  41
ENDBRANCH  29  31
ENDBRANCH  27  29
ENDBRANCH   4  27
TORSDOF 14
