REMARK  6 active torsions:
REMARK  status: ('A' for Active; 'I' for Inactive)
REMARK    1  A    between atoms: C2_2  and  C3_3 
REMARK    2  A    between atoms: C5_6  and  O1_7 
REMARK    3  A    between atoms: C8_11  and  N1_12 
REMARK    4  A    between atoms: C11_19  and  N4_20 
REMARK    5  A    between atoms: C14_28  and  O3_29 
REMARK    6  A    between atoms: C14_28  and  C15_31 
ROOT
HETATM    1  N1  UNL     1      -0.494   0.159   0.297  1.00  0.00    -0.284 N 
HETATM    2  C9  UNL     1      -0.698  -0.529   1.545  1.00  0.00     0.143 A 
HETATM    3  N2  UNL     1       0.058  -1.566   1.941  1.00  0.00    -0.336 N 
ATOM      4  H2  UNL     1       0.805  -1.887   1.325  1.00  0.00     0.168 HD
HETATM    5  C10 UNL     1      -0.125  -2.200   3.112  1.00  0.00     0.183 A 
HETATM    6  N3  UNL     1      -1.081  -1.818   3.940  1.00  0.00    -0.337 N 
ATOM      7  H3  UNL     1      -1.215  -2.304   4.827  1.00  0.00     0.168 HD
HETATM    8  C11 UNL     1      -1.876  -0.788   3.609  1.00  0.00     0.131 A 
HETATM    9  C12 UNL     1      -1.704  -0.128   2.418  1.00  0.00     0.124 A 
HETATM   10  N5  UNL     1      -2.516   0.973   1.987  1.00  0.00    -0.317 N 
ATOM     11  H5  UNL     1      -3.263   1.293   2.604  1.00  0.00     0.169 HD
HETATM   12  C13 UNL     1      -2.335   1.643   0.745  1.00  0.00     0.279 C 
HETATM   13  O2  UNL     1      -2.849   2.772   0.582  1.00  0.00    -0.268 OA
HETATM   14  C14 UNL     1      -1.532   0.951  -0.304  1.00  0.00     0.227 C 
ENDROOT
BRANCH   1  15
HETATM   15  C8  UNL     1       0.788   0.030  -0.277  1.00  0.00     0.120 A 
HETATM   16  C7  UNL     1       1.086  -0.982  -1.146  1.00  0.00     0.182 A 
HETATM   17  C5  UNL     1       2.369  -1.067  -1.705  1.00  0.00     0.148 A 
HETATM   18  F2  UNL     1       0.241  -1.960  -1.531  1.00  0.00    -0.200 F 
HETATM   19  C4  UNL     1       3.347  -0.145  -1.396  1.00  0.00     0.162 A 
HETATM   20  C3  UNL     1       3.049   0.899  -0.503  1.00  0.00     0.024 A 
HETATM   21  F1  UNL     1       4.587  -0.250  -1.953  1.00  0.00    -0.202 F 
HETATM   22  C19 UNL     1       1.785   0.966   0.035  1.00  0.00     0.155 A 
HETATM   23  F3  UNL     1       1.539   1.984   0.889  1.00  0.00    -0.203 F 
BRANCH  17  24
HETATM   24  O1  UNL     1       2.705  -2.090  -2.597  1.00  0.00    -0.350 OA
HETATM   25  C6  UNL     1       3.239  -3.325  -2.167  1.00  0.00     0.210 C 
ENDBRANCH  17  24
BRANCH  20  26
HETATM   26  C2  UNL     1       4.139   1.818  -0.239  1.00  0.00     0.040 C 
HETATM   27  C1  UNL     1       3.920   2.944   0.685  1.00  0.00     0.010 C 
ENDBRANCH  20  26
ENDBRANCH   1  15
BRANCH  14  28
HETATM   28  O3  UNL     1      -0.883   2.006  -1.000  1.00  0.00    -0.362 OA
ATOM     29  H3  UNL     1      -1.569   2.529  -1.397  1.00  0.00     0.213 HD
ENDBRANCH  14  28
BRANCH  14  30
HETATM   30  C15 UNL     1      -2.349   0.239  -1.299  1.00  0.00     0.052 C 
HETATM   31  C16 UNL     1      -3.170  -0.940  -0.935  1.00  0.00     0.010 C 
HETATM   32  C17 UNL     1      -4.280  -0.452  -1.881  1.00  0.00     0.001 C 
HETATM   33  C18 UNL     1      -3.609   0.931  -1.768  1.00  0.00     0.010 C 
ENDBRANCH  14  30
BRANCH   8  34
HETATM   34  N4  UNL     1      -2.786  -0.440   4.419  1.00  0.00    -0.383 N 
ATOM     35  H42 UNL     1      -2.914  -0.931   5.304  1.00  0.00     0.157 HD
ATOM     36  H41 UNL     1      -3.390   0.343   4.168  1.00  0.00     0.157 HD
ENDBRANCH   8  34
TORSDOF 6
