REMARK  8 active torsions:
REMARK  status: ('A' for Active; 'I' for Inactive)
REMARK    1  A    between atoms: O1_1  and  C1_3 
REMARK    2  A    between atoms: C1_3  and  C2_4 
REMARK    3  A    between atoms: C2_4  and  C3_5 
REMARK    4  A    between atoms: C5_7  and  O2_8 
REMARK    5  A    between atoms: O2_8  and  C6_9 
REMARK    6  A    between atoms: C14_21  and  O4_22 
REMARK    7  A    between atoms: C15_24  and  O5_25 
REMARK    8  A    between atoms: C16_27  and  O6_28 
ROOT
HETATM    1  C3  UNL     1      -2.047   0.165   0.068  1.00  0.00     0.021 C 
HETATM    2  C4  UNL     1      -0.603   0.023   0.543  1.00  0.00     0.042 C 
HETATM    3  C5  UNL     1       0.107  -0.999  -0.306  1.00  0.00     0.161 C 
HETATM    4  C14 UNL     1      -0.630  -2.290  -0.354  1.00  0.00     0.178 C 
HETATM    5  C15 UNL     1      -2.067  -2.102  -0.828  1.00  0.00     0.178 C 
HETATM    6  C16 UNL     1      -2.720  -1.206   0.202  1.00  0.00     0.153 C 
ENDROOT
BRANCH   3   7
HETATM    7  O2  UNL     1       1.455  -1.175  -0.119  1.00  0.00    -0.340 OA
BRANCH   7   8
HETATM    8  C6  UNL     1       2.464  -0.331  -0.500  1.00  0.00     0.107 A 
HETATM    9  C7  UNL     1       2.808  -0.229  -1.831  1.00  0.00     0.090 A 
HETATM   10 CL1  UNL     1       2.021  -1.124  -3.122  1.00  0.00    -0.080 Cl
HETATM   11  C8  UNL     1       3.833   0.623  -2.256  1.00  0.00     0.061 A 
HETATM   12 CL2  UNL     1       4.279   0.764  -3.941  1.00  0.00    -0.082 Cl
HETATM   13  C9  UNL     1       4.514   1.375  -1.337  1.00  0.00     0.064 A 
HETATM   14  C10 UNL     1       4.181   1.278  -0.003  1.00  0.00     0.091 A 
HETATM   15  O3  UNL     1       4.703   1.889   1.045  1.00  0.00    -0.320 OA
HETATM   16  C13 UNL     1       3.152   0.421   0.418  1.00  0.00     0.057 A 
HETATM   17  C11 UNL     1       4.121   1.513   2.133  1.00  0.00     0.167 A 
HETATM   18  C12 UNL     1       3.150   0.595   1.782  1.00  0.00     0.072 A 
HETATM   19 CL3  UNL     1       2.176  -0.254   2.952  1.00  0.00    -0.081 Cl
ENDBRANCH   7   8
ENDBRANCH   3   7
BRANCH   4  20
HETATM   20  O4  UNL     1       0.034  -3.256  -1.070  1.00  0.00    -0.390 OA
ATOM     21  H4  UNL     1      -0.437  -4.081  -1.101  1.00  0.00     0.210 HD
ENDBRANCH   4  20
BRANCH   1  22
HETATM   22  C2  UNL     1      -2.792   1.181   0.850  1.00  0.00     0.033 C 
BRANCH  22  23
HETATM   23  C1  UNL     1      -2.161   2.536   0.741  1.00  0.00     0.164 C 
BRANCH  23  24
HETATM   24  O1  UNL     1      -2.939   3.423   1.506  1.00  0.00    -0.401 OA
ATOM     25  H1  UNL     1      -2.539   4.282   1.437  1.00  0.00     0.209 HD
ENDBRANCH  23  24
ENDBRANCH  22  23
ENDBRANCH   1  22
BRANCH   5  26
HETATM   26  O5  UNL     1      -2.642  -3.369  -0.845  1.00  0.00    -0.390 OA
ATOM     27  H5  UNL     1      -3.537  -3.252  -1.140  1.00  0.00     0.210 HD
ENDBRANCH   5  26
BRANCH   6  28
HETATM   28  O6  UNL     1      -4.087  -1.106   0.042  1.00  0.00    -0.393 OA
ATOM     29  H6  UNL     1      -4.504  -1.956   0.125  1.00  0.00     0.210 HD
ENDBRANCH   6  28
TORSDOF 8
