REMARK  6 active torsions:
REMARK  status: ('A' for Active; 'I' for Inactive)
REMARK    1  A    between atoms: C3_3  and  N1_5 
REMARK    2  A    between atoms: N1_5  and  C5_6 
REMARK    3  A    between atoms: C6_9  and  N3_10 
REMARK    4  A    between atoms: C10_16  and  S1_17 
REMARK    5  A    between atoms: S1_17  and  C11_18 
REMARK    6  A    between atoms: C17_26  and  N6_27 
ROOT
HETATM    1  C1  UNL     1      -5.263  -3.653  -1.027  1.00  0.00     0.015 C 
HETATM    2  C2  UNL     1      -4.932  -2.938  -0.116  1.00  0.00    -0.078 C 
HETATM    3  C3  UNL     1      -4.498  -2.054   1.011  1.00  0.00     0.239 C 
HETATM    4  C4  UNL     1      -5.834  -1.666   1.698  1.00  0.00     0.061 C 
ENDROOT
BRANCH   3   5
HETATM    5  N1  UNL     1      -3.772  -0.989   0.654  1.00  0.00    -0.410 NA
BRANCH   5   6
HETATM    6  C5  UNL     1      -2.868  -0.257   0.343  1.00  0.00     0.218 A 
HETATM    7  N2  UNL     1      -3.039   1.078   0.070  1.00  0.00    -0.162 N 
HETATM    8  C6  UNL     1      -2.058   1.905  -0.275  1.00  0.00     0.682 A 
ATOM      9  H2  UNL     1      -3.982   1.460   0.137  1.00  0.00     0.187 HD
HETATM   10  N4  UNL     1      -0.796   1.464  -0.379  1.00  0.00    -0.186 N 
HETATM   11  C9  UNL     1      -0.522   0.167  -0.130  1.00  0.00     0.115 A 
ATOM     12  H4  UNL     1      -0.048   2.105  -0.645  1.00  0.00     0.184 HD
HETATM   13  C10 UNL     1       0.783  -0.310  -0.233  1.00  0.00     0.116 A 
HETATM   14  C18 UNL     1      -1.533  -0.695   0.228  1.00  0.00     0.137 A 
HETATM   15  N5  UNL     1       1.029  -1.606   0.020  1.00  0.00    -0.184 N 
HETATM   16  C17 UNL     1       0.056  -2.464   0.371  1.00  0.00     0.677 A 
ATOM     17  H5  UNL     1       1.986  -1.950  -0.057  1.00  0.00     0.185 HD
HETATM   18  N7  UNL     1      -1.199  -1.962   0.460  1.00  0.00    -0.185 N 
ATOM     19  H7  UNL     1      -1.945  -2.605   0.725  1.00  0.00     0.184 HD
BRANCH   8  20
HETATM   20  N3  UNL     1      -2.380   3.273  -0.532  1.00  0.00    -0.226 N 
HETATM   21  C7  UNL     1      -2.746   3.742  -1.850  1.00  0.00     0.168 C 
HETATM   22  C8  UNL     1      -2.327   4.191   0.589  1.00  0.00     0.168 C 
ENDBRANCH   8  20
BRANCH  13  23
HETATM   23  S1  UNL     1       2.067   0.841  -0.699  1.00  0.00    -0.104 SA
BRANCH  23  24
HETATM   24  C11 UNL     1       3.645  -0.061  -0.750  1.00  0.00     0.054 C 
HETATM   25  C12 UNL     1       4.723   0.922  -1.146  1.00  0.00     0.015 C 
HETATM   26  C13 UNL     1       6.074   0.242  -1.255  1.00  0.00     0.001 C 
HETATM   27  C14 UNL     1       6.391  -0.563  -0.034  1.00  0.00     0.000 C 
HETATM   28  C15 UNL     1       5.346  -0.427   1.051  1.00  0.00     0.001 C 
HETATM   29  C16 UNL     1       3.958  -0.726   0.561  1.00  0.00     0.015 C 
ENDBRANCH  23  24
ENDBRANCH  13  23
BRANCH  16  30
HETATM   30  N6  UNL     1       0.282  -3.728   0.619  1.00  0.00    -0.234 N 
ATOM     31  H62 UNL     1       1.227  -4.106   0.552  1.00  0.00     0.174 HD
ATOM     32  H61 UNL     1      -0.456  -4.379   0.885  1.00  0.00     0.174 HD
ENDBRANCH  16  30
ENDBRANCH   5   6
ENDBRANCH   3   5
TORSDOF 6
