REMARK  9 active torsions:
REMARK  status: ('A' for Active; 'I' for Inactive)
REMARK    1  A    between atoms: C2_2  and  C3_3 
REMARK    2  A    between atoms: C6_6  and  C7_7 
REMARK    3  A    between atoms: C6_6  and  C16_29 
REMARK    4  A    between atoms: C7_7  and  S1_8 
REMARK    5  A    between atoms: S1_8  and  C8_11 
REMARK    6  A    between atoms: C8_11  and  C9_12 
REMARK    7  A    between atoms: C9_12  and  O3_13 
REMARK    8  A    between atoms: N1_15  and  O4_17 
REMARK       I    between atoms: N2_21  and  C12_22 
REMARK       I    between atoms: C12_22  and  N3_24 
REMARK       I    between atoms: C16_29  and  N4_31 
REMARK    9  A    between atoms: N4_31  and  C17_33 
ROOT
HETATM    1  S1  UNL     1       0.151   0.512  -1.043  1.00  0.00     0.162 S 
HETATM    2  O1  UNL     1       0.344  -0.092  -2.426  1.00  0.00    -0.227 OA
HETATM    3  O2  UNL     1      -0.047   1.987  -1.125  1.00  0.00    -0.227 OA
ENDROOT
BRANCH   1   4
HETATM    4  C7  UNL     1      -1.135  -0.310  -0.200  1.00  0.00     0.161 C 
BRANCH   4   5
HETATM    5  C6  UNL     1      -2.506  -0.167  -0.788  1.00  0.00     0.057 C 
HETATM    6  C5  UNL     1      -2.656  -0.673  -2.187  1.00  0.00     0.048 C 
HETATM    7  C4  UNL     1      -2.517  -2.142  -2.280  1.00  0.00    -0.018 C 
HETATM    8  C3  UNL     1      -3.300  -2.851  -1.463  1.00  0.00    -0.063 C 
HETATM    9  C21 UNL     1      -4.183  -2.054  -0.592  1.00  0.00     0.039 C 
HETATM   10  C20 UNL     1      -3.444  -0.942   0.114  1.00  0.00     0.025 C 
BRANCH   8  11
HETATM   11  C2  UNL     1      -3.273  -4.301  -1.443  1.00  0.00    -0.004 C 
HETATM   12  C1  UNL     1      -4.033  -5.004  -0.653  1.00  0.00     0.012 C 
ENDBRANCH   8  11
BRANCH   5  13
HETATM   13  C16 UNL     1      -2.981   1.255  -0.765  1.00  0.00     0.228 C 
HETATM   14  O6  UNL     1      -3.384   1.787  -1.838  1.00  0.00    -0.273 OA
HETATM   15  N4  UNL     1      -2.992   2.018   0.420  1.00  0.00    -0.356 N 
ATOM     16  H4  UNL     1      -2.669   1.605   1.295  1.00  0.00     0.162 HD
BRANCH  15  17
HETATM   17  C17 UNL     1      -3.460   3.383   0.395  1.00  0.00     0.076 C 
HETATM   18  C18 UNL     1      -4.615   3.596   1.357  1.00  0.00     0.032 C 
HETATM   19  C19 UNL     1      -2.341   4.312   0.863  1.00  0.00     0.032 C 
ENDBRANCH  15  17
ENDBRANCH   5  13
ENDBRANCH   4   5
ENDBRANCH   1   4
BRANCH   1  20
HETATM   20  C8  UNL     1       1.704   0.238  -0.203  1.00  0.00     0.133 C 
HETATM   21  C10 UNL     1       2.824   0.822  -1.031  1.00  0.00     0.054 C 
HETATM   22  C11 UNL     1       4.172   0.550  -0.487  1.00  0.00     0.129 C 
HETATM   23  N2  UNL     1       4.307  -0.617   0.338  1.00  0.00    -0.334 N 
HETATM   24  C12 UNL     1       5.596  -0.956   0.800  1.00  0.00     0.317 C 
HETATM   25  C14 UNL     1       3.196  -1.463   0.722  1.00  0.00     0.129 C 
HETATM   26  O5  UNL     1       5.755  -1.967   1.521  1.00  0.00    -0.247 OA
HETATM   27  N3  UNL     1       6.730  -0.186   0.472  1.00  0.00    -0.347 N 
HETATM   28  C13 UNL     1       8.054  -0.527   0.940  1.00  0.00     0.151 C 
ATOM     29  H3  UNL     1       6.612   0.640  -0.115  1.00  0.00     0.163 HD
HETATM   30  C15 UNL     1       1.991  -1.270  -0.130  1.00  0.00     0.054 C 
BRANCH  20  31
HETATM   31  C9  UNL     1       1.705   0.732   1.179  1.00  0.00     0.159 C 
HETATM   32  N1  UNL     1       2.523   1.691   1.521  1.00  0.00    -0.250 N 
ATOM     33  H1  UNL     1       3.149   2.080   0.816  1.00  0.00     0.196 HD
BRANCH  31  34
HETATM   34  O3  UNL     1       0.882   0.237   2.153  1.00  0.00    -0.347 OA
ATOM     35  H3  UNL     1       0.883   0.557   3.048  1.00  0.00     0.219 HD
ENDBRANCH  31  34
BRANCH  32  36
HETATM   36  O4  UNL     1       2.568   2.192   2.797  1.00  0.00    -0.288 OA
ATOM     37  H4  UNL     1       3.163   2.890   3.046  1.00  0.00     0.244 HD
ENDBRANCH  32  36
ENDBRANCH  20  31
ENDBRANCH   1  20
TORSDOF 9
