REMARK  8 active torsions:
REMARK  status: ('A' for Active; 'I' for Inactive)
REMARK    1  A    between atoms: C2_2  and  O1_3 
REMARK    2  A    between atoms: O1_3  and  C3_4 
REMARK    3  A    between atoms: C3_4  and  C4_6 
REMARK    4  A    between atoms: C4_6  and  C5_7 
REMARK    5  A    between atoms: C5_7  and  N1_8 
REMARK       I    between atoms: N1_8  and  C6_10 
REMARK    6  A    between atoms: C6_10  and  O4_12 
REMARK    7  A    between atoms: O4_12  and  C7_13 
REMARK    8  A    between atoms: C17_24  and  N2_25 
REMARK       I    between atoms: N2_25  and  C18_27 
ROOT
HETATM    1  C7  UNL     1      -1.005   0.200  -0.673  1.00  0.00     0.103 C 
HETATM    2  C8  UNL     1      -1.322  -1.103  -1.328  1.00  0.00     0.073 C 
HETATM    3  C9  UNL     1      -2.746  -1.486  -1.456  1.00  0.00     0.124 C 
HETATM    4  C10 UNL     1      -3.600  -0.332  -1.771  1.00  0.00     0.037 C 
HETATM    5  C11 UNL     1      -3.293   0.917  -1.014  1.00  0.00    -0.001 C 
HETATM    6  C12 UNL     1      -3.615   0.892   0.421  1.00  0.00     0.012 C 
HETATM    7  C13 UNL     1      -2.677   0.087   1.267  1.00  0.00     0.017 C 
HETATM    8  C14 UNL     1      -3.336  -1.217   1.600  1.00  0.00     0.011 C 
HETATM    9  C15 UNL     1      -4.449  -0.977   2.636  1.00  0.00     0.012 C 
HETATM   10  C16 UNL     1      -4.010  -1.919   0.466  1.00  0.00     0.172 C 
HETATM   11  O5  UNL     1      -3.098  -2.303  -0.435  1.00  0.00    -0.385 OA
HETATM   12  C17 UNL     1      -1.279   0.059   0.865  1.00  0.00     0.128 C 
HETATM   13  C19 UNL     1      -1.825   1.308  -1.160  1.00  0.00    -0.010 C 
HETATM   14  C20 UNL     1      -1.702   1.717  -2.595  1.00  0.00     0.018 C 
HETATM   15  C21 UNL     1      -1.618   2.612  -0.401  1.00  0.00     0.018 C 
ENDROOT
BRANCH   1  16
HETATM   16  O4  UNL     1       0.332   0.504  -0.625  1.00  0.00    -0.290 OA
BRANCH  16  17
HETATM   17  C6  UNL     1       1.325   0.638  -1.494  1.00  0.00     0.361 C 
HETATM   18  N1  UNL     1       2.640   0.992  -1.081  1.00  0.00    -0.336 N 
ATOM     19  H1  UNL     1       2.830   1.148  -0.091  1.00  0.00     0.164 HD
HETATM   20  O3  UNL     1       1.030   0.437  -2.664  1.00  0.00    -0.238 OA
BRANCH  18  21
HETATM   21  C5  UNL     1       3.712   1.134  -2.043  1.00  0.00     0.134 C 
BRANCH  21  22
HETATM   22  C4  UNL     1       4.996   1.513  -1.346  1.00  0.00     0.131 C 
BRANCH  22  23
HETATM   23  C3  UNL     1       5.376   0.463  -0.362  1.00  0.00     0.260 C 
HETATM   24  O2  UNL     1       4.662  -0.561  -0.205  1.00  0.00    -0.265 OA
BRANCH  23  25
HETATM   25  O1  UNL     1       6.513   0.567   0.409  1.00  0.00    -0.322 OA
BRANCH  25  26
HETATM   26  C2  UNL     1       6.922  -0.390   1.353  1.00  0.00     0.174 C 
HETATM   27  C1  UNL     1       7.161  -1.735   0.723  1.00  0.00     0.034 C 
ENDBRANCH  25  26
ENDBRANCH  23  25
ENDBRANCH  22  23
ENDBRANCH  21  22
ENDBRANCH  18  21
ENDBRANCH  16  17
ENDBRANCH   1  16
BRANCH  12  28
HETATM   28  N2  UNL     1      -0.501  -1.011   1.413  1.00  0.00    -0.327 N 
HETATM   29  C18 UNL     1       0.584  -0.794   2.264  1.00  0.00     0.283 C 
HETATM   30  O6  UNL     1       0.943   0.360   2.599  1.00  0.00    -0.630 OA
HETATM   31  O7  UNL     1       1.314  -1.848   2.775  1.00  0.00    -0.630 OA
ATOM     32  H2  UNL     1      -0.750  -1.970   1.172  1.00  0.00     0.166 HD
ENDBRANCH  12  28
TORSDOF 8
