REMARK  7 active torsions:
REMARK  status: ('A' for Active; 'I' for Inactive)
REMARK    1  A    between atoms: N1_1  and  C1_5 
REMARK    2  A    between atoms: C1_5  and  C2_6 
REMARK    3  A    between atoms: C2_6  and  C3_7 
REMARK    4  A    between atoms: C3_7  and  C4_8 
REMARK    5  A    between atoms: C4_8  and  C5_9 
REMARK    6  A    between atoms: C5_9  and  C6_10 
REMARK    7  A    between atoms: C6_10  and  C7_11 
ROOT
HETATM    1  C7  UNL     1       1.357   0.746   1.009  1.00  0.00    -0.047 A 
HETATM    2  C8  UNL     1       1.358   1.979   0.378  1.00  0.00     0.008 A 
HETATM    3  C9  UNL     1       2.359   2.337  -0.527  1.00  0.00     0.001 A 
HETATM    4  C10 UNL     1       3.386   1.476  -0.829  1.00  0.00     0.012 A 
HETATM    5  C11 UNL     1       3.392   0.246  -0.205  1.00  0.00    -0.025 A 
HETATM    6  C12 UNL     1       4.431  -0.605  -0.514  1.00  0.00     0.012 A 
HETATM    7  C13 UNL     1       4.505  -1.864   0.083  1.00  0.00     0.001 A 
HETATM    8  C14 UNL     1       3.507  -2.205   0.977  1.00  0.00     0.001 A 
HETATM    9  C15 UNL     1       2.463  -1.333   1.280  1.00  0.00     0.013 A 
HETATM   10  C16 UNL     1       2.391  -0.106   0.699  1.00  0.00    -0.020 A 
ENDROOT
BRANCH   1  11
HETATM   11  C6  UNL     1       0.274   0.401   1.948  1.00  0.00     0.039 C 
BRANCH  11  12
HETATM   12  C5  UNL     1      -0.775  -0.488   1.393  1.00  0.00     0.005 C 
BRANCH  12  13
HETATM   13  C4  UNL     1      -1.500   0.093   0.197  1.00  0.00     0.000 C 
BRANCH  13  14
HETATM   14  C3  UNL     1      -2.511  -0.964  -0.211  1.00  0.00     0.002 C 
BRANCH  14  15
HETATM   15  C2  UNL     1      -3.344  -0.587  -1.392  1.00  0.00     0.027 C 
BRANCH  15  16
HETATM   16  C1  UNL     1      -4.146   0.671  -1.130  1.00  0.00     0.229 C 
BRANCH  16  17
HETATM   17  N1  UNL     1      -5.040   0.478   0.009  1.00  0.00    -0.079 N 
ATOM     18  H13 UNL     1      -5.641  -0.337  -0.114  1.00  0.00     0.274 HD
ATOM     19  H12 UNL     1      -4.535   0.170   0.840  1.00  0.00     0.274 HD
ATOM     20  H11 UNL     1      -5.580   1.325   0.185  1.00  0.00     0.274 HD
ENDBRANCH  16  17
ENDBRANCH  15  16
ENDBRANCH  14  15
ENDBRANCH  13  14
ENDBRANCH  12  13
ENDBRANCH  11  12
ENDBRANCH   1  11
TORSDOF 7
