REMARK  8 active torsions:
REMARK  status: ('A' for Active; 'I' for Inactive)
REMARK    1  A    between atoms: O1_3  and  C3_4 
REMARK    2  A    between atoms: C3_4  and  C4_6 
REMARK    3  A    between atoms: C6_8  and  N1_9 
REMARK    4  A    between atoms: N1_9  and  C7_12 
REMARK    5  A    between atoms: N2_19  and  C14_20 
REMARK    6  A    between atoms: C14_20  and  O3_21 
REMARK    7  A    between atoms: C14_20  and  N3_23 
REMARK    8  A    between atoms: C17_26  and  O4_27 
ROOT
HETATM    1  C1  UNL     1      -1.747   4.573  -2.128  1.00  0.00     0.045 C 
HETATM    2  C2  UNL     1      -1.743   3.484  -1.606  1.00  0.00     0.052 C 
HETATM    3  O1  UNL     1      -1.744   2.258  -1.041  1.00  0.00    -0.226 OA
ENDROOT
BRANCH   3   4
HETATM    4  C3  UNL     1      -0.704   1.730  -0.291  1.00  0.00     0.282 C 
HETATM    5  O2  UNL     1       0.284   2.507  -0.166  1.00  0.00    -0.263 OA
BRANCH   4   6
HETATM    6  C4  UNL     1      -0.642   0.429   0.338  1.00  0.00     0.072 C 
HETATM    7  C5  UNL     1      -1.622   0.118   1.370  1.00  0.00     0.055 C 
HETATM    8  C6  UNL     1      -2.793  -0.524   0.613  1.00  0.00     0.188 C 
HETATM    9  C11 UNL     1      -2.308  -0.675  -0.837  1.00  0.00     0.040 C 
HETATM   10  C12 UNL     1      -0.888  -0.738  -0.640  1.00  0.00     0.026 C 
HETATM   11  C13 UNL     1       0.136  -0.490  -1.609  1.00  0.00     0.132 C 
HETATM   12  N2  UNL     1       1.285  -0.174  -0.714  1.00  0.00    -0.346 N 
HETATM   13  C20 UNL     1       0.802   0.089   0.617  1.00  0.00     0.146 C 
BRANCH   8  14
HETATM   14  N1  UNL     1      -3.994   0.214   0.742  1.00  0.00    -0.067 N 
ATOM     15  H12 UNL     1      -4.320   0.251   1.708  1.00  0.00     0.278 HD
ATOM     16  H11 UNL     1      -3.848   1.213   0.597  1.00  0.00     0.278 HD
BRANCH  14  17
HETATM   17  C7  UNL     1      -4.994  -0.324  -0.149  1.00  0.00     0.186 C 
HETATM   18  C8  UNL     1      -5.419  -1.741   0.129  1.00  0.00     0.033 C 
HETATM   19  C9  UNL     1      -6.640  -1.183   0.855  1.00  0.00     0.004 C 
HETATM   20  C10 UNL     1      -6.407   0.125   0.140  1.00  0.00     0.033 C 
ENDBRANCH  14  17
ENDBRANCH   8  14
BRANCH  12  21
HETATM   21  C14 UNL     1       2.599  -0.174  -1.245  1.00  0.00     0.217 C 
BRANCH  21  22
HETATM   22  O3  UNL     1       2.758  -0.433  -2.512  1.00  0.00    -0.333 OA
ATOM     23  H3  UNL     1       3.639  -0.433  -2.868  1.00  0.00     0.220 HD
ENDBRANCH  21  22
BRANCH  21  24
HETATM   24  N3  UNL     1       3.800   0.077  -0.568  1.00  0.00    -0.347 N 
HETATM   25  C15 UNL     1       5.064   0.041  -1.305  1.00  0.00     0.129 C 
HETATM   26  C16 UNL     1       5.876  -1.085  -0.665  1.00  0.00     0.051 C 
HETATM   27  C17 UNL     1       6.088  -0.842   0.792  1.00  0.00     0.121 C 
HETATM   28  C18 UNL     1       5.322   0.335   1.325  1.00  0.00     0.051 C 
HETATM   29  C19 UNL     1       3.873   0.368   0.838  1.00  0.00     0.129 C 
BRANCH  27  30
HETATM   30  O4  UNL     1       7.449  -0.553   0.995  1.00  0.00    -0.395 OA
ATOM     31  H4  UNL     1       7.584  -0.398   1.923  1.00  0.00     0.210 HD
ENDBRANCH  27  30
ENDBRANCH  21  24
ENDBRANCH  12  21
ENDBRANCH   4   6
ENDBRANCH   3   4
TORSDOF 8
