REMARK  6 active torsions:
REMARK  status: ('A' for Active; 'I' for Inactive)
REMARK    1  A    between atoms: C5_6  and  N1_7 
REMARK    2  A    between atoms: C8_10  and  C9_11 
REMARK    3  A    between atoms: C8_10  and  S1_18 
REMARK    4  A    between atoms: C9_11  and  O2_12 
REMARK    5  A    between atoms: N2_14  and  O3_16 
REMARK    6  A    between atoms: S1_18  and  C10_20 
ROOT
HETATM    1  N1  UNL     1       1.483   0.100   0.104  1.00  0.00    -0.378 N 
HETATM    2  C6  UNL     1       1.345  -0.774  -1.053  1.00  0.00     0.125 C 
HETATM    3  C7  UNL     1      -0.138  -0.820  -1.351  1.00  0.00     0.052 C 
HETATM    4  C8  UNL     1      -0.772  -1.730  -0.326  1.00  0.00     0.111 C 
HETATM    5  C16 UNL     1      -0.127  -1.452   1.008  1.00  0.00     0.052 C 
HETATM    6  C17 UNL     1       0.462  -0.063   1.122  1.00  0.00     0.125 C 
ENDROOT
BRANCH   4   7
HETATM    7  C9  UNL     1      -0.528  -3.122  -0.747  1.00  0.00     0.157 C 
HETATM    8  N2  UNL     1       0.088  -3.373  -1.832  1.00  0.00    -0.250 N 
ATOM      9  H2  UNL     1       0.400  -2.576  -2.387  1.00  0.00     0.196 HD
BRANCH   7  10
HETATM   10  O2  UNL     1      -0.974  -4.154   0.046  1.00  0.00    -0.347 OA
ATOM     11  H2  UNL     1      -0.817  -5.051  -0.225  1.00  0.00     0.219 HD
ENDBRANCH   7  10
BRANCH   8  12
HETATM   12  O3  UNL     1       0.365  -4.611  -2.313  1.00  0.00    -0.288 OA
ATOM     13  H3  UNL     1       0.825  -4.798  -3.123  1.00  0.00     0.244 HD
ENDBRANCH   8  12
ENDBRANCH   4   7
BRANCH   4  14
HETATM   14  S1  UNL     1      -2.551  -1.531  -0.275  1.00  0.00     0.067 S 
HETATM   15  O4  UNL     1      -3.142  -2.638   0.570  1.00  0.00    -0.251 OA
BRANCH  14  16
HETATM   16  C10 UNL     1      -3.110   0.058   0.126  1.00  0.00     0.032 A 
HETATM   17  C11 UNL     1      -3.300   1.004  -0.853  1.00  0.00     0.021 A 
HETATM   18  C12 UNL     1      -3.754   2.288  -0.552  1.00  0.00     0.001 A 
HETATM   19  C13 UNL     1      -4.020   2.631   0.746  1.00  0.00     0.000 A 
HETATM   20  C14 UNL     1      -3.835   1.699   1.733  1.00  0.00     0.001 A 
HETATM   21  C15 UNL     1      -3.380   0.410   1.427  1.00  0.00     0.021 A 
ENDBRANCH  14  16
ENDBRANCH   4  14
BRANCH   1  22
HETATM   22  C5  UNL     1       2.545   1.049   0.228  1.00  0.00     0.072 C 
HETATM   23  C1  UNL     1       3.971   0.712   0.345  1.00  0.00     0.175 C 
HETATM   24  O1  UNL     1       4.376  -0.471   0.562  1.00  0.00    -0.291 OA
HETATM   25  C2  UNL     1       4.797   1.916   0.177  1.00  0.00     0.089 C 
HETATM   26  C3  UNL     1       3.782   3.015   0.398  1.00  0.00     0.037 C 
HETATM   27  C4  UNL     1       2.460   2.367   0.261  1.00  0.00     0.007 C 
ENDBRANCH   1  22
TORSDOF 6
