REMARK  9 active torsions:
REMARK  status: ('A' for Active; 'I' for Inactive)
REMARK    1  A    between atoms: O1_2  and  C2_3 
REMARK    2  A    between atoms: C4_7  and  N2_8 
REMARK    3  A    between atoms: N2_8  and  C5_10 
REMARK    4  A    between atoms: C7_14  and  C8_15 
REMARK    5  A    between atoms: C11_18  and  C12_19 
REMARK    6  A    between atoms: C13_27  and  C14_28 
REMARK    7  A    between atoms: C14_28  and  N6_30 
REMARK    8  A    between atoms: N6_30  and  C16_32 
REMARK    9  A    between atoms: C17_35  and  N8_36 
ROOT
HETATM    1  C16 UNL     1      -4.853   0.011  -0.642  1.00  0.00     0.143 A 
HETATM    2  N7  UNL     1      -4.837   1.194  -1.241  1.00  0.00    -0.175 N 
ATOM      3  H7  UNL     1      -3.982   1.505  -1.703  1.00  0.00     0.186 HD
HETATM    4  C17 UNL     1      -5.912   1.991  -1.256  1.00  0.00     0.679 A 
HETATM    5  N9  UNL     1      -7.051   1.606  -0.655  1.00  0.00    -0.164 N 
ATOM      6  H9  UNL     1      -7.870   2.214  -0.666  1.00  0.00     0.186 HD
HETATM    7  C18 UNL     1      -7.101   0.421  -0.044  1.00  0.00     0.227 A 
HETATM    8  F4  UNL     1      -8.244   0.037   0.556  1.00  0.00    -0.184 F 
HETATM    9  C19 UNL     1      -6.007  -0.406  -0.021  1.00  0.00     0.145 A 
HETATM   10  C20 UNL     1      -6.108  -1.681   0.649  1.00  0.00     0.108 C 
HETATM   11  N10 UNL     1      -6.209  -2.710   1.178  1.00  0.00    -0.191 NA
ENDROOT
BRANCH   1  12
HETATM   12  N6  UNL     1      -3.843  -0.735  -0.625  1.00  0.00    -0.365 N 
ATOM     13  H6  UNL     1      -3.998  -1.614  -0.131  1.00  0.00     0.162 HD
BRANCH  12  14
HETATM   14  C14 UNL     1      -2.546  -0.611  -1.144  1.00  0.00     0.133 C 
HETATM   15  C15 UNL     1      -2.396  -1.218  -2.530  1.00  0.00     0.039 C 
BRANCH  14  16
HETATM   16  C13 UNL     1      -1.418  -0.977  -0.256  1.00  0.00     0.085 A 
HETATM   17  C2  UNL     1      -1.534  -0.780   1.107  1.00  0.00     0.167 A 
HETATM   18  N1  UNL     1      -0.514  -1.087   1.938  1.00  0.00    -0.342 N 
HETATM   19  C3  UNL     1       0.634  -1.590   1.458  1.00  0.00     0.139 A 
ATOM     20  H1  UNL     1      -0.618  -0.935   2.941  1.00  0.00     0.167 HD
HETATM   21  C4  UNL     1       0.776  -1.796   0.091  1.00  0.00     0.137 A 
HETATM   22  N5  UNL     1      -0.257  -1.483  -0.724  1.00  0.00    -0.339 N 
ATOM     23  H5  UNL     1      -0.155  -1.635  -1.728  1.00  0.00     0.167 HD
BRANCH  17  24
HETATM   24  O1  UNL     1      -2.734  -0.257   1.585  1.00  0.00    -0.339 OA
HETATM   25  C1  UNL     1      -2.852  -0.059   2.979  1.00  0.00     0.211 C 
ENDBRANCH  17  24
BRANCH  21  26
HETATM   26  N2  UNL     1       2.004  -2.311  -0.392  1.00  0.00    -0.175 N 
ATOM     27  H2  UNL     1       2.053  -3.282  -0.701  1.00  0.00     0.186 HD
BRANCH  26  28
HETATM   28  C5  UNL     1       3.081  -1.560  -0.449  1.00  0.00     0.684 A 
HETATM   29  N3  UNL     1       4.238  -2.056  -0.906  1.00  0.00    -0.201 N 
HETATM   30  C6  UNL     1       5.377  -1.310  -0.984  1.00  0.00     0.116 A 
ATOM     31  H3  UNL     1       4.269  -3.030  -1.208  1.00  0.00     0.183 HD
HETATM   32  C7  UNL     1       5.356   0.006  -0.583  1.00  0.00    -0.006 A 
HETATM   33  C11 UNL     1       4.177   0.527  -0.113  1.00  0.00     0.140 A 
HETATM   34  N4  UNL     1       3.082  -0.283  -0.066  1.00  0.00    -0.186 N 
ATOM     35  H4  UNL     1       2.209   0.112   0.284  1.00  0.00     0.184 HD
BRANCH  32  36
HETATM   36  C8  UNL     1       6.584   0.843  -0.639  1.00  0.00     0.022 A 
HETATM   37  C9  UNL     1       7.798   0.361  -1.345  1.00  0.00     0.010 A 
HETATM   38  C10 UNL     1       7.801   0.355   0.123  1.00  0.00     0.010 A 
ENDBRANCH  32  36
BRANCH  33  39
HETATM   39  C12 UNL     1       4.033   1.934   0.327  1.00  0.00     0.433 C 
HETATM   40  F1  UNL     1       4.254   2.851  -0.695  1.00  0.00    -0.165 F 
HETATM   41  F2  UNL     1       2.741   2.168   0.760  1.00  0.00    -0.165 F 
HETATM   42  F3  UNL     1       4.846   2.206   1.417  1.00  0.00    -0.165 F 
ENDBRANCH  33  39
ENDBRANCH  26  28
ENDBRANCH  21  26
ENDBRANCH  14  16
ENDBRANCH  12  14
ENDBRANCH   1  12
BRANCH   4  43
HETATM   43  N8  UNL     1      -5.921   3.173  -1.843  1.00  0.00    -0.234 N 
ATOM     44  H82 UNL     1      -5.057   3.465  -2.299  1.00  0.00     0.174 HD
ATOM     45  H81 UNL     1      -6.740   3.780  -1.854  1.00  0.00     0.174 HD
ENDBRANCH   4  43
TORSDOF 9
