REMARK  7 active torsions:
REMARK  status: ('A' for Active; 'I' for Inactive)
REMARK    1  A    between atoms: C2_2  and  O1_3 
REMARK    2  A    between atoms: C2_2  and  C3_5 
REMARK    3  A    between atoms: C2_2  and  C11_25 
REMARK    4  A    between atoms: C3_5  and  O2_6 
REMARK    5  A    between atoms: O2_6  and  C4_7 
REMARK    6  A    between atoms: C5_11  and  C7_13 
REMARK    7  A    between atoms: C13_30  and  C14_31 
ROOT
HETATM    1  C1  UNL     1      -1.350  -0.006   3.337  1.00  0.00     0.057 C 
HETATM    2  C2  UNL     1      -1.619   0.008   1.759  1.00  0.00     0.135 C 
ENDROOT
BRANCH   2   3
HETATM    3  O1  UNL     1      -2.196   1.228   1.586  1.00  0.00    -0.380 OA
ATOM      4  H1  UNL     1      -2.356   1.236   0.650  1.00  0.00     0.211 HD
ENDBRANCH   2   3
BRANCH   2   5
HETATM    5  C3  UNL     1      -2.444  -1.177   1.471  1.00  0.00     0.216 C 
BRANCH   5   6
HETATM    6  O2  UNL     1      -3.023  -1.352   0.282  1.00  0.00    -0.351 OA
BRANCH   6   7
HETATM    7  C4  UNL     1      -3.992  -0.517  -0.187  1.00  0.00     0.397 C 
HETATM    8  N1  UNL     1      -5.299  -1.241  -0.191  1.00  0.00    -0.017 N 
HETATM    9  C5  UNL     1      -6.396  -0.395   0.186  1.00  0.00     0.300 C 
ATOM     10  H12 UNL     1      -5.470  -1.685  -1.093  1.00  0.00     0.282 HD
ATOM     11  H11 UNL     1      -5.259  -2.074   0.396  1.00  0.00     0.282 HD
HETATM   12  C6  UNL     1      -7.692  -0.758  -0.541  1.00  0.00     0.067 C 
HETATM   13  C8  UNL     1      -6.100   1.034  -0.120  1.00  0.00     0.263 C 
HETATM   14  O3  UNL     1      -6.480   1.917   0.679  1.00  0.00    -0.270 OA
HETATM   15  N2  UNL     1      -5.408   1.546  -1.258  1.00  0.00    -0.353 N 
HETATM   16  C9  UNL     1      -4.785   0.695  -2.259  1.00  0.00     0.206 C 
ATOM     17  H2  UNL     1      -5.347   2.557  -1.375  1.00  0.00     0.162 HD
HETATM   18  C10 UNL     1      -3.716  -0.169  -1.621  1.00  0.00     0.309 C 
HETATM   19  F4  UNL     1      -2.535   0.522  -1.701  1.00  0.00    -0.200 F 
HETATM   20  F5  UNL     1      -3.587  -1.371  -2.319  1.00  0.00    -0.200 F 
BRANCH   9  21
HETATM   21  C7  UNL     1      -6.710  -0.460   1.665  1.00  0.00     0.429 C 
HETATM   22  F1  UNL     1      -7.028  -1.760   1.997  1.00  0.00    -0.168 F 
HETATM   23  F2  UNL     1      -5.722   0.079   2.446  1.00  0.00    -0.168 F 
HETATM   24  F3  UNL     1      -7.843   0.350   1.864  1.00  0.00    -0.168 F 
ENDBRANCH   9  21
ENDBRANCH   6   7
ENDBRANCH   5   6
ENDBRANCH   2   5
BRANCH   2  25
HETATM   25  C11 UNL     1      -0.251  -0.074   1.188  1.00  0.00     0.135 A 
HETATM   26  N3  UNL     1       0.257  -1.168   0.605  1.00  0.00    -0.321 N 
HETATM   27  C12 UNL     1       1.558  -0.841   0.286  1.00  0.00     0.173 A 
ATOM     28  H3  UNL     1      -0.218  -2.054   0.434  1.00  0.00     0.169 HD
HETATM   29  S1  UNL     1       3.006  -1.395  -0.381  1.00  0.00    -0.048 SA
HETATM   30  N5  UNL     1       1.846   0.391   0.645  1.00  0.00    -0.217 N 
HETATM   31  C13 UNL     1       3.980   0.048  -0.162  1.00  0.00     0.057 A 
HETATM   32  C21 UNL     1       3.080   0.861   0.422  1.00  0.00     0.158 A 
HETATM   33  N4  UNL     1       3.423   2.228   0.802  1.00  0.00    -0.079 NA
HETATM   34  N6  UNL     1       0.694   0.857   1.210  1.00  0.00    -0.276 N 
ATOM     35  H6  UNL     1       0.576   1.794   1.596  1.00  0.00     0.189 HD
BRANCH  31  36
HETATM   36  C14 UNL     1       5.382   0.103  -0.559  1.00  0.00    -0.041 C 
HETATM   37  C15 UNL     1       6.051   1.197  -0.387  1.00  0.00    -0.018 C 
HETATM   38  C16 UNL     1       7.492   1.536  -0.697  1.00  0.00     0.028 C 
HETATM   39  C17 UNL     1       8.250   0.305  -1.027  1.00  0.00     0.004 C 
HETATM   40  C18 UNL     1       8.067  -0.719   0.050  1.00  0.00     0.001 C 
HETATM   41  C19 UNL     1       7.010  -1.749  -0.275  1.00  0.00     0.005 C 
HETATM   42  C20 UNL     1       5.916  -1.179  -1.144  1.00  0.00     0.040 C 
ENDBRANCH  31  36
ENDBRANCH   2  25
TORSDOF 7
