REMARK  6 active torsions:
REMARK  status: ('A' for Active; 'I' for Inactive)
REMARK    1  A    between atoms: C9_9  and  C10_10 
REMARK    2  A    between atoms: C10_10  and  C11_11 
REMARK    3  A    between atoms: C12_12  and  C13_13 
REMARK    4  A    between atoms: C13_13  and  C14_18 
REMARK    5  A    between atoms: N1_14  and  O1_16 
REMARK    6  A    between atoms: C14_18  and  O2_21 
ROOT
HETATM    1  C1  UNL     1      -4.253   1.877  -1.611  1.00  0.00     0.015 C 
HETATM    2  C2  UNL     1      -3.689   1.447  -0.518  1.00  0.00    -0.084 C 
HETATM    3  C3  UNL     1      -3.465   2.233   0.713  1.00  0.00     0.039 C 
HETATM    4  C4  UNL     1      -2.196   1.660   1.326  1.00  0.00     0.006 C 
HETATM    5  C5  UNL     1      -1.163   2.751   1.116  1.00  0.00     0.033 C 
HETATM    6  C6  UNL     1      -0.980   2.974  -0.358  1.00  0.00    -0.019 C 
HETATM    7  C7  UNL     1      -0.695   1.833  -1.024  1.00  0.00    -0.062 C 
HETATM    8  C8  UNL     1      -0.482   1.861  -2.492  1.00  0.00     0.048 C 
HETATM    9  C9  UNL     1      -0.623   0.624  -0.167  1.00  0.00    -0.061 C 
HETATM   10  C17 UNL     1      -1.876   0.387   0.536  1.00  0.00    -0.004 C 
HETATM   11  C18 UNL     1      -1.747  -0.823   1.478  1.00  0.00     0.019 C 
HETATM   12  C19 UNL     1      -2.569  -1.983   1.058  1.00  0.00    -0.017 C 
HETATM   13  C20 UNL     1      -1.861  -3.241   1.584  1.00  0.00     0.010 C 
HETATM   14  C21 UNL     1      -2.814  -2.206  -0.383  1.00  0.00     0.005 C 
HETATM   15  C22 UNL     1      -3.167  -0.941  -1.170  1.00  0.00     0.010 C 
HETATM   16  C23 UNL     1      -3.146   0.157  -0.173  1.00  0.00     0.027 C 
ENDROOT
BRANCH   9  17
HETATM   17  C10 UNL     1       0.133  -0.510  -0.761  1.00  0.00     0.062 C 
BRANCH  17  18
HETATM   18  C11 UNL     1       1.534  -0.022  -0.989  1.00  0.00    -0.020 C 
HETATM   19  C12 UNL     1       2.568  -0.601  -0.410  1.00  0.00     0.026 C 
BRANCH  19  20
HETATM   20  C13 UNL     1       3.941  -0.160  -0.603  1.00  0.00     0.065 C 
HETATM   21  N1  UNL     1       4.166   0.845  -1.377  1.00  0.00    -0.270 N 
ATOM     22  H1  UNL     1       3.356   1.281  -1.817  1.00  0.00     0.194 HD
BRANCH  21  23
HETATM   23  O1  UNL     1       5.384   1.377  -1.661  1.00  0.00    -0.290 OA
ATOM     24  H1  UNL     1       5.550   2.118  -2.232  1.00  0.00     0.244 HD
ENDBRANCH  21  23
BRANCH  20  25
HETATM   25  C14 UNL     1       5.091  -0.818   0.051  1.00  0.00     0.094 C 
HETATM   26  C15 UNL     1       5.203  -2.273  -0.343  1.00  0.00     0.052 C 
HETATM   27  C16 UNL     1       4.786  -0.813   1.552  1.00  0.00     0.052 C 
BRANCH  25  28
HETATM   28  O2  UNL     1       6.289  -0.183  -0.146  1.00  0.00    -0.384 OA
ATOM     29  H2  UNL     1       7.028  -0.606   0.274  1.00  0.00     0.211 HD
ENDBRANCH  25  28
ENDBRANCH  20  25
ENDBRANCH  19  20
ENDBRANCH  17  18
ENDBRANCH   9  17
TORSDOF 6
