REMARK  10 active torsions:
REMARK  status: ('A' for Active; 'I' for Inactive)
REMARK    1  A    between atoms: C2_2  and  C3_3 
REMARK    2  A    between atoms: C2_2  and  C11_12 
REMARK    3  A    between atoms: C3_3  and  C4_4 
REMARK    4  A    between atoms: C4_4  and  C5_5 
REMARK    5  A    between atoms: C5_5  and  C6_6 
REMARK    6  A    between atoms: C6_6  and  C7_7 
REMARK    7  A    between atoms: C11_12  and  C12_13 
REMARK    8  A    between atoms: C12_13  and  C13_14 
REMARK    9  A    between atoms: C13_14  and  C14_15 
REMARK   10  A    between atoms: C15_16  and  O2_17 
ROOT
HETATM    1  C13 UNL     1      -1.033  -0.442  -0.320  1.00  0.00    -0.019 C 
ENDROOT
BRANCH   1   2
HETATM    2  C12 UNL     1       0.074  -0.516   0.451  1.00  0.00    -0.003 C 
BRANCH   2   3
HETATM    3  C11 UNL     1       1.327  -0.773  -0.210  1.00  0.00     0.006 C 
BRANCH   3   4
HETATM    4  C2  UNL     1       2.458  -0.861   0.514  1.00  0.00    -0.062 C 
HETATM    5  C1  UNL     1       2.393  -0.696   1.973  1.00  0.00     0.048 C 
BRANCH   4   6
HETATM    6  C3  UNL     1       3.718  -1.118  -0.183  1.00  0.00     0.007 C 
BRANCH   6   7
HETATM    7  C4  UNL     1       4.843  -1.204   0.465  1.00  0.00     0.001 C 
BRANCH   7   8
HETATM    8  C5  UNL     1       6.095  -1.466  -0.277  1.00  0.00     0.001 C 
BRANCH   8   9
HETATM    9  C6  UNL     1       7.258  -1.560   0.345  1.00  0.00     0.013 C 
BRANCH   9  10
HETATM   10  C7  UNL     1       8.480  -1.823  -0.434  1.00  0.00    -0.012 A 
HETATM   11  C8  UNL     1       8.562  -1.991  -1.801  1.00  0.00     0.038 A 
HETATM   12  C9  UNL     1       9.883  -2.213  -2.100  1.00  0.00     0.142 A 
HETATM   13  O1  UNL     1      10.554  -2.182  -0.993  1.00  0.00    -0.334 OA
HETATM   14  C10 UNL     1       9.768  -1.954   0.028  1.00  0.00     0.152 A 
ENDBRANCH   9  10
ENDBRANCH   8   9
ENDBRANCH   7   8
ENDBRANCH   6   7
ENDBRANCH   4   6
ENDBRANCH   3   4
ENDBRANCH   2   3
ENDBRANCH   1   2
BRANCH   1  15
HETATM   15  C14 UNL     1      -2.343  -0.183   0.291  1.00  0.00     0.045 C 
HETATM   16  C15 UNL     1      -3.339  -1.282  -0.097  1.00  0.00     0.127 C 
HETATM   17  C16 UNL     1      -4.694  -0.582  -0.271  1.00  0.00     0.038 C 
HETATM   18  C17 UNL     1      -4.448   0.683   0.377  1.00  0.00     0.004 C 
HETATM   19  C18 UNL     1      -5.201   1.887   0.199  1.00  0.00    -0.043 C 
HETATM   20  C23 UNL     1      -3.047   1.034  -0.154  1.00  0.00    -0.030 C 
HETATM   21  C19 UNL     1      -6.159   2.057   1.392  1.00  0.00     0.015 C 
HETATM   22  C20 UNL     1      -6.023   2.062  -1.026  1.00  0.00     0.015 C 
HETATM   23  C21 UNL     1      -4.155   3.004   0.353  1.00  0.00     0.010 C 
HETATM   24  C22 UNL     1      -2.830   2.279   0.650  1.00  0.00     0.011 C 
HETATM   25  C24 UNL     1      -2.988   1.245  -1.605  1.00  0.00     0.016 C 
BRANCH  16  26
HETATM   26  O2  UNL     1      -2.956  -1.966  -1.237  1.00  0.00    -0.395 OA
ATOM     27  H2  UNL     1      -3.573  -2.647  -1.477  1.00  0.00     0.210 HD
ENDBRANCH  16  26
ENDBRANCH   1  15
TORSDOF 10
