REMARK  5 active torsions:
REMARK  status: ('A' for Active; 'I' for Inactive)
REMARK    1  A    between atoms: C2_2  and  C3_3 
REMARK    2  A    between atoms: C3_3  and  N1_4 
REMARK       I    between atoms: N1_4  and  C4_6 
REMARK    3  A    between atoms: C4_6  and  C5_8 
REMARK    4  A    between atoms: C13_16  and  C14_17 
REMARK    5  A    between atoms: C14_17  and  C15_19 
ROOT
HETATM    1  C5  UNL     1       1.457  -0.665   0.021  1.00  0.00     0.114 C 
HETATM    2  C6  UNL     1       2.370  -1.227  -1.043  1.00  0.00     0.003 C 
HETATM    3  C7  UNL     1       2.321  -2.681  -1.261  1.00  0.00     0.006 C 
HETATM    4  C8  UNL     1       1.011  -3.365  -1.194  1.00  0.00     0.001 C 
HETATM    5  C9  UNL     1      -0.094  -2.690  -1.945  1.00  0.00     0.009 C 
HETATM    6  C10 UNL     1      -0.192  -1.187  -1.682  1.00  0.00     0.019 C 
HETATM    7  C11 UNL     1       0.703  -0.427  -2.634  1.00  0.00     0.009 C 
HETATM    8  C12 UNL     1       2.160  -0.529  -2.372  1.00  0.00     0.006 C 
HETATM    9  C13 UNL     1      -0.000  -0.907  -0.239  1.00  0.00    -0.016 C 
ENDROOT
BRANCH   9  10
HETATM   10  C14 UNL     1      -0.921  -0.056   0.474  1.00  0.00     0.157 C 
HETATM   11  O2  UNL     1      -0.426   0.728   1.316  1.00  0.00    -0.293 OA
BRANCH  10  12
HETATM   12  C15 UNL     1      -2.379   0.058   0.389  1.00  0.00     0.060 C 
HETATM   13  C16 UNL     1      -2.949   0.601  -0.880  1.00  0.00     0.012 C 
HETATM   14  C17 UNL     1      -4.052   1.614  -0.608  1.00  0.00     0.001 C 
HETATM   15  C18 UNL     1      -5.082   1.035   0.316  1.00  0.00     0.000 C 
HETATM   16  C19 UNL     1      -4.454   0.632   1.616  1.00  0.00     0.001 C 
HETATM   17  C20 UNL     1      -2.968   0.856   1.545  1.00  0.00     0.012 C 
ENDBRANCH  10  12
ENDBRANCH   9  10
BRANCH   1  18
HETATM   18  C4  UNL     1       1.879   0.719   0.243  1.00  0.00     0.226 C 
HETATM   19  N1  UNL     1       2.821   0.988   1.267  1.00  0.00    -0.357 N 
ATOM     20  H1  UNL     1       3.178   0.211   1.822  1.00  0.00     0.162 HD
HETATM   21  O1  UNL     1       1.477   1.718  -0.408  1.00  0.00    -0.273 OA
BRANCH  19  22
HETATM   22  C3  UNL     1       3.298   2.334   1.556  1.00  0.00     0.149 C 
BRANCH  22  23
HETATM   23  C2  UNL     1       4.254   2.260   2.716  1.00  0.00    -0.018 C 
HETATM   24  C1  UNL     1       3.953   2.935   3.797  1.00  0.00     0.008 C 
ENDBRANCH  22  23
ENDBRANCH  19  22
ENDBRANCH   1  18
TORSDOF 5
