REMARK  9 active torsions:
REMARK  status: ('A' for Active; 'I' for Inactive)
REMARK    1  A    between atoms: C7_8  and  N1_9 
REMARK    2  A    between atoms: N1_9  and  C8_11 
REMARK    3  A    between atoms: N5_21  and  C12_23 
REMARK    4  A    between atoms: C12_23  and  C13_24 
REMARK    5  A    between atoms: C13_24  and  C14_25 
REMARK    6  A    between atoms: C14_25  and  C15_26 
REMARK    7  A    between atoms: C15_26  and  N6_27 
REMARK    8  A    between atoms: N6_27  and  C17_29 
REMARK    9  A    between atoms: C17_29  and  C18_30 
ROOT
HETATM    1  C8  UNL     1      -4.631  -0.457  -0.144  1.00  0.00     0.122 A 
HETATM    2  N2  UNL     1      -5.235  -1.639  -0.280  1.00  0.00    -0.338 N 
ATOM      3  H2  UNL     1      -6.233  -1.675  -0.487  1.00  0.00     0.168 HD
HETATM    4  C9  UNL     1      -4.545  -2.778  -0.148  1.00  0.00     0.183 A 
HETATM    5  N3  UNL     1      -3.231  -2.768   0.124  1.00  0.00    -0.338 N 
ATOM      6  H3  UNL     1      -2.713  -3.641   0.222  1.00  0.00     0.168 HD
HETATM    7  C10 UNL     1      -2.615  -1.587   0.264  1.00  0.00     0.123 A 
HETATM    8  N4  UNL     1      -1.297  -1.480   0.537  1.00  0.00    -0.326 N 
ATOM      9  H4  UNL     1      -0.766  -2.345   0.638  1.00  0.00     0.169 HD
HETATM   10  C11 UNL     1      -0.633  -0.326   0.685  1.00  0.00     0.138 A 
HETATM   11  N5  UNL     1       0.629  -0.318   0.942  1.00  0.00    -0.374 N 
ATOM     12  H5  UNL     1       1.060   0.601   1.040  1.00  0.00     0.161 HD
HETATM   13  C22 UNL     1      -1.299   0.900   0.559  1.00  0.00     0.131 A 
HETATM   14  C23 UNL     1      -2.637   0.825   0.281  1.00  0.00     0.057 A 
HETATM   15  C24 UNL     1      -3.277  -0.361   0.138  1.00  0.00     0.072 A 
HETATM   16  S1  UNL     1      -3.175   2.521   0.169  1.00  0.00    -0.099 SA
HETATM   17  C25 UNL     1      -1.455   3.182  -0.006  1.00  0.00     0.255 C 
HETATM   18  O2  UNL     1      -0.787   2.148   0.678  1.00  0.00    -0.336 OA
ENDROOT
BRANCH  11  19
HETATM   19  C12 UNL     1       1.493  -1.432   1.105  1.00  0.00     0.121 C 
BRANCH  19  20
HETATM   20  C13 UNL     1       1.983  -1.875  -0.243  1.00  0.00     0.025 C 
BRANCH  20  21
HETATM   21  C14 UNL     1       2.749  -0.858  -1.013  1.00  0.00     0.046 C 
BRANCH  21  22
HETATM   22  C15 UNL     1       4.015  -0.355  -0.440  1.00  0.00     0.058 C 
BRANCH  22  23
HETATM   23  N6  UNL     1       5.081  -1.233  -0.227  1.00  0.00    -0.395 N 
HETATM   24  C16 UNL     1       5.011  -2.240   0.760  1.00  0.00     0.148 C 
BRANCH  23  25
HETATM   25  C17 UNL     1       6.400  -0.780  -0.530  1.00  0.00     0.153 C 
BRANCH  25  26
HETATM   26  C18 UNL     1       6.824   0.280   0.447  1.00  0.00     0.139 C 
HETATM   27  C19 UNL     1       8.236   0.728   0.176  1.00  0.00     0.035 C 
HETATM   28  C20 UNL     1       8.013   1.997  -0.615  1.00  0.00     0.029 C 
HETATM   29  C21 UNL     1       6.645   2.410  -0.199  1.00  0.00     0.168 C 
HETATM   30  O1  UNL     1       6.000   1.357   0.391  1.00  0.00    -0.384 OA
ENDBRANCH  25  26
ENDBRANCH  23  25
ENDBRANCH  22  23
ENDBRANCH  21  22
ENDBRANCH  20  21
ENDBRANCH  19  20
ENDBRANCH  11  19
BRANCH   1  31
HETATM   31  N1  UNL     1      -5.258   0.674  -0.262  1.00  0.00    -0.341 N 
ATOM     32  H1  UNL     1      -4.751   1.552  -0.147  1.00  0.00     0.167 HD
BRANCH  31  33
HETATM   33  C7  UNL     1      -6.633   0.691  -0.547  1.00  0.00     0.041 A 
HETATM   34  C2  UNL     1      -7.524   0.865   0.482  1.00  0.00    -0.013 A 
HETATM   35  C1  UNL     1      -7.049   1.033   1.886  1.00  0.00     0.052 C 
HETATM   36  C3  UNL     1      -8.867   0.880   0.184  1.00  0.00     0.042 A 
HETATM   37 CL1  UNL     1     -10.028   1.099   1.478  1.00  0.00    -0.084 Cl
HETATM   38  C4  UNL     1      -9.295   0.722  -1.124  1.00  0.00     0.024 A 
HETATM   39  C5  UNL     1      -8.380   0.548  -2.152  1.00  0.00     0.004 A 
HETATM   40  C6  UNL     1      -7.032   0.532  -1.863  1.00  0.00     0.030 A 
ENDBRANCH  31  33
ENDBRANCH   1  31
TORSDOF 9
