REMARK  7 active torsions:
REMARK  status: ('A' for Active; 'I' for Inactive)
REMARK    1  A    between atoms: C2_2  and  C3_3 
REMARK    2  A    between atoms: C3_3  and  C4_4 
REMARK    3  A    between atoms: C9_10  and  O1_11 
REMARK    4  A    between atoms: N1_15  and  C11_16 
REMARK    5  A    between atoms: C14_19  and  O3_20 
REMARK    6  A    between atoms: C15_22  and  O4_23 
REMARK    7  A    between atoms: N2_28  and  C18_29 
ROOT
HETATM    1  C4  UNL     1      -3.086  -1.022   0.329  1.00  0.00     0.001 A 
HETATM    2  C5  UNL     1      -3.304   0.229   0.870  1.00  0.00     0.045 A 
HETATM    3 CL1  UNL     1      -4.919   0.666   1.446  1.00  0.00    -0.084 Cl
HETATM    4  C6  UNL     1      -2.300   1.171   0.985  1.00  0.00     0.055 A 
HETATM    5  C7  UNL     1      -1.024   0.880   0.552  1.00  0.00     0.059 A 
HETATM    6  C8  UNL     1      -0.779  -0.367   0.006  1.00  0.00     0.093 A 
HETATM    7  C9  UNL     1      -1.816  -1.311  -0.102  1.00  0.00     0.091 A 
HETATM    8  C10 UNL     1       0.496  -0.662  -0.425  1.00  0.00     0.271 A 
HETATM    9  O2  UNL     1       0.691  -1.801  -0.917  1.00  0.00    -0.266 OA
HETATM   10  N1  UNL     1       1.475   0.253  -0.312  1.00  0.00    -0.229 N 
HETATM   11  C17 UNL     1       1.185   1.441   0.223  1.00  0.00     0.337 A 
HETATM   12  O5  UNL     1       2.139   2.282   0.313  1.00  0.00    -0.246 OA
HETATM   13  N2  UNL     1      -0.039   1.780   0.658  1.00  0.00    -0.298 N 
ENDROOT
BRANCH  10  14
HETATM   14  C11 UNL     1       2.765  -0.108  -0.772  1.00  0.00     0.050 A 
HETATM   15  C12 UNL     1       2.932  -0.473  -2.085  1.00  0.00     0.033 A 
HETATM   16  C13 UNL     1       4.185  -0.839  -2.590  1.00  0.00     0.041 A 
HETATM   17  C14 UNL     1       5.289  -0.835  -1.756  1.00  0.00     0.098 A 
HETATM   18  C15 UNL     1       5.126  -0.470  -0.439  1.00  0.00     0.101 A 
HETATM   19  C16 UNL     1       3.883  -0.114   0.034  1.00  0.00     0.069 A 
BRANCH  17  20
HETATM   20  O3  UNL     1       6.527  -1.201  -2.273  1.00  0.00    -0.358 OA
ATOM     21  H3  UNL     1       7.285  -1.198  -1.700  1.00  0.00     0.217 HD
ENDBRANCH  17  20
BRANCH  18  22
HETATM   22  O4  UNL     1       6.227  -0.468   0.386  1.00  0.00    -0.358 OA
ATOM     23  H4  UNL     1       6.114  -0.216   1.295  1.00  0.00     0.217 HD
ENDBRANCH  18  22
ENDBRANCH  10  14
BRANCH  13  24
HETATM   24  C18 UNL     1      -0.268   3.076   1.210  1.00  0.00     0.129 C 
HETATM   25  C19 UNL     1      -0.059   3.073   2.730  1.00  0.00     0.027 C 
ENDBRANCH  13  24
BRANCH   7  26
HETATM   26  O1  UNL     1      -1.459  -2.505  -0.656  1.00  0.00    -0.359 OA
ATOM     27  H1  UNL     1      -0.580  -2.705  -0.954  1.00  0.00     0.217 HD
ENDBRANCH   7  26
BRANCH   1  28
HETATM   28  C3  UNL     1      -4.150  -2.034   0.201  1.00  0.00     0.069 C 
BRANCH  28  29
HETATM   29  C2  UNL     1      -5.069  -1.776  -0.918  1.00  0.00    -0.032 C 
HETATM   30  C1  UNL     1      -6.353  -1.602  -0.694  1.00  0.00     0.007 C 
ENDBRANCH  28  29
ENDBRANCH   1  28
TORSDOF 7
