REMARK  7 active torsions:
REMARK  status: ('A' for Active; 'I' for Inactive)
REMARK    1  A    between atoms: C2_2  and  C3_3 
REMARK    2  A    between atoms: C13_16  and  O3_17 
REMARK    3  A    between atoms: N2_20  and  C15_21 
REMARK    4  A    between atoms: N2_20  and  C17_23 
REMARK    5  A    between atoms: C17_23  and  C18_24 
REMARK    6  A    between atoms: C19_25  and  C20_26 
REMARK    7  A    between atoms: C20_26  and  O4_27 
ROOT
HETATM    1  C3  UNL     1      -4.075  -0.198  -0.263  1.00  0.00     0.165 C 
HETATM    2  O1  UNL     1      -4.387   0.476  -1.468  1.00  0.00    -0.291 OA
HETATM    3  C4  UNL     1      -3.197   0.665  -2.203  1.00  0.00     0.460 C 
HETATM    4  O2  UNL     1      -3.031   0.690  -3.434  1.00  0.00    -0.231 OA
HETATM    5  N1  UNL     1      -2.219   0.823  -1.152  1.00  0.00     0.023 N 
HETATM    6  C5  UNL     1      -2.455   2.122  -0.600  1.00  0.00     0.286 C 
HETATM    7  C6  UNL     1      -0.860   0.738  -1.678  1.00  0.00     0.253 C 
HETATM    8  C7  UNL     1       0.092   0.724  -0.537  1.00  0.00     0.068 C 
HETATM    9  C8  UNL     1       0.438  -0.621   0.020  1.00  0.00     0.135 C 
HETATM   10  C9  UNL     1      -0.590  -1.178   0.940  1.00  0.00     0.041 C 
HETATM   11  C10 UNL     1      -1.893  -0.366   0.981  1.00  0.00     0.039 C 
HETATM   12  C11 UNL     1      -2.580  -0.268  -0.311  1.00  0.00     0.231 C 
HETATM   13  C12 UNL     1       0.626  -1.644  -1.097  1.00  0.00     0.072 C 
HETATM   14  C13 UNL     1       1.878  -1.121  -1.739  1.00  0.00     0.146 C 
HETATM   15  C14 UNL     1       2.693  -1.040  -0.431  1.00  0.00     0.271 C 
HETATM   16  N2  UNL     1       1.805  -0.633   0.595  1.00  0.00    -0.046 N 
ENDROOT
BRANCH  16  17
HETATM   17  C15 UNL     1       1.861  -1.681   1.639  1.00  0.00     0.235 C 
HETATM   18  C16 UNL     1       3.268  -2.206   1.829  1.00  0.00     0.035 C 
ENDBRANCH  16  17
BRANCH  16  19
HETATM   19  C17 UNL     1       2.122   0.583   1.272  1.00  0.00     0.332 C 
BRANCH  19  20
HETATM   20  C18 UNL     1       3.496   1.066   1.032  1.00  0.00    -0.076 C 
HETATM   21  C19 UNL     1       4.614   1.479   0.847  1.00  0.00    -0.079 C 
BRANCH  21  22
HETATM   22  C20 UNL     1       5.951   1.994   0.606  1.00  0.00     0.257 C 
BRANCH  22  23
HETATM   23  O4  UNL     1       5.877   3.360   0.254  1.00  0.00    -0.389 OA
ATOM     24  H4  UNL     1       6.751   3.697   0.096  1.00  0.00     0.210 HD
ENDBRANCH  22  23
ENDBRANCH  21  22
ENDBRANCH  19  20
ENDBRANCH  16  19
BRANCH  14  25
HETATM   25  O3  UNL     1       2.464  -2.032  -2.616  1.00  0.00    -0.394 OA
ATOM     26  H3  UNL     1       3.256  -1.701  -3.022  1.00  0.00     0.210 HD
ENDBRANCH  14  25
BRANCH   1  27
HETATM   27  C2  UNL     1      -4.649   0.428   0.945  1.00  0.00     0.030 C 
HETATM   28  C1  UNL     1      -6.169   0.436   0.785  1.00  0.00     0.007 C 
ENDBRANCH   1  27
TORSDOF 7
