REMARK  3 active torsions:
REMARK  status: ('A' for Active; 'I' for Inactive)
REMARK    1  A    between atoms: S1_2  and  C2_3 
REMARK    2  A    between atoms: N3_9  and  N4_10 
REMARK    3  A    between atoms: C5_14  and  N5_15 
REMARK       I    between atoms: N7_20  and  C6_21 
ROOT
HETATM    1  C2  UNL     1       2.041  -0.196   0.243  1.00  0.00     0.184 A 
HETATM    2  N1  UNL     1       2.718  -1.392   0.239  1.00  0.00    -0.265 N 
ATOM      3  H1  UNL     1       3.731  -1.492   0.300  1.00  0.00     0.189 HD
HETATM    4  N2  UNL     1       1.873  -2.379   0.145  1.00  0.00    -0.128 N 
ATOM      5  H2  UNL     1       2.112  -3.370   0.120  1.00  0.00     0.205 HD
HETATM    6  C3  UNL     1       0.629  -1.865   0.086  1.00  0.00     0.728 A 
HETATM    7  N3  UNL     1      -0.649  -2.235  -0.011  1.00  0.00    -0.083 N 
HETATM    8  C4  UNL     1      -1.346  -1.113  -0.011  1.00  0.00     0.166 A 
HETATM    9  C5  UNL     1      -2.622  -0.593  -0.072  1.00  0.00     0.148 A 
HETATM   10  N6  UNL     1      -2.503   0.718  -0.012  1.00  0.00    -0.272 N 
ATOM     11  H6  UNL     1      -3.291   1.365  -0.037  1.00  0.00     0.189 HD
HETATM   12  N7  UNL     1      -1.217   1.101   0.086  1.00  0.00    -0.186 N 
HETATM   13  C6  UNL     1      -0.887   2.471   0.162  1.00  0.00     0.355 C 
HETATM   14  N8  UNL     1      -1.955   3.466   0.133  1.00  0.00    -0.038 NA
HETATM   15  O1  UNL     1       0.215   3.003   0.254  1.00  0.00    -0.249 OA
HETATM   16  C7  UNL     1      -0.490  -0.003   0.088  1.00  0.00     0.190 A 
HETATM   17  N9  UNL     1       0.765  -0.509   0.149  1.00  0.00    -0.102 N 
ENDROOT
BRANCH   7  18
HETATM   18  N4  UNL     1      -1.202  -3.521  -0.099  1.00  0.00    -0.323 N 
ATOM     19  H42 UNL     1      -0.664  -4.387  -0.099  1.00  0.00     0.178 HD
ATOM     20  H41 UNL     1      -2.179  -3.804  -0.173  1.00  0.00     0.178 HD
ENDBRANCH   7  18
BRANCH   9  21
HETATM   21  N5  UNL     1      -3.703  -1.295  -0.170  1.00  0.00    -0.382 N 
ATOM     22  H52 UNL     1      -3.795  -2.310  -0.216  1.00  0.00     0.157 HD
ATOM     23  H51 UNL     1      -4.647  -0.910  -0.215  1.00  0.00     0.157 HD
ENDBRANCH   9  21
BRANCH   1  24
HETATM   24  S1  UNL     1       2.884   1.347   0.359  1.00  0.00    -0.096 SA
HETATM   25  C1  UNL     1       4.669   1.130   0.465  1.00  0.00     0.099 C 
ENDBRANCH   1  24
TORSDOF 3
