REMARK  9 active torsions:
REMARK  status: ('A' for Active; 'I' for Inactive)
REMARK    1  A    between atoms: N2_3  and  C2_5 
REMARK    2  A    between atoms: C2_5  and  C3_6 
REMARK    3  A    between atoms: C3_6  and  C4_7 
REMARK    4  A    between atoms: C6_12  and  C7_13 
REMARK    5  A    between atoms: C7_13  and  C8_14 
REMARK    6  A    between atoms: C8_14  and  N4_15 
REMARK    7  A    between atoms: N4_15  and  C9_17 
REMARK    8  A    between atoms: C9_17  and  C10_18 
REMARK    9  A    between atoms: C10_18  and  C11_19 
ROOT
HETATM    1  C4  UNL     1       2.874  -1.182   0.632  1.00  0.00     0.289 C 
HETATM    2  N3  UNL     1       2.862  -0.138   1.634  1.00  0.00    -0.331 N 
ATOM      3  H3  UNL     1       3.572   0.583   1.764  1.00  0.00     0.164 HD
HETATM    4  C5  UNL     1       1.674  -0.304   2.407  1.00  0.00     0.250 C 
HETATM    5  O1  UNL     1       1.375   0.392   3.392  1.00  0.00    -0.271 OA
HETATM    6  C6  UNL     1       0.974  -1.417   1.776  1.00  0.00     0.284 C 
HETATM    7  N5  UNL     1       1.422  -1.330   0.406  1.00  0.00    -0.041 N 
ATOM      8  H51 UNL     1       1.140  -2.095  -0.207  1.00  0.00     0.280 HD
ATOM      9  H52 UNL     1       0.982  -0.608  -0.164  1.00  0.00     0.280 HD
ENDROOT
BRANCH   6  10
HETATM   10  C7  UNL     1      -0.465  -1.535   2.010  1.00  0.00     0.087 C 
BRANCH  10  11
HETATM   11  C8  UNL     1      -1.343  -0.411   1.591  1.00  0.00     0.062 C 
BRANCH  11  12
HETATM   12  N4  UNL     1      -1.371  -0.046   0.244  1.00  0.00    -0.382 N 
ATOM     13  H4  UNL     1      -0.982   0.855  -0.036  1.00  0.00     0.164 HD
BRANCH  12  14
HETATM   14  C9  UNL     1      -1.920  -0.887  -0.732  1.00  0.00     0.064 C 
BRANCH  14  15
HETATM   15  C10 UNL     1      -3.403  -1.083  -0.685  1.00  0.00     0.083 C 
BRANCH  15  16
HETATM   16  C11 UNL     1      -4.165   0.175  -0.857  1.00  0.00    -0.053 A 
HETATM   17  C12 UNL     1      -4.540   0.938   0.224  1.00  0.00     0.007 A 
HETATM   18  C13 UNL     1      -5.259   2.127   0.050  1.00  0.00     0.001 A 
HETATM   19  C14 UNL     1      -5.609   2.564  -1.196  1.00  0.00     0.000 A 
HETATM   20  C15 UNL     1      -5.248   1.824  -2.282  1.00  0.00     0.001 A 
HETATM   21  C16 UNL     1      -4.538   0.651  -2.108  1.00  0.00     0.007 A 
ENDBRANCH  15  16
ENDBRANCH  14  15
ENDBRANCH  12  14
ENDBRANCH  11  12
ENDBRANCH  10  11
ENDBRANCH   6  10
BRANCH   1  22
HETATM   22  C3  UNL     1       3.606  -0.865  -0.614  1.00  0.00     0.074 C 
BRANCH  22  23
HETATM   23  C2  UNL     1       5.051  -0.584  -0.280  1.00  0.00     0.123 C 
BRANCH  23  24
HETATM   24  N2  UNL     1       5.840  -0.272  -1.427  1.00  0.00    -0.388 N 
HETATM   25  C1  UNL     1       5.916   0.917  -1.885  1.00  0.00     0.185 C 
HETATM   26  N1  UNL     1       5.214   1.973  -1.263  1.00  0.00    -0.097 NA
ATOM     27  H2  UNL     1       6.356  -1.018  -1.893  1.00  0.00     0.159 HD
ENDBRANCH  23  24
ENDBRANCH  22  23
ENDBRANCH   1  22
TORSDOF 9
