REMARK  9 active torsions:
REMARK  status: ('A' for Active; 'I' for Inactive)
REMARK    1  A    between atoms: C3_5  and  O1_6 
REMARK    2  A    between atoms: C4_8  and  N2_9 
REMARK    3  A    between atoms: N3_11  and  C5_13 
REMARK    4  A    between atoms: C5_13  and  N4_15 
REMARK    5  A    between atoms: N4_15  and  C6_16 
REMARK    6  A    between atoms: N4_15  and  C10_20 
REMARK    7  A    between atoms: C10_20  and  C13_23 
REMARK    8  A    between atoms: C16_26  and  C17_27 
REMARK    9  A    between atoms: C17_27  and  O2_29 
ROOT
HETATM    1  N2  UNL     1       1.017  -0.621   1.761  1.00  0.00    -0.294 N 
ATOM      2  H2  UNL     1       1.126  -0.956   2.718  1.00  0.00     0.187 HD
HETATM    3  N3  UNL     1      -0.105  -0.221   1.470  1.00  0.00    -0.276 N 
ATOM      4  H3  UNL     1      -0.803  -0.265   2.213  1.00  0.00     0.189 HD
ENDROOT
BRANCH   1   5
HETATM    5  C4  UNL     1       2.188  -0.686   0.958  1.00  0.00     0.100 A 
HETATM    6  C3  UNL     1       2.388  -1.629   0.071  1.00  0.00     0.169 A 
HETATM    7  N1  UNL     1       3.552  -1.675  -0.711  1.00  0.00    -0.335 N 
HETATM    8  C2  UNL     1       4.592  -0.663  -0.561  1.00  0.00     0.037 A 
ATOM      9  H1  UNL     1       3.672  -2.425  -1.392  1.00  0.00     0.168 HD
HETATM   10  C1  UNL     1       5.645  -0.767  -1.319  1.00  0.00     0.044 C 
HETATM   11  C16 UNL     1       4.344   0.367   0.429  1.00  0.00     0.021 A 
HETATM   12  C15 UNL     1       3.189   0.330   1.137  1.00  0.00     0.051 A 
BRANCH   6  13
HETATM   13  O1  UNL     1       1.434  -2.623  -0.119  1.00  0.00    -0.344 OA
ATOM     14  H1  UNL     1       0.646  -2.592   0.410  1.00  0.00     0.219 HD
ENDBRANCH   6  13
BRANCH  11  15
HETATM   15  C17 UNL     1       5.241   1.434   0.715  1.00  0.00     0.052 C 
HETATM   16  C18 UNL     1       6.541   1.721   0.116  1.00  0.00     0.077 C 
BRANCH  15  17
HETATM   17  O2  UNL     1       4.835   2.261   1.640  1.00  0.00    -0.364 OA
ATOM     18  H2  UNL     1       5.434   2.973   1.831  1.00  0.00     0.217 HD
ENDBRANCH  15  17
ENDBRANCH  11  15
ENDBRANCH   1   5
BRANCH   3  19
HETATM   19  C5  UNL     1      -0.552   0.297   0.224  1.00  0.00     0.190 C 
HETATM   20  S1  UNL     1       0.541   1.029  -0.763  1.00  0.00    -0.039 SA
BRANCH  19  21
HETATM   21  N4  UNL     1      -1.925   0.192  -0.225  1.00  0.00    -0.340 N 
BRANCH  21  22
HETATM   22  C6  UNL     1      -2.203   0.777  -1.488  1.00  0.00     0.025 C 
HETATM   23  C7  UNL     1      -1.789   2.261  -1.409  1.00  0.00     0.037 C 
HETATM   24  C8  UNL     1      -3.636   0.839  -1.944  1.00  0.00     0.037 C 
HETATM   25  C9  UNL     1      -1.356   0.133  -2.567  1.00  0.00     0.037 C 
ENDBRANCH  21  22
BRANCH  21  26
HETATM   26  C10 UNL     1      -2.795  -0.492   0.687  1.00  0.00     0.028 C 
HETATM   27  C11 UNL     1      -2.170  -1.837   1.092  1.00  0.00     0.038 C 
HETATM   28  C12 UNL     1      -4.153  -0.900   0.145  1.00  0.00     0.038 C 
BRANCH  26  29
HETATM   29  C13 UNL     1      -3.024   0.327   1.909  1.00  0.00     0.026 C 
HETATM   30  C14 UNL     1      -3.943  -0.365   2.905  1.00  0.00     0.007 C 
ENDBRANCH  26  29
ENDBRANCH  21  26
ENDBRANCH  19  21
ENDBRANCH   3  19
TORSDOF 9
