REMARK  7 active torsions:
REMARK  status: ('A' for Active; 'I' for Inactive)
REMARK    1  A    between atoms: C2_2  and  O1_3 
REMARK    2  A    between atoms: C2_2  and  C3_5 
REMARK    3  A    between atoms: C2_2  and  C17_21 
REMARK    4  A    between atoms: C3_5  and  O2_6 
REMARK    5  A    between atoms: O2_6  and  C4_7 
REMARK    6  A    between atoms: C4_7  and  C5_9 
REMARK    7  A    between atoms: C22_26  and  N1_27 
ROOT
HETATM    1  C3  UNL     1      -2.186   0.257  -0.951  1.00  0.00     0.216 C 
ENDROOT
BRANCH   1   2
HETATM    2  C2  UNL     1      -3.143  -0.122   0.118  1.00  0.00     0.082 C 
HETATM    3  C1  UNL     1      -3.022   0.521   1.437  1.00  0.00     0.049 C 
BRANCH   2   4
HETATM    4  O1  UNL     1      -3.013  -1.526   0.280  1.00  0.00    -0.388 OA
ATOM      5  H1  UNL     1      -3.091  -1.941  -0.571  1.00  0.00     0.210 HD
ENDBRANCH   2   4
BRANCH   2   6
HETATM    6  C17 UNL     1      -4.536   0.062  -0.499  1.00  0.00     0.052 C 
HETATM    7  C18 UNL     1      -4.868   1.533  -0.697  1.00  0.00     0.010 C 
HETATM    8  C19 UNL     1      -6.311   1.588  -1.224  1.00  0.00     0.001 C 
HETATM    9  C20 UNL     1      -7.202   1.323  -0.042  1.00  0.00     0.002 C 
HETATM   10  C21 UNL     1      -6.654   0.251   0.833  1.00  0.00     0.033 C 
HETATM   11  C22 UNL     1      -5.636  -0.653   0.171  1.00  0.00     0.190 C 
BRANCH  11  12
HETATM   12  N1  UNL     1      -5.260  -1.657   1.109  1.00  0.00    -0.075 N 
ATOM     13  H13 UNL     1      -4.635  -2.328   0.662  1.00  0.00     0.274 HD
ATOM     14  H12 UNL     1      -4.634  -1.257   1.808  1.00  0.00     0.274 HD
ATOM     15  H11 UNL     1      -6.022  -2.152   1.573  1.00  0.00     0.274 HD
ENDBRANCH  11  12
ENDBRANCH   2   6
ENDBRANCH   1   2
BRANCH   1  16
HETATM   16  O2  UNL     1      -0.863  -0.022  -0.853  1.00  0.00    -0.318 OA
BRANCH  16  17
HETATM   17  C4  UNL     1       0.167   0.329  -0.070  1.00  0.00     0.263 C 
HETATM   18  O3  UNL     1      -0.064   1.144   0.849  1.00  0.00    -0.265 OA
BRANCH  17  19
HETATM   19  C5  UNL     1       1.573  -0.171  -0.200  1.00  0.00     0.085 C 
HETATM   20  C6  UNL     1       2.016   0.238  -1.583  1.00  0.00     0.014 C 
HETATM   21  C7  UNL     1       3.435   0.746  -1.642  1.00  0.00     0.001 C 
HETATM   22  C8  UNL     1       3.735   1.905  -0.780  1.00  0.00     0.000 C 
HETATM   23  C9  UNL     1       4.812   1.697   0.261  1.00  0.00     0.000 C 
HETATM   24  C10 UNL     1       6.048   1.049  -0.217  1.00  0.00     0.000 C 
HETATM   25  C11 UNL     1       6.709   0.086   0.674  1.00  0.00     0.000 C 
HETATM   26  C12 UNL     1       5.889  -0.782   1.543  1.00  0.00     0.000 C 
HETATM   27  C13 UNL     1       5.179  -1.909   0.839  1.00  0.00     0.000 C 
HETATM   28  C14 UNL     1       3.702  -1.982   1.215  1.00  0.00     0.000 C 
HETATM   29  C15 UNL     1       2.826  -2.352   0.064  1.00  0.00     0.001 C 
HETATM   30  C16 UNL     1       1.519  -1.653   0.002  1.00  0.00     0.014 C 
ENDBRANCH  17  19
ENDBRANCH  16  17
ENDBRANCH   1  16
TORSDOF 7
