REMARK  10 active torsions:
REMARK  status: ('A' for Active; 'I' for Inactive)
REMARK    1  A    between atoms: C5_6  and  C6_7 
REMARK    2  A    between atoms: C7_12  and  S1_13 
REMARK    3  A    between atoms: S1_13  and  C8_14 
REMARK    4  A    between atoms: C8_14  and  C9_15 
REMARK    5  A    between atoms: C9_15  and  O2_16 
REMARK    6  A    between atoms: C9_15  and  N3_18 
REMARK    7  A    between atoms: N3_18  and  N4_20 
REMARK    8  A    between atoms: C10_22  and  C11_23 
REMARK    9  A    between atoms: C16_28  and  O3_29 
REMARK   10  A    between atoms: N5_31  and  C17_32 
ROOT
HETATM    1  C6  UNL     1      -2.058   1.344   0.299  1.00  0.00     0.156 A 
HETATM    2  N1  UNL     1      -0.727   1.560   0.630  1.00  0.00    -0.281 N 
ATOM      3  H1  UNL     1      -0.364   2.289   1.245  1.00  0.00     0.188 HD
HETATM    4  N2  UNL     1      -0.039   0.666   0.014  1.00  0.00    -0.278 N 
ATOM      5  H2  UNL     1       0.976   0.592   0.078  1.00  0.00     0.189 HD
HETATM    6  C7  UNL     1      -0.786  -0.146  -0.711  1.00  0.00     0.168 A 
HETATM    7  N5  UNL     1      -2.069   0.305  -0.515  1.00  0.00    -0.274 N 
ENDROOT
BRANCH   6   8
HETATM    8  S1  UNL     1      -0.381  -1.521  -1.738  1.00  0.00    -0.084 SA
BRANCH   8   9
HETATM    9  C8  UNL     1       1.334  -1.924  -1.858  1.00  0.00     0.167 C 
BRANCH   9  10
HETATM   10  C9  UNL     1       2.226  -0.953  -2.542  1.00  0.00     0.140 C 
BRANCH  10  11
HETATM   11  O2  UNL     1       1.847  -0.692  -3.872  1.00  0.00    -0.348 OA
ATOM     12  H2  UNL     1       2.417  -0.071  -4.309  1.00  0.00     0.219 HD
ENDBRANCH  10  11
BRANCH  10  13
HETATM   13  N3  UNL     1       2.645   0.186  -1.807  1.00  0.00    -0.283 N 
ATOM     14  H3  UNL     1       2.337   1.113  -2.101  1.00  0.00     0.188 HD
BRANCH  13  15
HETATM   15  N4  UNL     1       3.465   0.063  -0.697  1.00  0.00    -0.309 N 
HETATM   16  C10 UNL     1       4.154  -0.973  -0.375  1.00  0.00     0.121 C 
ATOM     17  H4  UNL     1       3.528   0.871  -0.077  1.00  0.00     0.186 HD
BRANCH  16  18
HETATM   18  C11 UNL     1       4.964  -0.901   0.850  1.00  0.00     0.014 A 
HETATM   19  C12 UNL     1       4.981   0.243   1.615  1.00  0.00     0.015 A 
HETATM   20  C13 UNL     1       5.752   0.291   2.763  1.00  0.00     0.001 A 
HETATM   21  C14 UNL     1       6.521  -0.769   3.190  1.00  0.00     0.003 A 
HETATM   22  C15 UNL     1       6.493  -1.909   2.410  1.00  0.00     0.037 A 
HETATM   23  C16 UNL     1       5.723  -1.963   1.260  1.00  0.00     0.077 A 
BRANCH  23  24
HETATM   24  O3  UNL     1       5.686  -3.117   0.459  1.00  0.00    -0.360 OA
ATOM     25  H3  UNL     1       6.213  -3.854   0.744  1.00  0.00     0.217 HD
ENDBRANCH  23  24
ENDBRANCH  16  18
ENDBRANCH  13  15
ENDBRANCH  10  13
ENDBRANCH   9  10
ENDBRANCH   8   9
ENDBRANCH   6   8
BRANCH   7  26
HETATM   26  C17 UNL     1      -3.164  -0.325  -1.142  1.00  0.00     0.043 A 
HETATM   27  C18 UNL     1      -3.617   0.043  -2.409  1.00  0.00     0.030 A 
HETATM   28  C19 UNL     1      -4.645  -0.576  -3.067  1.00  0.00     0.002 A 
HETATM   29  C20 UNL     1      -5.276  -1.634  -2.442  1.00  0.00     0.000 A 
HETATM   30  C21 UNL     1      -4.886  -2.055  -1.191  1.00  0.00     0.002 A 
HETATM   31  C22 UNL     1      -3.847  -1.405  -0.563  1.00  0.00     0.030 A 
ENDBRANCH   7  26
BRANCH   1  32
HETATM   32  C5  UNL     1      -3.068   2.209   0.854  1.00  0.00     0.081 A 
HETATM   33  C4  UNL     1      -4.396   2.111   0.617  1.00  0.00     0.034 A 
HETATM   34  C3  UNL     1      -5.347   2.991   1.192  1.00  0.00     0.008 A 
HETATM   35  C2  UNL     1      -4.916   3.980   2.020  1.00  0.00     0.074 A 
HETATM   36  C1  UNL     1      -3.564   4.064   2.250  1.00  0.00     0.245 A 
HETATM   37  O1  UNL     1      -3.153   4.964   3.006  1.00  0.00    -0.268 OA
HETATM   38  N6  UNL     1      -2.695   3.209   1.684  1.00  0.00    -0.320 N 
ATOM     39  H6  UNL     1      -1.703   3.320   1.891  1.00  0.00     0.169 HD
ENDBRANCH   1  32
TORSDOF 10
