REMARK  11 active torsions:
REMARK  status: ('A' for Active; 'I' for Inactive)
REMARK    1  A    between atoms: C5_5  and  C6_6 
REMARK    2  A    between atoms: C8_8  and  O1_9 
REMARK    3  A    between atoms: C9_11  and  C10_12 
REMARK    4  A    between atoms: C9_11  and  C11_15 
REMARK    5  A    between atoms: C10_12  and  O2_13 
REMARK    6  A    between atoms: C11_15  and  N1_16 
REMARK    7  A    between atoms: C13_18  and  C14_19 
REMARK    8  A    between atoms: C14_19  and  N2_20 
REMARK    9  A    between atoms: N2_20  and  C15_22 
REMARK   10  A    between atoms: C18_25  and  C19_26 
REMARK   11  A    between atoms: N3_27  and  O3_29 
ROOT
HETATM    1  N1  UNL     1      -0.432  -0.830  -2.355  1.00  0.00    -0.284 N 
HETATM    2  C12 UNL     1       0.848  -0.434  -2.354  1.00  0.00     0.140 A 
HETATM    3  C13 UNL     1       1.657  -1.403  -1.795  1.00  0.00     0.061 A 
HETATM    4  N4  UNL     1       0.814  -2.396  -1.459  1.00  0.00    -0.287 N 
ATOM      5  H4  UNL     1       1.082  -3.276  -1.017  1.00  0.00     0.188 HD
HETATM    6  N5  UNL     1      -0.413  -2.050  -1.792  1.00  0.00    -0.241 N 
ATOM      7  H5  UNL     1      -1.238  -2.631  -1.642  1.00  0.00     0.208 HD
ENDROOT
BRANCH   1   8
HETATM    8  C11 UNL     1      -1.600  -0.183  -2.817  1.00  0.00     0.192 C 
BRANCH   8   9
HETATM    9  C9  UNL     1      -2.388   0.655  -1.904  1.00  0.00     0.126 C 
HETATM   10  C8  UNL     1      -1.794   1.833  -1.262  1.00  0.00     0.159 C 
HETATM   11  C7  UNL     1      -2.680   1.947   0.000  1.00  0.00     0.072 C 
HETATM   12  C6  UNL     1      -2.827   0.481   0.303  1.00  0.00     0.158 C 
HETATM   13  O4  UNL     1      -2.930  -0.160  -0.896  1.00  0.00    -0.363 OA
BRANCH  10  14
HETATM   14  O1  UNL     1      -0.519   1.748  -0.780  1.00  0.00    -0.392 OA
ATOM     15  H1  UNL     1       0.025   1.678  -1.555  1.00  0.00     0.210 HD
ENDBRANCH  10  14
BRANCH  12  16
HETATM   16  C5  UNL     1      -4.008   0.177   1.132  1.00  0.00    -0.029 A 
HETATM   17  C4  UNL     1      -4.720   1.113   1.852  1.00  0.00     0.010 A 
HETATM   18  C3  UNL     1      -5.823   0.759   2.611  1.00  0.00     0.007 A 
HETATM   19  C2  UNL     1      -6.251  -0.540   2.678  1.00  0.00    -0.062 A 
HETATM   20  C1  UNL     1      -7.440  -0.942   3.494  1.00  0.00     0.048 C 
HETATM   21  C23 UNL     1      -5.549  -1.495   1.962  1.00  0.00     0.007 A 
HETATM   22  C22 UNL     1      -4.437  -1.132   1.197  1.00  0.00     0.010 A 
ENDBRANCH  12  16
BRANCH   9  23
HETATM   23  C10 UNL     1      -3.646   1.161  -2.651  1.00  0.00     0.206 C 
BRANCH  23  24
HETATM   24  O2  UNL     1      -4.286   0.005  -3.130  1.00  0.00    -0.398 OA
ATOM     25  H2  UNL     1      -5.058   0.316  -3.588  1.00  0.00     0.209 HD
ENDBRANCH  23  24
ENDBRANCH   9  23
ENDBRANCH   8   9
ENDBRANCH   1   8
BRANCH   3  26
HETATM   26  C14 UNL     1       3.131  -1.335  -1.616  1.00  0.00     0.179 C 
BRANCH  26  27
HETATM   27  N2  UNL     1       3.447  -0.760  -0.351  1.00  0.00    -0.384 N 
ATOM     28  H2  UNL     1       2.699  -0.466   0.277  1.00  0.00     0.160 HD
BRANCH  27  29
HETATM   29  C15 UNL     1       4.802  -0.597   0.033  1.00  0.00     0.028 A 
HETATM   30  C16 UNL     1       5.134  -0.041   1.254  1.00  0.00     0.030 A 
HETATM   31  C17 UNL     1       6.468   0.112   1.617  1.00  0.00     0.015 A 
HETATM   32  C18 UNL     1       7.493  -0.278   0.784  1.00  0.00    -0.019 A 
HETATM   33  C20 UNL     1       7.149  -0.829  -0.429  1.00  0.00     0.015 A 
HETATM   34  C21 UNL     1       5.827  -0.987  -0.801  1.00  0.00     0.030 A 
BRANCH  32  35
HETATM   35  C19 UNL     1       8.885  -0.101   1.199  1.00  0.00     0.125 C 
HETATM   36  N3  UNL     1       9.146   0.416   2.336  1.00  0.00    -0.280 N 
ATOM     37  H3  UNL     1       8.356   0.690   2.920  1.00  0.00     0.193 HD
BRANCH  36  38
HETATM   38  O3  UNL     1      10.389   0.630   2.828  1.00  0.00    -0.290 OA
ATOM     39  H3  UNL     1      10.583   1.015   3.675  1.00  0.00     0.244 HD
ENDBRANCH  36  38
ENDBRANCH  32  35
ENDBRANCH  27  29
ENDBRANCH  26  27
ENDBRANCH   3  26
TORSDOF 11
