REMARK  6 active torsions:
REMARK  status: ('A' for Active; 'I' for Inactive)
REMARK    1  A    between atoms: N1_1  and  C1_4 
REMARK    2  A    between atoms: C2_9  and  N4_10 
REMARK    3  A    between atoms: N4_10  and  C3_12 
REMARK    4  A    between atoms: C3_12  and  C4_13 
REMARK    5  A    between atoms: C4_13  and  N5_14 
REMARK    6  A    between atoms: C8_18  and  C9_19 
ROOT
HETATM    1  C4  UNL     1      -0.047   0.974   0.226  1.00  0.00     0.045 C 
HETATM    2  C14 UNL     1      -1.279   1.607  -0.400  1.00  0.00     0.032 C 
HETATM    3  C15 UNL     1      -0.991   2.934  -1.067  1.00  0.00     0.002 C 
HETATM    4  C16 UNL     1      -0.617   3.903   0.012  1.00  0.00     0.000 C 
HETATM    5  C17 UNL     1       0.607   3.367   0.680  1.00  0.00     0.002 C 
HETATM    6  C18 UNL     1       0.460   1.998   1.237  1.00  0.00     0.032 C 
ENDROOT
BRANCH   1   7
HETATM    7  C3  UNL     1       1.033   0.791  -0.809  1.00  0.00     0.169 C 
BRANCH   7   8
HETATM    8  N4  UNL     1       2.275   0.282  -0.350  1.00  0.00    -0.222 N 
ATOM      9  H4  UNL     1       2.590   0.570   0.577  1.00  0.00     0.177 HD
BRANCH   8  10
HETATM   10  C2  UNL     1       3.034  -0.516  -1.016  1.00  0.00     0.707 A 
HETATM   11  N3  UNL     1       2.868  -1.046  -2.236  1.00  0.00    -0.117 N 
HETATM   12  N2  UNL     1       3.912  -1.820  -2.535  1.00  0.00    -0.118 N 
ATOM     13  H3  UNL     1       2.065  -0.882  -2.843  1.00  0.00     0.206 HD
HETATM   14  C1  UNL     1       4.769  -1.791  -1.489  1.00  0.00     0.705 A 
ATOM     15  H2  UNL     1       4.042  -2.343  -3.401  1.00  0.00     0.206 HD
HETATM   16  N7  UNL     1       4.210  -0.985  -0.569  1.00  0.00    -0.020 N 
ATOM     17  H7  UNL     1       4.620  -0.762   0.338  1.00  0.00     0.203 HD
BRANCH  14  18
HETATM   18  N1  UNL     1       5.911  -2.418  -1.387  1.00  0.00    -0.233 N 
ATOM     19  H12 UNL     1       6.335  -3.029  -2.085  1.00  0.00     0.174 HD
ATOM     20  H11 UNL     1       6.557  -2.396  -0.598  1.00  0.00     0.174 HD
ENDBRANCH  14  18
ENDBRANCH   8  10
ENDBRANCH   7   8
ENDBRANCH   1   7
BRANCH   1  21
HETATM   21  N5  UNL     1      -0.356  -0.257   0.822  1.00  0.00    -0.394 N 
HETATM   22  C5  UNL     1       0.654  -0.893   1.573  1.00  0.00     0.118 C 
HETATM   23  C6  UNL     1      -0.015  -1.494   2.812  1.00  0.00     0.022 C 
HETATM   24  C7  UNL     1      -1.392  -1.735   2.283  1.00  0.00     0.031 C 
HETATM   25  C8  UNL     1      -1.609  -0.543   1.346  1.00  0.00     0.114 C 
BRANCH  25  26
HETATM   26  C9  UNL     1      -2.619  -1.073   0.397  1.00  0.00    -0.020 A 
HETATM   27  C10 UNL     1      -2.303  -2.039  -0.523  1.00  0.00     0.012 A 
HETATM   28  C11 UNL     1      -3.304  -2.476  -1.358  1.00  0.00     0.018 A 
HETATM   29  C12 UNL     1      -4.585  -1.975  -1.290  1.00  0.00     0.087 A 
HETATM   30  N6  UNL     1      -4.873  -1.027  -0.379  1.00  0.00    -0.375 N 
HETATM   31  C13 UNL     1      -3.906  -0.580   0.454  1.00  0.00     0.096 A 
ATOM     32  H6  UNL     1      -5.818  -0.647  -0.317  1.00  0.00     0.164 HD
ENDBRANCH  25  26
ENDBRANCH   1  21
TORSDOF 6
