REMARK  4 active torsions:
REMARK  status: ('A' for Active; 'I' for Inactive)
REMARK    1  A    between atoms: N1_1  and  N2_4 
REMARK    2  A    between atoms: C1_6  and  O1_7 
REMARK    3  A    between atoms: C1_6  and  N3_9 
REMARK    4  A    between atoms: N4_11  and  C2_13 
ROOT
HETATM    1  N3  UNL     1       1.280  -1.059  -1.503  1.00  0.00    -0.263 N 
ATOM      2  H3  UNL     1       1.794  -1.678  -2.130  1.00  0.00     0.190 HD
HETATM    3  N4  UNL     1       0.033  -1.127  -1.549  1.00  0.00    -0.290 N 
ATOM      4  H4  UNL     1      -0.364  -1.796  -2.209  1.00  0.00     0.187 HD
ENDROOT
BRANCH   3   5
HETATM    5  C2  UNL     1      -0.877  -0.379  -0.787  1.00  0.00     0.158 A 
HETATM    6  C3  UNL     1      -1.162  -0.742   0.513  1.00  0.00     0.154 A 
HETATM    7  N5  UNL     1      -0.549  -1.881   1.130  1.00  0.00    -0.080 NA
HETATM    8  N6  UNL     1      -2.035  -0.000   1.201  1.00  0.00    -0.295 N 
HETATM    9  C4  UNL     1      -2.625   1.072   0.649  1.00  0.00     0.328 A 
ATOM     10  H6  UNL     1      -2.257  -0.253   2.164  1.00  0.00     0.172 HD
HETATM   11  O2  UNL     1      -3.453   1.761   1.328  1.00  0.00    -0.247 OA
HETATM   12  N7  UNL     1      -2.378   1.468  -0.624  1.00  0.00    -0.273 N 
HETATM   13  C5  UNL     1      -1.497   0.728  -1.330  1.00  0.00     0.281 A 
ATOM     14  H7  UNL     1      -2.835   2.285  -1.028  1.00  0.00     0.173 HD
HETATM   15  O3  UNL     1      -1.237   1.061  -2.519  1.00  0.00    -0.265 OA
ENDBRANCH   3   5
BRANCH   1  16
HETATM   16  C1  UNL     1       2.046  -0.224  -0.682  1.00  0.00     0.250 C 
HETATM   17  N2  UNL     1       3.339  -0.432  -0.659  1.00  0.00    -0.271 N 
ATOM     18  H2  UNL     1       3.719  -1.183  -1.234  1.00  0.00     0.190 HD
BRANCH  17  19
HETATM   19  N1  UNL     1       4.210   0.313   0.103  1.00  0.00    -0.342 N 
ATOM     20  H12 UNL     1       3.813   1.060   0.672  1.00  0.00     0.176 HD
ATOM     21  H11 UNL     1       5.217   0.151   0.121  1.00  0.00     0.176 HD
ENDBRANCH  17  19
BRANCH  16  22
HETATM   22  O1  UNL     1       1.545   0.800   0.103  1.00  0.00    -0.330 OA
ATOM     23  H1  UNL     1       0.607   0.951   0.086  1.00  0.00     0.221 HD
ENDBRANCH  16  22
ENDBRANCH   1  16
TORSDOF 4
