REMARK  8 active torsions:
REMARK  status: ('A' for Active; 'I' for Inactive)
REMARK    1  A    between atoms: C2_2  and  C5_5 
REMARK    2  A    between atoms: C5_5  and  N1_6 
REMARK    3  A    between atoms: N2_9  and  C8_10 
REMARK    4  A    between atoms: C8_10  and  C9_11 
REMARK    5  A    between atoms: C9_11  and  C10_12 
REMARK    6  A    between atoms: C10_12  and  C11_13 
REMARK       I    between atoms: C11_13  and  N3_15 
REMARK    7  A    between atoms: N3_15  and  C12_17 
REMARK    8  A    between atoms: C15_21  and  C16_22 
ROOT
HETATM    1  C11 UNL     1       2.225  -0.697  -0.330  1.00  0.00     0.222 C 
HETATM    2  O1  UNL     1       2.698  -1.823  -0.550  1.00  0.00    -0.273 OA
HETATM    3  N3  UNL     1       3.064   0.410  -0.095  1.00  0.00    -0.321 N 
ATOM      4  H3  UNL     1       2.667   1.332   0.086  1.00  0.00     0.169 HD
ENDROOT
BRANCH   1   5
HETATM    5  C10 UNL     1       0.745  -0.500  -0.312  1.00  0.00     0.105 C 
BRANCH   5   6
HETATM    6  C9  UNL     1       0.026  -1.790  -0.534  1.00  0.00     0.040 C 
BRANCH   6   7
HETATM    7  C8  UNL     1      -1.448  -1.721  -0.607  1.00  0.00     0.275 C 
BRANCH   7   8
HETATM    8  N2  UNL     1      -2.199  -1.200   0.449  1.00  0.00     0.118 N 
HETATM    9  C7  UNL     1      -2.242   0.174   0.725  1.00  0.00     0.304 C 
HETATM   10  C6  UNL     1      -3.619   0.546   0.088  1.00  0.00     0.304 C 
HETATM   11  N1  UNL     1      -4.422  -0.569   0.433  1.00  0.00     0.119 N 
HETATM   12  C20 UNL     1      -3.527  -1.725   0.494  1.00  0.00     0.542 C 
BRANCH  11  13
HETATM   13  C5  UNL     1      -5.585  -0.841  -0.324  1.00  0.00     0.283 C 
BRANCH  13  14
HETATM   14  C2  UNL     1      -6.664   0.173  -0.129  1.00  0.00    -0.025 C 
HETATM   15  C1  UNL     1      -6.353   1.567  -0.524  1.00  0.00     0.016 C 
HETATM   16  C3  UNL     1      -7.917  -0.325  -0.870  1.00  0.00     0.016 C 
HETATM   17  C4  UNL     1      -7.114   0.195   1.354  1.00  0.00     0.016 C 
ENDBRANCH  13  14
ENDBRANCH  11  13
ENDBRANCH   7   8
ENDBRANCH   6   7
ENDBRANCH   5   6
ENDBRANCH   1   5
BRANCH   3  18
HETATM   18  C12 UNL     1       4.476   0.220  -0.114  1.00  0.00     0.093 A 
HETATM   19  S1  UNL     1       5.250  -1.301  -0.415  1.00  0.00    -0.075 SA
HETATM   20  C13 UNL     1       6.861  -0.820  -0.296  1.00  0.00    -0.008 A 
HETATM   21  C14 UNL     1       6.783   0.506  -0.026  1.00  0.00    -0.027 A 
HETATM   22  C19 UNL     1       8.299  -1.290  -0.377  1.00  0.00     0.047 C 
HETATM   23  C15 UNL     1       5.539   1.061   0.071  1.00  0.00     0.070 A 
HETATM   24  C17 UNL     1       8.217   0.990   0.096  1.00  0.00     0.041 C 
HETATM   25  C18 UNL     1       9.022  -0.228   0.372  1.00  0.00     0.010 C 
BRANCH  23  26
HETATM   26  C16 UNL     1       5.264   2.501   0.355  1.00  0.00     0.268 C 
HETATM   27  N4  UNL     1       6.379   3.371   0.543  1.00  0.00    -0.057 NA
HETATM   28  O2  UNL     1       4.130   2.973   0.433  1.00  0.00    -0.271 OA
ENDBRANCH  23  26
ENDBRANCH   3  18
TORSDOF 8
