REMARK  7 active torsions:
REMARK  status: ('A' for Active; 'I' for Inactive)
REMARK    1  A    between atoms: C2_2  and  C3_3 
REMARK    2  A    between atoms: C3_3  and  O1_4 
REMARK    3  A    between atoms: C3_3  and  C4_6 
REMARK    4  A    between atoms: C4_6  and  C5_7 
REMARK    5  A    between atoms: C11_13  and  O2_14 
REMARK    6  A    between atoms: C15_19  and  O3_20 
REMARK    7  A    between atoms: C20_26  and  O4_27 
ROOT
HETATM    1  C5  UNL     1       2.113  -0.790   0.541  1.00  0.00    -0.015 C 
HETATM    2  C6  UNL     1       3.080  -1.797   1.135  1.00  0.00     0.018 C 
HETATM    3  C7  UNL     1       1.369  -0.161   1.667  1.00  0.00     0.012 C 
HETATM    4  C8  UNL     1       0.168   0.646   1.205  1.00  0.00     0.007 C 
HETATM    5  C9  UNL     1      -0.666  -0.126   0.221  1.00  0.00     0.003 C 
HETATM    6  C10 UNL     1      -0.251  -1.575   0.301  1.00  0.00     0.049 C 
HETATM    7  C11 UNL     1      -1.171  -2.470  -0.507  1.00  0.00     0.125 C 
HETATM    8  C12 UNL     1      -2.105  -1.633  -1.350  1.00  0.00     0.037 C 
HETATM    9  C13 UNL     1      -2.960  -0.751  -0.462  1.00  0.00    -0.001 C 
HETATM   10  C14 UNL     1      -3.828   0.082  -1.377  1.00  0.00     0.037 C 
HETATM   11  C15 UNL     1      -4.711   0.936  -0.494  1.00  0.00     0.118 C 
HETATM   12  C16 UNL     1      -3.845   1.909   0.246  1.00  0.00     0.032 C 
HETATM   13  C17 UNL     1      -2.387   1.574   0.217  1.00  0.00     0.012 C 
HETATM   14  C18 UNL     1      -2.130   0.086   0.472  1.00  0.00    -0.036 C 
HETATM   15  C19 UNL     1      -2.502  -0.224   1.906  1.00  0.00     0.016 C 
HETATM   16  C20 UNL     1       1.139  -1.632  -0.301  1.00  0.00     0.133 C 
ENDROOT
BRANCH   1  17
HETATM   17  C4  UNL     1       2.739   0.166  -0.387  1.00  0.00     0.043 C 
BRANCH  17  18
HETATM   18  C3  UNL     1       3.817   1.048   0.078  1.00  0.00     0.118 C 
BRANCH  18  19
HETATM   19  C2  UNL     1       4.244   1.903  -1.133  1.00  0.00     0.027 C 
HETATM   20  C1  UNL     1       5.461   2.686  -0.670  1.00  0.00     0.007 C 
ENDBRANCH  18  19
BRANCH  18  21
HETATM   21  O1  UNL     1       3.538   1.955   1.062  1.00  0.00    -0.396 OA
ATOM     22  H1  UNL     1       3.275   1.428   1.808  1.00  0.00     0.210 HD
ENDBRANCH  18  21
ENDBRANCH  17  18
ENDBRANCH   1  17
BRANCH  16  23
HETATM   23  O4  UNL     1       1.555  -2.942  -0.433  1.00  0.00    -0.394 OA
ATOM     24  H4  UNL     1       0.954  -3.462  -0.953  1.00  0.00     0.210 HD
ENDBRANCH  16  23
BRANCH   7  25
HETATM   25  O2  UNL     1      -1.968  -3.280   0.299  1.00  0.00    -0.395 OA
ATOM     26  H2  UNL     1      -2.544  -3.841  -0.207  1.00  0.00     0.210 HD
ENDBRANCH   7  25
BRANCH  11  27
HETATM   27  O3  UNL     1      -5.675   1.597  -1.259  1.00  0.00    -0.396 OA
ATOM     28  H3  UNL     1      -6.229   2.133  -0.705  1.00  0.00     0.210 HD
ENDBRANCH  11  27
TORSDOF 7
