REMARK  0 active torsions:
REMARK  status: ('A' for Active; 'I' for Inactive)
ROOT
HETATM    1  N1  UNL     1       2.668  -0.529   1.477  1.00  0.00    -0.404 N 
ATOM      2  H11 UNL     1       2.799   0.049   2.307  1.00  0.00     0.155 HD
ATOM      3  H12 UNL     1       3.122  -1.434   1.355  1.00  0.00     0.155 HD
HETATM    4  C1  UNL     1       1.911  -0.141   0.527  1.00  0.00     0.005 C 
HETATM    5  C2  UNL     1       1.721  -0.978  -0.675  1.00  0.00     0.054 C 
HETATM    6  C3  UNL     1       0.536  -1.881  -0.615  1.00  0.00     0.006 C 
HETATM    7  C4  UNL     1      -0.342  -1.701   0.569  1.00  0.00     0.000 C 
HETATM    8  C5  UNL     1      -1.666  -1.063   0.280  1.00  0.00     0.000 C 
HETATM    9  C6  UNL     1      -1.638   0.025  -0.724  1.00  0.00     0.002 C 
HETATM   10  C7  UNL     1      -1.884   1.397  -0.088  1.00  0.00     0.027 C 
HETATM   11  C8  UNL     1      -0.659   2.271  -0.163  1.00  0.00     0.232 C 
HETATM   12  N2  UNL     1       0.540   1.562  -0.486  1.00  0.00    -0.070 N 
ATOM     13  H21 UNL     1       1.132   2.092  -1.125  1.00  0.00     0.277 HD
ATOM     14  H22 UNL     1       0.354   0.756  -1.083  1.00  0.00     0.277 HD
HETATM   15  C9  UNL     1       1.244   1.189   0.706  1.00  0.00     0.284 C 
ENDROOT
TORSDOF 0
