REMARK  1 active torsions:
REMARK  status: ('A' for Active; 'I' for Inactive)
REMARK    1  A    between atoms: N1_3  and  C3_4 
ROOT
HETATM    1  C3  UNL     1       0.067  -0.097   0.026  1.00  0.00     0.029 C 
HETATM    2  C4  UNL     1      -0.646  -1.155  -0.812  1.00  0.00     0.035 C 
HETATM    3  C5  UNL     1      -2.139  -1.039  -0.689  1.00  0.00    -0.012 C 
HETATM    4  C6  UNL     1      -2.532   0.289  -1.292  1.00  0.00     0.009 C 
HETATM    5  C7  UNL     1      -1.836   1.378  -0.534  1.00  0.00    -0.012 C 
HETATM    6  C8  UNL     1      -2.336   1.336   0.900  1.00  0.00     0.009 C 
HETATM    7  C9  UNL     1      -1.949   0.012   1.501  1.00  0.00    -0.012 C 
HETATM    8  C10 UNL     1      -2.626  -1.090   0.734  1.00  0.00     0.009 C 
HETATM    9  C11 UNL     1      -0.448  -0.238   1.426  1.00  0.00     0.035 C 
HETATM   10  C12 UNL     1      -0.343   1.241  -0.498  1.00  0.00     0.035 C 
ENDROOT
BRANCH   1  11
HETATM   11  N1  UNL     1       1.446  -0.393  -0.042  1.00  0.00    -0.400 N 
HETATM   12  C2  UNL     1       2.264   0.012   1.048  1.00  0.00     0.144 C 
HETATM   13  C1  UNL     1       3.608  -0.688   0.868  1.00  0.00     0.187 C 
HETATM   14  O1  UNL     1       4.247  -0.299  -0.294  1.00  0.00    -0.388 OA
HETATM   15  C14 UNL     1       3.429   0.435  -1.153  1.00  0.00     0.187 C 
HETATM   16  C13 UNL     1       2.085  -0.268  -1.299  1.00  0.00     0.144 C 
ENDBRANCH   1  11
TORSDOF 1
