REMARK  6 active torsions:
REMARK  status: ('A' for Active; 'I' for Inactive)
REMARK    1  A    between atoms: S1_2  and  C2_3 
REMARK    2  A    between atoms: C5_8  and  C6_9 
REMARK    3  A    between atoms: C9_13  and  O1_14 
REMARK    4  A    between atoms: C11_17  and  N1_18 
REMARK    5  A    between atoms: N1_18  and  S3_20 
REMARK    6  A    between atoms: S3_20  and  C12_23 
ROOT
HETATM    1  C6  UNL     1      -0.501  -0.264   0.858  1.00  0.00    -0.006 A 
HETATM    2  C7  UNL     1      -0.879  -0.422   2.171  1.00  0.00     0.040 A 
HETATM    3  C8  UNL     1       0.009  -0.324   3.228  1.00  0.00     0.068 A 
HETATM    4 CL2  UNL     1      -0.559  -0.537   4.868  1.00  0.00    -0.081 Cl
HETATM    5  C9  UNL     1       1.327  -0.058   2.957  1.00  0.00     0.089 A 
HETATM    6  C10 UNL     1       1.744   0.107   1.643  1.00  0.00     0.069 A 
HETATM    7  C11 UNL     1       0.865   0.010   0.598  1.00  0.00     0.055 A 
ENDROOT
BRANCH   7   8
HETATM    8  N1  UNL     1       1.185   0.182  -0.767  1.00  0.00    -0.279 N 
ATOM      9  H1  UNL     1       0.537   0.724  -1.339  1.00  0.00     0.179 HD
BRANCH   8  10
HETATM   10  S3  UNL     1       2.571  -0.448  -1.528  1.00  0.00     0.269 S 
HETATM   11  O2  UNL     1       2.575  -1.960  -1.524  1.00  0.00    -0.200 OA
HETATM   12  O3  UNL     1       2.592  -0.061  -3.004  1.00  0.00    -0.200 OA
BRANCH  10  13
HETATM   13  C12 UNL     1       4.090   0.152  -0.874  1.00  0.00     0.121 A 
HETATM   14  C13 UNL     1       5.127  -0.592  -0.357  1.00  0.00     0.035 A 
HETATM   15  C14 UNL     1       6.204   0.069   0.071  1.00  0.00     0.033 A 
HETATM   16  C15 UNL     1       6.195   1.436  -0.038  1.00  0.00     0.075 A 
HETATM   17 CL3  UNL     1       7.482   2.558   0.446  1.00  0.00    -0.076 Cl
HETATM   18  S4  UNL     1       4.672   1.749  -0.737  1.00  0.00    -0.064 SA
ENDBRANCH  10  13
ENDBRANCH   8  10
ENDBRANCH   7   8
BRANCH   1  19
HETATM   19  C5  UNL     1      -1.451  -0.364  -0.228  1.00  0.00     0.036 C 
HETATM   20  C4  UNL     1      -2.620   0.243  -0.177  1.00  0.00     0.059 A 
HETATM   21  S2  UNL     1      -3.299   1.269   1.122  1.00  0.00    -0.072 SA
HETATM   22  C16 UNL     1      -3.693   0.233  -1.167  1.00  0.00     0.207 A 
HETATM   23  C3  UNL     1      -4.840   1.627   0.318  1.00  0.00     0.096 A 
HETATM   24  C2  UNL     1      -4.847   0.995  -0.832  1.00  0.00     0.080 A 
HETATM   25 CL1  UNL     1      -6.076   2.644   1.042  1.00  0.00    -0.075 Cl
HETATM   26  O4  UNL     1      -3.582  -0.433  -2.271  1.00  0.00    -0.285 OA
BRANCH  24  27
HETATM   27  S1  UNL     1      -6.314   1.128  -1.912  1.00  0.00    -0.128 SA
HETATM   28  C1  UNL     1      -6.124   0.085  -3.380  1.00  0.00     0.096 C 
ENDBRANCH  24  27
ENDBRANCH   1  19
BRANCH   5  29
HETATM   29  O1  UNL     1       2.246   0.044   4.010  1.00  0.00    -0.359 OA
ATOM     30  H1  UNL     1       3.159   0.228   3.822  1.00  0.00     0.217 HD
ENDBRANCH   5  29
TORSDOF 6
