REMARK  6 active torsions:
REMARK  status: ('A' for Active; 'I' for Inactive)
REMARK    1  A    between atoms: O1_2  and  C2_3 
REMARK    2  A    between atoms: C4_5  and  C5_6 
REMARK    3  A    between atoms: C10_12  and  O2_13 
REMARK    4  A    between atoms: C11_15  and  O3_16 
REMARK    5  A    between atoms: C21_30  and  O5_31 
REMARK    6  A    between atoms: C23_33  and  O6_34 
ROOT
HETATM    1  C5  UNL     1       0.822  -0.516  -0.536  1.00  0.00     0.001 C 
HETATM    2  C6  UNL     1       1.577  -1.841  -0.417  1.00  0.00     0.045 A 
HETATM    3  C7  UNL     1       2.728  -1.901   0.299  1.00  0.00     0.084 A 
HETATM    4  C8  UNL     1       3.320  -3.057   0.719  1.00  0.00     0.064 A 
HETATM    5  C9  UNL     1       2.772  -4.290   0.414  1.00  0.00     0.072 A 
HETATM    6 CL1  UNL     1       3.527  -5.738   1.002  1.00  0.00    -0.081 Cl
HETATM    7  C10 UNL     1       1.631  -4.291  -0.312  1.00  0.00     0.121 A 
HETATM    8  C11 UNL     1       1.030  -3.071  -0.739  1.00  0.00     0.114 A 
HETATM    9  O4  UNL     1       3.424  -0.643   0.567  1.00  0.00    -0.346 OA
HETATM   10  C12 UNL     1       3.152   0.076  -0.735  1.00  0.00     0.216 C 
HETATM   11  C13 UNL     1       1.690   0.559  -0.227  1.00  0.00    -0.010 C 
HETATM   12  C14 UNL     1       2.125   1.772   0.305  1.00  0.00    -0.005 A 
HETATM   13  C15 UNL     1       2.668   2.778  -0.486  1.00  0.00     0.014 A 
HETATM   14  C16 UNL     1       3.573   3.702   0.024  1.00  0.00     0.001 A 
HETATM   15  C17 UNL     1       3.948   3.650   1.326  1.00  0.00     0.002 A 
HETATM   16  C18 UNL     1       3.427   2.682   2.165  1.00  0.00     0.024 A 
HETATM   17  C19 UNL     1       2.549   1.787   1.648  1.00  0.00     0.044 A 
HETATM   18 CL2  UNL     1       1.781   0.679   2.674  1.00  0.00    -0.083 Cl
ENDROOT
BRANCH   1  19
HETATM   19  C4  UNL     1      -0.549  -0.369  -0.040  1.00  0.00     0.003 A 
HETATM   20  C3  UNL     1      -1.013   0.988  -0.277  1.00  0.00     0.054 A 
HETATM   21  C2  UNL     1      -2.338   1.361  -0.216  1.00  0.00     0.105 A 
HETATM   22  C23 UNL     1      -3.343   0.368   0.091  1.00  0.00     0.136 A 
HETATM   23  C21 UNL     1      -2.907  -0.907   0.326  1.00  0.00     0.127 A 
HETATM   24  C20 UNL     1      -1.564  -1.171   0.258  1.00  0.00     0.081 A 
HETATM   25 CL3  UNL     1      -1.161  -2.653   1.174  1.00  0.00    -0.080 Cl
BRANCH  21  26
HETATM   26  O1  UNL     1      -2.921   2.547  -0.378  1.00  0.00    -0.353 OA
HETATM   27  C1  UNL     1      -2.607   3.813  -0.623  1.00  0.00     0.210 C 
ENDBRANCH  21  26
BRANCH  22  28
HETATM   28  O6  UNL     1      -4.655   0.691   0.143  1.00  0.00    -0.351 OA
HETATM   29  C24 UNL     1      -5.566   0.825  -0.924  1.00  0.00     0.210 C 
ENDBRANCH  22  28
BRANCH  23  30
HETATM   30  O5  UNL     1      -3.885  -1.854   0.620  1.00  0.00    -0.351 OA
HETATM   31  C22 UNL     1      -4.342  -2.017   1.906  1.00  0.00     0.210 C 
ENDBRANCH  23  30
ENDBRANCH   1  19
BRANCH   8  32
HETATM   32  O3  UNL     1      -0.103  -3.098  -1.525  1.00  0.00    -0.357 OA
ATOM     33  H3  UNL     1      -0.478  -3.942  -1.746  1.00  0.00     0.217 HD
ENDBRANCH   8  32
BRANCH   7  34
HETATM   34  O2  UNL     1       1.001  -5.517  -0.657  1.00  0.00    -0.356 OA
ATOM     35  H2  UNL     1       0.199  -5.518  -1.167  1.00  0.00     0.218 HD
ENDBRANCH   7  34
TORSDOF 6
