REMARK  5 active torsions:
REMARK  status: ('A' for Active; 'I' for Inactive)
REMARK    1  A    between atoms: C6_10  and  N3_11 
REMARK    2  A    between atoms: N3_11  and  C7_13 
REMARK    3  A    between atoms: C10_19  and  C11_20 
REMARK    4  A    between atoms: C11_20  and  C12_22 
REMARK    5  A    between atoms: C14_24  and  C15_25 
ROOT
HETATM    1  C1  UNL     1      -5.426   1.186   0.866  1.00  0.00     0.159 C 
HETATM    2  N1  UNL     1      -5.188   0.027   0.035  1.00  0.00    -0.326 N 
HETATM    3  C2  UNL     1      -6.145  -0.520  -0.791  1.00  0.00     0.141 A 
HETATM    4  C3  UNL     1      -7.462   0.006  -0.932  1.00  0.00     0.119 C 
HETATM    5  N2  UNL     1      -8.549   0.423  -1.062  1.00  0.00    -0.190 NA
HETATM    6  C4  UNL     1      -5.640  -1.601  -1.423  1.00  0.00     0.097 A 
HETATM    7 CL1  UNL     1      -6.462  -2.646  -2.580  1.00  0.00    -0.079 Cl
HETATM    8  C5  UNL     1      -4.349  -1.724  -0.981  1.00  0.00     0.102 A 
HETATM    9 CL2  UNL     1      -3.245  -2.986  -1.506  1.00  0.00    -0.078 Cl
HETATM   10  C6  UNL     1      -4.068  -0.685  -0.054  1.00  0.00     0.128 A 
ENDROOT
BRANCH  10  11
HETATM   11  N3  UNL     1      -2.789  -0.571   0.530  1.00  0.00    -0.368 N 
ATOM     12  H3  UNL     1      -2.130  -1.320   0.317  1.00  0.00     0.161 HD
BRANCH  11  13
HETATM   13  C7  UNL     1      -2.308   0.461   1.379  1.00  0.00     0.109 C 
HETATM   14  C8  UNL     1      -2.155   1.811   0.735  1.00  0.00     0.257 C 
HETATM   15  N4  UNL     1      -0.792   2.249   0.586  1.00  0.00    -0.072 N 
HETATM   16  C9  UNL     1      -0.029   1.268  -0.144  1.00  0.00     0.244 C 
ATOM     17  H42 UNL     1      -0.734   3.173   0.157  1.00  0.00     0.277 HD
ATOM     18  H41 UNL     1      -0.364   2.473   1.484  1.00  0.00     0.277 HD
HETATM   19  C10 UNL     1       0.074  -0.001   0.705  1.00  0.00     0.088 C 
HETATM   20  C20 UNL     1      -0.888   0.088   1.860  1.00  0.00     0.041 C 
BRANCH  19  21
HETATM   21  C11 UNL     1       1.419  -0.142   1.239  1.00  0.00     0.172 C 
HETATM   22  O1  UNL     1       1.640  -0.174   2.463  1.00  0.00    -0.291 OA
BRANCH  21  23
HETATM   23  C12 UNL     1       2.565  -0.250   0.307  1.00  0.00     0.051 A 
HETATM   24  C13 UNL     1       3.884  -0.385   0.643  1.00  0.00     0.036 A 
HETATM   25  C14 UNL     1       4.775  -0.468  -0.366  1.00  0.00    -0.011 A 
HETATM   26  C19 UNL     1       4.264  -0.408  -1.643  1.00  0.00     0.063 A 
HETATM   27  S2  UNL     1       2.593  -0.241  -1.392  1.00  0.00    -0.098 SA
BRANCH  25  28
HETATM   28  C15 UNL     1       6.251  -0.619  -0.130  1.00  0.00     0.017 A 
HETATM   29  C16 UNL     1       6.933  -0.696   1.042  1.00  0.00     0.022 A 
HETATM   30  C17 UNL     1       8.266  -0.830   0.976  1.00  0.00     0.033 A 
HETATM   31  C18 UNL     1       8.827  -0.878  -0.273  1.00  0.00     0.075 A 
HETATM   32 CL3  UNL     1      10.539  -1.047  -0.696  1.00  0.00    -0.076 Cl
HETATM   33  S1  UNL     1       7.473  -0.734  -1.303  1.00  0.00    -0.077 SA
ENDBRANCH  25  28
ENDBRANCH  21  23
ENDBRANCH  19  21
ENDBRANCH  11  13
ENDBRANCH  10  11
TORSDOF 5
