REMARK  6 active torsions:
REMARK  status: ('A' for Active; 'I' for Inactive)
REMARK    1  A    between atoms: C2_2  and  N1_3 
REMARK    2  A    between atoms: C2_2  and  C13_24 
REMARK    3  A    between atoms: N1_3  and  N2_4 
REMARK    4  A    between atoms: C4_11  and  C5_12 
REMARK    5  A    between atoms: C16_28  and  N6_29 
REMARK    6  A    between atoms: C17_32  and  N7_33 
ROOT
HETATM    1  N2  UNL     1      -1.143   1.825   0.399  1.00  0.00    -0.196 N 
ATOM      2  H2  UNL     1      -1.691   2.620   0.728  1.00  0.00     0.205 HD
HETATM    3  C3  UNL     1       0.116   1.983   0.580  1.00  0.00     0.271 A 
HETATM    4  N3  UNL     1       0.713   3.052   1.137  1.00  0.00    -0.261 N 
ATOM      5  H3  UNL     1       0.241   3.885   1.490  1.00  0.00     0.190 HD
HETATM    6  N4  UNL     1       1.999   2.839   1.148  1.00  0.00    -0.275 N 
ATOM      7  H4  UNL     1       2.704   3.480   1.512  1.00  0.00     0.189 HD
HETATM    8  C4  UNL     1       2.243   1.638   0.601  1.00  0.00     0.193 A 
HETATM    9  O1  UNL     1       1.083   1.129   0.260  1.00  0.00    -0.256 OA
ENDROOT
BRANCH   1  10
HETATM   10  N1  UNL     1      -1.870   0.898  -0.100  1.00  0.00    -0.327 NA
BRANCH  10  11
HETATM   11  C2  UNL     1      -2.287  -0.022  -0.764  1.00  0.00     0.117 C 
HETATM   12  C1  UNL     1      -1.427  -0.628  -1.837  1.00  0.00     0.088 C 
BRANCH  11  13
HETATM   13  C13 UNL     1      -3.638  -0.565  -0.546  1.00  0.00     0.028 A 
HETATM   14  C14 UNL     1      -4.048  -1.629  -1.352  1.00  0.00     0.043 A 
HETATM   15  C15 UNL     1      -5.294  -2.193  -1.213  1.00  0.00     0.070 A 
HETATM   16 CL2  UNL     1      -5.844  -3.540  -2.219  1.00  0.00    -0.082 Cl
HETATM   17  C16 UNL     1      -6.174  -1.699  -0.248  1.00  0.00     0.159 A 
HETATM   18  C17 UNL     1      -5.788  -0.650   0.556  1.00  0.00     0.160 A 
HETATM   19  C18 UNL     1      -4.517  -0.105   0.385  1.00  0.00     0.083 A 
HETATM   20 CL3  UNL     1      -4.079   1.216   1.417  1.00  0.00    -0.081 Cl
BRANCH  17  21
HETATM   21  N6  UNL     1      -7.468  -2.265  -0.080  1.00  0.00    -0.111 N 
HETATM   22  O2  UNL     1      -8.333  -2.055  -0.946  1.00  0.00    -0.532 OA
HETATM   23  O3  UNL     1      -7.687  -3.022   1.040  1.00  0.00    -0.532 OA
ENDBRANCH  17  21
BRANCH  18  24
HETATM   24  N7  UNL     1      -6.687  -0.146   1.543  1.00  0.00    -0.111 N 
HETATM   25  O4  UNL     1      -7.667   0.551   1.199  1.00  0.00    -0.532 OA
HETATM   26  O5  UNL     1      -6.520  -0.395   2.883  1.00  0.00    -0.532 OA
ENDBRANCH  18  24
ENDBRANCH  11  13
ENDBRANCH  10  11
ENDBRANCH   1  10
BRANCH   8  27
HETATM   27  C5  UNL     1       3.571   1.052   0.441  1.00  0.00     0.087 A 
HETATM   28  C6  UNL     1       4.762   1.626   0.853  1.00  0.00     0.048 A 
HETATM   29  C7  UNL     1       5.810   0.792   0.563  1.00  0.00    -0.005 A 
HETATM   30  C8  UNL     1       7.160   0.878   0.756  1.00  0.00     0.037 A 
HETATM   31  C12 UNL     1       5.249  -0.319  -0.041  1.00  0.00     0.043 A 
HETATM   32  C9  UNL     1       7.980  -0.176   0.334  1.00  0.00     0.035 A 
HETATM   33 CL1  UNL     1       9.726  -0.107   0.566  1.00  0.00    -0.084 Cl
HETATM   34  C10 UNL     1       7.443  -1.290  -0.269  1.00  0.00     0.026 A 
HETATM   35  C11 UNL     1       6.076  -1.335  -0.444  1.00  0.00     0.032 A 
HETATM   36  N5  UNL     1       3.898  -0.133  -0.101  1.00  0.00    -0.352 N 
ATOM     37  H5  UNL     1       3.234  -0.797  -0.499  1.00  0.00     0.166 HD
ENDBRANCH   8  27
TORSDOF 6
