REMARK  5 active torsions:
REMARK  status: ('A' for Active; 'I' for Inactive)
REMARK    1  A    between atoms: C1_2  and  N2_4 
REMARK    2  A    between atoms: N2_4  and  C2_6 
REMARK    3  A    between atoms: C2_6  and  C3_7 
REMARK    4  A    between atoms: C3_7  and  C4_8 
REMARK    5  A    between atoms: C4_8  and  N3_9 
ROOT
HETATM    1  C3  UNL     1       0.699   0.994   0.672  1.00  0.00     0.050 C 
ENDROOT
BRANCH   1   2
HETATM    2  C2  UNL     1       2.011   1.033  -0.082  1.00  0.00     0.123 C 
BRANCH   2   3
HETATM    3  N2  UNL     1       2.780  -0.163   0.088  1.00  0.00    -0.369 N 
ATOM      4  H2  UNL     1       2.432  -0.900   0.701  1.00  0.00     0.161 HD
BRANCH   3   5
HETATM    5  C1  UNL     1       4.009  -0.337  -0.578  1.00  0.00     0.180 C 
HETATM    6  N1  UNL     1       4.583   0.615  -1.449  1.00  0.00    -0.070 NA
HETATM    7  S1  UNL     1       4.890  -1.719  -0.372  1.00  0.00    -0.044 SA
ENDBRANCH   3   5
ENDBRANCH   2   3
ENDBRANCH   1   2
BRANCH   1   8
HETATM    8  C4  UNL     1      -0.135  -0.163   0.169  1.00  0.00     0.274 C 
BRANCH   8   9
HETATM    9  N3  UNL     1      -1.413  -0.285   0.813  1.00  0.00     0.088 N 
HETATM   10  C5  UNL     1      -2.342   0.759   0.522  1.00  0.00     0.272 C 
HETATM   11  C6  UNL     1      -3.464   0.212  -0.299  1.00  0.00     0.032 C 
HETATM   12  C7  UNL     1      -3.361  -1.270  -0.121  1.00  0.00     0.032 C 
HETATM   13  C8  UNL     1      -2.048  -1.555   0.543  1.00  0.00     0.272 C 
ENDBRANCH   8   9
ENDBRANCH   1   8
TORSDOF 5
