REMARK  10 active torsions:
REMARK  status: ('A' for Active; 'I' for Inactive)
REMARK    1  A    between atoms: C2_2  and  C3_3 
REMARK    2  A    between atoms: C3_3  and  N1_4 
REMARK    3  A    between atoms: N1_4  and  C4_5 
REMARK    4  A    between atoms: N1_4  and  C17_28 
REMARK    5  A    between atoms: C4_5  and  C5_6 
REMARK    6  A    between atoms: C6_7  and  C7_8 
REMARK    7  A    between atoms: C11_14  and  N3_15 
REMARK    8  A    between atoms: C12_20  and  N5_21 
REMARK    9  A    between atoms: C14_25  and  C15_26 
REMARK   10  A    between atoms: C17_28  and  C18_29 
ROOT
HETATM    1  C7  UNL     1      -1.253   0.886   0.465  1.00  0.00     0.025 A 
HETATM    2  C8  UNL     1      -1.215   1.591   1.645  1.00  0.00     0.023 A 
HETATM    3  C9  UNL     1      -2.358   2.082   2.181  1.00  0.00     0.032 A 
HETATM    4  C10 UNL     1      -3.559   1.874   1.544  1.00  0.00     0.063 A 
HETATM    5  N2  UNL     1      -4.680   2.373   2.109  1.00  0.00    -0.191 N 
ATOM      6  H2  UNL     1      -4.623   2.894   2.984  1.00  0.00     0.184 HD
HETATM    7  C11 UNL     1      -5.863   2.183   1.519  1.00  0.00     0.677 A 
HETATM    8  N4  UNL     1      -5.914   1.498   0.373  1.00  0.00    -0.176 N 
ATOM      9  H4  UNL     1      -6.819   1.354  -0.074  1.00  0.00     0.186 HD
HETATM   10  C12 UNL     1      -4.810   0.990  -0.213  1.00  0.00     0.127 A 
HETATM   11  C13 UNL     1      -3.573   1.161   0.357  1.00  0.00     0.043 A 
HETATM   12  C14 UNL     1      -2.443   0.632  -0.247  1.00  0.00    -0.024 A 
ENDROOT
BRANCH   1  13
HETATM   13  C6  UNL     1      -0.028   0.363  -0.106  1.00  0.00    -0.065 C 
HETATM   14  C5  UNL     1       1.010  -0.064  -0.568  1.00  0.00    -0.082 C 
BRANCH  14  15
HETATM   15  C4  UNL     1       2.286  -0.582  -1.106  1.00  0.00     0.212 C 
BRANCH  15  16
HETATM   16  N1  UNL     1       2.723  -1.606  -0.224  1.00  0.00    -0.397 N 
BRANCH  16  17
HETATM   17  C3  UNL     1       1.950  -2.800  -0.192  1.00  0.00     0.118 C 
BRANCH  17  18
HETATM   18  C2  UNL     1       2.036  -3.604  -1.470  1.00  0.00     0.015 C 
HETATM   19  C1  UNL     1       3.453  -4.029  -1.773  1.00  0.00     0.006 C 
ENDBRANCH  17  18
ENDBRANCH  16  17
BRANCH  16  20
HETATM   20  C17 UNL     1       3.245  -1.195   1.034  1.00  0.00     0.175 C 
BRANCH  20  21
HETATM   21  C18 UNL     1       4.040   0.093   0.855  1.00  0.00     0.034 A 
HETATM   22  C19 UNL     1       5.325   0.067   0.365  1.00  0.00     0.078 A 
HETATM   23  S1  UNL     1       5.730   1.723   0.374  1.00  0.00    -0.087 SA
HETATM   24  C20 UNL     1       4.266   2.345   0.990  1.00  0.00     0.047 A 
HETATM   25  C21 UNL     1       3.877   3.777   1.277  1.00  0.00     0.076 C 
HETATM   26  N6  UNL     1       3.540   1.252   1.158  1.00  0.00    -0.356 N 
ATOM     27  H6  UNL     1       2.590   1.320   1.524  1.00  0.00     0.166 HD
ENDBRANCH  20  21
ENDBRANCH  16  20
ENDBRANCH  15  16
ENDBRANCH  14  15
ENDBRANCH   1  13
BRANCH  12  28
HETATM   28  C15 UNL     1      -2.444  -0.124  -1.496  1.00  0.00     0.036 C 
HETATM   29  C16 UNL     1      -2.342  -1.623  -1.348  1.00  0.00     0.010 C 
ENDBRANCH  12  28
BRANCH  10  30
HETATM   30  N5  UNL     1      -4.884   0.328  -1.300  1.00  0.00    -0.384 N 
ATOM     31  H52 UNL     1      -5.803   0.201  -1.724  1.00  0.00     0.157 HD
ATOM     32  H51 UNL     1      -4.049  -0.056  -1.743  1.00  0.00     0.157 HD
ENDBRANCH  10  30
BRANCH   7  33
HETATM   33  N3  UNL     1      -6.976   2.650   2.034  1.00  0.00    -0.234 N 
ATOM     34  H32 UNL     1      -6.937   3.173   2.909  1.00  0.00     0.174 HD
ATOM     35  H31 UNL     1      -7.879   2.505   1.583  1.00  0.00     0.174 HD
ENDBRANCH   7  33
TORSDOF 10
