REMARK  8 active torsions:
REMARK  status: ('A' for Active; 'I' for Inactive)
REMARK    1  A    between atoms: C2_2  and  C3_3 
REMARK    2  A    between atoms: C3_3  and  N1_4 
REMARK    3  A    between atoms: N1_4  and  C4_6 
REMARK    4  A    between atoms: C6_10  and  C7_11 
REMARK    5  A    between atoms: C9_13  and  O1_14 
REMARK    6  A    between atoms: O1_14  and  C10_15 
REMARK    7  A    between atoms: C13_18  and  O2_19 
REMARK    8  A    between atoms: C19_25  and  N3_26 
ROOT
HETATM    1  C4  UNL     1       3.382  -0.153  -0.820  1.00  0.00     0.129 A 
HETATM    2  N2  UNL     1       2.564   0.241  -1.807  1.00  0.00    -0.350 N 
ATOM      3  H2  UNL     1       2.960   0.676  -2.640  1.00  0.00     0.166 HD
HETATM    4  C5  UNL     1       1.249   0.076  -1.722  1.00  0.00     0.103 A 
HETATM    5  C6  UNL     1       0.652  -0.520  -0.596  1.00  0.00     0.006 A 
HETATM    6  C18 UNL     1       1.435  -0.938   0.424  1.00  0.00     0.051 A 
HETATM    7  C19 UNL     1       0.934  -1.563   1.533  1.00  0.00     0.116 A 
HETATM    8  N4  UNL     1       1.801  -1.977   2.498  1.00  0.00    -0.294 N 
ATOM      9  H4  UNL     1       1.440  -2.442   3.331  1.00  0.00     0.172 HD
HETATM   10  C20 UNL     1       3.121  -1.783   2.371  1.00  0.00     0.326 A 
HETATM   11  O3  UNL     1       3.896  -2.188   3.303  1.00  0.00    -0.247 OA
HETATM   12  N5  UNL     1       3.635  -1.176   1.288  1.00  0.00    -0.304 N 
ATOM     13  H5  UNL     1       4.644  -1.042   1.215  1.00  0.00     0.171 HD
HETATM   14  C21 UNL     1       2.830  -0.742   0.296  1.00  0.00     0.095 A 
ENDROOT
BRANCH   5  15
HETATM   15  C7  UNL     1      -0.809  -0.519  -0.520  1.00  0.00    -0.015 A 
HETATM   16  C8  UNL     1      -1.484   0.380   0.254  1.00  0.00     0.052 A 
HETATM   17  C9  UNL     1      -2.908   0.486   0.228  1.00  0.00     0.103 A 
HETATM   18  C13 UNL     1      -3.617  -0.344  -0.600  1.00  0.00     0.102 A 
HETATM   19  C15 UNL     1      -2.890  -1.254  -1.379  1.00  0.00     0.047 A 
HETATM   20  C16 UNL     1      -1.522  -1.350  -1.350  1.00  0.00    -0.048 A 
HETATM   21  C17 UNL     1      -0.883  -2.379  -2.232  1.00  0.00     0.049 C 
BRANCH  17  22
HETATM   22  O1  UNL     1      -3.485   1.408   1.027  1.00  0.00    -0.344 OA
BRANCH  22  23
HETATM   23  C10 UNL     1      -4.726   1.806   1.313  1.00  0.00     0.121 C 
HETATM   24  C11 UNL     1      -4.959   2.093   2.811  1.00  0.00     0.040 C 
HETATM   25  C12 UNL     1      -5.099   3.154   0.647  1.00  0.00     0.040 C 
ENDBRANCH  22  23
ENDBRANCH  17  22
BRANCH  18  26
HETATM   26  O2  UNL     1      -4.981  -0.298  -0.676  1.00  0.00    -0.353 OA
HETATM   27  C14 UNL     1      -5.828  -1.059  -1.473  1.00  0.00     0.210 C 
ENDBRANCH  18  26
ENDBRANCH   5  15
BRANCH   7  28
HETATM   28  N3  UNL     1      -0.312  -1.811   1.647  1.00  0.00    -0.385 N 
ATOM     29  H32 UNL     1      -0.961  -1.501   0.924  1.00  0.00     0.157 HD
ATOM     30  H31 UNL     1      -0.686  -2.277   2.474  1.00  0.00     0.157 HD
ENDBRANCH   7  28
BRANCH   1  31
HETATM   31  N1  UNL     1       4.651  -0.021  -0.854  1.00  0.00    -0.374 N 
ATOM     32  H1  UNL     1       5.166  -0.359  -0.041  1.00  0.00     0.161 HD
BRANCH  31  33
HETATM   33  C3  UNL     1       5.425   0.548  -1.905  1.00  0.00     0.121 C 
BRANCH  33  34
HETATM   34  C2  UNL     1       6.881   0.595  -1.426  1.00  0.00     0.015 C 
HETATM   35  C1  UNL     1       6.971   1.442  -0.190  1.00  0.00     0.006 C 
ENDBRANCH  33  34
ENDBRANCH  31  33
ENDBRANCH   1  31
TORSDOF 8
