REMARK  2 active torsions:
REMARK  status: ('A' for Active; 'I' for Inactive)
REMARK    1  A    between atoms: C5_12  and  C6_13 
REMARK    2  A    between atoms: C13_28  and  N6_29 
ROOT
HETATM    1  C1  UNL     1      -4.057   0.222  -1.001  1.00  0.00     0.175 C 
HETATM    2  N1  UNL     1      -2.866   0.725  -0.392  1.00  0.00    -0.184 N 
HETATM    3  C2  UNL     1      -2.512   2.031  -0.626  1.00  0.00     0.681 A 
HETATM    4  N2  UNL     1      -3.409   2.805  -1.107  1.00  0.00    -0.234 N 
ATOM      5  H21 UNL     1      -3.146   3.775  -1.281  1.00  0.00     0.174 HD
ATOM      6  H22 UNL     1      -4.326   2.424  -1.339  1.00  0.00     0.174 HD
HETATM    7  N3  UNL     1      -1.305   2.533  -0.321  1.00  0.00    -0.155 N 
ATOM      8  H3  UNL     1      -1.107   3.513  -0.521  1.00  0.00     0.187 HD
HETATM    9  C3  UNL     1      -0.362   1.779   0.236  1.00  0.00     0.273 A 
HETATM   10  O1  UNL     1       0.784   2.279   0.512  1.00  0.00    -0.267 OA
HETATM   11  C4  UNL     1      -0.679   0.462   0.494  1.00  0.00     0.074 A 
HETATM   12  C5  UNL     1       0.315  -0.324   1.032  1.00  0.00     0.005 A 
HETATM   13  C11 UNL     1       0.033  -1.648   1.270  1.00  0.00     0.047 A 
HETATM   14 CL1  UNL     1       1.236  -2.745   1.983  1.00  0.00    -0.083 Cl
HETATM   15  C12 UNL     1      -1.194  -2.180   0.990  1.00  0.00     0.063 A 
HETATM   16  C13 UNL     1      -2.234  -1.386   0.438  1.00  0.00     0.133 A 
HETATM   17  C14 UNL     1      -1.959  -0.077   0.182  1.00  0.00     0.101 A 
ENDROOT
BRANCH  12  18
HETATM   18  C6  UNL     1       1.642   0.141   1.384  1.00  0.00     0.037 C 
HETATM   19  C7  UNL     1       2.740   0.008   0.677  1.00  0.00     0.101 A 
HETATM   20  C8  UNL     1       2.816  -0.641  -0.620  1.00  0.00     0.265 A 
HETATM   21  C10 UNL     1       3.994   0.534   1.231  1.00  0.00     0.265 A 
HETATM   22  O2  UNL     1       1.790  -1.114  -1.168  1.00  0.00    -0.267 OA
HETATM   23  N4  UNL     1       4.029  -0.790  -1.365  1.00  0.00    -0.275 N 
HETATM   24  C9  UNL     1       5.213  -0.265  -0.784  1.00  0.00     0.329 A 
ATOM     25  H4  UNL     1       4.042  -1.253  -2.274  1.00  0.00     0.173 HD
HETATM   26  O3  UNL     1       6.296  -0.390  -1.430  1.00  0.00    -0.246 OA
HETATM   27  N5  UNL     1       5.185   0.380   0.483  1.00  0.00    -0.275 N 
ATOM     28  H5  UNL     1       6.056   0.745   0.867  1.00  0.00     0.173 HD
HETATM   29  O4  UNL     1       4.010   1.116   2.364  1.00  0.00    -0.267 OA
ENDBRANCH  12  18
BRANCH  16  30
HETATM   30  N6  UNL     1      -3.431  -2.077   0.363  1.00  0.00    -0.113 N 
HETATM   31  O5  UNL     1      -3.352  -3.316  -0.033  1.00  0.00    -0.532 OA
HETATM   32  O6  UNL     1      -4.692  -1.711   0.595  1.00  0.00    -0.532 OA
ENDBRANCH  16  30
TORSDOF 2
