REMARK  4 active torsions:
REMARK  status: ('A' for Active; 'I' for Inactive)
REMARK    1  A    between atoms: C3_4  and  C4_5 
REMARK    2  A    between atoms: C4_5  and  N2_7 
REMARK    3  A    between atoms: N3_10  and  C7_11 
REMARK    4  A    between atoms: C9_18  and  N6_19 
ROOT
HETATM    1  N1  UNL     1       2.759   3.586  -1.434  1.00  0.00    -0.191 NA
HETATM    2  C1  UNL     1       3.206   2.574  -1.048  1.00  0.00     0.105 C 
HETATM    3  C2  UNL     1       3.732   1.327  -0.567  1.00  0.00     0.118 A 
HETATM    4  C3  UNL     1       3.139   0.125  -0.914  1.00  0.00     0.097 A 
HETATM    5  N8  UNL     1       3.683  -1.011  -0.428  1.00  0.00    -0.329 N 
ATOM      6  H8  UNL     1       3.249  -1.898  -0.683  1.00  0.00     0.168 HD
HETATM    7  C12 UNL     1       4.746  -1.041   0.359  1.00  0.00     0.181 A 
HETATM    8 CL1  UNL     1       5.387  -2.555   0.946  1.00  0.00    -0.045 Cl
HETATM    9  N9  UNL     1       5.345   0.097   0.716  1.00  0.00    -0.318 N 
ATOM     10  H9  UNL     1       6.165   0.088   1.322  1.00  0.00     0.170 HD
HETATM   11  C13 UNL     1       4.837   1.261   0.254  1.00  0.00     0.124 A 
HETATM   12  N10 UNL     1       5.431   2.345   0.612  1.00  0.00    -0.384 N 
ATOM     13 1H10 UNL     1       6.249   2.296   1.220  1.00  0.00     0.157 HD
ATOM     14 2H10 UNL     1       5.048   3.224   0.263  1.00  0.00     0.157 HD
ENDROOT
BRANCH   4  15
HETATM   15  C4  UNL     1       1.967   0.075  -1.776  1.00  0.00     0.127 C 
HETATM   16  S1  UNL     1       1.992   0.747  -3.262  1.00  0.00    -0.058 SA
BRANCH  15  17
HETATM   17  N2  UNL     1       0.762  -0.559  -1.355  1.00  0.00    -0.367 N 
HETATM   18  C5  UNL     1       0.724  -1.155  -0.050  1.00  0.00     0.144 C 
HETATM   19  C6  UNL     1      -0.637  -1.481   0.460  1.00  0.00     0.161 C 
HETATM   20  N3  UNL     1      -1.699  -0.693  -0.090  1.00  0.00    -0.214 N 
HETATM   21  C10 UNL     1      -1.635  -0.146  -1.426  1.00  0.00     0.161 C 
HETATM   22  C11 UNL     1      -0.415  -0.628  -2.179  1.00  0.00     0.144 C 
BRANCH  20  23
HETATM   23  C7  UNL     1      -2.853  -0.437   0.690  1.00  0.00     0.699 A 
HETATM   24  N4  UNL     1      -3.006  -0.905   1.948  1.00  0.00    -0.140 N 
HETATM   25  C8  UNL     1      -4.080  -0.673   2.690  1.00  0.00     0.352 A 
ATOM     26  H4  UNL     1      -2.255  -1.467   2.349  1.00  0.00     0.189 HD
HETATM   27  O1  UNL     1      -4.163  -1.137   3.854  1.00  0.00    -0.246 OA
HETATM   28  N5  UNL     1      -5.098   0.066   2.200  1.00  0.00    -0.141 N 
HETATM   29  C9  UNL     1      -4.988   0.550   0.957  1.00  0.00     0.694 A 
ATOM     30  H5  UNL     1      -5.929   0.251   2.762  1.00  0.00     0.189 HD
HETATM   31  N7  UNL     1      -3.891   0.306   0.217  1.00  0.00    -0.022 N 
ATOM     32  H7  UNL     1      -3.835   0.689  -0.727  1.00  0.00     0.203 HD
BRANCH  29  33
HETATM   33  N6  UNL     1      -5.951   1.254   0.482  1.00  0.00    -0.234 N 
ATOM     34  H62 UNL     1      -6.783   1.439   1.043  1.00  0.00     0.174 HD
ATOM     35  H61 UNL     1      -5.867   1.623  -0.465  1.00  0.00     0.174 HD
ENDBRANCH  29  33
ENDBRANCH  20  23
ENDBRANCH  15  17
ENDBRANCH   4  15
TORSDOF 4
