REMARK  5 active torsions:
REMARK  status: ('A' for Active; 'I' for Inactive)
REMARK    1  A    between atoms: C4_6  and  N2_7 
REMARK    2  A    between atoms: N2_7  and  C5_9 
REMARK    3  A    between atoms: C7_11  and  C8_12 
REMARK    4  A    between atoms: C10_17  and  S1_18 
REMARK    5  A    between atoms: S1_18  and  N3_19 
ROOT
HETATM    1  C5  UNL     1      -0.429  -1.201   0.396  1.00  0.00     0.079 A 
HETATM    2  C6  UNL     1      -1.471  -1.975   0.864  1.00  0.00     0.059 A 
HETATM    3  C7  UNL     1      -2.798  -1.679   0.772  1.00  0.00     0.084 A 
HETATM    4  C9  UNL     1      -3.333  -0.541   0.190  1.00  0.00     0.163 A 
HETATM    5  F1  UNL     1      -4.703  -0.362   0.164  1.00  0.00    -0.203 F 
HETATM    6  C10 UNL     1      -2.589   0.466  -0.388  1.00  0.00     0.161 A 
HETATM    7  S2  UNL     1      -0.901   0.250  -0.358  1.00  0.00    -0.056 SA
ENDROOT
BRANCH   1   8
HETATM    8  N2  UNL     1       0.798  -1.581   0.537  1.00  0.00    -0.322 N 
ATOM      9  H2  UNL     1       1.019  -2.463   0.998  1.00  0.00     0.169 HD
BRANCH   8  10
HETATM   10  C4  UNL     1       1.842  -0.738   0.032  1.00  0.00     0.194 C 
HETATM   11  N1  UNL     1       2.727  -0.091   0.703  1.00  0.00    -0.337 N 
HETATM   12  C2  UNL     1       3.577   0.625  -0.213  1.00  0.00     0.116 C 
ATOM     13  H1  UNL     1       2.813  -0.086   1.719  1.00  0.00     0.164 HD
HETATM   14  C1  UNL     1       4.010   1.956   0.355  1.00  0.00     0.059 C 
HETATM   15  C3  UNL     1       4.765  -0.259  -0.526  1.00  0.00     0.059 C 
HETATM   16  N5  UNL     1       2.790   0.744  -1.398  1.00  0.00    -0.107 NA
HETATM   17  N4  UNL     1       2.062  -0.475  -1.353  1.00  0.00    -0.273 N 
ATOM     18  H4  UNL     1       1.760  -1.043  -2.145  1.00  0.00     0.185 HD
ENDBRANCH   8  10
ENDBRANCH   1   8
BRANCH   3  19
HETATM   19  C8  UNL     1      -3.789  -2.626   1.330  1.00  0.00     0.212 C 
HETATM   20  O1  UNL     1      -5.030  -2.413   1.278  1.00  0.00    -0.644 OA
HETATM   21  O2  UNL     1      -3.342  -3.778   1.926  1.00  0.00    -0.644 OA
ENDBRANCH   3  19
BRANCH   6  22
HETATM   22  S1  UNL     1      -3.337   1.878  -1.106  1.00  0.00     0.266 S 
HETATM   23  O3  UNL     1      -2.382   2.399  -2.152  1.00  0.00    -0.200 OA
HETATM   24  O4  UNL     1      -4.643   1.495  -1.698  1.00  0.00    -0.200 OA
BRANCH  22  25
HETATM   25  N3  UNL     1      -3.482   3.067   0.130  1.00  0.00    -0.324 N 
ATOM     26  H32 UNL     1      -3.183   2.955   1.099  1.00  0.00     0.169 HD
ATOM     27  H31 UNL     1      -3.918   3.889  -0.288  1.00  0.00     0.169 HD
ENDBRANCH  22  25
ENDBRANCH   6  22
TORSDOF 5
