REMARK  13 active torsions:
REMARK  status: ('A' for Active; 'I' for Inactive)
REMARK    1  A    between atoms: C2_2  and  O1_3 
REMARK    2  A    between atoms: C2_2  and  C3_5 
REMARK    3  A    between atoms: C3_5  and  C4_6 
REMARK    4  A    between atoms: C3_5  and  N1_9 
REMARK    5  A    between atoms: C4_6  and  O2_7 
REMARK    6  A    between atoms: N1_9  and  C5_11 
REMARK    7  A    between atoms: C6_14  and  N3_15 
REMARK    8  A    between atoms: N3_15  and  C7_17 
REMARK    9  A    between atoms: C7_17  and  C8_18 
REMARK   10  A    between atoms: C8_18  and  O3_19 
REMARK   11  A    between atoms: C9_23  and  N5_24 
REMARK   12  A    between atoms: N5_24  and  C10_26 
REMARK   13  A    between atoms: C10_26  and  C11_27 
ROOT
HETATM    1  C5  UNL     1      -1.668   0.168   0.157  1.00  0.00     0.707 A 
HETATM    2  N2  UNL     1      -1.935   1.464   0.494  1.00  0.00    -0.022 N 
ATOM      3  H2  UNL     1      -2.902   1.766   0.608  1.00  0.00     0.203 HD
HETATM    4  C6  UNL     1      -0.941   2.343   0.676  1.00  0.00     0.707 A 
HETATM    5  N4  UNL     1       0.336   1.979   0.534  1.00  0.00    -0.022 N 
ATOM      6  H4  UNL     1       1.090   2.651   0.673  1.00  0.00     0.203 HD
HETATM    7  C9  UNL     1       0.604   0.690   0.199  1.00  0.00     0.707 A 
HETATM    8  N6  UNL     1      -0.389  -0.198   0.015  1.00  0.00    -0.021 N 
ATOM      9  H6  UNL     1      -0.165  -1.161  -0.236  1.00  0.00     0.203 HD
ENDROOT
BRANCH   1  10
HETATM   10  N1  UNL     1      -2.669  -0.622  -0.003  1.00  0.00    -0.216 N 
ATOM     11  H1  UNL     1      -3.607  -0.244   0.128  1.00  0.00     0.178 HD
BRANCH  10  12
HETATM   12  C3  UNL     1      -2.538  -2.013  -0.358  1.00  0.00     0.151 C 
BRANCH  12  13
HETATM   13  C2  UNL     1      -3.734  -2.727   0.224  1.00  0.00     0.139 C 
HETATM   14  C1  UNL     1      -5.041  -2.098  -0.181  1.00  0.00     0.041 C 
BRANCH  13  15
HETATM   15  O1  UNL     1      -3.720  -4.096  -0.057  1.00  0.00    -0.394 OA
ATOM     16  H1  UNL     1      -2.896  -4.493   0.198  1.00  0.00     0.210 HD
ENDBRANCH  13  15
ENDBRANCH  12  13
BRANCH  12  17
HETATM   17  C4  UNL     1      -2.395  -2.214  -1.840  1.00  0.00     0.192 C 
BRANCH  17  18
HETATM   18  O2  UNL     1      -2.269  -3.560  -2.174  1.00  0.00    -0.399 OA
ATOM     19  H2  UNL     1      -2.179  -3.687  -3.111  1.00  0.00     0.209 HD
ENDBRANCH  17  18
ENDBRANCH  12  17
ENDBRANCH  10  12
ENDBRANCH   1  10
BRANCH   4  20
HETATM   20  N3  UNL     1      -1.236   3.549   0.991  1.00  0.00    -0.223 N 
ATOM     21  H3  UNL     1      -2.219   3.802   1.093  1.00  0.00     0.177 HD
BRANCH  20  22
HETATM   22  C7  UNL     1      -0.231   4.567   1.208  1.00  0.00     0.164 C 
BRANCH  22  23
HETATM   23  C8  UNL     1      -0.876   5.949   1.274  1.00  0.00     0.184 C 
BRANCH  23  24
HETATM   24  O3  UNL     1       0.114   6.907   1.484  1.00  0.00    -0.399 OA
ATOM     25  H3  UNL     1      -0.287   7.767   1.525  1.00  0.00     0.209 HD
ENDBRANCH  23  24
ENDBRANCH  22  23
ENDBRANCH  20  22
ENDBRANCH   4  20
BRANCH   7  26
HETATM   26  N5  UNL     1       1.865   0.360   0.067  1.00  0.00    -0.221 N 
ATOM     27  H5  UNL     1       2.611   1.041   0.209  1.00  0.00     0.178 HD
BRANCH  26  28
HETATM   28  C10 UNL     1       2.151  -1.002  -0.287  1.00  0.00     0.176 C 
BRANCH  28  29
HETATM   29  C11 UNL     1       3.627  -1.172  -0.339  1.00  0.00    -0.040 A 
HETATM   30  C12 UNL     1       4.505  -0.145  -0.077  1.00  0.00     0.009 A 
HETATM   31  C13 UNL     1       5.871  -0.346  -0.136  1.00  0.00     0.001 A 
HETATM   32  C14 UNL     1       6.410  -1.571  -0.456  1.00  0.00     0.000 A 
HETATM   33  C15 UNL     1       5.508  -2.594  -0.716  1.00  0.00     0.001 A 
HETATM   34  C16 UNL     1       4.143  -2.410  -0.662  1.00  0.00     0.009 A 
ENDBRANCH  28  29
ENDBRANCH  26  28
ENDBRANCH   7  26
TORSDOF 13
