REMARK  4 active torsions:
REMARK  status: ('A' for Active; 'I' for Inactive)
REMARK    1  A    between atoms: O1_3  and  N2_4 
REMARK    2  A    between atoms: C2_6  and  N3_7 
REMARK    3  A    between atoms: N3_7  and  C3_9 
REMARK    4  A    between atoms: C4_12  and  N5_13 
ROOT
HETATM    1  N1  UNL     1       5.762   0.497  -0.883  1.00  0.00    -0.162 NA
HETATM    2  C1  UNL     1       4.757   0.280  -0.352  1.00  0.00     0.253 C 
HETATM    3  O1  UNL     1       3.548   0.038   0.274  1.00  0.00    -0.158 OA
ENDROOT
BRANCH   3   4
HETATM    4  N2  UNL     1       2.948   1.137   0.845  1.00  0.00    -0.245 N 
HETATM    5  C2  UNL     1       1.721   1.367   0.577  1.00  0.00     0.222 C 
ATOM      6  H2  UNL     1       3.471   1.753   1.467  1.00  0.00     0.196 HD
BRANCH   5   7
HETATM    7  N3  UNL     1       0.945   0.540  -0.285  1.00  0.00    -0.185 N 
ATOM      8  H3  UNL     1       1.333   0.257  -1.185  1.00  0.00     0.185 HD
BRANCH   7   9
HETATM    9  C3  UNL     1      -0.233   0.142   0.044  1.00  0.00     0.701 A 
HETATM   10  N4  UNL     1      -0.896  -0.631  -0.818  1.00  0.00    -0.022 N 
HETATM   11  C4  UNL     1      -2.144  -1.068  -0.500  1.00  0.00     0.694 A 
ATOM     12  H4  UNL     1      -0.471  -0.892  -1.708  1.00  0.00     0.203 HD
HETATM   13  N6  UNL     1      -2.673  -0.702   0.687  1.00  0.00    -0.141 N 
HETATM   14  C5  UNL     1      -2.024   0.074   1.569  1.00  0.00     0.352 A 
ATOM     15  H6  UNL     1      -3.609  -1.030   0.924  1.00  0.00     0.189 HD
HETATM   16  O2  UNL     1      -2.534   0.401   2.665  1.00  0.00    -0.246 OA
HETATM   17  N7  UNL     1      -0.783   0.482   1.203  1.00  0.00    -0.140 N 
ATOM     18  H7  UNL     1      -0.252   1.073   1.843  1.00  0.00     0.189 HD
BRANCH  11  19
HETATM   19  N5  UNL     1      -2.825  -1.816  -1.300  1.00  0.00    -0.234 N 
ATOM     20  H52 UNL     1      -2.425  -2.093  -2.197  1.00  0.00     0.174 HD
ATOM     21  H51 UNL     1      -3.761  -2.144  -1.061  1.00  0.00     0.174 HD
ENDBRANCH  11  19
ENDBRANCH   7   9
ENDBRANCH   5   7
ENDBRANCH   3   4
TORSDOF 4
