REMARK  8 active torsions:
REMARK  status: ('A' for Active; 'I' for Inactive)
REMARK    1  A    between atoms: C3_7  and  N3_8 
REMARK    2  A    between atoms: N3_8  and  N4_10 
REMARK       I    between atoms: N4_10  and  C4_12 
REMARK    3  A    between atoms: C4_12  and  C5_14 
REMARK    4  A    between atoms: N5_15  and  N6_17 
REMARK    5  A    between atoms: N6_17  and  C6_19 
REMARK    6  A    between atoms: C6_19  and  N7_21 
REMARK    7  A    between atoms: N7_21  and  N8_23 
REMARK    8  A    between atoms: N9_26  and  N10_27 
ROOT
HETATM    1  N4  UNL     1      -0.149   0.241  -0.845  1.00  0.00    -0.251 N 
ATOM      2  H4  UNL     1      -0.151   0.870  -1.648  1.00  0.00     0.191 HD
HETATM    3  C4  UNL     1       0.973   0.199   0.024  1.00  0.00     0.277 C 
HETATM    4  O1  UNL     1       0.965  -0.578   1.006  1.00  0.00    -0.265 OA
ENDROOT
BRANCH   1   5
HETATM    5  N3  UNL     1      -1.232  -0.568  -0.602  1.00  0.00    -0.126 N 
ATOM      6  H3  UNL     1      -1.104  -1.575  -0.698  1.00  0.00     0.206 HD
BRANCH   5   7
HETATM    7  C3  UNL     1      -2.401  -0.141  -0.260  1.00  0.00     0.733 A 
HETATM    8  N2  UNL     1      -2.794   1.124  -0.075  1.00  0.00    -0.128 N 
HETATM    9  N1  UNL     1      -4.071   1.152   0.272  1.00  0.00    -0.273 N 
ATOM     10  H2  UNL     1      -2.198   1.945  -0.185  1.00  0.00     0.205 HD
HETATM   11  C2  UNL     1      -4.503  -0.114   0.310  1.00  0.00     0.132 A 
ATOM     12  H1  UNL     1      -4.624   1.985   0.473  1.00  0.00     0.189 HD
HETATM   13  C1  UNL     1      -5.867  -0.530   0.654  1.00  0.00     0.093 C 
HETATM   14  N9  UNL     1      -3.472  -0.928  -0.019  1.00  0.00    -0.077 N 
BRANCH  14  15
HETATM   15  N10 UNL     1      -3.450  -2.310  -0.110  1.00  0.00    -0.323 N 
ATOM     16 2H10 UNL     1      -4.259  -2.904   0.072  1.00  0.00     0.178 HD
ATOM     17 1H10 UNL     1      -2.673  -2.923  -0.358  1.00  0.00     0.178 HD
ENDBRANCH  14  15
ENDBRANCH   5   7
ENDBRANCH   1   5
BRANCH   3  18
HETATM   18  C5  UNL     1       2.109   1.075  -0.267  1.00  0.00     0.182 C 
HETATM   19  N5  UNL     1       3.117   1.025   0.530  1.00  0.00    -0.304 N 
ATOM     20  H5  UNL     1       3.114   0.394   1.332  1.00  0.00     0.186 HD
BRANCH  19  21
HETATM   21  N6  UNL     1       4.207   1.842   0.281  1.00  0.00    -0.275 N 
ATOM     22  H6  UNL     1       4.101   2.856   0.305  1.00  0.00     0.189 HD
BRANCH  21  23
HETATM   23  C6  UNL     1       5.469   1.268  -0.007  1.00  0.00     0.204 C 
HETATM   24  S1  UNL     1       6.785   2.204  -0.307  1.00  0.00    -0.038 SA
BRANCH  23  25
HETATM   25  N7  UNL     1       5.630  -0.133  -0.043  1.00  0.00    -0.282 N 
ATOM     26  H7  UNL     1       6.557  -0.503  -0.254  1.00  0.00     0.189 HD
BRANCH  25  27
HETATM   27  N8  UNL     1       4.609  -1.034   0.190  1.00  0.00    -0.343 N 
ATOM     28  H82 UNL     1       3.689  -0.646   0.399  1.00  0.00     0.176 HD
ATOM     29  H81 UNL     1       4.725  -2.047   0.164  1.00  0.00     0.176 HD
ENDBRANCH  25  27
ENDBRANCH  23  25
ENDBRANCH  21  23
ENDBRANCH  19  21
ENDBRANCH   3  18
TORSDOF 8
