REMARK  4 active torsions:
REMARK  status: ('A' for Active; 'I' for Inactive)
REMARK    1  A    between atoms: C2_2  and  N1_3 
REMARK       I    between atoms: N1_3  and  C3_5 
REMARK       I    between atoms: C3_5  and  N3_9 
REMARK    2  A    between atoms: N3_9  and  N4_11 
REMARK    3  A    between atoms: C5_18  and  C6_19 
REMARK       I    between atoms: C6_19  and  N7_21 
REMARK    4  A    between atoms: N7_21  and  N8_22 
ROOT
HETATM    1  N4  UNL     1       0.858  -0.516   0.059  1.00  0.00    -0.266 N 
ATOM      2  H4  UNL     1       1.362   0.278  -0.336  1.00  0.00     0.189 HD
HETATM    3  C4  UNL     1      -0.388  -0.431   0.016  1.00  0.00     0.204 A 
HETATM    4  N5  UNL     1      -0.956   0.702  -0.541  1.00  0.00    -0.278 N 
ATOM      5  H5  UNL     1      -0.362   1.436  -0.927  1.00  0.00     0.189 HD
HETATM    6  N6  UNL     1      -2.297   0.831  -0.571  1.00  0.00    -0.278 N 
ATOM      7  H6  UNL     1      -2.702   1.671  -0.983  1.00  0.00     0.189 HD
HETATM    8  C5  UNL     1      -3.104  -0.095  -0.084  1.00  0.00     0.209 A 
HETATM    9  N9  UNL     1      -2.605  -1.214   0.466  1.00  0.00    -0.300 N 
ATOM     10  H9  UNL     1      -3.220  -1.934   0.845  1.00  0.00     0.171 HD
HETATM   11  C7  UNL     1      -1.267  -1.355   0.501  1.00  0.00     0.294 A 
HETATM   12  O2  UNL     1      -0.848  -2.422   1.022  1.00  0.00    -0.264 OA
ENDROOT
BRANCH   1  13
HETATM   13  N3  UNL     1       1.639  -1.510   0.554  1.00  0.00    -0.131 N 
HETATM   14  C3  UNL     1       2.909  -1.704  -0.147  1.00  0.00     0.686 C 
HETATM   15  N1  UNL     1       3.537  -0.446  -0.472  1.00  0.00    -0.226 N 
HETATM   16  N2  UNL     1       3.436  -2.741  -0.444  1.00  0.00    -0.234 N 
ATOM     17  H1  UNL     1       3.488  -0.041  -1.407  1.00  0.00     0.177 HD
ATOM     18  H22 UNL     1       4.321  -2.876  -0.933  1.00  0.00     0.174 HD
ATOM     19  H21 UNL     1       2.992  -3.630  -0.214  1.00  0.00     0.174 HD
ATOM     20  H3  UNL     1       1.362  -2.079   1.354  1.00  0.00     0.205 HD
BRANCH  15  21
HETATM   21  C2  UNL     1       4.240   0.205   0.612  1.00  0.00     0.133 C 
HETATM   22  C1  UNL     1       4.732   1.536   0.079  1.00  0.00     0.027 C 
ENDBRANCH  15  21
ENDBRANCH   1  13
BRANCH   8  23
HETATM   23  C6  UNL     1      -4.579   0.089  -0.048  1.00  0.00     0.380 C 
HETATM   24  O1  UNL     1      -5.213  -1.025   0.063  1.00  0.00    -0.246 OA
HETATM   25  N7  UNL     1      -5.088   1.340  -0.122  1.00  0.00    -0.285 NA
BRANCH  25  26
HETATM   26  N8  UNL     1      -5.591   2.573  -0.194  1.00  0.00    -0.276 N 
ATOM     27  H82 UNL     1      -5.252   1.615  -0.102  1.00  0.00     0.191 HD
ATOM     28  H81 UNL     1      -5.975   3.516  -0.250  1.00  0.00     0.191 HD
ENDBRANCH  25  26
ENDBRANCH   8  23
TORSDOF 4
