REMARK  10 active torsions:
REMARK  status: ('A' for Active; 'I' for Inactive)
REMARK    1  A    between atoms: C2_2  and  C3_3 
REMARK    2  A    between atoms: C3_3  and  C4_4 
REMARK    3  A    between atoms: C4_4  and  N1_5 
REMARK    4  A    between atoms: C7_8  and  N2_9 
REMARK       I    between atoms: N2_9  and  C8_11 
REMARK       I    between atoms: C8_11  and  N3_13 
REMARK    5  A    between atoms: C11_16  and  C12_17 
REMARK    6  A    between atoms: C11_16  and  S1_24 
REMARK    7  A    between atoms: C12_17  and  O2_18 
REMARK    8  A    between atoms: N4_20  and  O3_22 
REMARK    9  A    between atoms: S1_24  and  N5_26 
REMARK   10  A    between atoms: N5_26  and  C13_28 
ROOT
HETATM    1  N2  UNL     1      -0.804  -0.250  -0.548  1.00  0.00    -0.338 N 
ATOM      2  H2  UNL     1      -0.429   0.337  -1.293  1.00  0.00     0.164 HD
HETATM    3  C8  UNL     1       0.070  -0.766   0.438  1.00  0.00     0.318 C 
HETATM    4  O1  UNL     1      -0.429  -1.501   1.348  1.00  0.00    -0.247 OA
HETATM    5  N3  UNL     1       1.436  -0.469   0.402  1.00  0.00    -0.334 N 
HETATM    6  C9  UNL     1       2.293  -1.040   1.451  1.00  0.00     0.129 C 
HETATM    7  C10 UNL     1       3.673  -1.111   0.827  1.00  0.00     0.053 C 
HETATM    8  C11 UNL     1       4.258   0.243   0.542  1.00  0.00     0.126 C 
HETATM    9  C15 UNL     1       3.209   1.132  -0.066  1.00  0.00     0.053 C 
HETATM   10  C16 UNL     1       2.008   0.377  -0.612  1.00  0.00     0.129 C 
ENDROOT
BRANCH   1  11
HETATM   11  C7  UNL     1      -2.224  -0.541  -0.517  1.00  0.00     0.089 C 
HETATM   12  C6  UNL     1      -2.695  -1.309  -1.740  1.00  0.00     0.055 C 
HETATM   13  C5  UNL     1      -4.044  -0.805  -2.193  1.00  0.00     0.274 C 
HETATM   14  N1  UNL     1      -4.956  -0.615  -1.065  1.00  0.00     0.088 N 
HETATM   15  C18 UNL     1      -4.467   0.342  -0.137  1.00  0.00     0.274 C 
HETATM   16  C17 UNL     1      -3.034   0.714  -0.437  1.00  0.00     0.055 C 
BRANCH  14  17
HETATM   17  C4  UNL     1      -6.194  -0.179  -1.649  1.00  0.00     0.272 C 
BRANCH  17  18
HETATM   18  C3  UNL     1      -7.415  -0.197  -0.823  1.00  0.00     0.030 C 
BRANCH  18  19
HETATM   19  C2  UNL     1      -7.455   0.611   0.411  1.00  0.00    -0.003 C 
HETATM   20  C1  UNL     1      -8.836   0.454   1.062  1.00  0.00     0.005 C 
ENDBRANCH  18  19
ENDBRANCH  17  18
ENDBRANCH  14  17
ENDBRANCH   1  11
BRANCH   8  21
HETATM   21  C12 UNL     1       4.826   0.912   1.730  1.00  0.00     0.159 C 
HETATM   22  N4  UNL     1       5.026   0.431   2.865  1.00  0.00    -0.250 N 
ATOM     23  H4  UNL     1       5.431   1.106   3.514  1.00  0.00     0.196 HD
BRANCH  21  24
HETATM   24  O2  UNL     1       5.203   2.279   1.581  1.00  0.00    -0.347 OA
ATOM     25  H2  UNL     1       5.568   2.709   2.345  1.00  0.00     0.219 HD
ENDBRANCH  21  24
BRANCH  22  26
HETATM   26  O3  UNL     1       4.830  -0.764   3.421  1.00  0.00    -0.288 OA
ATOM     27  H3  UNL     1       4.982  -1.130   4.284  1.00  0.00     0.244 HD
ENDBRANCH  22  26
ENDBRANCH   8  21
BRANCH   8  28
HETATM   28  S1  UNL     1       5.521   0.041  -0.717  1.00  0.00     0.128 S 
HETATM   29  O4  UNL     1       5.785   1.342  -1.418  1.00  0.00    -0.234 OA
BRANCH  28  30
HETATM   30  N5  UNL     1       6.848  -0.453  -0.107  1.00  0.00    -0.326 N 
ATOM     31  H5  UNL     1       6.807  -1.254   0.523  1.00  0.00     0.171 HD
BRANCH  30  32
HETATM   32  C13 UNL     1       8.128   0.123  -0.356  1.00  0.00     0.158 C 
HETATM   33  C14 UNL     1       8.992   0.031   0.891  1.00  0.00     0.045 C 
HETATM   34 BR1  UNL     1       8.051   1.966  -0.914  1.00  0.00    -0.069 Br
ENDBRANCH  30  32
ENDBRANCH  28  30
ENDBRANCH   8  28
TORSDOF 10
