REMARK  11 active torsions:
REMARK  status: ('A' for Active; 'I' for Inactive)
REMARK    1  A    between atoms: C2_2  and  C3_3 
REMARK    2  A    between atoms: C2_2  and  C9_9 
REMARK    3  A    between atoms: C3_3  and  C4_4 
REMARK    4  A    between atoms: C9_9  and  N1_10 
REMARK    5  A    between atoms: N1_10  and  O1_11 
REMARK    6  A    between atoms: N1_10  and  C10_13 
REMARK    7  A    between atoms: C10_13  and  C11_14 
REMARK    8  A    between atoms: C11_14  and  C12_15 
REMARK    9  A    between atoms: C12_15  and  O2_16 
REMARK   10  A    between atoms: C12_15  and  N2_18 
REMARK   11  A    between atoms: C14_20  and  O3_21 
ROOT
HETATM    1  N1  UNL     1       0.488  -1.674   1.550  1.00  0.00    -0.272 N 
ENDROOT
BRANCH   1   2
HETATM    2  C9  UNL     1      -0.463  -2.451   0.813  1.00  0.00     0.159 C 
BRANCH   2   3
HETATM    3  C2  UNL     1      -1.268  -1.524  -0.098  1.00  0.00     0.002 C 
HETATM    4  C1  UNL     1      -2.248  -2.353  -0.848  1.00  0.00     0.011 C 
BRANCH   3   5
HETATM    5  C3  UNL     1      -1.780  -0.423   0.743  1.00  0.00     0.010 C 
BRANCH   5   6
HETATM    6  C4  UNL     1      -2.521   0.634   0.016  1.00  0.00    -0.014 C 
HETATM    7  C5  UNL     1      -3.759   0.222  -0.717  1.00  0.00     0.005 C 
HETATM    8  C6  UNL     1      -4.735   1.422  -0.621  1.00  0.00     0.000 C 
HETATM    9  C7  UNL     1      -3.912   2.522   0.035  1.00  0.00     0.000 C 
HETATM   10  C8  UNL     1      -3.087   1.678   1.004  1.00  0.00     0.005 C 
ENDBRANCH   5   6
ENDBRANCH   3   5
ENDBRANCH   2   3
ENDBRANCH   1   2
BRANCH   1  11
HETATM   11  O1  UNL     1       0.376  -1.518   2.913  1.00  0.00    -0.288 OA
ATOM     12  H1  UNL     1       1.007  -1.003   3.402  1.00  0.00     0.244 HD
ENDBRANCH   1  11
BRANCH   1  13
HETATM   13  C10 UNL     1       1.578  -1.042   0.868  1.00  0.00     0.121 C 
BRANCH  13  14
HETATM   14  C11 UNL     1       1.998  -1.483  -0.286  1.00  0.00     0.075 C 
BRANCH  14  15
HETATM   15  C12 UNL     1       3.075  -0.912  -1.026  1.00  0.00     0.139 C 
BRANCH  15  16
HETATM   16  O2  UNL     1       3.344  -1.466  -2.171  1.00  0.00    -0.346 OA
ATOM     17  H2  UNL     1       4.061  -1.086  -2.664  1.00  0.00     0.219 HD
ENDBRANCH  15  16
BRANCH  15  18
HETATM   18  N2  UNL     1       3.859   0.187  -0.623  1.00  0.00    -0.357 N 
HETATM   19  C13 UNL     1       4.064   1.120   0.449  1.00  0.00     0.158 C 
HETATM   20  C14 UNL     1       5.473   1.389  -0.029  1.00  0.00     0.154 C 
HETATM   21  C15 UNL     1       4.943   0.923  -1.343  1.00  0.00     0.158 C 
BRANCH  20  22
HETATM   22  O3  UNL     1       5.775   2.752  -0.063  1.00  0.00    -0.392 OA
ATOM     23  H3  UNL     1       6.660   2.921  -0.363  1.00  0.00     0.210 HD
ENDBRANCH  20  22
ENDBRANCH  15  18
ENDBRANCH  14  15
ENDBRANCH  13  14
ENDBRANCH   1  13
TORSDOF 11
