REMARK  7 active torsions:
REMARK  status: ('A' for Active; 'I' for Inactive)
REMARK    1  A    between atoms: C4_8  and  C5_9 
REMARK    2  A    between atoms: C5_9  and  O1_10 
REMARK    3  A    between atoms: O1_10  and  C6_11 
REMARK    4  A    between atoms: C6_11  and  C7_12 
REMARK    5  A    between atoms: C7_12  and  C8_13 
REMARK    6  A    between atoms: C8_13  and  C9_14 
REMARK    7  A    between atoms: C9_14  and  C10_15 
ROOT
HETATM    1  N1  UNL     1      -5.077   2.032   1.006  1.00  0.00    -0.197 NA
HETATM    2  C1  UNL     1      -3.934   1.855   1.073  1.00  0.00     0.066 C 
HETATM    3  C2  UNL     1      -2.488   1.661   1.168  1.00  0.00     0.129 C 
HETATM    4  C3  UNL     1      -1.743   2.904   0.701  1.00  0.00     0.252 C 
HETATM    5  N2  UNL     1      -0.724   2.466  -0.233  1.00  0.00    -0.067 N 
ATOM      6  H21 UNL     1       0.136   3.013  -0.199  1.00  0.00     0.277 HD
ATOM      7  H22 UNL     1      -0.942   2.660  -1.210  1.00  0.00     0.277 HD
HETATM    8  C4  UNL     1      -0.542   1.028   0.074  1.00  0.00     0.219 C 
HETATM    9  C11 UNL     1      -1.985   0.629   0.209  1.00  0.00     0.008 C 
HETATM   10  C12 UNL     1      -2.268  -0.778   0.543  1.00  0.00     0.013 C 
HETATM   11  C13 UNL     1      -3.527  -1.320  -0.154  1.00  0.00     0.001 C 
HETATM   12  C14 UNL     1      -3.314  -1.429  -1.647  1.00  0.00     0.000 C 
HETATM   13  C15 UNL     1      -2.299  -0.337  -2.010  1.00  0.00     0.001 C 
HETATM   14  C16 UNL     1      -2.612   0.890  -1.169  1.00  0.00     0.013 C 
ENDROOT
BRANCH   8  15
HETATM   15  C5  UNL     1       0.265   0.990   1.332  1.00  0.00     0.201 C 
BRANCH  15  16
HETATM   16  O1  UNL     1       0.616  -0.214   1.824  1.00  0.00    -0.389 OA
BRANCH  16  17
HETATM   17  C6  UNL     1       1.421  -1.011   1.062  1.00  0.00     0.167 C 
BRANCH  17  18
HETATM   18  C7  UNL     1       2.759  -0.430   0.722  1.00  0.00     0.027 C 
BRANCH  18  19
HETATM   19  C8  UNL     1       3.510  -1.440  -0.118  1.00  0.00     0.013 C 
BRANCH  19  20
HETATM   20  C9  UNL     1       4.859  -0.857  -0.464  1.00  0.00     0.113 C 
BRANCH  20  21
HETATM   21  C10 UNL     1       5.662  -1.784  -1.287  1.00  0.00     0.172 C 
HETATM   22  O2  UNL     1       5.212  -2.900  -1.619  1.00  0.00    -0.648 OA
HETATM   23  O3  UNL     1       6.925  -1.415  -1.696  1.00  0.00    -0.648 OA
ENDBRANCH  20  21
ENDBRANCH  19  20
ENDBRANCH  18  19
ENDBRANCH  17  18
ENDBRANCH  16  17
ENDBRANCH  15  16
ENDBRANCH   8  15
TORSDOF 7
