REMARK  7 active torsions:
REMARK  status: ('A' for Active; 'I' for Inactive)
REMARK    1  A    between atoms: C2_3  and  C3_4 
REMARK    2  A    between atoms: C3_4  and  N2_5 
REMARK    3  A    between atoms: C4_6  and  O1_7 
REMARK    4  A    between atoms: O1_7  and  C5_8 
REMARK    5  A    between atoms: C5_8  and  C6_9 
REMARK    6  A    between atoms: C6_9  and  N3_10 
REMARK    7  A    between atoms: C14_24  and  N6_25 
ROOT
HETATM    1  N1  UNL     1      -1.263   4.873   0.636  1.00  0.00    -0.197 NA
HETATM    2  C1  UNL     1      -1.549   3.831   0.233  1.00  0.00     0.060 C 
HETATM    3  C2  UNL     1      -1.917   2.513  -0.288  1.00  0.00     0.144 C 
ENDROOT
BRANCH   3   4
HETATM    4  C3  UNL     1      -1.969   1.580   0.910  1.00  0.00     0.147 C 
BRANCH   4   5
HETATM    5  N2  UNL     1      -2.325   0.237   0.550  1.00  0.00    -0.304 N 
HETATM    6  C4  UNL     1      -1.390  -0.694   0.207  1.00  0.00     0.176 A 
HETATM    7  C11 UNL     1      -2.023  -1.894  -0.087  1.00  0.00     0.119 A 
HETATM    8  N4  UNL     1      -1.881  -3.181  -0.466  1.00  0.00    -0.303 N 
HETATM    9  C13 UNL     1      -3.373  -1.630   0.096  1.00  0.00     0.118 A 
HETATM   10  C12 UNL     1      -3.102  -3.731  -0.525  1.00  0.00     0.325 A 
ATOM     11  H4  UNL     1      -1.000  -3.652  -0.671  1.00  0.00     0.171 HD
HETATM   12  O3  UNL     1      -3.451  -4.912  -0.833  1.00  0.00    -0.247 OA
HETATM   13  N5  UNL     1      -4.016  -2.797  -0.185  1.00  0.00    -0.303 N 
ATOM     14  H5  UNL     1      -5.025  -2.942  -0.145  1.00  0.00     0.171 HD
HETATM   15  C14 UNL     1      -3.546  -0.303   0.490  1.00  0.00     0.207 A 
BRANCH   6  16
HETATM   16  O1  UNL     1      -0.031  -0.512   0.152  1.00  0.00    -0.332 OA
BRANCH  16  17
HETATM   17  C5  UNL     1       0.916  -1.437  -0.214  1.00  0.00     0.207 C 
BRANCH  17  18
HETATM   18  C6  UNL     1       2.344  -1.030  -0.197  1.00  0.00     0.299 C 
BRANCH  18  19
HETATM   19  N3  UNL     1       2.716   0.074  -1.036  1.00  0.00     0.094 N 
HETATM   20  C7  UNL     1       4.163   0.087  -1.241  1.00  0.00     0.298 C 
HETATM   21  C8  UNL     1       4.838   0.304   0.078  1.00  0.00     0.198 C 
HETATM   22  O2  UNL     1       4.514   1.600   0.492  1.00  0.00    -0.388 OA
HETATM   23  C9  UNL     1       3.176   1.769   0.682  1.00  0.00     0.198 C 
HETATM   24  C10 UNL     1       2.319   1.358  -0.478  1.00  0.00     0.298 C 
ENDBRANCH  18  19
ENDBRANCH  17  18
ENDBRANCH  16  17
ENDBRANCH   6  16
BRANCH  15  25
HETATM   25  N6  UNL     1      -4.805   0.296   0.749  1.00  0.00    -0.095 N 
HETATM   26  O4  UNL     1      -5.840  -0.386   0.642  1.00  0.00    -0.530 OA
HETATM   27  O5  UNL     1      -4.962   1.605   1.118  1.00  0.00    -0.530 OA
ENDBRANCH  15  25
ENDBRANCH   4   5
ENDBRANCH   3   4
TORSDOF 7
