REMARK  6 active torsions:
REMARK  status: ('A' for Active; 'I' for Inactive)
REMARK    1  A    between atoms: C3_3  and  C4_4 
REMARK    2  A    between atoms: C5_5  and  C6_6 
REMARK    3  A    between atoms: C6_6  and  C7_8 
REMARK    4  A    between atoms: C8_9  and  C9_10 
REMARK    5  A    between atoms: C10_11  and  C11_12 
REMARK    6  A    between atoms: C20_24  and  O5_25 
ROOT
HETATM    1  C7  UNL     1       0.212  -1.202  -0.285  1.00  0.00     0.051 C 
HETATM    2  C8  UNL     1      -1.008  -1.639  -0.116  1.00  0.00    -0.014 C 
ENDROOT
BRANCH   1   3
HETATM    3  C6  UNL     1       1.239  -2.101  -0.781  1.00  0.00     0.171 C 
HETATM    4  O1  UNL     1       0.872  -3.303  -1.029  1.00  0.00    -0.289 OA
BRANCH   3   5
HETATM    5  C5  UNL     1       2.624  -1.715  -1.004  1.00  0.00     0.055 C 
HETATM    6  C4  UNL     1       3.082  -0.506  -0.776  1.00  0.00     0.018 C 
BRANCH   6   7
HETATM    7  C3  UNL     1       4.483  -0.151  -1.012  1.00  0.00    -0.003 A 
HETATM    8  C2  UNL     1       5.087   1.051  -0.820  1.00  0.00     0.008 A 
HETATM    9  C1  UNL     1       4.387   2.271  -0.313  1.00  0.00     0.054 C 
HETATM   10  C20 UNL     1       6.414   0.927  -1.172  1.00  0.00     0.189 A 
HETATM   11  O4  UNL     1       6.574  -0.313  -1.556  1.00  0.00    -0.299 OA
HETATM   12  C19 UNL     1       5.461  -1.001  -1.482  1.00  0.00     0.157 A 
BRANCH  10  13
HETATM   13  O5  UNL     1       7.332   1.943  -1.108  1.00  0.00    -0.340 OA
ATOM     14  H5  UNL     1       8.247   1.858  -1.351  1.00  0.00     0.220 HD
ENDBRANCH  10  13
ENDBRANCH   6   7
ENDBRANCH   3   5
ENDBRANCH   1   3
BRANCH   2  15
HETATM   15  C9  UNL     1      -2.177  -0.904   0.369  1.00  0.00     0.056 C 
HETATM   16  C10 UNL     1      -1.994   0.531   0.675  1.00  0.00     0.148 C 
HETATM   17  O2  UNL     1      -2.828   0.798   1.800  1.00  0.00    -0.314 OA
HETATM   18  C15 UNL     1      -3.586  -0.322   2.104  1.00  0.00     0.268 C 
HETATM   19  O3  UNL     1      -4.713  -0.329   2.669  1.00  0.00    -0.264 OA
HETATM   20  C16 UNL     1      -2.778  -1.474   1.620  1.00  0.00     0.050 C 
HETATM   21  C17 UNL     1      -1.743  -1.762   2.685  1.00  0.00     0.026 C 
HETATM   22  C18 UNL     1      -3.603  -2.703   1.388  1.00  0.00     0.026 C 
BRANCH  16  23
HETATM   23  C11 UNL     1      -2.472   1.455  -0.427  1.00  0.00    -0.024 C 
HETATM   24  C12 UNL     1      -2.209   2.876   0.052  1.00  0.00     0.017 C 
HETATM   25  C13 UNL     1      -3.982   1.340  -0.578  1.00  0.00     0.017 C 
HETATM   26  C14 UNL     1      -1.768   1.239  -1.728  1.00  0.00     0.017 C 
ENDBRANCH  16  23
ENDBRANCH   2  15
TORSDOF 6
