REMARK  4 active torsions:
REMARK  status: ('A' for Active; 'I' for Inactive)
REMARK       I    between atoms: C1_2  and  N7_18 
REMARK    1  A    between atoms: N2_3  and  N3_5 
REMARK    2  A    between atoms: N4_7  and  C2_9 
REMARK    3  A    between atoms: C4_15  and  O1_16 
REMARK    4  A    between atoms: N7_18  and  C5_20 
ROOT
HETATM    1  N3  UNL     1       2.161  -0.899   1.759  1.00  0.00    -0.240 N 
ATOM      2  H3  UNL     1       1.619  -1.393   2.468  1.00  0.00     0.208 HD
HETATM    3  N4  UNL     1       3.379  -0.690   2.013  1.00  0.00    -0.281 N 
ATOM      4  H4  UNL     1       3.796  -1.004   2.890  1.00  0.00     0.188 HD
ENDROOT
BRANCH   1   5
HETATM    5  N2  UNL     1       1.495  -0.523   0.615  1.00  0.00    -0.259 N 
HETATM    6  C1  UNL     1       0.422   0.168   0.573  1.00  0.00     0.204 C 
HETATM    7  N1  UNL     1      -0.161   0.602   1.796  1.00  0.00    -0.062 NA
HETATM    8  N7  UNL     1      -0.141   0.473  -0.685  1.00  0.00    -0.359 N 
ATOM      9  H7  UNL     1       0.458   0.878  -1.404  1.00  0.00     0.162 HD
ATOM     10  H2  UNL     1       1.892  -0.822  -0.276  1.00  0.00     0.191 HD
BRANCH   8  11
HETATM   11  C5  UNL     1      -1.513   0.237  -0.990  1.00  0.00     0.084 C 
HETATM   12  C6  UNL     1      -1.923  -1.200  -0.874  1.00  0.00     0.025 C 
HETATM   13  C7  UNL     1      -3.357  -1.399  -0.498  1.00  0.00     0.002 C 
HETATM   14  C8  UNL     1      -4.281  -0.315  -0.877  1.00  0.00     0.000 C 
HETATM   15  C9  UNL     1      -3.771   1.069  -0.749  1.00  0.00     0.002 C 
HETATM   16  C10 UNL     1      -2.417   1.035  -0.058  1.00  0.00     0.025 C 
ENDBRANCH   8  11
ENDBRANCH   1   5
BRANCH   3  17
HETATM   17  C2  UNL     1       4.156   0.001   1.032  1.00  0.00     0.118 A 
HETATM   18  C3  UNL     1       3.870   1.250   0.540  1.00  0.00     0.142 A 
HETATM   19  N5  UNL     1       4.839   1.526  -0.351  1.00  0.00    -0.307 N 
HETATM   20  N6  UNL     1       5.699   0.501  -0.421  1.00  0.00    -0.279 N 
ATOM     21  H5  UNL     1       4.909   2.387  -0.893  1.00  0.00     0.186 HD
HETATM   22  C4  UNL     1       5.304  -0.466   0.427  1.00  0.00     0.185 A 
ATOM     23  H6  UNL     1       6.522   0.460  -1.022  1.00  0.00     0.189 HD
BRANCH  22  24
HETATM   24  O1  UNL     1       5.939  -1.697   0.644  1.00  0.00    -0.343 OA
ATOM     25  H1  UNL     1       6.730  -2.019   0.227  1.00  0.00     0.219 HD
ENDBRANCH  22  24
ENDBRANCH   3  17
TORSDOF 4
