REMARK  4 active torsions:
REMARK  status: ('A' for Active; 'I' for Inactive)
REMARK    1  A    between atoms: C3_3  and  C4_4 
REMARK    2  A    between atoms: C3_3  and  C13_16 
REMARK    3  A    between atoms: C4_4  and  C5_5 
REMARK    4  A    between atoms: C5_5  and  C6_6 
ROOT
HETATM    1  C1  UNL     1       2.563   1.485   2.439  1.00  0.00     0.097 C 
HETATM    2  C2  UNL     1       2.425   0.899   1.370  1.00  0.00    -0.174 C 
HETATM    3  C3  UNL     1       2.306   0.195   0.107  1.00  0.00     0.160 C 
ENDROOT
BRANCH   3   4
HETATM    4  C4  UNL     1       1.015  -0.357  -0.222  1.00  0.00     0.042 C 
BRANCH   4   5
HETATM    5  C5  UNL     1      -0.229   0.386  -0.414  1.00  0.00     0.019 C 
HETATM    6  C8  UNL     1      -1.192  -0.706  -0.994  1.00  0.00     0.047 C 
HETATM    7  C9  UNL     1      -1.973  -1.198   0.179  1.00  0.00     0.025 C 
HETATM    8  C10 UNL     1      -1.472  -2.451   0.818  1.00  0.00     0.038 C 
HETATM    9  C11 UNL     1      -3.372  -1.502  -0.339  1.00  0.00     0.038 C 
HETATM   10  N1  UNL     1      -1.945  -0.085   1.058  1.00  0.00    -0.373 N 
HETATM   11  C12 UNL     1      -1.019   0.771   0.752  1.00  0.00     0.098 C 
ATOM     12  H1  UNL     1      -2.583   0.030   1.845  1.00  0.00     0.161 HD
HETATM   13  N2  UNL     1      -0.972   1.948   1.598  1.00  0.00    -0.087 NA
BRANCH   5  14
HETATM   14  C6  UNL     1      -0.232   1.411  -1.509  1.00  0.00     0.012 C 
HETATM   15  C7  UNL     1       0.701   2.533  -1.457  1.00  0.00     0.006 C 
ENDBRANCH   5  14
ENDBRANCH   4   5
ENDBRANCH   3   4
BRANCH   3  16
HETATM   16  C13 UNL     1       3.291  -1.001   0.250  1.00  0.00     0.400 C 
HETATM   17  F1  UNL     1       2.926  -1.793   1.314  1.00  0.00    -0.170 F 
HETATM   18  F2  UNL     1       4.564  -0.510   0.422  1.00  0.00    -0.170 F 
HETATM   19  F3  UNL     1       3.184  -1.754  -0.905  1.00  0.00    -0.170 F 
ENDBRANCH   3  16
TORSDOF 4
