REMARK  13 active torsions:
REMARK  status: ('A' for Active; 'I' for Inactive)
REMARK    1  A    between atoms: C2_2  and  C3_3 
REMARK    2  A    between atoms: C2_2  and  C15_22 
REMARK    3  A    between atoms: C3_3  and  C4_4 
REMARK    4  A    between atoms: C4_4  and  C5_5 
REMARK    5  A    between atoms: C6_7  and  C8_9 
REMARK    6  A    between atoms: C8_9  and  O2_11 
REMARK    7  A    between atoms: C8_9  and  C10_13 
REMARK    8  A    between atoms: C10_13  and  O3_14 
REMARK    9  A    between atoms: C13_18  and  O4_20 
REMARK   10  A    between atoms: C15_22  and  O5_23 
REMARK   11  A    between atoms: C16_25  and  C17_26 
REMARK   12  A    between atoms: C17_26  and  O7_28 
REMARK   13  A    between atoms: O7_28  and  C18_29 
ROOT
HETATM    1  C5  UNL     1      -2.027   0.419  -0.765  1.00  0.00     0.161 C 
HETATM    2  O1  UNL     1      -2.834  -0.202   0.148  1.00  0.00    -0.365 OA
HETATM    3  C6  UNL     1      -3.819  -1.043  -0.394  1.00  0.00     0.108 C 
HETATM    4  C7  UNL     1      -3.221  -2.321  -0.936  1.00  0.00     0.054 C 
HETATM    5  C11 UNL     1      -4.604  -0.296  -1.407  1.00  0.00     0.012 C 
HETATM    6  C12 UNL     1      -4.127   0.854  -1.861  1.00  0.00     0.012 C 
HETATM    7  C13 UNL     1      -2.852   1.485  -1.447  1.00  0.00     0.098 C 
HETATM    8  C14 UNL     1      -3.088   2.690  -0.556  1.00  0.00     0.053 C 
ENDROOT
BRANCH   1   9
HETATM    9  C4  UNL     1      -0.805   0.970  -0.042  1.00  0.00     0.036 C 
BRANCH   9  10
HETATM   10  C3  UNL     1       0.136   1.660  -0.943  1.00  0.00     0.013 C 
BRANCH  10  11
HETATM   11  C2  UNL     1       1.370   2.226  -0.292  1.00  0.00     0.038 C 
HETATM   12  C1  UNL     1       2.215   2.921  -1.373  1.00  0.00     0.017 C 
BRANCH  11  13
HETATM   13  C15 UNL     1       2.232   1.269   0.408  1.00  0.00     0.052 C 
HETATM   14  C16 UNL     1       3.473   1.081   0.036  1.00  0.00     0.114 C 
BRANCH  13  15
HETATM   15  O5  UNL     1       1.782   0.518   1.496  1.00  0.00    -0.364 OA
ATOM     16  H5  UNL     1       2.341  -0.102   1.950  1.00  0.00     0.217 HD
ENDBRANCH  13  15
BRANCH  14  17
HETATM   17  C17 UNL     1       4.421   0.166   0.649  1.00  0.00     0.286 C 
HETATM   18  O6  UNL     1       4.065  -0.520   1.629  1.00  0.00    -0.260 OA
BRANCH  17  19
HETATM   19  O7  UNL     1       5.715   0.006   0.210  1.00  0.00    -0.308 OA
BRANCH  19  20
HETATM   20  C18 UNL     1       6.644  -0.872   0.789  1.00  0.00     0.060 C 
HETATM   21  C19 UNL     1       7.951  -0.758   0.021  1.00  0.00     0.046 C 
HETATM   22  C20 UNL     1       6.207  -2.314   0.712  1.00  0.00     0.046 C 
HETATM   23  C21 UNL     1       6.928  -0.543   2.236  1.00  0.00     0.046 C 
ENDBRANCH  19  20
ENDBRANCH  17  19
ENDBRANCH  14  17
ENDBRANCH  11  13
ENDBRANCH  10  11
ENDBRANCH   9  10
ENDBRANCH   1   9
BRANCH   7  24
HETATM   24  O4  UNL     1      -2.256   1.905  -2.670  1.00  0.00    -0.384 OA
ATOM     25  H4  UNL     1      -2.775   2.575  -3.099  1.00  0.00     0.211 HD
ENDBRANCH   7  24
BRANCH   3  26
HETATM   26  C8  UNL     1      -4.742  -1.486   0.747  1.00  0.00     0.109 C 
HETATM   27  C9  UNL     1      -5.409  -0.357   1.448  1.00  0.00     0.051 C 
BRANCH  26  28
HETATM   28  O2  UNL     1      -3.858  -2.101   1.710  1.00  0.00    -0.385 OA
ATOM     29  H2  UNL     1      -4.430  -2.376   2.417  1.00  0.00     0.210 HD
ENDBRANCH  26  28
BRANCH  26  30
HETATM   30  C10 UNL     1      -5.714  -2.546   0.384  1.00  0.00     0.204 C 
BRANCH  30  31
HETATM   31  O3  UNL     1      -6.706  -2.178  -0.498  1.00  0.00    -0.398 OA
ATOM     32  H3  UNL     1      -7.329  -2.857  -0.730  1.00  0.00     0.209 HD
ENDBRANCH  30  31
ENDBRANCH  26  30
ENDBRANCH   3  26
TORSDOF 13
