REMARK  5 active torsions:
REMARK  status: ('A' for Active; 'I' for Inactive)
REMARK    1  A    between atoms: O1_2  and  C2_3 
REMARK    2  A    between atoms: C4_5  and  C5_6 
REMARK    3  A    between atoms: N4_13  and  C6_14 
REMARK    4  A    between atoms: C14_25  and  O2_26 
REMARK    5  A    between atoms: O2_26  and  C15_27 
ROOT
HETATM    1  C5  UNL     1      -2.418  -1.766  -0.496  1.00  0.00     0.150 A 
HETATM    2  N1  UNL     1      -2.827  -2.988  -0.981  1.00  0.00    -0.268 N 
ATOM      3  H1  UNL     1      -2.207  -3.747  -1.265  1.00  0.00     0.190 HD
HETATM    4  N2  UNL     1      -4.120  -3.024  -1.020  1.00  0.00    -0.226 N 
ATOM      5  H2  UNL     1      -4.691  -3.807  -1.337  1.00  0.00     0.210 HD
HETATM    6  N3  UNL     1      -4.563  -1.870  -0.578  1.00  0.00    -0.224 N 
ATOM      7  H3  UNL     1      -5.546  -1.612  -0.496  1.00  0.00     0.210 HD
HETATM    8  N4  UNL     1      -3.523  -1.077  -0.248  1.00  0.00    -0.252 N 
ENDROOT
BRANCH   1   9
HETATM    9  C4  UNL     1      -1.017  -1.419  -0.301  1.00  0.00     0.014 A 
HETATM   10  C3  UNL     1      -0.068  -2.442  -0.410  1.00  0.00     0.055 A 
HETATM   11  C2  UNL     1       1.269  -2.225  -0.276  1.00  0.00     0.102 A 
HETATM   12  C14 UNL     1       1.762  -0.960  -0.020  1.00  0.00     0.102 A 
HETATM   13  C13 UNL     1       0.856   0.058   0.091  1.00  0.00     0.040 A 
HETATM   14  C12 UNL     1      -0.525  -0.188  -0.052  1.00  0.00     0.018 A 
BRANCH  11  15
HETATM   15  O1  UNL     1       2.202  -3.272  -0.390  1.00  0.00    -0.353 OA
HETATM   16  C1  UNL     1       1.694  -4.559  -0.650  1.00  0.00     0.210 C 
ENDBRANCH  11  15
BRANCH  12  17
HETATM   17  O2  UNL     1       3.111  -0.766   0.111  1.00  0.00    -0.343 OA
BRANCH  17  18
HETATM   18  C15 UNL     1       3.799   0.421   0.367  1.00  0.00     0.129 C 
HETATM   19  C16 UNL     1       4.640   0.193   1.608  1.00  0.00     0.032 C 
HETATM   20  C17 UNL     1       5.622   1.285   1.866  1.00  0.00     0.002 C 
HETATM   21  C18 UNL     1       6.319   1.801   0.653  1.00  0.00     0.000 C 
HETATM   22  C19 UNL     1       5.402   2.016  -0.528  1.00  0.00     0.002 C 
HETATM   23  C20 UNL     1       4.752   0.657  -0.811  1.00  0.00     0.032 C 
ENDBRANCH  17  18
ENDBRANCH  12  17
ENDBRANCH   1   9
BRANCH   8  24
HETATM   24  C6  UNL     1      -3.725   0.241   0.289  1.00  0.00     0.144 C 
HETATM   25  C7  UNL     1      -5.162   0.245   0.896  1.00  0.00     0.062 C 
HETATM   26  C8  UNL     1      -6.023   0.850  -0.154  1.00  0.00     0.188 C 
HETATM   27  C9  UNL     1      -5.920   2.357  -0.027  1.00  0.00     0.035 C 
HETATM   28  N5  UNL     1      -5.222   0.656  -1.368  1.00  0.00    -0.065 N 
HETATM   29  C10 UNL     1      -4.409   2.512  -0.261  1.00  0.00     0.037 C 
HETATM   30  C11 UNL     1      -3.966   1.214  -0.836  1.00  0.00     0.211 C 
ATOM     31  H52 UNL     1      -5.186  -0.286  -1.757  1.00  0.00     0.278 HD
ATOM     32  H51 UNL     1      -5.582   1.060  -2.233  1.00  0.00     0.278 HD
ENDBRANCH   8  24
TORSDOF 5
