REMARK  6 active torsions:
REMARK  status: ('A' for Active; 'I' for Inactive)
REMARK    1  A    between atoms: O1_2  and  C2_3 
REMARK    2  A    between atoms: C4_5  and  C5_6 
REMARK    3  A    between atoms: C5_6  and  N1_7 
REMARK    4  A    between atoms: C11_16  and  N3_17 
REMARK    5  A    between atoms: C14_25  and  O2_26 
REMARK    6  A    between atoms: C16_28  and  O3_29 
ROOT
HETATM    1  N1  UNL     1      -1.775  -0.732   0.870  1.00  0.00    -0.337 N 
HETATM    2  C6  UNL     1      -2.327  -1.911   0.586  1.00  0.00     0.100 A 
HETATM    3  C7  UNL     1      -3.513  -1.750  -0.100  1.00  0.00    -0.029 A 
HETATM    4  C8  UNL     1      -4.450  -2.782  -0.609  1.00  0.00     0.050 C 
HETATM    5  C9  UNL     1      -3.691  -0.395  -0.239  1.00  0.00     0.054 A 
HETATM    6  C10 UNL     1      -4.692   0.339  -0.834  1.00  0.00     0.131 A 
HETATM    7  S1  UNL     1      -5.955  -0.412  -1.539  1.00  0.00    -0.059 SA
HETATM    8  N2  UNL     1      -4.630   1.680  -0.835  1.00  0.00    -0.181 N 
ATOM      9  H2  UNL     1      -5.365   2.236  -1.272  1.00  0.00     0.185 HD
HETATM   10  C11 UNL     1      -3.563   2.282  -0.239  1.00  0.00     0.678 A 
HETATM   11  N4  UNL     1      -2.587   1.562   0.341  1.00  0.00    -0.176 N 
ATOM     12  H4  UNL     1      -1.807   2.055   0.775  1.00  0.00     0.186 HD
HETATM   13  C12 UNL     1      -2.600   0.202   0.371  1.00  0.00     0.137 A 
ENDROOT
BRANCH   1  14
HETATM   14  C5  UNL     1      -0.567  -0.485   1.569  1.00  0.00     0.172 C 
BRANCH  14  15
HETATM   15  C4  UNL     1       0.653  -0.361   0.778  1.00  0.00     0.004 A 
HETATM   16  C3  UNL     1       1.142   0.922   0.538  1.00  0.00     0.051 A 
HETATM   17  C2  UNL     1       2.283   1.140  -0.206  1.00  0.00     0.105 A 
HETATM   18  C16 UNL     1       2.984   0.079  -0.743  1.00  0.00     0.138 A 
HETATM   19  C14 UNL     1       2.490  -1.180  -0.498  1.00  0.00     0.143 A 
HETATM   20  C13 UNL     1       1.343  -1.409   0.250  1.00  0.00     0.160 A 
HETATM   21  F1  UNL     1       0.879  -2.657   0.483  1.00  0.00    -0.202 F 
BRANCH  17  22
HETATM   22  O1  UNL     1       2.761   2.440  -0.438  1.00  0.00    -0.353 OA
HETATM   23  C1  UNL     1       2.124   3.583   0.062  1.00  0.00     0.210 C 
ENDBRANCH  17  22
BRANCH  18  24
HETATM   24  O3  UNL     1       4.121   0.347  -1.481  1.00  0.00    -0.351 OA
HETATM   25  C17 UNL     1       5.414   0.446  -0.977  1.00  0.00     0.210 C 
ENDBRANCH  18  24
BRANCH  19  26
HETATM   26  O2  UNL     1       3.145  -2.264  -1.006  1.00  0.00    -0.350 OA
HETATM   27  C15 UNL     1       4.173  -2.981  -0.361  1.00  0.00     0.210 C 
ENDBRANCH  19  26
ENDBRANCH  14  15
ENDBRANCH   1  14
BRANCH  10  28
HETATM   28  N3  UNL     1      -3.508   3.576  -0.243  1.00  0.00    -0.234 N 
ATOM     29  H32 UNL     1      -4.249   4.122  -0.683  1.00  0.00     0.174 HD
ATOM     30  H31 UNL     1      -2.709   4.027   0.203  1.00  0.00     0.174 HD
ENDBRANCH  10  28
TORSDOF 6
