REMARK  8 active torsions:
REMARK  status: ('A' for Active; 'I' for Inactive)
REMARK    1  A    between atoms: C2_2  and  C3_3 
REMARK    2  A    between atoms: C3_3  and  N1_4 
REMARK    3  A    between atoms: C3_3  and  C22_38 
REMARK    4  A    between atoms: N1_4  and  C4_6 
REMARK    5  A    between atoms: C9_13  and  C10_14 
REMARK    6  A    between atoms: N4_26  and  C19_28 
REMARK    7  A    between atoms: C19_28  and  C20_32 
REMARK    8  A    between atoms: C20_32  and  N6_33 
ROOT
HETATM    1  C4  UNL     1      -1.566  -1.038   1.332  1.00  0.00     0.046 A 
HETATM    2  C5  UNL     1      -2.055  -2.214   1.855  1.00  0.00     0.047 A 
HETATM    3  C6  UNL     1      -1.139  -3.237   2.080  1.00  0.00     0.090 A 
HETATM    4  N2  UNL     1       0.167  -3.087   1.800  1.00  0.00    -0.365 N 
ATOM      5  H2  UNL     1       0.803  -3.864   1.980  1.00  0.00     0.165 HD
HETATM    6  C7  UNL     1       0.661  -1.946   1.290  1.00  0.00     0.050 A 
HETATM    7  C8  UNL     1       2.006  -1.832   1.019  1.00  0.00     0.063 A 
HETATM    8  C9  UNL     1       2.503  -0.658   0.498  1.00  0.00     0.070 A 
HETATM    9  N3  UNL     1       1.659   0.338   0.271  1.00  0.00    -0.339 N 
ATOM     10  H3  UNL     1       2.030   1.206  -0.115  1.00  0.00     0.167 HD
HETATM   11  C18 UNL     1       0.333   0.265   0.523  1.00  0.00     0.122 A 
HETATM   12  N4  UNL     1      -0.423   1.266   0.282  1.00  0.00    -0.330 N 
ATOM     13  H4  UNL     1      -1.421   1.194   0.479  1.00  0.00     0.168 HD
HETATM   14  C21 UNL     1      -0.198  -0.894   1.044  1.00  0.00     0.061 A 
ENDROOT
BRANCH   1  15
HETATM   15  N1  UNL     1      -2.338  -0.062   1.098  1.00  0.00    -0.380 N 
ATOM     16  H1  UNL     1      -1.909   0.779   0.710  1.00  0.00     0.160 HD
BRANCH  15  17
HETATM   17  C3  UNL     1      -3.737  -0.019   1.320  1.00  0.00     0.114 C 
BRANCH  17  18
HETATM   18  C2  UNL     1      -4.288   1.372   1.499  1.00  0.00     0.025 C 
HETATM   19  C1  UNL     1      -4.091   2.290   0.345  1.00  0.00     0.007 C 
ENDBRANCH  17  18
BRANCH  17  20
HETATM   20  C22 UNL     1      -4.565  -0.667   0.272  1.00  0.00    -0.036 A 
HETATM   21  C23 UNL     1      -5.666  -1.389   0.662  1.00  0.00     0.009 A 
HETATM   22  C24 UNL     1      -6.465  -2.015  -0.270  1.00  0.00     0.001 A 
HETATM   23  C25 UNL     1      -6.149  -1.911  -1.611  1.00  0.00     0.000 A 
HETATM   24  C26 UNL     1      -5.046  -1.188  -2.001  1.00  0.00     0.001 A 
HETATM   25  C27 UNL     1      -4.261  -0.571  -1.059  1.00  0.00     0.009 A 
ENDBRANCH  17  20
ENDBRANCH  15  17
ENDBRANCH   1  15
BRANCH  12  26
HETATM   26  C19 UNL     1       0.090   2.471  -0.251  1.00  0.00     0.102 C 
HETATM   27  N5  UNL     1       0.650   3.297   0.568  1.00  0.00    -0.387 N 
ATOM     28  H52 UNL     1       0.726   3.099   1.566  1.00  0.00     0.157 HD
ATOM     29  H51 UNL     1       1.020   4.166   0.184  1.00  0.00     0.157 HD
BRANCH  26  30
HETATM   30  C20 UNL     1      -0.021   2.759  -1.704  1.00  0.00     0.305 C 
BRANCH  30  31
HETATM   31  N6  UNL     1       0.587   4.055  -1.957  1.00  0.00    -0.073 N 
ATOM     32  H63 UNL     1       0.191   4.795  -1.378  1.00  0.00     0.274 HD
ATOM     33  H62 UNL     1       1.547   4.113  -1.617  1.00  0.00     0.274 HD
ATOM     34  H61 UNL     1       0.511   4.253  -2.955  1.00  0.00     0.274 HD
ENDBRANCH  30  31
ENDBRANCH  26  30
ENDBRANCH  12  26
BRANCH   8  35
HETATM   35  C10 UNL     1       3.944  -0.567   0.219  1.00  0.00     0.103 A 
HETATM   36  C11 UNL     1       4.608   0.533  -0.303  1.00  0.00     0.054 A 
HETATM   37  C12 UNL     1       5.950   0.239  -0.422  1.00  0.00     0.001 A 
HETATM   38  C13 UNL     1       7.078   0.905  -0.862  1.00  0.00     0.014 A 
HETATM   39  C17 UNL     1       6.048  -1.072   0.049  1.00  0.00     0.086 A 
HETATM   40  C14 UNL     1       8.329   0.313  -0.854  1.00  0.00     0.001 A 
HETATM   41  C15 UNL     1       8.431  -0.982  -0.391  1.00  0.00     0.003 A 
HETATM   42  C16 UNL     1       7.310  -1.649   0.048  1.00  0.00     0.038 A 
HETATM   43  O1  UNL     1       4.856  -1.486   0.405  1.00  0.00    -0.308 OA
ENDBRANCH   8  35
TORSDOF 8
