REMARK  8 active torsions:
REMARK  status: ('A' for Active; 'I' for Inactive)
REMARK    1  A    between atoms: O1_2  and  C2_3 
REMARK    2  A    between atoms: C7_10  and  C8_11 
REMARK    3  A    between atoms: C10_13  and  N2_14 
REMARK    4  A    between atoms: N2_14  and  C11_16 
REMARK    5  A    between atoms: C11_16  and  C12_17 
REMARK    6  A    between atoms: C12_17  and  N3_18 
REMARK    7  A    between atoms: N3_18  and  C13_20 
REMARK    8  A    between atoms: N6_30  and  C19_32 
ROOT
HETATM    1  C8  UNL     1       1.297  -0.436   0.848  1.00  0.00     0.065 A 
HETATM    2  C9  UNL     1      -0.093  -0.429   1.041  1.00  0.00     0.079 A 
HETATM    3  C10 UNL     1      -0.832   0.676   0.721  1.00  0.00     0.119 A 
HETATM    4  N5  UNL     1      -0.202   1.769   0.213  1.00  0.00    -0.177 N 
ATOM      5  H5  UNL     1      -0.754   2.593  -0.025  1.00  0.00     0.186 HD
HETATM    6  C18 UNL     1       1.117   1.793   0.018  1.00  0.00     0.684 A 
HETATM    7  N6  UNL     1       1.767   2.778  -0.452  1.00  0.00    -0.192 N 
ATOM      8  H6  UNL     1       2.775   2.649  -0.544  1.00  0.00     0.184 HD
HETATM    9  N7  UNL     1       1.821   0.667   0.352  1.00  0.00    -0.191 N 
ATOM     10  H7  UNL     1       2.830   0.683   0.205  1.00  0.00     0.184 HD
ENDROOT
BRANCH   3  11
HETATM   11  N2  UNL     1      -2.097   0.698   0.892  1.00  0.00    -0.374 N 
ATOM     12  H2  UNL     1      -2.621   1.537   0.644  1.00  0.00     0.161 HD
BRANCH  11  13
HETATM   13  C11 UNL     1      -2.791  -0.432   1.424  1.00  0.00     0.141 C 
BRANCH  13  14
HETATM   14  C12 UNL     1      -3.175  -1.456   0.373  1.00  0.00     0.141 C 
BRANCH  14  15
HETATM   15  N3  UNL     1      -4.030  -0.840  -0.582  1.00  0.00    -0.375 N 
ATOM     16  H3  UNL     1      -3.609  -0.471  -1.435  1.00  0.00     0.161 HD
BRANCH  15  17
HETATM   17  C13 UNL     1      -5.295  -0.721  -0.435  1.00  0.00     0.100 A 
HETATM   18  C14 UNL     1      -5.975  -1.176   0.666  1.00  0.00     0.048 A 
HETATM   19  C15 UNL     1      -7.358  -1.021   0.777  1.00  0.00     0.005 A 
HETATM   20  C16 UNL     1      -8.047  -0.402  -0.237  1.00  0.00     0.017 A 
HETATM   21  C17 UNL     1      -7.335   0.043  -1.328  1.00  0.00     0.089 A 
HETATM   22  N4  UNL     1      -6.018  -0.119  -1.405  1.00  0.00    -0.353 N 
ATOM     23  H4  UNL     1      -5.532   0.226  -2.233  1.00  0.00     0.166 HD
ENDBRANCH  15  17
ENDBRANCH  14  15
ENDBRANCH  13  14
ENDBRANCH  11  13
ENDBRANCH   3  11
BRANCH   1  24
HETATM   24  C7  UNL     1       1.986  -1.689   1.156  1.00  0.00     0.019 A 
HETATM   25  C6  UNL     1       1.439  -2.673   1.995  1.00  0.00     0.103 A 
HETATM   26  N1  UNL     1       2.280  -3.695   2.045  1.00  0.00    -0.364 N 
HETATM   27  C5  UNL     1       3.355  -3.440   1.283  1.00  0.00     0.043 A 
ATOM     28  H1  UNL     1       2.133  -4.549   2.583  1.00  0.00     0.165 HD
HETATM   29  C4  UNL     1       4.494  -4.176   0.990  1.00  0.00     0.033 A 
HETATM   30  C25 UNL     1       3.191  -2.194   0.718  1.00  0.00     0.007 A 
HETATM   31  C3  UNL     1       5.439  -3.657   0.144  1.00  0.00     0.039 A 
HETATM   32  C2  UNL     1       5.299  -2.417  -0.435  1.00  0.00     0.069 A 
HETATM   33  C26 UNL     1       4.152  -1.671  -0.142  1.00  0.00     0.051 A 
BRANCH  32  34
HETATM   34  O1  UNL     1       6.245  -1.900  -1.281  1.00  0.00    -0.356 OA
HETATM   35  C1  UNL     1       7.418  -2.582  -1.624  1.00  0.00     0.210 C 
ENDBRANCH  32  34
ENDBRANCH   1  24
BRANCH   7  36
HETATM   36  C19 UNL     1       1.270   4.006  -0.854  1.00  0.00     0.049 A 
HETATM   37  C20 UNL     1       1.271   4.386  -2.172  1.00  0.00     0.030 A 
HETATM   38  C21 UNL     1       0.771   5.618  -2.561  1.00  0.00     0.002 A 
HETATM   39  C22 UNL     1       0.266   6.469  -1.603  1.00  0.00     0.000 A 
HETATM   40  C23 UNL     1       0.252   6.117  -0.284  1.00  0.00     0.002 A 
HETATM   41  C24 UNL     1       0.759   4.878   0.078  1.00  0.00     0.030 A 
ENDBRANCH   7  36
TORSDOF 8
