REMARK  5 active torsions:
REMARK  status: ('A' for Active; 'I' for Inactive)
REMARK    1  A    between atoms: N1_2  and  C2_5 
REMARK    2  A    between atoms: C5_9  and  C6_11 
REMARK    3  A    between atoms: C6_11  and  N2_12 
REMARK       I    between atoms: N3_21  and  C14_22 
REMARK       I    between atoms: C14_22  and  N4_24 
REMARK    4  A    between atoms: N4_24  and  C15_26 
REMARK    5  A    between atoms: C18_29  and  C19_30 
ROOT
HETATM    1  N2  UNL     1      -1.530  -0.349   0.634  1.00  0.00    -0.347 N 
HETATM    2  C7  UNL     1      -0.724  -1.266  -0.159  1.00  0.00     0.151 C 
HETATM    3  C8  UNL     1       0.304  -0.609  -1.019  1.00  0.00     0.108 C 
HETATM    4  C9  UNL     1      -0.215  -0.270  -2.398  1.00  0.00     0.027 C 
HETATM    5  C10 UNL     1      -0.345   1.190  -2.659  1.00  0.00     0.004 C 
HETATM    6  C11 UNL     1      -0.868   1.972  -1.475  1.00  0.00     0.035 C 
HETATM    7  C12 UNL     1      -0.181   1.644  -0.202  1.00  0.00     0.181 C 
HETATM    8  C13 UNL     1      -1.139   1.006   0.738  1.00  0.00     0.243 C 
HETATM    9  O1  UNL     1      -1.604   1.759   1.670  1.00  0.00    -0.271 OA
HETATM   10  N3  UNL     1       0.835   0.608  -0.457  1.00  0.00    -0.314 N 
HETATM   11  C14 UNL     1       2.194   0.852  -0.152  1.00  0.00     0.319 C 
HETATM   12  O2  UNL     1       2.502   1.985   0.341  1.00  0.00    -0.247 OA
HETATM   13  N4  UNL     1       3.231  -0.074  -0.356  1.00  0.00    -0.338 N 
ATOM     14  H4  UNL     1       3.005  -0.987  -0.751  1.00  0.00     0.164 HD
ENDROOT
BRANCH   1  15
HETATM   15  C6  UNL     1      -2.665  -0.898   1.300  1.00  0.00     0.148 C 
BRANCH  15  16
HETATM   16  C5  UNL     1      -3.972  -0.894   0.624  1.00  0.00     0.053 C 
HETATM   17  C4  UNL     1      -4.468   0.491   0.309  1.00  0.00     0.105 C 
HETATM   18  C3  UNL     1      -5.653   0.289  -0.647  1.00  0.00     0.057 C 
HETATM   19 CL1  UNL     1      -5.112   1.169   1.854  1.00  0.00    -0.123 Cl
HETATM   20  C2  UNL     1      -6.751  -0.487  -0.010  1.00  0.00     0.220 C 
HETATM   21  C23 UNL     1      -6.267  -1.686   0.717  1.00  0.00     0.202 C 
HETATM   22  C22 UNL     1      -5.031  -1.499   1.548  1.00  0.00     0.063 C 
HETATM   23  F1  UNL     1      -7.282  -2.088   1.584  1.00  0.00    -0.247 F 
HETATM   24 BR1  UNL     1      -4.005  -2.026  -0.957  1.00  0.00    -0.082 Br
BRANCH  20  25
HETATM   25  N1  UNL     1      -7.547   0.319   0.898  1.00  0.00    -0.072 N 
HETATM   26  C1  UNL     1      -8.219   1.404   0.228  1.00  0.00     0.267 C 
ATOM     27  H12 UNL     1      -6.983   0.661   1.676  1.00  0.00     0.277 HD
ATOM     28  H11 UNL     1      -8.209  -0.258   1.417  1.00  0.00     0.277 HD
ENDBRANCH  20  25
ENDBRANCH  15  16
ENDBRANCH   1  15
BRANCH  13  29
HETATM   29  C15 UNL     1       4.630   0.228  -0.020  1.00  0.00     0.086 C 
HETATM   30  C16 UNL     1       5.119  -0.642   1.090  1.00  0.00     0.026 C 
HETATM   31  C17 UNL     1       6.585  -0.772   1.244  1.00  0.00     0.015 C 
HETATM   32  C18 UNL     1       7.336   0.100   0.257  1.00  0.00     0.075 C 
HETATM   33  C20 UNL     1       6.831  -0.327  -1.122  1.00  0.00     0.015 C 
HETATM   34  C21 UNL     1       5.460   0.241  -1.255  1.00  0.00     0.026 C 
BRANCH  32  35
HETATM   35  C19 UNL     1       8.788  -0.080   0.377  1.00  0.00     0.235 C 
HETATM   36  N5  UNL     1       9.426   0.209   1.600  1.00  0.00    -0.062 NA
HETATM   37  O3  UNL     1       9.449  -0.486  -0.597  1.00  0.00    -0.277 OA
ENDBRANCH  32  35
ENDBRANCH  13  29
TORSDOF 5
