REMARK  7 active torsions:
REMARK  status: ('A' for Active; 'I' for Inactive)
REMARK    1  A    between atoms: C3_3  and  C4_4 
REMARK    2  A    between atoms: C4_4  and  N1_5 
REMARK       I    between atoms: C5_7  and  N2_8 
REMARK       I    between atoms: C5_7  and  N4_19 
REMARK    3  A    between atoms: C6_10  and  C7_11 
REMARK    4  A    between atoms: C10_14  and  N3_15 
REMARK    5  A    between atoms: N4_19  and  N5_21 
REMARK    6  A    between atoms: N5_21  and  C11_23 
REMARK    7  A    between atoms: C11_23  and  C12_25 
ROOT
HETATM    1  C1  UNL     1      -0.103   5.321  -0.204  1.00  0.00     0.012 C 
HETATM    2  C2  UNL     1      -0.407   4.248  -0.620  1.00  0.00    -0.116 C 
HETATM    3  C3  UNL     1      -0.765   2.928  -1.109  1.00  0.00     0.113 C 
ENDROOT
BRANCH   3   4
HETATM    4  C4  UNL     1      -1.692   2.261  -0.121  1.00  0.00     0.150 C 
BRANCH   4   5
HETATM    5  N1  UNL     1      -2.097   0.953  -0.522  1.00  0.00    -0.224 N 
HETATM    6  C5  UNL     1      -1.306  -0.061  -0.449  1.00  0.00     0.692 C 
HETATM    7  N2  UNL     1       0.008   0.148   0.048  1.00  0.00    -0.198 N 
HETATM    8  N4  UNL     1      -1.693  -1.359  -0.842  1.00  0.00    -0.131 N 
HETATM    9  C6  UNL     1       1.019  -0.539  -0.312  1.00  0.00     0.143 C 
ATOM     10  H2  UNL     1       0.151   0.891   0.732  1.00  0.00     0.183 HD
ATOM     11  H4  UNL     1      -1.477  -1.658  -1.793  1.00  0.00     0.205 HD
ATOM     12  H1  UNL     1      -3.043   0.817  -0.878  1.00  0.00     0.177 HD
BRANCH   9  13
HETATM   13  C7  UNL     1       2.359  -0.291   0.225  1.00  0.00     0.094 A 
HETATM   14  C8  UNL     1       2.706   0.680   1.158  1.00  0.00     0.043 A 
HETATM   15  C9  UNL     1       4.058   0.593   1.405  1.00  0.00     0.065 A 
HETATM   16  C10 UNL     1       4.479  -0.444   0.597  1.00  0.00     0.215 A 
HETATM   17  O3  UNL     1       3.465  -0.930  -0.070  1.00  0.00    -0.287 OA
BRANCH  16  18
HETATM   18  N3  UNL     1       5.836  -0.900   0.523  1.00  0.00    -0.090 N 
HETATM   19  O1  UNL     1       6.125  -1.846  -0.237  1.00  0.00    -0.530 OA
HETATM   20  O2  UNL     1       6.823  -0.333   1.255  1.00  0.00    -0.530 OA
ENDBRANCH  16  18
ENDBRANCH   9  13
BRANCH   8  21
HETATM   21  N5  UNL     1      -2.355  -2.259  -0.004  1.00  0.00    -0.279 N 
ATOM     22  H5  UNL     1      -1.961  -2.448   0.918  1.00  0.00     0.188 HD
BRANCH  21  23
HETATM   23  C11 UNL     1      -3.552  -2.921  -0.380  1.00  0.00     0.106 C 
HETATM   24  S1  UNL     1      -4.202  -2.638  -1.846  1.00  0.00    -0.063 SA
BRANCH  23  25
HETATM   25  C12 UNL     1      -4.246  -3.873   0.517  1.00  0.00     0.185 C 
HETATM   26 CL1  UNL     1      -5.693  -4.527  -0.223  1.00  0.00    -0.123 Cl
ENDBRANCH  23  25
ENDBRANCH  21  23
ENDBRANCH   8  21
ENDBRANCH   4   5
ENDBRANCH   3   4
TORSDOF 7
