REMARK  7 active torsions:
REMARK  status: ('A' for Active; 'I' for Inactive)
REMARK    1  A    between atoms: C1_2  and  C2_3 
REMARK       I    between atoms: C1_2  and  N3_14 
REMARK    2  A    between atoms: N1_4  and  C3_6 
REMARK    3  A    between atoms: N3_14  and  O2_15 
REMARK    4  A    between atoms: O2_15  and  C8_16 
REMARK    5  A    between atoms: C8_16  and  C9_18 
REMARK    6  A    between atoms: C9_18  and  C10_19 
REMARK    7  A    between atoms: C10_19  and  C11_20 
ROOT
HETATM    1  O1  UNL     1      -1.729   0.898  -1.879  1.00  0.00    -0.248 OA
HETATM    2  C1  UNL     1      -1.309   0.094  -1.019  1.00  0.00     0.359 C 
HETATM    3  N3  UNL     1       0.076  -0.084  -0.694  1.00  0.00    -0.227 NA
ENDROOT
BRANCH   2   4
HETATM    4  C2  UNL     1      -2.244  -0.758  -0.270  1.00  0.00     0.182 C 
HETATM    5  N1  UNL     1      -3.567  -0.968  -0.469  1.00  0.00    -0.346 N 
ATOM      6  H1  UNL     1      -3.697  -1.903  -0.856  1.00  0.00     0.167 HD
BRANCH   5   7
HETATM    7  C3  UNL     1      -4.675  -0.429  -0.348  1.00  0.00     0.104 A 
HETATM    8  C4  UNL     1      -5.851  -1.085  -0.701  1.00  0.00     0.050 A 
HETATM    9  C5  UNL     1      -7.085  -0.570  -0.479  1.00  0.00     0.029 A 
HETATM   10  C6  UNL     1      -7.207   0.640   0.109  1.00  0.00     0.049 A 
HETATM   11 CL1  UNL     1      -8.797   1.309   0.414  1.00  0.00    -0.083 Cl
HETATM   12  C7  UNL     1      -6.032   1.308   0.457  1.00  0.00     0.113 A 
HETATM   13  N2  UNL     1      -4.833   0.758   0.213  1.00  0.00    -0.351 N 
ATOM     14  H2  UNL     1      -3.999   1.283   0.474  1.00  0.00     0.166 HD
ENDBRANCH   5   7
ENDBRANCH   2   4
BRANCH   3  15
HETATM   15  O2  UNL     1       1.292  -0.237  -0.410  1.00  0.00    -0.124 OA
BRANCH  15  16
HETATM   16  C8  UNL     1       1.965  -0.201   0.859  1.00  0.00     0.296 C 
HETATM   17  O3  UNL     1       1.312   0.079   1.861  1.00  0.00    -0.262 OA
BRANCH  16  18
HETATM   18  C9  UNL     1       3.404  -0.545   0.861  1.00  0.00     0.119 C 
BRANCH  18  19
HETATM   19  C10 UNL     1       4.144   0.721   0.452  1.00  0.00     0.049 C 
BRANCH  19  20
HETATM   20  C11 UNL     1       5.609   0.400   0.171  1.00  0.00    -0.051 A 
HETATM   21  C12 UNL     1       6.175  -0.735   0.636  1.00  0.00     0.014 A 
HETATM   22  C13 UNL     1       7.536  -0.883   0.295  1.00  0.00     0.050 A 
HETATM   23  S1  UNL     1       7.845   0.525  -0.605  1.00  0.00    -0.113 SA
HETATM   24  C14 UNL     1       6.316   1.289  -0.548  1.00  0.00     0.056 A 
ENDBRANCH  19  20
ENDBRANCH  18  19
ENDBRANCH  16  18
ENDBRANCH  15  16
ENDBRANCH   3  15
TORSDOF 7
