REMARK  3 active torsions:
REMARK  status: ('A' for Active; 'I' for Inactive)
REMARK    1  A    between atoms: C2_2  and  C4_4 
REMARK    2  A    between atoms: C4_4  and  O1_5 
REMARK    3  A    between atoms: C4_4  and  C5_7 
ROOT
HETATM    1  C4  UNL     1      -0.071   0.691   0.059  1.00  0.00     0.134 C 
ENDROOT
BRANCH   1   2
HETATM    2  C2  UNL     1      -1.342   0.226   0.707  1.00  0.00     0.007 C 
HETATM    3  C1  UNL     1      -1.926  -1.010   0.081  1.00  0.00     0.012 C 
HETATM    4  C3  UNL     1      -2.375   1.339   0.493  1.00  0.00     0.012 C 
ENDBRANCH   1   2
BRANCH   1   5
HETATM    5  O1  UNL     1      -0.300   0.985  -1.282  1.00  0.00    -0.394 OA
ATOM      6  H1  UNL     1       0.505   1.279  -1.692  1.00  0.00     0.210 HD
ENDBRANCH   1   5
BRANCH   1   7
HETATM    7  C5  UNL     1       1.113  -0.170   0.301  1.00  0.00     0.025 C 
HETATM    8  C6  UNL     1       1.075  -1.584  -0.140  1.00  0.00     0.022 C 
HETATM    9  C7  UNL     1       2.387   0.573  -0.121  1.00  0.00     0.181 C 
HETATM   10  O2  UNL     1       2.347   1.210   1.120  1.00  0.00    -0.389 OA
HETATM   11  C8  UNL     1       1.797   0.016   1.631  1.00  0.00     0.181 C 
ENDBRANCH   1   7
TORSDOF 3
