REMARK  4 active torsions:
REMARK  status: ('A' for Active; 'I' for Inactive)
REMARK    1  A    between atoms: C2_2  and  N1_3 
REMARK    2  A    between atoms: N1_3  and  C4_5 
REMARK    3  A    between atoms: C4_5  and  C5_7 
REMARK    4  A    between atoms: C6_8  and  C7_9 
REMARK       I    between atoms: C7_9  and  N2_11 
ROOT
HETATM    1  C5  UNL     1      -0.122  -0.664  -0.304  1.00  0.00     0.070 C 
HETATM    2  C6  UNL     1       0.835  -0.264   0.745  1.00  0.00     0.174 C 
HETATM    3  N5  UNL     1       0.841  -1.292   1.815  1.00  0.00    -0.201 NA
HETATM    4  C9  UNL     1      -0.221  -1.113   2.752  1.00  0.00     0.130 C 
HETATM    5  S1  UNL     1       0.883  -2.815   1.065  1.00  0.00     0.212 S 
HETATM    6  O2  UNL     1      -0.455  -3.499   1.297  1.00  0.00    -0.211 OA
HETATM    7  O3  UNL     1       1.934  -3.709   1.649  1.00  0.00    -0.211 OA
HETATM    8  C10 UNL     1       1.135  -2.747  -0.677  1.00  0.00     0.167 C 
HETATM    9  C11 UNL     1       0.284  -1.670  -1.308  1.00  0.00    -0.025 C 
HETATM   10  C12 UNL     1       0.934  -1.216  -2.559  1.00  0.00     0.016 C 
HETATM   11  C13 UNL     1      -0.988  -2.417  -1.771  1.00  0.00     0.016 C 
ENDROOT
BRANCH   2  12
HETATM   12  C7  UNL     1       2.210   0.043   0.420  1.00  0.00     0.243 C 
HETATM   13  O1  UNL     1       3.178  -0.626   0.926  1.00  0.00    -0.271 OA
HETATM   14  N2  UNL     1       2.624   1.070  -0.452  1.00  0.00    -0.302 N 
HETATM   15  C8  UNL     1       3.151   2.178  -0.131  1.00  0.00     0.203 C 
ATOM     16  H2  UNL     1       2.485   0.904  -1.449  1.00  0.00     0.171 HD
HETATM   17  N3  UNL     1       3.377   2.475   1.240  1.00  0.00    -0.066 NA
HETATM   18  N4  UNL     1       3.499   3.085  -1.172  1.00  0.00    -0.066 NA
ENDBRANCH   2  12
BRANCH   1  19
HETATM   19  C4  UNL     1      -1.040   0.423  -0.820  1.00  0.00     0.324 C 
HETATM   20 CL1  UNL     1      -0.349   1.712  -1.721  1.00  0.00    -0.091 Cl
BRANCH  19  21
HETATM   21  N1  UNL     1      -1.860   0.962   0.262  1.00  0.00     0.102 N 
HETATM   22  C3  UNL     1      -3.072   0.169   0.432  1.00  0.00     0.311 C 
BRANCH  21  23
HETATM   23  C2  UNL     1      -2.327   2.296  -0.100  1.00  0.00     0.269 C 
HETATM   24  C1  UNL     1      -3.036   2.935   1.077  1.00  0.00     0.037 C 
ENDBRANCH  21  23
ENDBRANCH  19  21
ENDBRANCH   1  19
TORSDOF 4
