REMARK  5 active torsions:
REMARK  status: ('A' for Active; 'I' for Inactive)
REMARK    1  A    between atoms: C2_2  and  N1_3 
REMARK    2  A    between atoms: N1_3  and  C3_4 
REMARK    3  A    between atoms: N1_3  and  C5_6 
REMARK    4  A    between atoms: C5_6  and  C6_7 
REMARK    5  A    between atoms: C11_20  and  C12_21 
ROOT
HETATM    1  C6  UNL     1      -2.079  -0.900  -0.665  1.00  0.00     0.046 C 
HETATM    2  C7  UNL     1      -3.273  -1.498  -1.222  1.00  0.00     0.070 C 
HETATM    3  N2  UNL     1      -3.267  -2.796  -1.794  1.00  0.00    -0.335 N 
ATOM      4  H2  UNL     1      -4.048  -3.401  -1.541  1.00  0.00     0.168 HD
HETATM    5  C8  UNL     1      -2.304  -3.355  -2.678  1.00  0.00     0.273 C 
HETATM    6  O1  UNL     1      -2.650  -4.326  -3.418  1.00  0.00    -0.266 OA
HETATM    7  C9  UNL     1      -0.909  -2.885  -2.801  1.00  0.00     0.123 A 
HETATM    8  N3  UNL     1      -0.372  -3.263  -3.963  1.00  0.00    -0.292 N 
ATOM      9  H3  UNL     1      -0.897  -3.816  -4.641  1.00  0.00     0.187 HD
HETATM   10  N4  UNL     1       0.863  -2.888  -4.189  1.00  0.00    -0.265 N 
ATOM     11  H4  UNL     1       1.297  -3.164  -5.070  1.00  0.00     0.190 HD
HETATM   12  C10 UNL     1       1.589  -2.159  -3.324  1.00  0.00     0.274 A 
HETATM   13  O2  UNL     1       2.765  -1.857  -3.640  1.00  0.00    -0.266 OA
HETATM   14  C11 UNL     1       1.074  -1.734  -2.088  1.00  0.00     0.086 A 
HETATM   15  C21 UNL     1      -0.208  -2.118  -1.842  1.00  0.00    -0.004 A 
HETATM   16  C22 UNL     1      -0.789  -1.695  -0.594  1.00  0.00     0.054 C 
ENDROOT
BRANCH  14  17
HETATM   17  C12 UNL     1       1.908  -0.883  -1.234  1.00  0.00     0.122 A 
HETATM   18  N5  UNL     1       1.929  -0.724   0.094  1.00  0.00    -0.340 N 
HETATM   19  C13 UNL     1       2.892   0.088   0.524  1.00  0.00     0.061 A 
ATOM     20  H5  UNL     1       1.267  -1.183   0.720  1.00  0.00     0.167 HD
HETATM   21  C14 UNL     1       3.296   0.554   1.775  1.00  0.00     0.039 A 
HETATM   22  C20 UNL     1       3.547   0.486  -0.612  1.00  0.00     0.061 A 
HETATM   23  C15 UNL     1       4.358   1.422   1.889  1.00  0.00    -0.054 A 
HETATM   24  C16 UNL     1       4.819   1.939   3.212  1.00  0.00     0.049 C 
HETATM   25  C17 UNL     1       5.025   1.831   0.755  1.00  0.00    -0.054 A 
HETATM   26  C18 UNL     1       6.160   2.773   0.867  1.00  0.00     0.049 C 
HETATM   27  C19 UNL     1       4.608   1.355  -0.482  1.00  0.00     0.039 A 
HETATM   28  N6  UNL     1       2.931  -0.118  -1.673  1.00  0.00    -0.340 N 
ATOM     29  H6  UNL     1       3.203  -0.007  -2.650  1.00  0.00     0.167 HD
ENDBRANCH  14  17
BRANCH   1  30
HETATM   30  C5  UNL     1      -2.365  -0.558   0.799  1.00  0.00     0.127 C 
BRANCH  30  31
HETATM   31  N1  UNL     1      -3.443   0.325   0.975  1.00  0.00    -0.412 N 
BRANCH  31  32
HETATM   32  C2  UNL     1      -3.803   0.552   2.351  1.00  0.00     0.112 C 
HETATM   33  C1  UNL     1      -2.851   1.386   3.136  1.00  0.00     0.026 C 
ENDBRANCH  31  32
BRANCH  31  34
HETATM   34  C3  UNL     1      -3.505   1.498   0.184  1.00  0.00     0.112 C 
HETATM   35  C4  UNL     1      -4.982   1.908   0.042  1.00  0.00     0.026 C 
ENDBRANCH  31  34
ENDBRANCH  30  31
ENDBRANCH   1  30
TORSDOF 5
