REMARK  5 active torsions:
REMARK  status: ('A' for Active; 'I' for Inactive)
REMARK    1  A    between atoms: C2_2  and  N1_3 
REMARK    2  A    between atoms: C2_2  and  C11_17 
REMARK       I    between atoms: N1_3  and  C3_5 
REMARK    3  A    between atoms: C3_5  and  C4_7 
REMARK    4  A    between atoms: C4_7  and  N2_8 
REMARK    5  A    between atoms: C8_12  and  C9_13 
ROOT
HETATM    1  N1  UNL     1      -1.124  -0.998   0.752  1.00  0.00    -0.349 N 
ATOM      2  H1  UNL     1      -1.550  -1.804   0.294  1.00  0.00     0.163 HD
HETATM    3  C3  UNL     1       0.225  -0.692   0.429  1.00  0.00     0.257 C 
HETATM    4  O1  UNL     1       0.747   0.295   0.991  1.00  0.00    -0.267 OA
ENDROOT
BRANCH   1   5
HETATM    5  C2  UNL     1      -1.924  -0.260   1.670  1.00  0.00     0.121 C 
HETATM    6  C1  UNL     1      -2.159  -1.129   2.925  1.00  0.00     0.036 C 
BRANCH   5   7
HETATM    7  C11 UNL     1      -3.258   0.181   1.212  1.00  0.00     0.136 C 
HETATM    8  F1  UNL     1      -3.880   0.919   2.232  1.00  0.00    -0.240 F 
HETATM    9  C12 UNL     1      -4.205  -0.901   0.745  1.00  0.00     0.089 C 
HETATM   10  C13 UNL     1      -4.820   0.173  -0.159  1.00  0.00     0.126 C 
HETATM   11 CL1  UNL     1      -5.224  -0.395  -1.783  1.00  0.00    -0.101 Cl
HETATM   12 CL2  UNL     1      -6.127   1.039   0.637  1.00  0.00    -0.101 Cl
HETATM   13  C14 UNL     1      -3.449   0.868  -0.077  1.00  0.00     0.026 C 
HETATM   14  C15 UNL     1      -2.656   0.479  -1.274  1.00  0.00     0.021 C 
HETATM   15  C16 UNL     1      -3.659   2.367  -0.023  1.00  0.00     0.021 C 
ENDBRANCH   5   7
ENDBRANCH   1   5
BRANCH   3  16
HETATM   16  C4  UNL     1       1.036  -1.472  -0.527  1.00  0.00     0.160 C 
BRANCH  16  17
HETATM   17  N2  UNL     1       2.345  -0.982  -0.676  1.00  0.00    -0.385 N 
HETATM   18  C5  UNL     1       3.254  -1.113   0.402  1.00  0.00     0.122 C 
HETATM   19  C6  UNL     1       4.704  -1.122  -0.024  1.00  0.00     0.021 C 
HETATM   20  C7  UNL     1       4.954  -0.209  -1.202  1.00  0.00     0.019 C 
HETATM   21  C8  UNL     1       3.858   0.845  -1.222  1.00  0.00     0.105 C 
HETATM   22  C10 UNL     1       2.572   0.102  -1.559  1.00  0.00     0.137 C 
BRANCH  21  23
HETATM   23  C9  UNL     1       4.135   1.823  -2.282  1.00  0.00     0.178 C 
HETATM   24  O2  UNL     1       3.339   2.027  -3.245  1.00  0.00    -0.648 OA
HETATM   25  O3  UNL     1       5.297   2.570  -2.269  1.00  0.00    -0.648 OA
ENDBRANCH  21  23
ENDBRANCH  16  17
ENDBRANCH   3  16
TORSDOF 5
