REMARK  6 active torsions:
REMARK  status: ('A' for Active; 'I' for Inactive)
REMARK    1  A    between atoms: C1_2  and  C2_4 
REMARK    2  A    between atoms: N2_7  and  C5_8 
REMARK    3  A    between atoms: C8_11  and  N3_12 
REMARK       I    between atoms: N3_12  and  C9_14 
REMARK    4  A    between atoms: C9_14  and  C10_16 
REMARK    5  A    between atoms: C10_16  and  C11_17 
REMARK    6  A    between atoms: C11_17  and  C12_19 
ROOT
HETATM    1  C5  UNL     1       0.722  -0.375   0.590  1.00  0.00     0.079 C 
HETATM    2  C6  UNL     1      -0.206  -1.564   0.446  1.00  0.00     0.027 C 
HETATM    3  C7  UNL     1      -1.330  -1.439   1.440  1.00  0.00     0.027 C 
HETATM    4  C8  UNL     1      -2.014  -0.106   1.412  1.00  0.00     0.084 C 
HETATM    5  C13 UNL     1      -1.057   1.063   1.391  1.00  0.00     0.027 C 
HETATM    6  C14 UNL     1      -0.082   0.857   0.249  1.00  0.00     0.027 C 
ENDROOT
BRANCH   4   7
HETATM    7  N3  UNL     1      -2.899  -0.062   0.298  1.00  0.00    -0.353 N 
HETATM    8  C9  UNL     1      -4.327   0.061   0.525  1.00  0.00     0.243 C 
HETATM    9  O2  UNL     1      -4.653   0.118   1.719  1.00  0.00    -0.269 OA
ATOM     10  H3  UNL     1      -2.532  -0.116  -0.652  1.00  0.00     0.163 HD
BRANCH   8  11
HETATM   11  C10 UNL     1      -5.150   0.098  -0.666  1.00  0.00     0.101 C 
BRANCH  11  12
HETATM   12  C11 UNL     1      -6.588   0.213  -0.640  1.00  0.00     0.089 C 
HETATM   13 CL1  UNL     1      -7.311   0.234  -2.326  1.00  0.00    -0.080 Cl
BRANCH  12  14
HETATM   14  C12 UNL     1      -7.453   0.301   0.318  1.00  0.00     0.207 C 
HETATM   15  F1  UNL     1      -7.247   0.313   1.639  1.00  0.00    -0.191 F 
HETATM   16 CL2  UNL     1      -9.198   0.431  -0.110  1.00  0.00    -0.050 Cl
ENDBRANCH  12  14
ENDBRANCH  11  12
ENDBRANCH   8  11
ENDBRANCH   4   7
BRANCH   1  17
HETATM   17  N2  UNL     1       1.959  -0.490  -0.053  1.00  0.00    -0.408 N 
HETATM   18  C4  UNL     1       2.012  -0.621  -1.453  1.00  0.00     0.118 C 
HETATM   19  C3  UNL     1       3.124   0.297  -1.970  1.00  0.00     0.033 C 
HETATM   20  C2  UNL     1       4.037   0.660  -0.833  1.00  0.00     0.078 C 
HETATM   21  C16 UNL     1       4.329  -0.538   0.076  1.00  0.00     0.033 C 
HETATM   22  C15 UNL     1       3.028  -1.127   0.622  1.00  0.00     0.118 C 
BRANCH  20  23
HETATM   23  C1  UNL     1       5.333   1.196  -1.264  1.00  0.00     0.235 C 
HETATM   24  N1  UNL     1       6.277   1.576  -0.305  1.00  0.00    -0.062 NA
HETATM   25  O1  UNL     1       5.584   1.310  -2.478  1.00  0.00    -0.277 OA
ENDBRANCH  20  23
ENDBRANCH   1  17
TORSDOF 6
