REMARK  5 active torsions:
REMARK  status: ('A' for Active; 'I' for Inactive)
REMARK    1  A    between atoms: C2_2  and  N1_3 
REMARK    2  A    between atoms: N1_3  and  N2_4 
REMARK    3  A    between atoms: N1_3  and  C3_9 
REMARK    4  A    between atoms: N2_4  and  N3_6 
REMARK    5  A    between atoms: C5_11  and  N4_12 
ROOT
HETATM    1  N1  UNL     1      -0.537   0.017  -0.577  1.00  0.00    -0.211 NA
ENDROOT
BRANCH   1   2
HETATM    2  C2  UNL     1      -1.327  -1.000   0.085  1.00  0.00     0.111 C 
HETATM    3  C1  UNL     1      -2.602  -1.338  -0.647  1.00  0.00     0.023 C 
ENDBRANCH   1   2
BRANCH   1   4
HETATM    4  N2  UNL     1      -1.276   1.157  -0.664  1.00  0.00    -0.269 N 
ATOM      5  H2  UNL     1      -2.271   1.141  -0.887  1.00  0.00     0.201 HD
BRANCH   4   6
HETATM    6  N3  UNL     1      -0.594   2.338  -0.432  1.00  0.00    -0.335 N 
ATOM      7  H32 UNL     1       0.402   2.338  -0.210  1.00  0.00     0.177 HD
ATOM      8  H31 UNL     1      -1.148   3.192  -0.497  1.00  0.00     0.177 HD
ENDBRANCH   4   6
ENDBRANCH   1   4
BRANCH   1   9
HETATM    9  C3  UNL     1       0.726   0.120   0.064  1.00  0.00     0.113 A 
HETATM   10  C4  UNL     1       1.650  -1.065  -0.162  1.00  0.00     0.058 A 
HETATM   11  C5  UNL     1       2.015   0.318  -0.604  1.00  0.00     0.204 A 
BRANCH  11  12
HETATM   12  N4  UNL     1       3.086   0.945   0.181  1.00  0.00    -0.073 N 
ATOM     13  H43 UNL     1       2.757   1.835   0.554  1.00  0.00     0.274 HD
ATOM     14  H42 UNL     1       3.228   0.419   1.043  1.00  0.00     0.274 HD
ATOM     15  H41 UNL     1       3.983   1.083  -0.284  1.00  0.00     0.274 HD
ENDBRANCH  11  12
ENDBRANCH   1   9
TORSDOF 5
