REMARK  11 active torsions:
REMARK  status: ('A' for Active; 'I' for Inactive)
REMARK    1  A    between atoms: C3_3  and  O1_4 
REMARK    2  A    between atoms: C4_6  and  C5_7 
REMARK    3  A    between atoms: C5_7  and  N1_8 
REMARK    4  A    between atoms: N1_8  and  C6_10 
REMARK    5  A    between atoms: C6_10  and  C7_11 
REMARK    6  A    between atoms: C7_11  and  N2_12 
REMARK    7  A    between atoms: N2_12  and  C8_14 
REMARK    8  A    between atoms: C8_14  and  C9_15 
REMARK    9  A    between atoms: C9_15  and  N3_16 
REMARK   10  A    between atoms: C10_20  and  O2_21 
REMARK   11  A    between atoms: C13_26  and  O4_27 
ROOT
HETATM    1  C1  UNL     1      -4.035  -1.876   0.922  1.00  0.00     0.015 C 
HETATM    2  C2  UNL     1      -3.399  -0.485   1.135  1.00  0.00     0.042 C 
HETATM    3  C3  UNL     1      -2.068  -0.601   0.490  1.00  0.00     0.132 C 
HETATM    4  C4  UNL     1      -1.361   0.631   0.069  1.00  0.00     0.064 C 
HETATM    5  C10 UNL     1      -1.754   1.092  -1.343  1.00  0.00     0.158 C 
HETATM    6  C11 UNL     1      -3.216   0.912  -1.459  1.00  0.00     0.182 A 
HETATM    7  O3  UNL     1      -4.173   1.879  -1.524  1.00  0.00    -0.370 OA
HETATM    8  C12 UNL     1      -3.786   1.608  -0.220  1.00  0.00     0.182 A 
HETATM    9  C13 UNL     1      -4.353   0.522   0.615  1.00  0.00     0.156 C 
ENDROOT
BRANCH   4  10
HETATM   10  C5  UNL     1       0.155   0.511   0.194  1.00  0.00     0.124 C 
BRANCH  10  11
HETATM   11  N1  UNL     1       0.708  -0.540  -0.592  1.00  0.00    -0.416 N 
ATOM     12  H1  UNL     1       0.129  -1.171  -1.146  1.00  0.00     0.153 HD
BRANCH  11  13
HETATM   13  C6  UNL     1       2.157  -0.650  -0.548  1.00  0.00     0.158 C 
BRANCH  13  14
HETATM   14  C7  UNL     1       2.863   0.472  -1.186  1.00  0.00     0.079 C 
BRANCH  14  15
HETATM   15  N2  UNL     1       4.243   0.376  -1.247  1.00  0.00    -0.379 N 
ATOM     16  H2  UNL     1       4.640   0.246  -2.178  1.00  0.00     0.164 HD
BRANCH  15  17
HETATM   17  C8  UNL     1       5.143   0.434  -0.215  1.00  0.00     0.087 C 
BRANCH  17  18
HETATM   18  C9  UNL     1       5.285  -0.664   0.782  1.00  0.00     0.274 C 
BRANCH  18  19
HETATM   19  N3  UNL     1       6.378  -0.270   1.718  1.00  0.00    -0.075 N 
ATOM     20  H33 UNL     1       7.252  -0.048   1.241  1.00  0.00     0.274 HD
ATOM     21  H32 UNL     1       6.227   0.643   2.147  1.00  0.00     0.274 HD
ATOM     22  H31 UNL     1       6.475  -1.022   2.401  1.00  0.00     0.274 HD
ENDBRANCH  18  19
ENDBRANCH  17  18
ENDBRANCH  15  17
ENDBRANCH  14  15
ENDBRANCH  13  14
ENDBRANCH  11  13
ENDBRANCH  10  11
ENDBRANCH   4  10
BRANCH   3  23
HETATM   23  O1  UNL     1      -2.086  -1.558  -0.565  1.00  0.00    -0.395 OA
ATOM     24  H1  UNL     1      -1.234  -1.632  -0.978  1.00  0.00     0.210 HD
ENDBRANCH   3  23
BRANCH   5  25
HETATM   25  O2  UNL     1      -1.153   0.229  -2.255  1.00  0.00    -0.392 OA
ATOM     26  H2  UNL     1      -1.396   0.514  -3.128  1.00  0.00     0.210 HD
ENDBRANCH   5  25
BRANCH   9  27
HETATM   27  O4  UNL     1      -5.044   1.161   1.677  1.00  0.00    -0.392 OA
ATOM     28  H4  UNL     1      -5.656   1.807   1.344  1.00  0.00     0.210 HD
ENDBRANCH   9  27
TORSDOF 11
