REMARK  9 active torsions:
REMARK  status: ('A' for Active; 'I' for Inactive)
REMARK    1  A    between atoms: N1_1  and  C1_5 
REMARK    2  A    between atoms: C1_5  and  C2_6 
REMARK    3  A    between atoms: C2_6  and  N2_7 
REMARK       I    between atoms: N2_7  and  C3_9 
REMARK    4  A    between atoms: C3_9  and  C4_11 
REMARK    5  A    between atoms: C4_11  and  C5_12 
REMARK    6  A    between atoms: C5_12  and  N3_13 
REMARK       I    between atoms: N3_13  and  C6_15 
REMARK    7  A    between atoms: C6_15  and  C7_17 
REMARK    8  A    between atoms: C9_19  and  C10_20 
REMARK       I    between atoms: C10_20  and  N4_22 
REMARK    9  A    between atoms: N4_22  and  N5_24 
ROOT
HETATM    1  N3  UNL     1       0.362   0.066  -0.050  1.00  0.00    -0.355 N 
ATOM      2  H3  UNL     1       0.490  -0.745  -0.655  1.00  0.00     0.162 HD
HETATM    3  C6  UNL     1       1.481   0.643   0.596  1.00  0.00     0.269 C 
HETATM    4  O2  UNL     1       1.335   1.641   1.341  1.00  0.00    -0.266 OA
ENDROOT
BRANCH   3   5
HETATM    5  C7  UNL     1       2.813   0.064   0.386  1.00  0.00     0.118 A 
HETATM    6  C8  UNL     1       4.011   0.491   0.930  1.00  0.00     0.073 A 
HETATM    7  C9  UNL     1       5.039  -0.316   0.490  1.00  0.00     0.119 A 
HETATM    8  N6  UNL     1       4.454  -1.221  -0.314  1.00  0.00    -0.295 N 
HETATM    9  N7  UNL     1       3.140  -0.996  -0.375  1.00  0.00    -0.295 N 
ATOM     10  H6  UNL     1       4.943  -1.970  -0.805  1.00  0.00     0.187 HD
ATOM     11  H7  UNL     1       2.478  -1.549  -0.920  1.00  0.00     0.187 HD
BRANCH   7  12
HETATM   12  C10 UNL     1       6.455  -0.223   0.814  1.00  0.00     0.287 C 
HETATM   13  O3  UNL     1       6.890   0.671   1.583  1.00  0.00    -0.264 OA
HETATM   14  N4  UNL     1       7.389  -1.135   0.276  1.00  0.00    -0.271 N 
ATOM     15  H4  UNL     1       7.041  -1.863  -0.349  1.00  0.00     0.189 HD
BRANCH  14  16
HETATM   16  N5  UNL     1       8.749  -1.104   0.543  1.00  0.00    -0.342 N 
ATOM     17  H52 UNL     1       9.079  -0.370   1.169  1.00  0.00     0.176 HD
ATOM     18  H51 UNL     1       9.424  -1.763   0.154  1.00  0.00     0.176 HD
ENDBRANCH  14  16
ENDBRANCH   7  12
ENDBRANCH   3   5
BRANCH   1  19
HETATM   19  C5  UNL     1      -0.952   0.614   0.140  1.00  0.00     0.132 C 
BRANCH  19  20
HETATM   20  C4  UNL     1      -1.974  -0.176  -0.653  1.00  0.00     0.122 C 
BRANCH  20  21
HETATM   21  C3  UNL     1      -3.343   0.388  -0.461  1.00  0.00     0.219 C 
HETATM   22  N2  UNL     1      -4.474  -0.177  -1.099  1.00  0.00    -0.359 N 
ATOM     23  H2  UNL     1      -4.331  -0.988  -1.701  1.00  0.00     0.162 HD
HETATM   24  O1  UNL     1      -3.532   1.388   0.278  1.00  0.00    -0.274 OA
BRANCH  22  25
HETATM   25  C2  UNL     1      -5.811   0.326  -0.947  1.00  0.00     0.150 C 
BRANCH  25  26
HETATM   26  C1  UNL     1      -6.341   0.314   0.447  1.00  0.00     0.249 C 
BRANCH  26  27
HETATM   27  N1  UNL     1      -7.705   0.860   0.378  1.00  0.00    -0.078 N 
ATOM     28  H13 UNL     1      -7.751   1.778  -0.064  1.00  0.00     0.274 HD
ATOM     29  H12 UNL     1      -8.304   0.370  -0.286  1.00  0.00     0.274 HD
ATOM     30  H11 UNL     1      -8.067   0.852   1.331  1.00  0.00     0.274 HD
ENDBRANCH  26  27
ENDBRANCH  25  26
ENDBRANCH  22  25
ENDBRANCH  20  21
ENDBRANCH  19  20
ENDBRANCH   1  19
TORSDOF 9
