REMARK  15 active torsions:
REMARK  status: ('A' for Active; 'I' for Inactive)
REMARK    1  A    between atoms: C3_4  and  C4_5 
REMARK    2  A    between atoms: C6_8  and  C7_9 
REMARK    3  A    between atoms: C7_9  and  O2_10 
REMARK    4  A    between atoms: C7_9  and  O3_12 
REMARK    5  A    between atoms: C8_14  and  N2_15 
REMARK    6  A    between atoms: C11_18  and  N3_19 
REMARK    7  A    between atoms: C12_24  and  N7_25 
REMARK    8  A    between atoms: C13_28  and  C14_29 
REMARK    9  A    between atoms: C16_33  and  O6_34 
REMARK   10  A    between atoms: C19_42  and  O9_43 
REMARK   11  A    between atoms: C19_42  and  C20_45 
REMARK   12  A    between atoms: C20_45  and  C21_46 
REMARK   13  A    between atoms: C21_46  and  C22_47 
REMARK   14  A    between atoms: C22_47  and  N9_48 
REMARK   15  A    between atoms: C25_51  and  O10_52 
ROOT
HETATM    1  N1  UNL     1      -1.933  -1.788   3.989  1.00  0.00    -0.191 NA
HETATM    2  C1  UNL     1      -2.007  -1.113   3.060  1.00  0.00     0.101 C 
HETATM    3  C2  UNL     1      -2.135  -0.259   1.926  1.00  0.00     0.089 C 
HETATM    4  C3  UNL     1      -1.308   0.282   1.108  1.00  0.00     0.051 C 
HETATM    5  N8  UNL     1      -2.049   1.226   0.248  1.00  0.00    -0.325 N 
ATOM      6  H8  UNL     1      -1.662   1.796  -0.505  1.00  0.00     0.168 HD
HETATM    7  C18 UNL     1      -3.390   1.188   0.667  1.00  0.00     0.262 C 
HETATM    8  O8  UNL     1      -4.199   2.145   0.364  1.00  0.00    -0.269 OA
HETATM    9  C19 UNL     1      -3.610  -0.025   1.428  1.00  0.00     0.177 C 
ENDROOT
BRANCH   4  10
HETATM   10  C4  UNL     1       0.126   0.242   0.975  1.00  0.00     0.184 C 
HETATM   11  C5  UNL     1       0.556   0.038  -0.468  1.00  0.00     0.179 C 
HETATM   12  O1  UNL     1      -0.207  -0.145  -1.413  1.00  0.00    -0.291 OA
HETATM   13  C6  UNL     1       2.022   0.066  -0.717  1.00  0.00     0.069 C 
HETATM   14  C8  UNL     1       2.891   0.037   0.260  1.00  0.00     0.066 C 
HETATM   15  C16 UNL     1       2.482  -0.031   1.728  1.00  0.00     0.239 C 
HETATM   16  C17 UNL     1       1.034  -0.537   1.747  1.00  0.00     0.178 C 
HETATM   17  O7  UNL     1       0.863  -1.502   2.389  1.00  0.00    -0.293 OA
BRANCH  13  18
HETATM   18  C7  UNL     1       2.399   0.120  -2.147  1.00  0.00     0.294 C 
BRANCH  18  19
HETATM   19  O2  UNL     1       1.680   1.154  -2.788  1.00  0.00    -0.367 OA
ATOM     20  H2  UNL     1       1.922   1.189  -3.706  1.00  0.00     0.213 HD
ENDBRANCH  18  19
BRANCH  18  21
HETATM   21  O3  UNL     1       3.719   0.428  -2.306  1.00  0.00    -0.367 OA
ATOM     22  H3  UNL     1       3.961   0.463  -3.224  1.00  0.00     0.213 HD
ENDBRANCH  18  21
ENDBRANCH  13  18
BRANCH  14  23
HETATM   23  N2  UNL     1       4.322   0.059   0.119  1.00  0.00    -0.332 N 
HETATM   24  C9  UNL     1       5.040   1.204   0.246  1.00  0.00     0.099 A 
HETATM   25  C10 UNL     1       6.404   1.267   0.160  1.00  0.00     0.050 A 
HETATM   26  C11 UNL     1       7.085   0.066  -0.074  1.00  0.00     0.092 A 
HETATM   27  C13 UNL     1       6.408  -1.119  -0.211  1.00  0.00     0.085 A 
HETATM   28  C15 UNL     1       5.018  -1.069  -0.105  1.00  0.00     0.117 A 
BRANCH  26  29
HETATM   29  N3  UNL     1       8.494   0.109  -0.155  1.00  0.00    -0.071 N 
HETATM   30  N4  UNL     1       9.218   0.302  -1.243  1.00  0.00     0.014 NA
HETATM   31  N5  UNL     1      10.509   0.296  -0.935  1.00  0.00     0.007 NA
HETATM   32  N6  UNL     1      10.588   0.093   0.384  1.00  0.00    -0.117 N 
HETATM   33  C12 UNL     1       9.348  -0.024   0.877  1.00  0.00     0.708 A 
ATOM     34  H6  UNL     1      11.450   0.037   0.926  1.00  0.00     0.202 HD
BRANCH  33  35
HETATM   35  N7  UNL     1       9.095  -0.229   2.138  1.00  0.00    -0.232 N 
ATOM     36  H72 UNL     1       8.151  -0.318   2.513  1.00  0.00     0.174 HD
ATOM     37  H71 UNL     1       9.742  -0.330   2.920  1.00  0.00     0.174 HD
ENDBRANCH  33  35
ENDBRANCH  26  29
BRANCH  27  38
HETATM   38  C14 UNL     1       7.062  -2.414  -0.469  1.00  0.00     0.213 C 
HETATM   39  O4  UNL     1       6.369  -3.459  -0.577  1.00  0.00    -0.644 OA
HETATM   40  O5  UNL     1       8.425  -2.529  -0.599  1.00  0.00    -0.644 OA
ENDBRANCH  27  38
ENDBRANCH  14  23
BRANCH  15  41
HETATM   41  O6  UNL     1       2.442   1.265   2.221  1.00  0.00    -0.382 OA
ATOM     42  H6  UNL     1       2.187   1.223   3.135  1.00  0.00     0.211 HD
ENDBRANCH  15  41
ENDBRANCH   4  10
BRANCH   9  43
HETATM   43  O9  UNL     1      -4.350   0.213   2.593  1.00  0.00    -0.374 OA
ATOM     44  H9  UNL     1      -5.240   0.354   2.292  1.00  0.00     0.211 HD
ENDBRANCH   9  43
BRANCH   9  45
HETATM   45  C20 UNL     1      -3.996  -1.271   0.750  1.00  0.00     0.055 C 
BRANCH  45  46
HETATM   46  C21 UNL     1      -5.357  -1.422   0.226  1.00  0.00     0.034 C 
BRANCH  46  47
HETATM   47  C22 UNL     1      -5.837  -0.503  -0.832  1.00  0.00     0.272 C 
BRANCH  47  48
HETATM   48  N9  UNL     1      -7.204  -0.899  -1.285  1.00  0.00     0.091 N 
HETATM   49  C23 UNL     1      -7.494   0.024  -2.383  1.00  0.00     0.275 C 
HETATM   50  C24 UNL     1      -7.708   1.370  -1.736  1.00  0.00     0.064 C 
HETATM   51  C25 UNL     1      -8.258   1.006  -0.388  1.00  0.00     0.148 C 
HETATM   52  C26 UNL     1      -8.186  -0.516  -0.318  1.00  0.00     0.303 C 
BRANCH  51  53
HETATM   53  O10 UNL     1      -9.577   1.445  -0.226  1.00  0.00    -0.394 OA
ATOM     54  H10 UNL     1      -9.925   1.215   0.627  1.00  0.00     0.210 HD
ENDBRANCH  51  53
ENDBRANCH  47  48
ENDBRANCH  46  47
ENDBRANCH  45  46
ENDBRANCH   9  45
TORSDOF 15
