REMARK  12 active torsions:
REMARK  status: ('A' for Active; 'I' for Inactive)
REMARK    1  A    between atoms: C3_8  and  O1_9 
REMARK    2  A    between atoms: C3_8  and  C4_11 
REMARK    3  A    between atoms: C4_11  and  O2_12 
REMARK    4  A    between atoms: O2_12  and  S1_13 
REMARK    5  A    between atoms: S1_13  and  N3_16 
REMARK    6  A    between atoms: N3_16  and  C5_18 
REMARK    7  A    between atoms: C5_18  and  N4_19 
REMARK    8  A    between atoms: C10_26  and  C11_27 
REMARK    9  A    between atoms: C15_35  and  O6_36 
REMARK   10  A    between atoms: C16_38  and  C17_39 
REMARK   11  A    between atoms: C19_44  and  C20_46 
REMARK   12  A    between atoms: C22_50  and  O11_51 
ROOT
HETATM    1  N1  UNL     1      -1.836  -4.610  -1.785  1.00  0.00    -0.365 N 
ATOM      2  H11 UNL     1      -2.527  -5.140  -2.315  1.00  0.00     0.159 HD
ATOM      3  H12 UNL     1      -0.976  -5.158  -1.812  1.00  0.00     0.159 HD
HETATM    4  C1  UNL     1      -1.952  -3.469  -1.175  1.00  0.00     0.216 C 
HETATM    5  N2  UNL     1      -0.994  -2.734  -0.440  1.00  0.00    -0.343 N 
ATOM      6  H2  UNL     1      -0.025  -3.018  -0.297  1.00  0.00     0.163 HD
HETATM    7  C2  UNL     1      -1.585  -1.523   0.080  1.00  0.00     0.189 C 
HETATM    8  C3  UNL     1      -1.186  -0.393  -0.839  1.00  0.00     0.124 C 
HETATM    9  C13 UNL     1      -2.073   0.753  -0.749  1.00  0.00     0.021 C 
HETATM   10  C14 UNL     1      -3.354   0.653  -0.428  1.00  0.00    -0.037 C 
HETATM   11  C15 UNL     1      -4.178   1.935  -0.368  1.00  0.00     0.167 C 
HETATM   12  C16 UNL     1      -5.611   1.564  -0.123  1.00  0.00     0.181 C 
HETATM   13  C18 UNL     1      -5.704   0.645   1.047  1.00  0.00     0.193 C 
HETATM   14  O8  UNL     1      -6.340   0.888   2.034  1.00  0.00    -0.293 OA
HETATM   15  C19 UNL     1      -4.961  -0.654   0.988  1.00  0.00     0.263 C 
HETATM   16  F1  UNL     1      -4.337  -0.752   2.229  1.00  0.00    -0.222 F 
HETATM   17  C21 UNL     1      -3.957  -0.653  -0.152  1.00  0.00     0.141 C 
HETATM   18  C22 UNL     1      -3.055  -1.818  -0.022  1.00  0.00     0.206 C 
HETATM   19  O12 UNL     1      -3.133  -2.716  -1.138  1.00  0.00    -0.281 OA
ENDROOT
BRANCH   8  20
HETATM   20  O1  UNL     1      -1.202  -0.873  -2.169  1.00  0.00    -0.381 OA
ATOM     21  H1  UNL     1      -0.951  -0.162  -2.747  1.00  0.00     0.211 HD
ENDBRANCH   8  20
BRANCH   8  22
HETATM   22  C4  UNL     1       0.236   0.063  -0.593  1.00  0.00     0.236 C 
BRANCH  22  23
HETATM   23  O2  UNL     1       0.493   1.050  -1.522  1.00  0.00    -0.256 OA
BRANCH  23  24
HETATM   24  S1  UNL     1       2.004   1.714  -1.461  1.00  0.00     0.359 S 
HETATM   25  O3  UNL     1       2.043   2.773  -0.398  1.00  0.00    -0.176 OA
HETATM   26  O4  UNL     1       2.260   2.336  -2.828  1.00  0.00    -0.176 OA
BRANCH  24  27
HETATM   27  N3  UNL     1       3.208   0.547  -1.179  1.00  0.00    -0.280 N 
ATOM     28  H3  UNL     1       3.645   0.015  -1.932  1.00  0.00     0.176 HD
BRANCH  27  29
HETATM   29  C5  UNL     1       3.562   0.368   0.201  1.00  0.00     0.268 C 
BRANCH  29  30
HETATM   30  N4  UNL     1       4.588  -0.634   0.385  1.00  0.00    -0.310 N 
HETATM   31  C6  UNL     1       4.338  -1.937   0.583  1.00  0.00     0.186 A 
HETATM   32  N5  UNL     1       5.521  -2.548   0.710  1.00  0.00    -0.349 N 
HETATM   33  C7  UNL     1       6.502  -1.638   0.594  1.00  0.00     0.078 A 
ATOM     34  H5  UNL     1       5.657  -3.546   0.870  1.00  0.00     0.166 HD
HETATM   35  C8  UNL     1       7.878  -1.687   0.638  1.00  0.00     0.036 A 
HETATM   36  C12 UNL     1       5.919  -0.394   0.383  1.00  0.00     0.137 A 
HETATM   37  C9  UNL     1       8.641  -0.547   0.480  1.00  0.00     0.037 A 
HETATM   38  C10 UNL     1       8.038   0.673   0.272  1.00  0.00     0.099 A 
HETATM   39  N7  UNL     1       6.691   0.697   0.232  1.00  0.00    -0.336 N 
ATOM     40  H7  UNL     1       6.231   1.594   0.078  1.00  0.00     0.168 HD
BRANCH  38  41
HETATM   41  C11 UNL     1       8.842   1.881   0.104  1.00  0.00     0.281 C 
HETATM   42  N6  UNL     1       8.269   3.156  -0.118  1.00  0.00    -0.056 NA
HETATM   43  O5  UNL     1      10.092   1.791   0.157  1.00  0.00    -0.269 OA
ENDBRANCH  38  41
ENDBRANCH  29  30
ENDBRANCH  27  29
ENDBRANCH  24  27
ENDBRANCH  23  24
ENDBRANCH  22  23
ENDBRANCH   8  22
BRANCH  18  44
HETATM   44  O11 UNL     1      -3.371  -2.596   1.091  1.00  0.00    -0.363 OA
ATOM     45  H11 UNL     1      -4.300  -2.782   1.027  1.00  0.00     0.213 HD
ENDBRANCH  18  44
BRANCH  11  46
HETATM   46  O6  UNL     1      -3.629   2.665   0.684  1.00  0.00    -0.390 OA
ATOM     47  H6  UNL     1      -4.142   3.464   0.721  1.00  0.00     0.210 HD
ENDBRANCH  11  46
BRANCH  15  48
HETATM   48  C20 UNL     1      -5.909  -1.769   0.763  1.00  0.00     0.223 C 
HETATM   49  O9  UNL     1      -5.854  -2.416  -0.301  1.00  0.00    -0.645 OA
HETATM   50  O10 UNL     1      -6.867  -2.124   1.703  1.00  0.00    -0.645 OA
ENDBRANCH  15  48
BRANCH  12  51
HETATM   51  C17 UNL     1      -6.482   2.729   0.010  1.00  0.00     0.245 C 
HETATM   52  N8  UNL     1      -6.326   3.733   1.009  1.00  0.00    -0.061 NA
HETATM   53  O7  UNL     1      -7.444   2.893  -0.789  1.00  0.00    -0.276 OA
ENDBRANCH  12  51
TORSDOF 12
