REMARK  6 active torsions:
REMARK  status: ('A' for Active; 'I' for Inactive)
REMARK    1  A    between atoms: N1_2  and  C2_5 
REMARK    2  A    between atoms: C2_5  and  C3_6 
REMARK    3  A    between atoms: C3_6  and  S1_7 
REMARK    4  A    between atoms: S1_7  and  N2_8 
REMARK    5  A    between atoms: S1_7  and  C4_12 
REMARK    6  A    between atoms: C8_23  and  N6_24 
REMARK       I    between atoms: N6_24  and  C9_26 
ROOT
HETATM    1  C4  UNL     1       0.140  -1.682   0.485  1.00  0.00     0.122 A 
HETATM    2  C5  UNL     1      -0.182  -2.845   1.067  1.00  0.00     0.117 A 
HETATM    3  N3  UNL     1      -1.507  -3.176   1.197  1.00  0.00    -0.345 N 
ATOM      4  H3  UNL     1      -1.784  -4.054   1.636  1.00  0.00     0.167 HD
HETATM    5  C6  UNL     1      -2.432  -2.320   0.735  1.00  0.00     0.202 A 
HETATM    6  C7  UNL     1      -3.780  -2.628   0.853  1.00  0.00     0.305 A 
HETATM    7  O2  UNL     1      -4.067  -3.712   1.396  1.00  0.00    -0.263 OA
HETATM    8  N4  UNL     1      -4.695  -1.760   0.385  1.00  0.00    -0.249 N 
ATOM      9  H4  UNL     1      -5.683  -1.995   0.475  1.00  0.00     0.191 HD
HETATM   10  N5  UNL     1      -4.366  -0.615  -0.187  1.00  0.00    -0.128 N 
ATOM     11  H5  UNL     1      -5.083   0.023  -0.532  1.00  0.00     0.205 HD
HETATM   12  C8  UNL     1      -3.062  -0.315  -0.302  1.00  0.00     0.710 A 
HETATM   13  N9  UNL     1      -2.106  -1.157   0.153  1.00  0.00    -0.087 N 
HETATM   14  C10 UNL     1      -0.786  -0.831   0.025  1.00  0.00     0.289 A 
HETATM   15  O3  UNL     1      -0.547   0.256  -0.520  1.00  0.00    -0.265 OA
ENDROOT
BRANCH   1  16
HETATM   16  S1  UNL     1       2.053  -1.172   0.223  1.00  0.00     0.058 S 
HETATM   17  O1  UNL     1       1.788  -0.490   1.993  1.00  0.00    -0.245 OA
BRANCH  16  18
HETATM   18  C3  UNL     1       2.460   0.526  -0.347  1.00  0.00     0.150 C 
BRANCH  18  19
HETATM   19  C2  UNL     1       3.662   1.123   0.413  1.00  0.00     0.245 C 
BRANCH  19  20
HETATM   20  N1  UNL     1       3.954   2.456  -0.056  1.00  0.00    -0.078 N 
HETATM   21  C1  UNL     1       5.089   2.946   0.703  1.00  0.00     0.267 C 
ATOM     22  H12 UNL     1       3.147   3.079  -0.012  1.00  0.00     0.276 HD
ATOM     23  H11 UNL     1       4.101   2.500  -1.064  1.00  0.00     0.276 HD
ENDBRANCH  19  20
ENDBRANCH  18  19
ENDBRANCH  16  18
BRANCH  16  24
HETATM   24  N2  UNL     1       3.280  -2.294   1.077  1.00  0.00    -0.356 N 
ATOM     25  H22 UNL     1       4.221  -1.929   1.227  1.00  0.00     0.166 HD
ATOM     26  H21 UNL     1       3.054  -3.237   1.394  1.00  0.00     0.166 HD
ENDBRANCH  16  24
ENDBRANCH   1  16
BRANCH  12  27
HETATM   27  N6  UNL     1      -2.700   0.795  -0.856  1.00  0.00    -0.162 N 
HETATM   28  C9  UNL     1      -3.608   1.744  -1.364  1.00  0.00     0.200 C 
HETATM   29  N7  UNL     1      -4.151   1.555  -2.521  1.00  0.00    -0.373 N 
HETATM   30  N8  UNL     1      -3.969   2.921  -0.664  1.00  0.00    -0.063 NA
ATOM     31  H72 UNL     1      -3.891   0.707  -3.025  1.00  0.00     0.158 HD
ATOM     32  H71 UNL     1      -4.809   2.242  -2.889  1.00  0.00     0.158 HD
ATOM     33  H6  UNL     1      -1.702   0.995  -0.929  1.00  0.00     0.187 HD
ENDBRANCH  12  27
TORSDOF 6
