REMARK  5 active torsions:
REMARK  status: ('A' for Active; 'I' for Inactive)
REMARK    1  A    between atoms: C2_2  and  C4_4 
REMARK       I    between atoms: C4_4  and  N1_6 
REMARK    2  A    between atoms: N1_6  and  C5_8 
REMARK    3  A    between atoms: C8_11  and  C9_12 
REMARK       I    between atoms: C9_12  and  N2_14 
REMARK    4  A    between atoms: N2_14  and  C10_16 
REMARK       I    between atoms: N4_24  and  C15_25 
REMARK       I    between atoms: C15_25  and  N5_27 
REMARK    5  A    between atoms: N5_27  and  C16_29 
ROOT
HETATM    1  C5  UNL     1       2.933  -1.373  -0.181  1.00  0.00     0.102 C 
HETATM    2  C6  UNL     1       3.330  -0.054  -0.759  1.00  0.00     0.029 C 
HETATM    3  C7  UNL     1       2.367   0.375  -1.855  1.00  0.00     0.037 C 
HETATM    4  C8  UNL     1       1.031   0.601  -1.128  1.00  0.00     0.181 C 
HETATM    5  N4  UNL     1       0.613  -0.710  -0.666  1.00  0.00    -0.319 N 
HETATM    6  C15 UNL     1      -0.749  -0.914  -0.343  1.00  0.00     0.319 C 
HETATM    7  O3  UNL     1      -1.099  -2.049   0.050  1.00  0.00    -0.247 OA
HETATM    8  N5  UNL     1      -1.735   0.097  -0.440  1.00  0.00    -0.334 N 
ATOM      9  H5  UNL     1      -1.424   1.014  -0.761  1.00  0.00     0.165 HD
HETATM   10  C26 UNL     1       1.538  -1.800  -0.525  1.00  0.00     0.153 C 
ENDROOT
BRANCH   4  11
HETATM   11  C9  UNL     1       1.333   1.510   0.003  1.00  0.00     0.246 C 
HETATM   12  O2  UNL     1       1.207   1.065   1.168  1.00  0.00    -0.271 OA
HETATM   13  N2  UNL     1       1.746   2.824  -0.226  1.00  0.00    -0.311 N 
ATOM     14  H2  UNL     1       2.547   2.951  -0.845  1.00  0.00     0.170 HD
BRANCH  13  15
HETATM   15  C10 UNL     1       1.221   3.886   0.262  1.00  0.00     0.110 A 
HETATM   16  C11 UNL     1       1.770   5.113  -0.080  1.00  0.00     0.090 A 
HETATM   17  C12 UNL     1       1.273   6.310   0.397  1.00  0.00     0.121 A 
HETATM   18  F1  UNL     1       1.808   7.512   0.066  1.00  0.00    -0.206 F 
HETATM   19  C13 UNL     1       0.184   6.311   1.251  1.00  0.00     0.059 A 
HETATM   20  C14 UNL     1      -0.345   5.082   1.577  1.00  0.00     0.092 A 
HETATM   21  N3  UNL     1       0.165   3.916   1.092  1.00  0.00    -0.352 N 
ATOM     22  H3  UNL     1      -0.270   3.036   1.368  1.00  0.00     0.166 HD
ENDBRANCH  13  15
ENDBRANCH   4  11
BRANCH   8  23
HETATM   23  C16 UNL     1      -3.134  -0.043  -0.130  1.00  0.00     0.035 C 
HETATM   24  C17 UNL     1      -3.802  -1.086  -0.986  1.00  0.00     0.035 C 
HETATM   25  C18 UNL     1      -5.289  -1.128  -0.675  1.00  0.00    -0.012 C 
HETATM   26  C19 UNL     1      -5.950   0.188  -0.931  1.00  0.00     0.009 C 
HETATM   27  C23 UNL     1      -5.486  -1.478   0.792  1.00  0.00     0.009 C 
HETATM   28  C20 UNL     1      -5.275   1.237  -0.071  1.00  0.00    -0.012 C 
HETATM   29  C21 UNL     1      -5.403   0.951   1.392  1.00  0.00     0.009 C 
HETATM   30  C25 UNL     1      -3.819   1.279  -0.433  1.00  0.00     0.035 C 
HETATM   31  C22 UNL     1      -4.818  -0.416   1.639  1.00  0.00    -0.012 C 
HETATM   32  C24 UNL     1      -3.342  -0.435   1.323  1.00  0.00     0.035 C 
ENDBRANCH   8  23
BRANCH   1  33
HETATM   33  N1  UNL     1       3.904  -2.379  -0.561  1.00  0.00    -0.355 N 
HETATM   34  C4  UNL     1       4.713  -3.055   0.394  1.00  0.00     0.221 C 
HETATM   35  O1  UNL     1       4.595  -2.780   1.615  1.00  0.00    -0.273 OA
ATOM     36  H1  UNL     1       4.011  -2.611  -1.549  1.00  0.00     0.162 HD
BRANCH  34  37
HETATM   37  C2  UNL     1       5.684  -4.071  -0.052  1.00  0.00     0.070 C 
HETATM   38  C1  UNL     1       6.435  -4.650   1.120  1.00  0.00     0.019 C 
HETATM   39  C3  UNL     1       6.640  -3.564  -1.085  1.00  0.00     0.019 C 
ENDBRANCH  34  37
ENDBRANCH   1  33
TORSDOF 5
