REMARK  3 active torsions:
REMARK  status: ('A' for Active; 'I' for Inactive)
REMARK    1  A    between atoms: S1_3  and  C2_4 
REMARK    2  A    between atoms: C2_4  and  C3_5 
REMARK    3  A    between atoms: C3_5  and  N2_6 
ROOT
HETATM    1  N1  UNL     1       3.260   0.791  -2.628  1.00  0.00    -0.184 NA
HETATM    2  C1  UNL     1       3.054   0.559  -1.491  1.00  0.00     0.133 C 
HETATM    3  S1  UNL     1       2.789   0.210   0.200  1.00  0.00    -0.048 SA
ENDROOT
BRANCH   3   4
HETATM    4  C2  UNL     1       1.483  -0.974   0.466  1.00  0.00     0.128 C 
BRANCH   4   5
HETATM    5  C3  UNL     1       0.117  -0.485   0.223  1.00  0.00     0.133 C 
HETATM    6  C4  UNL     1      -0.245   0.638   1.220  1.00  0.00     0.039 C 
HETATM    7  C5  UNL     1      -1.669   0.869   0.772  1.00  0.00     0.002 C 
HETATM    8  C6  UNL     1      -1.532   0.919  -0.731  1.00  0.00     0.002 C 
HETATM    9  C7  UNL     1      -0.232   0.155  -1.068  1.00  0.00     0.039 C 
BRANCH   5  10
HETATM   10  N2  UNL     1      -0.888  -1.533   0.469  1.00  0.00    -0.070 N 
ATOM     11  H23 UNL     1      -0.691  -2.373  -0.076  1.00  0.00     0.275 HD
ATOM     12  H22 UNL     1      -0.795  -1.926   1.406  1.00  0.00     0.275 HD
ATOM     13  H21 UNL     1      -1.835  -1.194   0.301  1.00  0.00     0.275 HD
ENDBRANCH   5  10
ENDBRANCH   4   5
ENDBRANCH   3   4
TORSDOF 3
