REMARK  3 active torsions:
REMARK  status: ('A' for Active; 'I' for Inactive)
REMARK    1  A    between atoms: C1_2  and  N1_3 
REMARK    2  A    between atoms: N1_3  and  C2_5 
REMARK    3  A    between atoms: C2_5  and  C3_6 
ROOT
HETATM    1  C3  UNL     1       0.206  -0.307  -0.270  1.00  0.00     0.025 A 
HETATM    2  S1  UNL     1       0.906   1.187   0.149  1.00  0.00    -0.084 SA
HETATM    3  C4  UNL     1       2.549   0.742   0.134  1.00  0.00     0.053 A 
HETATM    4 BR1  UNL     1       4.098   1.834   0.501  1.00  0.00    -0.043 Br
HETATM    5  C5  UNL     1       2.507  -0.585  -0.204  1.00  0.00     0.051 A 
HETATM    6  C6  UNL     1       1.289  -1.125  -0.412  1.00  0.00     0.050 A 
HETATM    7 CL2  UNL     1       1.091  -2.841  -0.857  1.00  0.00    -0.083 Cl
ENDROOT
BRANCH   1   8
HETATM    8  C2  UNL     1      -1.247  -0.626  -0.436  1.00  0.00     0.193 C 
BRANCH   8   9
HETATM    9  N1  UNL     1      -1.977   0.592  -0.172  1.00  0.00    -0.262 N 
HETATM   10 CL1  UNL     1      -2.314   1.669  -1.486  1.00  0.00     0.016 Cl
BRANCH   9  11
HETATM   11  C1  UNL     1      -2.392   0.860   1.158  1.00  0.00     0.366 C 
HETATM   12  O1  UNL     1      -3.038   1.933   1.399  1.00  0.00    -0.282 OA
ENDBRANCH   9  11
ENDBRANCH   8   9
ENDBRANCH   1   8
TORSDOF 3
