REMARK  4 active torsions:
REMARK  status: ('A' for Active; 'I' for Inactive)
REMARK    1  A    between atoms: C1_2  and  C2_3 
REMARK       I    between atoms: C1_2  and  N1_9 
REMARK    2  A    between atoms: C2_3  and  C3_4 
REMARK    3  A    between atoms: C3_4  and  S1_5 
REMARK    4  A    between atoms: N1_9  and  C4_11 
ROOT
HETATM    1  C4  UNL     1      -1.470  -0.003   0.315  1.00  0.00     0.176 C 
HETATM    2  C5  UNL     1      -0.820  -1.196  -0.298  1.00  0.00     0.035 C 
HETATM    3  C6  UNL     1      -0.215  -2.121   0.734  1.00  0.00     0.002 C 
HETATM    4  C7  UNL     1       0.427  -3.303   0.088  1.00  0.00     0.000 C 
HETATM    5  C8  UNL     1       1.638  -2.991  -0.728  1.00  0.00     0.000 C 
HETATM    6  C9  UNL     1       2.911  -2.963   0.126  1.00  0.00     0.000 C 
HETATM    7  C10 UNL     1       4.020  -2.236  -0.603  1.00  0.00     0.000 C 
HETATM    8  C11 UNL     1       4.341  -0.985   0.145  1.00  0.00     0.000 C 
HETATM    9  C12 UNL     1       4.723   0.165  -0.754  1.00  0.00     0.000 C 
HETATM   10  C13 UNL     1       4.562   1.452   0.005  1.00  0.00     0.000 C 
HETATM   11  C14 UNL     1       3.422   2.305  -0.545  1.00  0.00     0.000 C 
HETATM   12  C15 UNL     1       2.837   3.211   0.494  1.00  0.00     0.002 C 
HETATM   13  C16 UNL     1       1.356   2.957   0.728  1.00  0.00     0.020 C 
HETATM   14  C17 UNL     1       1.193   1.504   1.067  1.00  0.00     0.122 C 
HETATM   15  N2  UNL     1       0.069   1.246   1.942  1.00  0.00    -0.359 N 
ATOM     16  H2  UNL     1       0.000   1.789   2.803  1.00  0.00     0.162 HD
HETATM   17  C18 UNL     1      -0.945   0.285   1.679  1.00  0.00     0.240 C 
HETATM   18  O5  UNL     1      -1.454  -0.382   2.622  1.00  0.00    -0.271 OA
ENDROOT
BRANCH   1  19
HETATM   19  N1  UNL     1      -2.919  -0.228   0.385  1.00  0.00    -0.348 N 
HETATM   20  C1  UNL     1      -3.828   0.582  -0.329  1.00  0.00     0.219 C 
HETATM   21  O1  UNL     1      -3.448   1.530  -1.058  1.00  0.00    -0.274 OA
ATOM     22  H1  UNL     1      -3.277  -0.988   0.963  1.00  0.00     0.163 HD
BRANCH  20  23
HETATM   23  C2  UNL     1      -5.272   0.314  -0.224  1.00  0.00     0.120 C 
BRANCH  23  24
HETATM   24  C3  UNL     1      -6.112   1.247  -1.032  1.00  0.00     0.174 C 
BRANCH  24  25
HETATM   25  S1  UNL     1      -7.825   0.768  -0.779  1.00  0.00     0.102 S 
HETATM   26  O2  UNL     1      -8.742   1.591  -1.630  1.00  0.00    -0.595 OA
HETATM   27  O3  UNL     1      -7.982  -0.678  -1.192  1.00  0.00    -0.595 OA
HETATM   28  O4  UNL     1      -8.185   0.895   0.838  1.00  0.00    -0.595 OA
ENDBRANCH  24  25
ENDBRANCH  23  24
ENDBRANCH  20  23
ENDBRANCH   1  19
TORSDOF 4
