REMARK  17 active torsions:
REMARK  status: ('A' for Active; 'I' for Inactive)
REMARK    1  A    between atoms: N1_1  and  C1_4 
REMARK    2  A    between atoms: C2_7  and  N3_8 
REMARK    3  A    between atoms: N3_8  and  C3_10 
REMARK    4  A    between atoms: C6_15  and  O3_16 
REMARK    5  A    between atoms: C6_15  and  C7_18 
REMARK    6  A    between atoms: C7_18  and  O4_19 
REMARK    7  A    between atoms: N6_26  and  C9_27 
REMARK    8  A    between atoms: C10_29  and  C11_30 
REMARK    9  A    between atoms: C11_30  and  N7_31 
REMARK   10  A    between atoms: C11_30  and  C12_35 
REMARK   11  A    between atoms: C12_35  and  O6_36 
REMARK   12  A    between atoms: C12_35  and  C13_38 
REMARK   13  A    between atoms: C13_38  and  O7_39 
REMARK   14  A    between atoms: C13_38  and  C14_41 
REMARK   15  A    between atoms: C14_41  and  O8_42 
REMARK   16  A    between atoms: C15_44  and  O9_45 
REMARK   17  A    between atoms: C16_47  and  O10_48 
ROOT
HETATM    1  C1  UNL     1       2.376   2.552   0.797  1.00  0.00     0.679 A 
HETATM    2  N2  UNL     1       3.536   1.930   0.523  1.00  0.00    -0.175 N 
ATOM      3  H2  UNL     1       4.401   2.432   0.722  1.00  0.00     0.186 HD
HETATM    4  C2  UNL     1       3.635   0.704   0.010  1.00  0.00     0.150 A 
HETATM    5  C8  UNL     1       2.450   0.018  -0.261  1.00  0.00     0.140 A 
HETATM    6  N4  UNL     1       2.149  -1.180  -0.758  1.00  0.00    -0.279 N 
ATOM      7  H4  UNL     1       2.816  -1.889  -1.063  1.00  0.00     0.189 HD
HETATM    8  N5  UNL     1       0.833  -1.287  -0.786  1.00  0.00    -0.236 N 
ATOM      9  H5  UNL     1       0.332  -2.109  -1.123  1.00  0.00     0.208 HD
HETATM   10  N6  UNL     1       0.250  -0.204  -0.326  1.00  0.00    -0.227 N 
HETATM   11  C17 UNL     1       1.262   0.644   0.015  1.00  0.00     0.173 A 
HETATM   12  N8  UNL     1       1.238   1.887   0.534  1.00  0.00    -0.173 N 
ATOM     13  H8  UNL     1       0.341   2.331   0.731  1.00  0.00     0.186 HD
ENDROOT
BRANCH  10  14
HETATM   14  C9  UNL     1      -1.137   0.127  -0.171  1.00  0.00     0.279 C 
HETATM   15  O5  UNL     1      -1.961  -0.959  -0.045  1.00  0.00    -0.352 OA
HETATM   16  C10 UNL     1      -3.173  -0.672  -0.647  1.00  0.00     0.188 C 
HETATM   17  C15 UNL     1      -3.157   0.711  -1.152  1.00  0.00     0.182 C 
HETATM   18  C16 UNL     1      -1.658   0.950  -1.347  1.00  0.00     0.200 C 
BRANCH  16  19
HETATM   19  C11 UNL     1      -4.272  -1.038   0.285  1.00  0.00     0.246 C 
BRANCH  19  20
HETATM   20  N7  UNL     1      -4.158  -2.474   0.562  1.00  0.00    -0.070 N 
ATOM     21  H73 UNL     1      -4.150  -3.042  -0.285  1.00  0.00     0.274 HD
ATOM     22  H72 UNL     1      -3.237  -2.739   0.910  1.00  0.00     0.274 HD
ATOM     23  H71 UNL     1      -4.912  -2.725   1.201  1.00  0.00     0.274 HD
ENDBRANCH  19  20
BRANCH  19  24
HETATM   24  C12 UNL     1      -5.654  -0.794  -0.218  1.00  0.00     0.181 C 
BRANCH  24  25
HETATM   25  O6  UNL     1      -5.905  -1.518  -1.381  1.00  0.00    -0.391 OA
ATOM     26  H6  UNL     1      -6.786  -1.363  -1.702  1.00  0.00     0.210 HD
ENDBRANCH  24  25
BRANCH  24  27
HETATM   27  C13 UNL     1      -6.629  -1.293   0.828  1.00  0.00     0.172 C 
BRANCH  27  28
HETATM   28  O7  UNL     1      -6.459  -0.620   2.050  1.00  0.00    -0.391 OA
ATOM     29  H7  UNL     1      -7.071  -0.933   2.706  1.00  0.00     0.210 HD
ENDBRANCH  27  28
BRANCH  27  30
HETATM   30  C14 UNL     1      -8.065  -1.059   0.407  1.00  0.00     0.198 C 
BRANCH  30  31
HETATM   31  O8  UNL     1      -8.279   0.332   0.260  1.00  0.00    -0.398 OA
ATOM     32  H8  UNL     1      -9.180   0.479  -0.004  1.00  0.00     0.209 HD
ENDBRANCH  30  31
ENDBRANCH  27  30
ENDBRANCH  24  27
ENDBRANCH  19  24
ENDBRANCH  16  19
BRANCH  17  33
HETATM   33  O9  UNL     1      -3.593   1.680  -0.287  1.00  0.00    -0.390 OA
ATOM     34  H9  UNL     1      -3.583   2.572  -0.613  1.00  0.00     0.210 HD
ENDBRANCH  17  33
BRANCH  18  35
HETATM   35  O10 UNL     1      -1.229   0.347  -2.523  1.00  0.00    -0.388 OA
ATOM     36  H10 UNL     1      -1.553   0.859  -3.255  1.00  0.00     0.210 HD
ENDBRANCH  18  35
ENDBRANCH  10  14
BRANCH   4  37
HETATM   37  N3  UNL     1       4.714   0.094  -0.258  1.00  0.00    -0.357 N 
ATOM     38  H3  UNL     1       4.609  -0.843  -0.648  1.00  0.00     0.162 HD
BRANCH  37  39
HETATM   39  C3  UNL     1       6.053   0.546  -0.086  1.00  0.00     0.222 C 
HETATM   40  C4  UNL     1       6.871   0.397  -1.331  1.00  0.00     0.285 C 
HETATM   41  O1  UNL     1       6.409   0.520  -2.492  1.00  0.00    -0.263 OA
HETATM   42  O2  UNL     1       8.157   0.114  -0.946  1.00  0.00    -0.317 OA
HETATM   43  C5  UNL     1       8.210  -0.214   0.442  1.00  0.00     0.221 C 
HETATM   44  C6  UNL     1       6.767  -0.459   0.827  1.00  0.00     0.130 C 
BRANCH  44  45
HETATM   45  O3  UNL     1       6.387  -1.733   0.484  1.00  0.00    -0.383 OA
ATOM     46  H3  UNL     1       6.829  -2.355   1.049  1.00  0.00     0.210 HD
ENDBRANCH  44  45
BRANCH  44  47
HETATM   47  C7  UNL     1       6.516  -0.124   2.281  1.00  0.00     0.206 C 
BRANCH  47  48
HETATM   48  O4  UNL     1       7.240  -1.015   3.053  1.00  0.00    -0.398 OA
ATOM     49  H4  UNL     1       7.082  -0.805   3.966  1.00  0.00     0.209 HD
ENDBRANCH  47  48
ENDBRANCH  44  47
ENDBRANCH  37  39
ENDBRANCH   4  37
BRANCH   1  50
HETATM   50  N1  UNL     1       2.384   3.743   1.294  1.00  0.00    -0.234 N 
ATOM     51  H12 UNL     1       3.248   4.248   1.494  1.00  0.00     0.174 HD
ATOM     52  H11 UNL     1       1.504   4.215   1.502  1.00  0.00     0.174 HD
ENDBRANCH   1  50
TORSDOF 17
