REMARK  8 active torsions:
REMARK  status: ('A' for Active; 'I' for Inactive)
REMARK    1  A    between atoms: C2_2  and  C3_3 
REMARK    2  A    between atoms: C3_3  and  C4_4 
REMARK    3  A    between atoms: C4_4  and  C5_5 
REMARK    4  A    between atoms: C5_5  and  O1_6 
REMARK    5  A    between atoms: C19_23  and  O4_24 
REMARK    6  A    between atoms: O4_24  and  C20_25 
REMARK    7  A    between atoms: C20_25  and  C21_27 
REMARK    8  A    between atoms: C25_31  and  O6_32 
ROOT
HETATM    1  C5  UNL     1      -1.798   1.044   0.881  1.00  0.00     0.071 C 
HETATM    2  C6  UNL     1      -2.304   0.186   2.015  1.00  0.00     0.017 C 
HETATM    3  C7  UNL     1      -3.156   0.969   3.008  1.00  0.00     0.013 C 
HETATM    4  C8  UNL     1      -3.239  -0.914   1.488  1.00  0.00     0.007 C 
HETATM    5  C9  UNL     1      -2.434  -2.151   1.307  1.00  0.00     0.005 C 
HETATM    6  C10 UNL     1      -3.119  -3.248   0.564  1.00  0.00    -0.009 C 
HETATM    7  C11 UNL     1      -3.143  -4.482   1.443  1.00  0.00     0.010 C 
HETATM    8  C12 UNL     1      -2.422  -3.532  -0.768  1.00  0.00     0.115 C 
HETATM    9  C13 UNL     1      -1.085  -4.152  -0.558  1.00  0.00     0.259 C 
HETATM   10  O2  UNL     1      -1.110  -5.324  -0.085  1.00  0.00    -0.265 OA
HETATM   11  O3  UNL     1       0.031  -3.444  -0.875  1.00  0.00    -0.316 OA
HETATM   12  C14 UNL     1       0.472  -2.917  -2.072  1.00  0.00     0.135 C 
HETATM   13  C15 UNL     1      -0.169  -3.538  -3.300  1.00  0.00     0.040 C 
HETATM   14  C16 UNL     1       0.358  -1.432  -2.229  1.00  0.00     0.059 C 
HETATM   15  C17 UNL     1       1.086  -1.002  -3.478  1.00  0.00     0.013 C 
HETATM   16  C18 UNL     1       1.962   0.182  -3.043  1.00  0.00     0.036 C 
HETATM   17  C19 UNL     1       2.256  -0.172  -1.639  1.00  0.00     0.174 C 
HETATM   18  C25 UNL     1       0.952  -0.639  -1.081  1.00  0.00     0.151 C 
HETATM   19  C26 UNL     1       0.050   0.447  -0.675  1.00  0.00     0.170 C 
HETATM   20  O7  UNL     1      -0.488   1.038  -1.630  1.00  0.00    -0.294 OA
HETATM   21  C27 UNL     1      -0.311   0.937   0.650  1.00  0.00     0.089 C 
HETATM   22  C28 UNL     1       0.446   0.336   1.794  1.00  0.00     0.021 C 
ENDROOT
BRANCH  17  23
HETATM   23  O4  UNL     1       2.863   0.843  -0.879  1.00  0.00    -0.309 OA
BRANCH  23  24
HETATM   24  C20 UNL     1       4.108   0.691  -0.272  1.00  0.00     0.283 C 
HETATM   25  O5  UNL     1       4.654  -0.422  -0.451  1.00  0.00    -0.260 OA
BRANCH  24  26
HETATM   26  C21 UNL     1       4.705   1.777   0.511  1.00  0.00     0.084 C 
HETATM   27  C22 UNL     1       5.875   1.669   1.096  1.00  0.00    -0.082 C 
HETATM   28  C23 UNL     1       6.684   0.433   1.008  1.00  0.00     0.043 C 
HETATM   29  C24 UNL     1       6.414   2.811   1.873  1.00  0.00     0.043 C 
ENDBRANCH  24  26
ENDBRANCH  23  24
ENDBRANCH  17  23
BRANCH  18  30
HETATM   30  O6  UNL     1       1.239  -1.568  -0.091  1.00  0.00    -0.379 OA
ATOM     31  H6  UNL     1       1.611  -1.071   0.628  1.00  0.00     0.211 HD
ENDBRANCH  18  30
BRANCH   1  32
HETATM   32  C4  UNL     1      -2.291   2.457   1.075  1.00  0.00     0.039 C 
BRANCH  32  33
HETATM   33  C3  UNL     1      -1.940   3.383  -0.066  1.00  0.00     0.002 C 
BRANCH  33  34
HETATM   34  C2  UNL     1      -2.506   4.763   0.268  1.00  0.00    -0.004 C 
HETATM   35  C1  UNL     1      -2.158   5.698  -0.871  1.00  0.00     0.005 C 
ENDBRANCH  33  34
ENDBRANCH  32  33
ENDBRANCH   1  32
BRANCH   1  36
HETATM   36  O1  UNL     1      -2.418   0.612  -0.321  1.00  0.00    -0.389 OA
ATOM     37  H1  UNL     1      -2.108  -0.278  -0.443  1.00  0.00     0.210 HD
ENDBRANCH   1  36
TORSDOF 8
