REMARK  9 active torsions:
REMARK  status: ('A' for Active; 'I' for Inactive)
REMARK    1  A    between atoms: C2_2  and  C3_3 
REMARK    2  A    between atoms: C3_3  and  C4_4 
REMARK    3  A    between atoms: C12_13  and  O2_14 
REMARK    4  A    between atoms: O2_14  and  C13_15 
REMARK    5  A    between atoms: C13_15  and  C14_17 
REMARK    6  A    between atoms: C18_21  and  O4_22 
REMARK    7  A    between atoms: O4_22  and  C19_23 
REMARK    8  A    between atoms: C22_27  and  O6_28 
REMARK    9  A    between atoms: C26_33  and  O7_34 
ROOT
HETATM    1  C4  UNL     1      -0.011   2.175   0.424  1.00  0.00     0.134 C 
HETATM    2  O1  UNL     1      -1.311   1.654   0.252  1.00  0.00    -0.371 OA
HETATM    3  C5  UNL     1      -1.462   0.317   0.392  1.00  0.00     0.092 C 
HETATM    4  C6  UNL     1      -2.821  -0.027  -0.236  1.00  0.00     0.068 C 
HETATM    5  C7  UNL     1      -3.893   0.787   0.451  1.00  0.00    -0.021 C 
HETATM    6  C8  UNL     1      -3.942   0.617   1.771  1.00  0.00    -0.087 C 
HETATM    7  C9  UNL     1      -4.939   1.343   2.606  1.00  0.00     0.043 C 
HETATM    8  C10 UNL     1      -2.946  -0.334   2.328  1.00  0.00     0.036 C 
HETATM    9  C11 UNL     1      -1.551  -0.131   1.836  1.00  0.00     0.045 C 
HETATM   10  C12 UNL     1      -0.428  -0.526  -0.388  1.00  0.00     0.176 C 
HETATM   11  C16 UNL     1       0.866   0.037   0.009  1.00  0.00     0.064 C 
HETATM   12  C17 UNL     1       2.148  -0.571  -0.137  1.00  0.00    -0.027 C 
HETATM   13  C18 UNL     1       2.485  -1.901   0.270  1.00  0.00     0.081 C 
HETATM   14  C21 UNL     1       3.685  -2.183  -0.215  1.00  0.00     0.043 C 
HETATM   15  C22 UNL     1       4.211  -1.002  -0.993  1.00  0.00     0.156 C 
HETATM   16  C23 UNL     1       2.851  -0.448  -1.470  1.00  0.00     0.014 C 
HETATM   17  C24 UNL     1       2.439  -1.393  -2.519  1.00  0.00     0.023 C 
HETATM   18  C25 UNL     1       2.892   0.999  -1.758  1.00  0.00     0.049 C 
HETATM   19  C26 UNL     1       2.271   1.893  -0.684  1.00  0.00     0.130 C 
HETATM   20  C27 UNL     1       0.849   1.484  -0.542  1.00  0.00     0.018 C 
HETATM   21  C28 UNL     1       0.211   1.641  -1.870  1.00  0.00     0.021 C 
ENDROOT
BRANCH  10  22
HETATM   22  O2  UNL     1      -0.673  -1.872  -0.100  1.00  0.00    -0.312 OA
BRANCH  22  23
HETATM   23  C13 UNL     1      -1.201  -2.780  -1.045  1.00  0.00     0.258 C 
HETATM   24  O3  UNL     1      -1.467  -2.386  -2.197  1.00  0.00    -0.265 OA
BRANCH  23  25
HETATM   25  C14 UNL     1      -1.419  -4.177  -0.629  1.00  0.00     0.106 C 
HETATM   26  C15 UNL     1      -1.988  -4.947  -1.814  1.00  0.00     0.015 C 
ENDBRANCH  23  25
ENDBRANCH  22  23
ENDBRANCH  10  22
BRANCH   1  27
HETATM   27  C3  UNL     1      -0.112   3.623   0.541  1.00  0.00     0.032 C 
BRANCH  27  28
HETATM   28  C2  UNL     1      -0.734   4.386  -0.598  1.00  0.00    -0.002 C 
HETATM   29  C1  UNL     1      -0.727   5.877  -0.205  1.00  0.00     0.005 C 
ENDBRANCH  27  28
ENDBRANCH   1  27
BRANCH  19  30
HETATM   30  O7  UNL     1       2.382   3.174  -1.301  1.00  0.00    -0.395 OA
ATOM     31  H7  UNL     1       1.996   3.729  -0.634  1.00  0.00     0.210 HD
ENDBRANCH  19  30
BRANCH  13  32
HETATM   32  O4  UNL     1       1.759  -2.790   1.027  1.00  0.00    -0.279 OA
BRANCH  32  33
HETATM   33  C19 UNL     1       1.798  -2.913   2.383  1.00  0.00     0.260 C 
HETATM   34  C20 UNL     1       0.962  -3.919   3.115  1.00  0.00     0.126 C 
HETATM   35  O5  UNL     1       2.563  -2.154   3.032  1.00  0.00    -0.265 OA
ENDBRANCH  32  33
ENDBRANCH  13  32
BRANCH  15  36
HETATM   36  O6  UNL     1       4.823  -0.086  -0.172  1.00  0.00    -0.391 OA
ATOM     37  H6  UNL     1       5.154   0.658  -0.662  1.00  0.00     0.210 HD
ENDBRANCH  15  36
TORSDOF 9
