REMARK  9 active torsions:
REMARK  status: ('A' for Active; 'I' for Inactive)
REMARK    1  A    between atoms: O1_2  and  C2_3 
REMARK    2  A    between atoms: C2_3  and  C3_5 
REMARK    3  A    between atoms: C6_9  and  O4_10 
REMARK    4  A    between atoms: C8_12  and  O5_13 
REMARK    5  A    between atoms: O5_13  and  O6_14 
REMARK    6  A    between atoms: C23_30  and  C24_31 
REMARK    7  A    between atoms: C24_31  and  C25_32 
REMARK    8  A    between atoms: C25_32  and  C26_33 
REMARK    9  A    between atoms: C26_33  and  O7_36 
ROOT
HETATM    1  C3  UNL     1      -1.141  -1.006   0.897  1.00  0.00     0.111 C 
HETATM    2  C4  UNL     1      -2.135  -2.157   1.197  1.00  0.00     0.035 C 
HETATM    3  C5  UNL     1      -0.420  -1.446  -0.280  1.00  0.00     0.176 C 
HETATM    4  O3  UNL     1      -0.655  -0.933  -1.343  1.00  0.00    -0.294 OA
HETATM    5  C6  UNL     1       0.613  -2.484  -0.390  1.00  0.00     0.224 C 
HETATM    6  C8  UNL     1       1.578  -2.245  -1.506  1.00  0.00     0.207 C 
HETATM    7  C9  UNL     1       2.983  -1.808  -1.034  1.00  0.00     0.002 C 
HETATM    8  C10 UNL     1       3.827  -2.172  -2.283  1.00  0.00     0.022 C 
HETATM    9  C11 UNL     1       3.471  -2.703   0.031  1.00  0.00     0.022 C 
HETATM   10  C12 UNL     1       2.964  -0.336  -0.810  1.00  0.00    -0.019 C 
HETATM   11  C13 UNL     1       3.665   0.580  -0.272  1.00  0.00    -0.026 C 
HETATM   12  C14 UNL     1       3.596   2.064  -0.070  1.00  0.00     0.004 C 
HETATM   13  C15 UNL     1       4.995   2.527   0.465  1.00  0.00     0.014 C 
HETATM   14  C16 UNL     1       2.553   2.523   0.903  1.00  0.00     0.012 C 
HETATM   15  C17 UNL     1       1.485   3.404   0.377  1.00  0.00    -0.018 C 
HETATM   16  C18 UNL     1       1.935   4.370  -0.694  1.00  0.00     0.010 C 
HETATM   17  C19 UNL     1       0.293   2.638  -0.152  1.00  0.00     0.005 C 
HETATM   18  C20 UNL     1      -0.914   2.688   0.751  1.00  0.00     0.005 C 
HETATM   19  C21 UNL     1      -1.153   1.441   1.552  1.00  0.00    -0.013 C 
HETATM   20  C22 UNL     1      -1.935   1.929   2.790  1.00  0.00     0.010 C 
HETATM   21  C23 UNL     1      -1.850   0.298   0.870  1.00  0.00     0.015 C 
ENDROOT
BRANCH  21  22
HETATM   22  C24 UNL     1      -2.622   0.678  -0.338  1.00  0.00     0.009 C 
BRANCH  22  23
HETATM   23  C25 UNL     1      -3.754  -0.246  -0.714  1.00  0.00     0.037 C 
BRANCH  23  24
HETATM   24  C26 UNL     1      -4.390   0.359  -1.977  1.00  0.00     0.051 C 
HETATM   25  C27 UNL     1      -5.558  -0.530  -2.426  1.00  0.00     0.045 C 
HETATM   26  C28 UNL     1      -4.939   1.736  -1.705  1.00  0.00     0.045 C 
BRANCH  24  27
HETATM   27  O7  UNL     1      -3.495   0.406  -3.022  1.00  0.00    -0.391 OA
ATOM     28  H7  UNL     1      -3.888   0.780  -3.802  1.00  0.00     0.210 HD
ENDBRANCH  24  27
ENDBRANCH  23  24
ENDBRANCH  22  23
ENDBRANCH  21  22
BRANCH   1  29
HETATM   29  C2  UNL     1      -0.284  -0.994   2.145  1.00  0.00     0.274 C 
HETATM   30  O2  UNL     1       0.955  -1.019   2.161  1.00  0.00    -0.264 OA
BRANCH  29  31
HETATM   31  O1  UNL     1      -0.883  -0.950   3.416  1.00  0.00    -0.326 OA
HETATM   32  C1  UNL     1      -0.086  -0.941   4.607  1.00  0.00     0.213 C 
ENDBRANCH  29  31
ENDBRANCH   1  29
BRANCH   5  33
HETATM   33  O4  UNL     1      -0.086  -3.683  -0.704  1.00  0.00    -0.380 OA
HETATM   34  C7  UNL     1       0.208  -4.712   0.160  1.00  0.00     0.202 C 
ENDBRANCH   5  33
BRANCH   6  35
HETATM   35  O5  UNL     1       1.662  -3.373  -2.303  1.00  0.00    -0.234 OA
BRANCH  35  36
HETATM   36  O6  UNL     1       1.278  -3.168  -3.544  1.00  0.00    -0.250 OA
ATOM     37  H6  UNL     1       1.336  -3.942  -4.091  1.00  0.00     0.253 HD
ENDBRANCH  35  36
ENDBRANCH   6  35
TORSDOF 9
