REMARK  9 active torsions:
REMARK  status: ('A' for Active; 'I' for Inactive)
REMARK    1  A    between atoms: O1_2  and  C2_3 
REMARK    2  A    between atoms: C2_3  and  C4_6 
REMARK    3  A    between atoms: C2_3  and  C7_10 
REMARK    4  A    between atoms: C4_6  and  N2_7 
REMARK    5  A    between atoms: C7_10  and  N3_11 
REMARK    6  A    between atoms: C8_12  and  C9_13 
REMARK    7  A    between atoms: N6_26  and  C16_28 
REMARK    8  A    between atoms: N9_35  and  N10_36 
REMARK    9  A    between atoms: C19_41  and  N12_42 
ROOT
HETATM    1  C2  UNL     1      -2.607  -0.185   0.201  1.00  0.00     0.190 C 
HETATM    2  C3  UNL     1      -1.771   0.099   1.349  1.00  0.00     0.101 C 
HETATM    3  N1  UNL     1      -1.119   0.358   2.282  1.00  0.00    -0.194 NA
ENDROOT
BRANCH   1   4
HETATM    4  O1  UNL     1      -2.940   0.948  -0.487  1.00  0.00    -0.367 OA
HETATM    5  C1  UNL     1      -3.606   1.947   0.128  1.00  0.00     0.204 C 
ENDBRANCH   1   4
BRANCH   1   6
HETATM    6  C4  UNL     1      -3.790  -1.003   0.653  1.00  0.00     0.326 C 
BRANCH   6   7
HETATM    7  N2  UNL     1      -4.736  -0.444   1.516  1.00  0.00     0.084 N 
HETATM    8  C5  UNL     1      -5.807  -1.464   1.678  1.00  0.00     0.309 C 
HETATM    9  C6  UNL     1      -4.316  -0.174   2.876  1.00  0.00     0.309 C 
ENDBRANCH   6   7
ENDBRANCH   1   6
BRANCH   1  10
HETATM   10  C7  UNL     1      -1.889  -1.097  -0.854  1.00  0.00     0.186 C 
BRANCH  10  11
HETATM   11  N3  UNL     1      -0.779  -0.506  -1.388  1.00  0.00    -0.323 N 
HETATM   12  C8  UNL     1      -0.726   0.366  -2.413  1.00  0.00     0.119 A 
HETATM   13  N4  UNL     1       0.565   0.785  -2.584  1.00  0.00    -0.335 N 
HETATM   14  C13 UNL     1       1.353   0.193  -1.692  1.00  0.00     0.134 A 
ATOM     15  H4  UNL     1       0.876   1.452  -3.290  1.00  0.00     0.168 HD
HETATM   16  C14 UNL     1       2.716   0.359  -1.514  1.00  0.00     0.288 C 
HETATM   17  C20 UNL     1       0.499  -0.630  -0.938  1.00  0.00     0.113 A 
HETATM   18  O2  UNL     1       3.307   0.913  -2.456  1.00  0.00    -0.265 OA
HETATM   19  N5  UNL     1       3.467  -0.002  -0.460  1.00  0.00    -0.153 N 
HETATM   20  C15 UNL     1       3.147  -0.740   0.645  1.00  0.00     0.701 C 
ATOM     21  H5  UNL     1       4.432   0.328  -0.489  1.00  0.00     0.187 HD
HETATM   22  N6  UNL     1       4.045  -0.856   1.561  1.00  0.00    -0.019 N 
HETATM   23  N11 UNL     1       1.959  -1.373   0.871  1.00  0.00    -0.174 N 
ATOM     24  H6  UNL     1       3.834  -1.400   2.397  1.00  0.00     0.203 HD
HETATM   25  C19 UNL     1       0.913  -1.516   0.020  1.00  0.00     0.144 C 
ATOM     26  H11 UNL     1       1.844  -1.790   1.795  1.00  0.00     0.186 HD
BRANCH  12  27
HETATM   27  C9  UNL     1      -1.758   0.910  -3.332  1.00  0.00     0.015 A 
HETATM   28  C10 UNL     1      -2.828   0.249  -3.843  1.00  0.00     0.023 A 
HETATM   29  C11 UNL     1      -3.721   0.958  -4.603  1.00  0.00     0.050 A 
HETATM   30  S1  UNL     1      -3.077   2.522  -4.606  1.00  0.00    -0.113 SA
HETATM   31  C12 UNL     1      -1.697   2.263  -3.654  1.00  0.00     0.064 A 
ENDBRANCH  12  27
BRANCH  22  32
HETATM   32  C16 UNL     1       5.299  -0.257   1.440  1.00  0.00     0.734 A 
HETATM   33  N7  UNL     1       6.401  -0.740   0.851  1.00  0.00    -0.176 N 
HETATM   34  C17 UNL     1       7.412   0.136   0.945  1.00  0.00     0.110 A 
ATOM     35  H7  UNL     1       6.463  -1.650   0.394  1.00  0.00     0.185 HD
HETATM   36  C18 UNL     1       8.774  -0.043   0.418  1.00  0.00     0.091 C 
HETATM   37  N8  UNL     1       6.903   1.187   1.615  1.00  0.00    -0.253 N 
HETATM   38  N9  UNL     1       5.645   0.952   1.909  1.00  0.00    -0.025 N 
ATOM     39  H8  UNL     1       7.416   2.035   1.857  1.00  0.00     0.191 HD
BRANCH  38  40
HETATM   40  N10 UNL     1       4.790   1.834   2.609  1.00  0.00    -0.309 N 
ATOM     41 2H10 UNL     1       3.813   1.651   2.837  1.00  0.00     0.179 HD
ATOM     42 1H10 UNL     1       5.053   2.753   2.965  1.00  0.00     0.179 HD
ENDBRANCH  38  40
ENDBRANCH  22  32
BRANCH  25  43
HETATM   43  N12 UNL     1       0.278  -2.607   0.117  1.00  0.00    -0.383 N 
ATOM     44 2H12 UNL     1       0.586  -3.267   0.831  1.00  0.00     0.157 HD
ATOM     45 1H12 UNL     1      -0.509  -2.715  -0.523  1.00  0.00     0.157 HD
ENDBRANCH  25  43
ENDBRANCH  10  11
ENDBRANCH   1  10
TORSDOF 9
