REMARK  10 active torsions:
REMARK  status: ('A' for Active; 'I' for Inactive)
REMARK    1  A    between atoms: C2_2  and  C3_3 
REMARK    2  A    between atoms: C3_3  and  C4_4 
REMARK    3  A    between atoms: C4_4  and  C5_5 
REMARK    4  A    between atoms: C5_5  and  N1_6 
REMARK    5  A    between atoms: N1_6  and  C6_9 
REMARK    6  A    between atoms: C6_9  and  C7_10 
REMARK    7  A    between atoms: C7_10  and  N2_11 
REMARK    8  A    between atoms: N2_11  and  C8_14 
REMARK    9  A    between atoms: C8_14  and  C11_17 
REMARK   10  A    between atoms: C11_17  and  C12_18 
ROOT
HETATM    1  N2  UNL     1      -0.779   0.608   0.657  1.00  0.00    -0.065 N 
ATOM      2  H21 UNL     1      -0.862   1.131   1.529  1.00  0.00     0.278 HD
ATOM      3  H22 UNL     1      -0.374  -0.256   1.017  1.00  0.00     0.278 HD
ENDROOT
BRANCH   1   4
HETATM    4  C7  UNL     1       0.131   1.261  -0.245  1.00  0.00     0.260 C 
BRANCH   4   5
HETATM    5  C6  UNL     1       1.448   1.496   0.456  1.00  0.00     0.259 C 
BRANCH   5   6
HETATM    6  N1  UNL     1       2.100   0.312   0.918  1.00  0.00    -0.074 N 
ATOM      7  H12 UNL     1       1.491  -0.213   1.545  1.00  0.00     0.277 HD
ATOM      8  H11 UNL     1       2.852   0.545   1.566  1.00  0.00     0.277 HD
BRANCH   6   9
HETATM    9  C5  UNL     1       2.588  -0.536  -0.146  1.00  0.00     0.232 C 
BRANCH   9  10
HETATM   10  C4  UNL     1       3.716   0.072  -0.909  1.00  0.00     0.031 C 
BRANCH  10  11
HETATM   11  C3  UNL     1       4.872   0.359  -0.020  1.00  0.00     0.028 C 
BRANCH  11  12
HETATM   12  C2  UNL     1       5.366  -0.894   0.589  1.00  0.00    -0.037 C 
HETATM   13  C1  UNL     1       6.604  -1.283   0.354  1.00  0.00     0.007 C 
ENDBRANCH  11  12
ENDBRANCH  10  11
ENDBRANCH   9  10
ENDBRANCH   6   9
ENDBRANCH   5   6
ENDBRANCH   4   5
ENDBRANCH   1   4
BRANCH   1  14
HETATM   14  C8  UNL     1      -2.081   0.363   0.080  1.00  0.00     0.122 C 
HETATM   15  C9  UNL     1      -2.814   1.624  -0.299  1.00  0.00     0.046 C 
HETATM   16  C10 UNL     1      -1.960  -0.482  -1.172  1.00  0.00     0.046 C 
BRANCH  14  17
HETATM   17  C11 UNL     1      -2.910  -0.295   1.158  1.00  0.00     0.078 C 
BRANCH  17  18
HETATM   18  C12 UNL     1      -4.280  -0.619   0.769  1.00  0.00    -0.032 A 
HETATM   19  C13 UNL     1      -4.694  -1.805   0.210  1.00  0.00     0.033 A 
HETATM   20  C14 UNL     1      -6.050  -1.691   0.002  1.00  0.00     0.142 A 
HETATM   21  O1  UNL     1      -6.440  -0.514   0.406  1.00  0.00    -0.334 OA
HETATM   22  C15 UNL     1      -5.423   0.154   0.869  1.00  0.00     0.148 A 
ENDBRANCH  17  18
ENDBRANCH  14  17
ENDBRANCH   1  14
TORSDOF 10
