REMARK  11 active torsions:
REMARK  status: ('A' for Active; 'I' for Inactive)
REMARK    1  A    between atoms: S1_2  and  C2_3 
REMARK    2  A    between atoms: C2_3  and  C3_4 
REMARK    3  A    between atoms: C3_4  and  C4_5 
REMARK    4  A    between atoms: C4_5  and  N1_6 
REMARK    5  A    between atoms: C4_5  and  C5_10 
REMARK       I    between atoms: C5_10  and  N2_12 
REMARK    6  A    between atoms: N2_12  and  C6_14 
REMARK    7  A    between atoms: C9_18  and  C10_19 
REMARK       I    between atoms: N4_27  and  C14_28 
REMARK       I    between atoms: C14_28  and  N5_30 
REMARK    8  A    between atoms: N5_30  and  N6_32 
REMARK    9  A    between atoms: C15_35  and  O6_36 
REMARK   10  A    between atoms: C18_41  and  C19_42 
REMARK   11  A    between atoms: C20_45  and  O10_46 
ROOT
HETATM    1  C6  UNL     1       1.538  -0.449  -1.150  1.00  0.00     0.072 A 
HETATM    2  C7  UNL     1       0.520  -0.233  -0.270  1.00  0.00     0.070 A 
HETATM    3  C8  UNL     1      -0.692  -0.881  -0.483  1.00  0.00     0.094 A 
HETATM    4  O2  UNL     1      -1.670  -0.675   0.359  1.00  0.00    -0.304 OA
HETATM    5  C9  UNL     1      -2.866  -1.207   0.299  1.00  0.00     0.141 A 
HETATM    6  C15 UNL     1      -3.155  -2.069  -0.729  1.00  0.00     0.153 A 
HETATM    7  C16 UNL     1      -2.148  -2.331  -1.667  1.00  0.00     0.222 A 
HETATM    8  O7  UNL     1      -2.445  -3.111  -2.580  1.00  0.00    -0.284 OA
HETATM    9  C17 UNL     1      -0.911  -1.746  -1.561  1.00  0.00     0.071 A 
HETATM   10  C18 UNL     1       0.109  -1.963  -2.442  1.00  0.00     0.093 A 
HETATM   11  C20 UNL     1       1.347  -1.311  -2.241  1.00  0.00     0.110 A 
ENDROOT
BRANCH   5  12
HETATM   12  C10 UNL     1      -3.875  -0.894   1.306  1.00  0.00     0.091 A 
HETATM   13  C11 UNL     1      -5.158  -0.651   0.802  1.00  0.00     0.107 A 
HETATM   14  C12 UNL     1      -6.132  -0.271   1.691  1.00  0.00     0.251 A 
HETATM   15  O3  UNL     1      -7.295  -0.048   1.262  1.00  0.00    -0.268 OA
HETATM   16  N3  UNL     1      -5.822  -0.149   2.984  1.00  0.00    -0.275 N 
HETATM   17  C13 UNL     1      -4.615  -0.380   3.462  1.00  0.00     0.338 A 
ATOM     18  H3  UNL     1      -6.555   0.137   3.634  1.00  0.00     0.173 HD
HETATM   19  O4  UNL     1      -4.373  -0.250   4.686  1.00  0.00    -0.246 OA
HETATM   20  N4  UNL     1      -3.593  -0.772   2.602  1.00  0.00    -0.211 N 
HETATM   21  C14 UNL     1      -2.456  -1.218   3.287  1.00  0.00     0.349 C 
HETATM   22  O5  UNL     1      -2.235  -0.721   4.455  1.00  0.00    -0.244 OA
HETATM   23  N5  UNL     1      -1.533  -2.153   2.868  1.00  0.00    -0.257 N 
ATOM     24  H5  UNL     1      -1.655  -2.605   1.962  1.00  0.00     0.191 HD
BRANCH  23  25
HETATM   25  N6  UNL     1      -0.407  -2.501   3.681  1.00  0.00    -0.341 N 
ATOM     26  H62 UNL     1      -0.300  -2.039   4.584  1.00  0.00     0.177 HD
ATOM     27  H61 UNL     1       0.276  -3.193   3.371  1.00  0.00     0.177 HD
ENDBRANCH  23  25
ENDBRANCH   5  12
BRANCH   6  28
HETATM   28  O6  UNL     1      -4.400  -2.695  -0.876  1.00  0.00    -0.355 OA
ATOM     29  H6  UNL     1      -4.600  -3.292  -1.588  1.00  0.00     0.218 HD
ENDBRANCH   6  28
BRANCH   1  30
HETATM   30  N2  UNL     1       2.799   0.174  -1.026  1.00  0.00    -0.323 N 
HETATM   31  C5  UNL     1       3.294   1.040  -0.060  1.00  0.00     0.253 C 
HETATM   32  O1  UNL     1       2.596   1.399   0.919  1.00  0.00    -0.271 OA
ATOM     33  H2  UNL     1       3.458  -0.050  -1.772  1.00  0.00     0.169 HD
BRANCH  31  34
HETATM   34  C4  UNL     1       4.663   1.592  -0.122  1.00  0.00     0.275 C 
BRANCH  34  35
HETATM   35  C3  UNL     1       4.849   2.834  -0.923  1.00  0.00     0.053 C 
BRANCH  35  36
HETATM   36  C2  UNL     1       4.206   4.073  -0.439  1.00  0.00     0.076 C 
BRANCH  36  37
HETATM   37  S1  UNL     1       2.429   3.993  -0.417  1.00  0.00    -0.173 SA
HETATM   38  C1  UNL     1       1.666   5.517   0.172  1.00  0.00     0.089 C 
ENDBRANCH  36  37
ENDBRANCH  35  36
ENDBRANCH  34  35
BRANCH  34  39
HETATM   39  N1  UNL     1       5.428   0.551  -0.878  1.00  0.00    -0.066 N 
ATOM     40  H13 UNL     1       5.157   0.462  -1.857  1.00  0.00     0.275 HD
ATOM     41  H12 UNL     1       6.403   0.793  -1.054  1.00  0.00     0.275 HD
ATOM     42  H11 UNL     1       5.301  -0.299  -0.329  1.00  0.00     0.275 HD
ENDBRANCH  34  39
ENDBRANCH  31  34
ENDBRANCH   1  30
BRANCH  10  43
HETATM   43  C19 UNL     1       0.001  -2.827  -3.579  1.00  0.00     0.213 C 
HETATM   44  O8  UNL     1       1.052  -2.956  -4.352  1.00  0.00    -0.644 OA
HETATM   45  O9  UNL     1      -1.021  -3.568  -4.031  1.00  0.00    -0.644 OA
ENDBRANCH  10  43
BRANCH  11  46
HETATM   46  O10 UNL     1       2.324  -1.523  -3.089  1.00  0.00    -0.357 OA
ATOM     47  H10 UNL     1       2.195  -2.106  -3.827  1.00  0.00     0.217 HD
ENDBRANCH  11  46
TORSDOF 11
