REMARK  13 active torsions:
REMARK  status: ('A' for Active; 'I' for Inactive)
REMARK    1  A    between atoms: N1_1  and  N2_4 
REMARK    2  A    between atoms: N2_4  and  C1_6 
REMARK    3  A    between atoms: C1_6  and  O1_7 
REMARK    4  A    between atoms: C1_6  and  C2_9 
REMARK    5  A    between atoms: C3_12  and  N4_13 
REMARK    6  A    between atoms: C5_20  and  C6_21 
REMARK    7  A    between atoms: N9_26  and  N10_28 
REMARK    8  A    between atoms: C10_30  and  C11_31 
REMARK       I    between atoms: C11_31  and  N11_33 
REMARK    9  A    between atoms: N11_33  and  C12_35 
REMARK   10  A    between atoms: C12_35  and  C13_36 
REMARK   11  A    between atoms: C13_36  and  C14_37 
REMARK   12  A    between atoms: C14_37  and  O3_38 
REMARK   13  A    between atoms: C18_50  and  O4_51 
ROOT
HETATM    1  C6  UNL     1      -2.907  -1.442   0.503  1.00  0.00     0.107 A 
HETATM    2  N8  UNL     1      -1.653  -0.996   0.524  1.00  0.00    -0.343 N 
ATOM      3  H8  UNL     1      -1.450  -0.031   0.264  1.00  0.00     0.167 HD
HETATM    4  C7  UNL     1      -0.693  -1.788   0.875  1.00  0.00     0.113 A 
HETATM    5  C8  UNL     1       0.682  -1.465   0.947  1.00  0.00     0.152 A 
HETATM    6  N9  UNL     1       1.097  -0.274   0.645  1.00  0.00    -0.263 N 
ATOM      7  H9  UNL     1       0.444   0.452   0.350  1.00  0.00     0.190 HD
HETATM    8  N13 UNL     1       1.523  -2.423   1.333  1.00  0.00    -0.336 N 
ATOM      9  H13 UNL     1       2.509  -2.166   1.377  1.00  0.00     0.168 HD
HETATM   10  C16 UNL     1       1.228  -3.669   1.666  1.00  0.00     0.183 A 
HETATM   11  N14 UNL     1      -0.090  -4.000   1.603  1.00  0.00    -0.345 N 
ATOM     12  H14 UNL     1      -0.390  -4.944   1.845  1.00  0.00     0.167 HD
HETATM   13  C17 UNL     1      -1.006  -3.075   1.218  1.00  0.00     0.108 A 
HETATM   14  S1  UNL     1      -2.711  -3.036   0.999  1.00  0.00    -0.050 SA
ENDROOT
BRANCH   1  15
HETATM   15  C5  UNL     1      -4.077  -0.647   0.126  1.00  0.00     0.118 A 
HETATM   16  N7  UNL     1      -3.869   0.654  -0.234  1.00  0.00    -0.186 N 
HETATM   17  C3  UNL     1      -4.905   1.441  -0.593  1.00  0.00     0.685 A 
ATOM     18  H7  UNL     1      -2.922   1.034  -0.232  1.00  0.00     0.184 HD
HETATM   19  N3  UNL     1      -6.141   0.946  -0.597  1.00  0.00    -0.184 N 
HETATM   20  C2  UNL     1      -6.420  -0.335  -0.252  1.00  0.00     0.136 A 
ATOM     21  H3  UNL     1      -6.911   1.557  -0.871  1.00  0.00     0.184 HD
HETATM   22  C18 UNL     1      -5.355  -1.140   0.116  1.00  0.00     0.127 A 
BRANCH  17  23
HETATM   23  N4  UNL     1      -4.705   2.789  -0.968  1.00  0.00    -0.166 N 
HETATM   24  C4  UNL     1      -5.630   3.569  -1.311  1.00  0.00     0.215 C 
HETATM   25  N5  UNL     1      -6.980   3.154  -1.353  1.00  0.00    -0.066 NA
HETATM   26  N6  UNL     1      -5.264   4.895  -1.659  1.00  0.00    -0.066 NA
ATOM     27  H4  UNL     1      -3.752   3.152  -0.960  1.00  0.00     0.186 HD
ENDBRANCH  17  23
BRANCH  20  28
HETATM   28  C1  UNL     1      -7.790  -0.775  -0.289  1.00  0.00     0.185 C 
BRANCH  28  29
HETATM   29  N2  UNL     1      -8.258  -2.047   0.030  1.00  0.00    -0.285 N 
ATOM     30  H2  UNL     1      -7.630  -2.794   0.327  1.00  0.00     0.188 HD
BRANCH  29  31
HETATM   31  N1  UNL     1      -9.672  -2.246  -0.083  1.00  0.00    -0.343 N 
ATOM     32  H12 UNL     1     -10.287  -1.489  -0.381  1.00  0.00     0.176 HD
ATOM     33  H11 UNL     1     -10.015  -3.178   0.151  1.00  0.00     0.176 HD
ENDBRANCH  29  31
ENDBRANCH  28  29
BRANCH  28  34
HETATM   34  O1  UNL     1      -8.671   0.119  -0.661  1.00  0.00    -0.343 OA
ATOM     35  H1  UNL     1      -8.352   0.987  -0.879  1.00  0.00     0.219 HD
ENDBRANCH  28  34
ENDBRANCH  20  28
BRANCH  22  36
HETATM   36  O4  UNL     1      -5.653  -2.420   0.458  1.00  0.00    -0.356 OA
ATOM     37  H4  UNL     1      -4.922  -2.972   0.710  1.00  0.00     0.218 HD
ENDBRANCH  22  36
ENDBRANCH   1  15
BRANCH   6  38
HETATM   38  N10 UNL     1       2.467  -0.017   0.736  1.00  0.00    -0.206 N 
HETATM   39  C9  UNL     1       3.394  -0.328  -0.217  1.00  0.00     0.155 A 
HETATM   40  C10 UNL     1       4.638   0.073   0.218  1.00  0.00     0.068 A 
HETATM   41  C15 UNL     1       4.438   0.636   1.460  1.00  0.00     0.127 A 
HETATM   42  N12 UNL     1       3.118   0.562   1.735  1.00  0.00    -0.290 N 
ATOM     43  H12 UNL     1       2.683   0.904   2.592  1.00  0.00     0.188 HD
BRANCH  40  44
HETATM   44  C11 UNL     1       5.916  -0.069  -0.496  1.00  0.00     0.254 C 
HETATM   45  O2  UNL     1       5.982  -0.600  -1.629  1.00  0.00    -0.268 OA
HETATM   46  N11 UNL     1       7.113   0.403   0.101  1.00  0.00    -0.357 N 
ATOM     47  H11 UNL     1       7.081   0.838   1.023  1.00  0.00     0.162 HD
BRANCH  46  48
HETATM   48  C12 UNL     1       8.362   0.274  -0.578  1.00  0.00     0.125 C 
BRANCH  48  49
HETATM   49  C13 UNL     1       9.462   0.855   0.260  1.00  0.00     0.046 C 
BRANCH  49  50
HETATM   50  C14 UNL     1       9.194   2.305   0.494  1.00  0.00     0.165 C 
BRANCH  50  51
HETATM   51  O3  UNL     1      10.245   2.806   1.277  1.00  0.00    -0.401 OA
ATOM     52  H3  UNL     1      10.074   3.729   1.426  1.00  0.00     0.209 HD
ENDBRANCH  50  51
ENDBRANCH  49  50
ENDBRANCH  48  49
ENDBRANCH  46  48
ENDBRANCH  40  44
ENDBRANCH   6  38
TORSDOF 13
