REMARK  9 active torsions:
REMARK  status: ('A' for Active; 'I' for Inactive)
REMARK    1  A    between atoms: O1_3  and  N2_4 
REMARK    2  A    between atoms: C2_6  and  C3_7 
REMARK    3  A    between atoms: C2_6  and  C7_12 
REMARK    4  A    between atoms: N3_15  and  C10_16 
REMARK    5  A    between atoms: C13_19  and  N4_20 
REMARK    6  A    between atoms: N4_20  and  C14_21 
REMARK    7  A    between atoms: C16_25  and  C17_26 
REMARK       I    between atoms: C17_26  and  N6_28 
REMARK    8  A    between atoms: N6_28  and  C18_30 
REMARK    9  A    between atoms: C22_34  and  C23_35 
ROOT
HETATM    1  N1  UNL     1      -3.232  -2.759   3.082  1.00  0.00    -0.162 NA
HETATM    2  C1  UNL     1      -4.086  -2.247   2.513  1.00  0.00     0.253 C 
HETATM    3  O1  UNL     1      -5.098  -1.614   1.833  1.00  0.00    -0.159 OA
ENDROOT
BRANCH   3   4
HETATM    4  N2  UNL     1      -5.115  -0.313   1.563  1.00  0.00    -0.252 N 
HETATM    5  C2  UNL     1      -5.977   0.331   0.927  1.00  0.00     0.057 C 
ATOM      6  H2  UNL     1      -4.327   0.227   1.919  1.00  0.00     0.195 HD
BRANCH   5   7
HETATM    7  C3  UNL     1      -7.165  -0.305   0.357  1.00  0.00     0.029 A 
HETATM    8  C4  UNL     1      -7.559  -1.608   0.304  1.00  0.00     0.021 A 
HETATM    9  C5  UNL     1      -8.745  -1.886  -0.270  1.00  0.00     0.008 A 
HETATM   10  C6  UNL     1      -9.475  -0.848  -0.762  1.00  0.00     0.050 A 
HETATM   11  S1  UNL     1      -8.500   0.498  -0.418  1.00  0.00    -0.100 SA
ENDBRANCH   5   7
BRANCH   5  12
HETATM   12  C7  UNL     1      -5.802   1.803   0.701  1.00  0.00     0.066 C 
HETATM   13  C8  UNL     1      -5.596   2.081  -0.740  1.00  0.00     0.030 C 
HETATM   14  C9  UNL     1      -4.176   1.770  -1.153  1.00  0.00     0.122 C 
HETATM   15  N3  UNL     1      -3.188   2.202  -0.223  1.00  0.00    -0.193 NA
HETATM   16  O3  UNL     1      -3.435   1.835   1.042  1.00  0.00    -0.302 OA
HETATM   17  C26 UNL     1      -4.656   2.327   1.500  1.00  0.00     0.205 C 
BRANCH  15  18
HETATM   18  C10 UNL     1      -1.872   1.764  -0.649  1.00  0.00     0.086 C 
HETATM   19  C11 UNL     1      -1.769   0.255  -0.696  1.00  0.00     0.025 C 
HETATM   20  C12 UNL     1      -0.473  -0.226  -0.072  1.00  0.00     0.041 C 
HETATM   21  C13 UNL     1       0.661   0.520  -0.756  1.00  0.00     0.165 C 
HETATM   22  C24 UNL     1       0.573   1.947  -0.149  1.00  0.00     0.041 C 
HETATM   23  C25 UNL     1      -0.813   2.310   0.253  1.00  0.00     0.025 C 
BRANCH  21  24
HETATM   24  N4  UNL     1       1.903   0.060  -0.605  1.00  0.00    -0.424 NA
BRANCH  24  25
HETATM   25  C14 UNL     1       3.008  -0.351  -0.472  1.00  0.00     0.188 A 
HETATM   26  N5  UNL     1       3.920   0.206   0.395  1.00  0.00    -0.340 N 
HETATM   27  C15 UNL     1       5.162  -0.234   0.558  1.00  0.00     0.107 A 
ATOM     28  H5  UNL     1       3.622   1.009   0.949  1.00  0.00     0.167 HD
HETATM   29  C16 UNL     1       5.626  -1.318  -0.165  1.00  0.00     0.048 A 
HETATM   30  C21 UNL     1       4.755  -1.912  -1.046  1.00  0.00     0.039 A 
HETATM   31  C22 UNL     1       3.469  -1.444  -1.203  1.00  0.00     0.106 A 
BRANCH  29  32
HETATM   32  C17 UNL     1       6.992  -1.803  -0.007  1.00  0.00     0.253 C 
HETATM   33  O2  UNL     1       7.244  -3.009  -0.198  1.00  0.00    -0.268 OA
HETATM   34  N6  UNL     1       8.056  -0.920   0.361  1.00  0.00    -0.352 N 
ATOM     35  H6  UNL     1       7.846   0.067   0.513  1.00  0.00     0.163 HD
BRANCH  34  36
HETATM   36  C18 UNL     1       9.417  -1.376   0.525  1.00  0.00     0.084 A 
HETATM   37  C19 UNL     1      10.478  -0.693  -0.363  1.00  0.00     0.027 A 
HETATM   38  C20 UNL     1      10.433  -0.502   1.120  1.00  0.00     0.027 A 
ENDBRANCH  34  36
ENDBRANCH  29  32
BRANCH  31  39
HETATM   39  C23 UNL     1       2.616  -2.167  -2.185  1.00  0.00     0.422 C 
HETATM   40  F1  UNL     1       2.160  -1.326  -3.175  1.00  0.00    -0.166 F 
HETATM   41  F2  UNL     1       3.375  -3.134  -2.867  1.00  0.00    -0.166 F 
HETATM   42  F3  UNL     1       1.647  -2.861  -1.525  1.00  0.00    -0.166 F 
ENDBRANCH  31  39
ENDBRANCH  24  25
ENDBRANCH  21  24
ENDBRANCH  15  18
ENDBRANCH   5  12
ENDBRANCH   3   4
TORSDOF 9
