REMARK  2 active torsions:
REMARK  status: ('A' for Active; 'I' for Inactive)
REMARK    1  A    between atoms: C13_20  and  C14_21 
REMARK    2  A    between atoms: N5_22  and  O1_24 
ROOT
HETATM    1  N1  UNL     1       1.537  -2.539  -1.757  1.00  0.00    -0.080 NA
HETATM    2  C1  UNL     1       2.048  -1.417  -1.046  1.00  0.00     0.146 A 
HETATM    3  C2  UNL     1       1.163  -0.619  -0.471  1.00  0.00     0.101 A 
HETATM    4  N2  UNL     1      -0.221  -0.906  -0.583  1.00  0.00    -0.349 N 
ATOM      5  H2  UNL     1      -0.552  -1.720  -1.101  1.00  0.00     0.166 HD
HETATM    6  C3  UNL     1      -1.129  -0.019   0.053  1.00  0.00     0.078 A 
HETATM    7  C4  UNL     1      -0.735   1.098   0.767  1.00  0.00     0.061 A 
HETATM    8  C5  UNL     1      -1.752   1.848   1.318  1.00  0.00     0.033 A 
HETATM    9  C6  UNL     1      -3.086   1.554   1.199  1.00  0.00     0.017 A 
HETATM   10  C7  UNL     1      -3.485   0.418   0.472  1.00  0.00     0.008 A 
HETATM   11  C8  UNL     1      -4.761   0.006   0.272  1.00  0.00     0.064 A 
HETATM   12  N3  UNL     1      -5.966   0.675   0.781  1.00  0.00    -0.101 NA
HETATM   13  C9  UNL     1      -4.933  -1.135  -0.470  1.00  0.00     0.077 A 
HETATM   14  S1  UNL     1      -3.339  -1.591  -0.859  1.00  0.00    -0.097 SA
HETATM   15  C10 UNL     1      -2.492  -0.335  -0.079  1.00  0.00     0.046 A 
HETATM   16  N4  UNL     1       0.635   1.417   0.901  1.00  0.00    -0.352 N 
ATOM     17  H4  UNL     1       0.928   2.240   1.427  1.00  0.00     0.166 HD
HETATM   18  C11 UNL     1       1.594   0.571   0.290  1.00  0.00     0.065 A 
HETATM   19  C12 UNL     1       2.884   0.813   0.377  1.00  0.00     0.063 A 
HETATM   20  C13 UNL     1       3.844  -0.077  -0.264  1.00  0.00     0.053 A 
HETATM   21  N6  UNL     1       3.411  -1.117  -0.924  1.00  0.00    -0.342 N 
ATOM     22  H6  UNL     1       4.091  -1.734  -1.368  1.00  0.00     0.167 HD
ENDROOT
BRANCH  20  23
HETATM   23  C14 UNL     1       5.275   0.200  -0.161  1.00  0.00     0.143 C 
HETATM   24  N5  UNL     1       6.121  -0.591  -0.730  1.00  0.00    -0.278 N 
ATOM     25  H5  UNL     1       5.799  -1.407  -1.251  1.00  0.00     0.193 HD
BRANCH  24  26
HETATM   26  O1  UNL     1       7.461  -0.316  -0.623  1.00  0.00    -0.290 OA
ATOM     27  H1  UNL     1       8.084  -0.898  -1.042  1.00  0.00     0.244 HD
ENDBRANCH  24  26
ENDBRANCH  20  23
TORSDOF 2
