REMARK  15 active torsions:
REMARK  status: ('A' for Active; 'I' for Inactive)
REMARK    1  A    between atoms: C2_2  and  C4_4 
REMARK    2  A    between atoms: C4_4  and  C5_5 
REMARK    3  A    between atoms: C5_5  and  N1_6 
REMARK    4  A    between atoms: C5_5  and  C19_26 
REMARK       I    between atoms: N1_6  and  C6_8 
REMARK    5  A    between atoms: C6_8  and  C7_10 
REMARK    6  A    between atoms: C7_10  and  N2_11 
REMARK    7  A    between atoms: C7_10  and  C13_20 
REMARK       I    between atoms: N2_11  and  C8_13 
REMARK    8  A    between atoms: C8_13  and  O3_15 
REMARK    9  A    between atoms: O3_15  and  C9_16 
REMARK       I    between atoms: C19_26  and  N3_28 
REMARK   10  A    between atoms: N3_28  and  C20_30 
REMARK   11  A    between atoms: C20_30  and  C21_31 
REMARK   12  A    between atoms: C21_31  and  C23_33 
REMARK       I    between atoms: C23_33  and  N4_35 
REMARK       I    between atoms: N4_35  and  C24_37 
REMARK   13  A    between atoms: C24_37  and  C25_39 
REMARK   14  A    between atoms: C25_39  and  C26_40 
REMARK   15  A    between atoms: C25_39  and  N5_43 
ROOT
HETATM    1  C5  UNL     1      -1.499  -1.464  -0.904  1.00  0.00     0.177 C 
ENDROOT
BRANCH   1   2
HETATM    2  C4  UNL     1      -1.300  -2.887  -0.678  1.00  0.00     0.038 C 
BRANCH   2   3
HETATM    3  C2  UNL     1      -1.604  -3.687   0.496  1.00  0.00    -0.020 C 
HETATM    4  C1  UNL     1      -0.842  -3.248   1.766  1.00  0.00     0.009 C 
HETATM    5  C3  UNL     1      -1.078  -5.152   0.248  1.00  0.00     0.009 C 
ENDBRANCH   2   3
ENDBRANCH   1   2
BRANCH   1   6
HETATM    6  N1  UNL     1      -2.773  -0.852  -0.940  1.00  0.00    -0.346 N 
HETATM    7  C6  UNL     1      -4.061  -1.167  -0.549  1.00  0.00     0.241 C 
HETATM    8  O1  UNL     1      -4.316  -2.255   0.012  1.00  0.00    -0.271 OA
ATOM      9  H1  UNL     1      -2.730   0.072  -1.371  1.00  0.00     0.163 HD
BRANCH   7  10
HETATM   10  C7  UNL     1      -5.226  -0.269  -0.736  1.00  0.00     0.183 C 
BRANCH  10  11
HETATM   11  N2  UNL     1      -5.059   1.021  -0.046  1.00  0.00    -0.323 N 
HETATM   12  C8  UNL     1      -5.726   2.112  -0.725  1.00  0.00     0.362 C 
HETATM   13  O2  UNL     1      -6.367   1.855  -1.801  1.00  0.00    -0.238 OA
ATOM     14  H2  UNL     1      -4.530   1.134   0.819  1.00  0.00     0.165 HD
BRANCH  12  15
HETATM   15  O3  UNL     1      -5.733   3.414  -0.314  1.00  0.00    -0.293 OA
BRANCH  15  16
HETATM   16  C9  UNL     1      -6.381   4.467  -0.976  1.00  0.00     0.069 A 
HETATM   17  C10 UNL     1      -6.152   5.818  -0.284  1.00  0.00     0.047 C 
HETATM   18  C11 UNL     1      -7.759   4.309  -1.519  1.00  0.00     0.041 A 
HETATM   19  C12 UNL     1      -6.578   4.570  -2.419  1.00  0.00     0.041 A 
ENDBRANCH  15  16
ENDBRANCH  12  15
ENDBRANCH  10  11
BRANCH  10  20
HETATM   20  C13 UNL     1      -6.423  -0.836   0.046  1.00  0.00     0.018 C 
HETATM   21  C14 UNL     1      -6.085  -0.991   1.499  1.00  0.00     0.007 C 
HETATM   22  C15 UNL     1      -7.401  -0.920   2.251  1.00  0.00     0.000 C 
HETATM   23  C16 UNL     1      -8.358  -1.927   1.722  1.00  0.00     0.000 C 
HETATM   24  C17 UNL     1      -8.469  -2.078   0.247  1.00  0.00     0.000 C 
HETATM   25  C18 UNL     1      -7.090  -2.033  -0.444  1.00  0.00     0.007 C 
ENDBRANCH  10  20
ENDBRANCH   7  10
ENDBRANCH   1   6
BRANCH   1  26
HETATM   26  C19 UNL     1      -0.591  -0.606  -0.057  1.00  0.00     0.240 C 
HETATM   27  O4  UNL     1      -1.084   0.404   0.562  1.00  0.00    -0.271 OA
HETATM   28  N3  UNL     1       0.771  -0.849   0.087  1.00  0.00    -0.358 N 
ATOM     29  H3  UNL     1       1.193  -1.640  -0.400  1.00  0.00     0.162 HD
BRANCH  28  30
HETATM   30  C20 UNL     1       1.617   0.020   0.934  1.00  0.00     0.136 C 
BRANCH  30  31
HETATM   31  C21 UNL     1       3.028  -0.480   0.786  1.00  0.00     0.092 C 
HETATM   32  C22 UNL     1       3.095  -1.935   1.289  1.00  0.00     0.021 C 
BRANCH  31  33
HETATM   33  C23 UNL     1       4.050   0.305   1.458  1.00  0.00     0.229 C 
HETATM   34  O5  UNL     1       3.761   0.661   2.663  1.00  0.00    -0.273 OA
HETATM   35  N4  UNL     1       5.319   0.723   0.977  1.00  0.00    -0.295 N 
HETATM   36  C24 UNL     1       5.923   0.537  -0.238  1.00  0.00     0.247 C 
ATOM     37  H4  UNL     1       5.875   1.251   1.650  1.00  0.00     0.171 HD
HETATM   38  O6  UNL     1       5.202  -0.066  -1.134  1.00  0.00    -0.271 OA
BRANCH  36  39
HETATM   39  C25 UNL     1       7.313   0.916  -0.685  1.00  0.00     0.185 C 
BRANCH  39  40
HETATM   40  C26 UNL     1       7.844  -0.260  -1.480  1.00  0.00     0.010 C 
HETATM   41  C27 UNL     1       9.220  -0.140  -2.026  1.00  0.00     0.012 C 
HETATM   42  C28 UNL     1       7.636  -1.570  -0.815  1.00  0.00     0.012 C 
ENDBRANCH  39  40
BRANCH  39  43
HETATM   43  N5  UNL     1       8.152   1.514   0.249  1.00  0.00    -0.308 N 
HETATM   44  C29 UNL     1       8.672   0.972   1.461  1.00  0.00     0.364 C 
HETATM   45  O7  UNL     1       8.868  -0.227   1.720  1.00  0.00    -0.238 OA
HETATM   46  O8  UNL     1       8.949   2.009   2.370  1.00  0.00    -0.302 OA
HETATM   47  C30 UNL     1       8.964   3.238   1.681  1.00  0.00     0.205 C 
HETATM   48  C31 UNL     1       8.753   2.874   0.234  1.00  0.00     0.111 C 
HETATM   49  C32 UNL     1      10.032   2.919  -0.556  1.00  0.00     0.034 C 
ENDBRANCH  39  43
ENDBRANCH  36  39
ENDBRANCH  31  33
ENDBRANCH  30  31
ENDBRANCH  28  30
ENDBRANCH   1  26
TORSDOF 15
