REMARK  18 active torsions:
REMARK  status: ('A' for Active; 'I' for Inactive)
REMARK    1  A    between atoms: C2_2  and  C4_4 
REMARK    2  A    between atoms: C4_4  and  C5_5 
REMARK    3  A    between atoms: C5_5  and  N1_6 
REMARK    4  A    between atoms: C5_5  and  C11_15 
REMARK       I    between atoms: N1_6  and  C6_8 
REMARK    5  A    between atoms: C6_8  and  O2_10 
REMARK    6  A    between atoms: O2_10  and  C7_11 
REMARK       I    between atoms: C11_15  and  N2_17 
REMARK    7  A    between atoms: N2_17  and  C12_19 
REMARK    8  A    between atoms: C12_19  and  C13_20 
REMARK    9  A    between atoms: C12_19  and  C17_25 
REMARK   10  A    between atoms: C13_20  and  O4_21 
REMARK   11  A    between atoms: O4_21  and  C14_22 
REMARK       I    between atoms: C17_25  and  N3_27 
REMARK   12  A    between atoms: N3_27  and  C18_29 
REMARK   13  A    between atoms: C18_29  and  C19_30 
REMARK   14  A    between atoms: C18_29  and  C27_38 
REMARK   15  A    between atoms: C19_30  and  C20_31 
REMARK   16  A    between atoms: C20_31  and  C21_32 
REMARK   17  A    between atoms: C21_32  and  C23_34 
REMARK       I    between atoms: C27_38  and  N4_40 
REMARK   18  A    between atoms: C31_44  and  C32_45 
ROOT
HETATM    1  C12 UNL     1       0.346  -0.585   0.955  1.00  0.00     0.200 C 
ENDROOT
BRANCH   1   2
HETATM    2  N2  UNL     1       1.584  -0.477   0.227  1.00  0.00    -0.344 N 
HETATM    3  C11 UNL     1       2.640  -1.400   0.207  1.00  0.00     0.241 C 
HETATM    4  O3  UNL     1       2.562  -2.451   0.888  1.00  0.00    -0.271 OA
ATOM      5  H2  UNL     1       1.706   0.364  -0.337  1.00  0.00     0.163 HD
BRANCH   3   6
HETATM    6  C5  UNL     1       3.867  -1.153  -0.611  1.00  0.00     0.179 C 
BRANCH   6   7
HETATM    7  C4  UNL     1       3.793  -2.121  -1.787  1.00  0.00     0.038 C 
BRANCH   7   8
HETATM    8  C2  UNL     1       2.616  -1.891  -2.675  1.00  0.00    -0.020 C 
HETATM    9  C1  UNL     1       2.702  -2.946  -3.788  1.00  0.00     0.009 C 
HETATM   10  C3  UNL     1       2.616  -0.557  -3.369  1.00  0.00     0.009 C 
ENDBRANCH   7   8
ENDBRANCH   6   7
BRANCH   6  11
HETATM   11  N1  UNL     1       5.052  -1.489   0.187  1.00  0.00    -0.324 N 
HETATM   12  C6  UNL     1       6.031  -0.432   0.336  1.00  0.00     0.362 C 
HETATM   13  O1  UNL     1       5.860   0.686  -0.208  1.00  0.00    -0.238 OA
ATOM     14  H1  UNL     1       5.178  -2.409   0.610  1.00  0.00     0.165 HD
BRANCH  12  15
HETATM   15  O2  UNL     1       7.195  -0.595   1.081  1.00  0.00    -0.294 OA
BRANCH  15  16
HETATM   16  C7  UNL     1       8.124   0.453   1.190  1.00  0.00     0.061 C 
HETATM   17  C8  UNL     1       9.252   0.028   2.138  1.00  0.00     0.046 C 
HETATM   18  C9  UNL     1       7.499   1.707   1.743  1.00  0.00     0.046 C 
HETATM   19  C10 UNL     1       8.822   0.777  -0.125  1.00  0.00     0.046 C 
ENDBRANCH  15  16
ENDBRANCH  12  15
ENDBRANCH   6  11
ENDBRANCH   3   6
ENDBRANCH   1   2
BRANCH   1  20
HETATM   20  C13 UNL     1       0.526  -0.073   2.414  1.00  0.00     0.202 C 
BRANCH  20  21
HETATM   21  O4  UNL     1       1.468  -0.847   2.969  1.00  0.00    -0.384 OA
BRANCH  21  22
HETATM   22  C14 UNL     1       1.843  -0.745   4.253  1.00  0.00     0.113 C 
HETATM   23  C15 UNL     1       1.524  -2.088   4.928  1.00  0.00     0.039 C 
HETATM   24  C16 UNL     1       3.294  -0.445   4.487  1.00  0.00     0.039 C 
ENDBRANCH  21  22
ENDBRANCH  20  21
ENDBRANCH   1  20
BRANCH   1  25
HETATM   25  C17 UNL     1      -0.732   0.159   0.300  1.00  0.00     0.243 C 
HETATM   26  O5  UNL     1      -0.505   0.668  -0.845  1.00  0.00    -0.271 OA
HETATM   27  N3  UNL     1      -2.012   0.358   0.872  1.00  0.00    -0.346 N 
ATOM     28  H3  UNL     1      -2.204  -0.080   1.773  1.00  0.00     0.163 HD
BRANCH  27  29
HETATM   29  C18 UNL     1      -3.066   1.142   0.263  1.00  0.00     0.176 C 
BRANCH  29  30
HETATM   30  C19 UNL     1      -3.619   0.463  -0.941  1.00  0.00     0.035 C 
BRANCH  30  31
HETATM   31  C20 UNL     1      -4.239  -0.884  -0.539  1.00  0.00     0.007 C 
BRANCH  31  32
HETATM   32  C21 UNL     1      -4.828  -1.507  -1.776  1.00  0.00    -0.011 C 
HETATM   33  C22 UNL     1      -5.879  -0.528  -2.334  1.00  0.00     0.011 C 
BRANCH  32  34
HETATM   34  C23 UNL     1      -5.525  -2.823  -1.455  1.00  0.00    -0.048 C 
HETATM   35  C24 UNL     1      -4.548  -3.788  -0.865  1.00  0.00     0.015 C 
HETATM   36  C25 UNL     1      -6.626  -2.587  -0.425  1.00  0.00     0.015 C 
HETATM   37  C26 UNL     1      -6.180  -3.387  -2.691  1.00  0.00     0.015 C 
ENDBRANCH  32  34
ENDBRANCH  31  32
ENDBRANCH  30  31
ENDBRANCH  29  30
BRANCH  29  38
HETATM   38  C27 UNL     1      -2.686   2.548   0.124  1.00  0.00     0.243 C 
HETATM   39  O6  UNL     1      -1.470   2.831   0.474  1.00  0.00    -0.271 OA
HETATM   40  N4  UNL     1      -3.425   3.642  -0.323  1.00  0.00    -0.336 N 
HETATM   41  C28 UNL     1      -2.795   4.994  -0.448  1.00  0.00     0.127 C 
HETATM   42  C31 UNL     1      -4.807   3.811  -0.693  1.00  0.00     0.188 C 
HETATM   43  C29 UNL     1      -3.522   5.610  -1.597  1.00  0.00     0.022 C 
HETATM   44  C30 UNL     1      -4.887   5.018  -1.597  1.00  0.00     0.038 C 
BRANCH  42  45
HETATM   45  C32 UNL     1      -5.652   4.123   0.499  1.00  0.00     0.196 C 
HETATM   46  O7  UNL     1      -5.218   4.154   1.663  1.00  0.00    -0.646 OA
HETATM   47  O8  UNL     1      -7.000   4.393   0.292  1.00  0.00    -0.646 OA
ENDBRANCH  42  45
ENDBRANCH  29  38
ENDBRANCH  27  29
ENDBRANCH   1  25
TORSDOF 18
