REMARK  11 active torsions:
REMARK  status: ('A' for Active; 'I' for Inactive)
REMARK    1  A    between atoms: C2_2  and  O1_3 
REMARK    2  A    between atoms: O1_3  and  C3_4 
REMARK    3  A    between atoms: C3_4  and  C4_5 
REMARK    4  A    between atoms: C3_4  and  C6_8 
REMARK    5  A    between atoms: C6_8  and  N1_9 
REMARK    6  A    between atoms: C6_8  and  C9_15 
REMARK       I    between atoms: N1_9  and  C7_11 
REMARK    7  A    between atoms: C7_11  and  O4_13 
REMARK    8  A    between atoms: C9_15  and  O5_16 
REMARK    9  A    between atoms: C9_15  and  N2_18 
REMARK       I    between atoms: N2_18  and  C10_20 
REMARK   10  A    between atoms: C10_20  and  C11_22 
REMARK   11  A    between atoms: C13_27  and  O8_28 
ROOT
HETATM    1  C9  UNL     1      -0.148   1.623  -0.403  1.00  0.00     0.144 C 
ENDROOT
BRANCH   1   2
HETATM    2  C6  UNL     1      -1.220   0.837   0.187  1.00  0.00     0.197 C 
BRANCH   2   3
HETATM    3  C3  UNL     1      -1.815  -0.211  -0.783  1.00  0.00     0.221 C 
BRANCH   3   4
HETATM    4  O1  UNL     1      -2.828  -0.827  -0.113  1.00  0.00    -0.376 OA
BRANCH   4   5
HETATM    5  C2  UNL     1      -2.785  -2.155   0.116  1.00  0.00     0.164 C 
HETATM    6  C1  UNL     1      -1.672  -2.699   0.935  1.00  0.00     0.033 C 
ENDBRANCH   4   5
ENDBRANCH   3   4
BRANCH   3   7
HETATM    7  C4  UNL     1      -2.278   0.442  -2.048  1.00  0.00     0.154 C 
HETATM    8  C5  UNL     1      -3.687   0.445  -2.473  1.00  0.00     0.093 C 
HETATM    9  O2  UNL     1      -1.462   0.994  -2.759  1.00  0.00    -0.295 OA
ENDBRANCH   3   7
ENDBRANCH   2   3
BRANCH   2  10
HETATM   10  N1  UNL     1      -2.352   1.714   0.554  1.00  0.00    -0.322 N 
HETATM   11  C7  UNL     1      -2.887   1.803   1.840  1.00  0.00     0.360 C 
HETATM   12  O3  UNL     1      -2.435   1.122   2.820  1.00  0.00    -0.239 OA
ATOM     13  H1  UNL     1      -2.768   2.290  -0.178  1.00  0.00     0.165 HD
BRANCH  11  14
HETATM   14  O4  UNL     1      -3.951   2.644   2.131  1.00  0.00    -0.309 OA
HETATM   15  C8  UNL     1      -4.520   2.767   3.405  1.00  0.00     0.215 C 
ENDBRANCH  11  14
ENDBRANCH   2  10
ENDBRANCH   1   2
BRANCH   1  16
HETATM   16  O5  UNL     1      -0.512   2.815  -0.793  1.00  0.00    -0.348 OA
ATOM     17  H5  UNL     1       0.188   3.328  -1.178  1.00  0.00     0.219 HD
ENDBRANCH   1  16
BRANCH   1  18
HETATM   18  N2  UNL     1       1.201   1.309  -0.618  1.00  0.00    -0.303 N 
HETATM   19  C10 UNL     1       1.841   0.154  -0.167  1.00  0.00     0.291 C 
HETATM   20  O6  UNL     1       1.262  -0.727   0.479  1.00  0.00    -0.264 OA
ATOM     21  H2  UNL     1       1.760   1.979  -1.147  1.00  0.00     0.171 HD
BRANCH  19  22
HETATM   22  C11 UNL     1       3.278  -0.088  -0.442  1.00  0.00     0.179 A 
HETATM   23  N3  UNL     1       3.991   0.828  -1.141  1.00  0.00    -0.302 N 
HETATM   24  C12 UNL     1       5.305   0.642  -1.412  1.00  0.00     0.283 A 
ATOM     25  H3  UNL     1       3.528   1.675  -1.470  1.00  0.00     0.171 HD
HETATM   26  O7  UNL     1       5.977   1.470  -2.052  1.00  0.00    -0.265 OA
HETATM   27  C13 UNL     1       5.948  -0.509  -0.968  1.00  0.00     0.176 A 
HETATM   28  C14 UNL     1       5.212  -1.418  -0.265  1.00  0.00     0.157 A 
HETATM   29  N4  UNL     1       5.830  -2.607   0.206  1.00  0.00    -0.079 NA
HETATM   30  N5  UNL     1       3.910  -1.181  -0.026  1.00  0.00    -0.324 N 
ATOM     31  H5  UNL     1       3.380  -1.875   0.501  1.00  0.00     0.169 HD
BRANCH  27  32
HETATM   32  O8  UNL     1       7.294  -0.704  -1.243  1.00  0.00    -0.353 OA
ATOM     33  H8  UNL     1       7.733  -1.490  -0.940  1.00  0.00     0.218 HD
ENDBRANCH  27  32
ENDBRANCH  19  22
ENDBRANCH   1  18
TORSDOF 11
