REMARK  9 active torsions:
REMARK  status: ('A' for Active; 'I' for Inactive)
REMARK    1  A    between atoms: C2_2  and  C5_5 
REMARK    2  A    between atoms: C5_5  and  O1_6 
REMARK    3  A    between atoms: C5_5  and  N1_8 
REMARK    4  A    between atoms: N1_8  and  C6_10 
REMARK    5  A    between atoms: C6_10  and  O2_11 
REMARK    6  A    between atoms: N2_13  and  C7_15 
REMARK    7  A    between atoms: C8_18  and  C9_19 
REMARK    8  A    between atoms: C9_19  and  N4_22 
REMARK       I    between atoms: N4_22  and  C12_24 
REMARK    9  A    between atoms: C12_24  and  C13_26 
ROOT
HETATM    1  C7  UNL     1       0.779   0.006  -0.131  1.00  0.00     0.151 A 
HETATM    2  N3  UNL     1      -0.456  -0.443   0.064  1.00  0.00    -0.337 N 
ATOM      3  H3  UNL     1      -0.656  -1.058   0.853  1.00  0.00     0.168 HD
HETATM    4  C8  UNL     1      -1.416  -0.097  -0.756  1.00  0.00     0.045 A 
HETATM    5  C15 UNL     1      -1.087   0.731  -1.799  1.00  0.00     0.081 A 
HETATM    6  S1  UNL     1       0.568   0.980  -1.568  1.00  0.00    -0.064 SA
ENDROOT
BRANCH   1   7
HETATM    7  N2  UNL     1       1.885  -0.138   0.505  1.00  0.00    -0.302 N 
HETATM    8  C6  UNL     1       2.175  -0.824   1.636  1.00  0.00     0.224 C 
ATOM      9  H2  UNL     1       2.680   0.346   0.088  1.00  0.00     0.171 HD
BRANCH   8  10
HETATM   10  N1  UNL     1       3.472  -1.088   2.101  1.00  0.00    -0.306 N 
ATOM     11  H1  UNL     1       3.496  -1.607   2.979  1.00  0.00     0.171 HD
BRANCH  10  12
HETATM   12  C5  UNL     1       4.709  -0.785   1.606  1.00  0.00     0.126 C 
BRANCH  12  13
HETATM   13  C2  UNL     1       5.143  -0.079   0.421  1.00  0.00     0.014 C 
HETATM   14  C1  UNL     1       4.953  -0.851  -0.873  1.00  0.00     0.023 C 
HETATM   15  C3  UNL     1       6.715   0.032   0.566  1.00  0.00     0.023 C 
HETATM   16  C4  UNL     1       4.679   1.330   0.246  1.00  0.00     0.023 C 
ENDBRANCH  12  13
BRANCH  12  17
HETATM   17  O1  UNL     1       5.721  -1.228   2.358  1.00  0.00    -0.349 OA
ATOM     18  H1  UNL     1       5.436  -1.692   3.137  1.00  0.00     0.219 HD
ENDBRANCH  12  17
ENDBRANCH  10  12
ENDBRANCH   8  10
BRANCH   8  19
HETATM   19  O2  UNL     1       1.186  -1.276   2.363  1.00  0.00    -0.332 OA
ATOM     20  H2  UNL     1       0.308  -1.097   2.048  1.00  0.00     0.221 HD
ENDBRANCH   8  19
ENDBRANCH   1   7
BRANCH   4  21
HETATM   21  C9  UNL     1      -2.858  -0.583  -0.608  1.00  0.00     0.068 C 
HETATM   22  C10 UNL     1      -3.319  -1.112  -1.938  1.00  0.00     0.045 C 
HETATM   23  C11 UNL     1      -2.933  -1.710   0.404  1.00  0.00     0.045 C 
BRANCH  21  24
HETATM   24  N4  UNL     1      -3.728   0.497  -0.200  1.00  0.00    -0.343 N 
HETATM   25  C12 UNL     1      -5.105   0.347   0.007  1.00  0.00     0.274 C 
HETATM   26  O3  UNL     1      -5.627  -0.803  -0.163  1.00  0.00    -0.268 OA
ATOM     27  H4  UNL     1      -3.316   1.419  -0.055  1.00  0.00     0.163 HD
BRANCH  25  28
HETATM   28  C13 UNL     1      -5.950   1.474   0.408  1.00  0.00     0.255 C 
HETATM   29  C14 UNL     1      -6.238   2.424  -0.729  1.00  0.00     0.081 C 
HETATM   30  F1  UNL     1      -5.211   2.237   1.333  1.00  0.00    -0.215 F 
HETATM   31 CL1  UNL     1      -7.385   0.861   1.207  1.00  0.00    -0.073 Cl
ENDBRANCH  25  28
ENDBRANCH  21  24
ENDBRANCH   4  21
TORSDOF 9
