REMARK  12 active torsions:
REMARK  status: ('A' for Active; 'I' for Inactive)
REMARK    1  A    between atoms: C4_4  and  C5_5 
REMARK    2  A    between atoms: C6_6  and  C7_7 
REMARK    3  A    between atoms: C7_7  and  C9_9 
REMARK    4  A    between atoms: C9_9  and  C11_11 
REMARK    5  A    between atoms: C9_9  and  C20_25 
REMARK    6  A    between atoms: C11_11  and  C12_13 
REMARK    7  A    between atoms: C12_13  and  O2_14 
REMARK    8  A    between atoms: O2_14  and  C13_15 
REMARK    9  A    between atoms: C13_15  and  C14_17 
REMARK   10  A    between atoms: C14_17  and  O4_19 
REMARK   11  A    between atoms: C14_17  and  C16_21 
REMARK   12  A    between atoms: C20_25  and  O5_26 
ROOT
HETATM    1  C9  UNL     1       0.956  -1.547   0.276  1.00  0.00     0.102 C 
HETATM    2  C10 UNL     1       0.459  -2.493   1.399  1.00  0.00     0.034 C 
ENDROOT
BRANCH   1   3
HETATM    3  C7  UNL     1       1.901  -0.581   0.901  1.00  0.00    -0.062 C 
HETATM    4  C8  UNL     1       2.876  -1.146   1.854  1.00  0.00     0.045 C 
BRANCH   3   5
HETATM    5  C6  UNL     1       2.466   0.407  -0.003  1.00  0.00     0.004 C 
HETATM    6  C5  UNL     1       3.644   0.725  -0.398  1.00  0.00     0.001 C 
BRANCH   6   7
HETATM    7  C4  UNL     1       4.949   0.211  -0.098  1.00  0.00     0.002 C 
HETATM    8  C2  UNL     1       6.055   0.740  -0.657  1.00  0.00    -0.088 C 
HETATM    9  C1  UNL     1       7.407   0.231  -0.367  1.00  0.00     0.043 C 
HETATM   10  C3  UNL     1       5.858   1.870  -1.591  1.00  0.00     0.043 C 
ENDBRANCH   6   7
ENDBRANCH   3   5
ENDBRANCH   1   3
BRANCH   1  11
HETATM   11  C11 UNL     1      -0.252  -0.810  -0.171  1.00  0.00     0.169 C 
HETATM   12  O1  UNL     1      -0.520  -0.833  -1.379  1.00  0.00    -0.294 OA
BRANCH  11  13
HETATM   13  C12 UNL     1      -1.159  -0.053   0.704  1.00  0.00     0.258 C 
BRANCH  13  14
HETATM   14  O2  UNL     1      -2.236   0.510  -0.049  1.00  0.00    -0.312 OA
BRANCH  14  15
HETATM   15  C13 UNL     1      -3.209   1.264   0.584  1.00  0.00     0.294 C 
HETATM   16  O3  UNL     1      -3.113   1.431   1.810  1.00  0.00    -0.262 OA
BRANCH  15  17
HETATM   17  C14 UNL     1      -4.304   1.825  -0.246  1.00  0.00     0.148 C 
HETATM   18  C15 UNL     1      -4.272   3.326  -0.143  1.00  0.00     0.057 C 
BRANCH  17  19
HETATM   19  O4  UNL     1      -4.158   1.480  -1.575  1.00  0.00    -0.379 OA
ATOM     20  H4  UNL     1      -4.859   1.839  -2.106  1.00  0.00     0.211 HD
ENDBRANCH  17  19
BRANCH  17  21
HETATM   21  C16 UNL     1      -5.663   1.355   0.214  1.00  0.00    -0.011 C 
HETATM   22  C17 UNL     1      -6.686   1.994  -0.709  1.00  0.00     0.018 C 
HETATM   23  C18 UNL     1      -5.939   1.772   1.648  1.00  0.00     0.018 C 
HETATM   24  C19 UNL     1      -5.825  -0.137   0.142  1.00  0.00     0.018 C 
ENDBRANCH  17  21
ENDBRANCH  15  17
ENDBRANCH  14  15
ENDBRANCH  13  14
ENDBRANCH  11  13
ENDBRANCH   1  11
BRANCH   1  25
HETATM   25  C20 UNL     1       1.428  -2.419  -0.811  1.00  0.00     0.209 A 
HETATM   26  C21 UNL     1       2.422  -3.449  -0.445  1.00  0.00     0.048 A 
HETATM   27  C22 UNL     1       3.329  -3.456  -1.405  1.00  0.00     0.083 A 
HETATM   28  C23 UNL     1       2.996  -2.464  -2.416  1.00  0.00     0.285 A 
HETATM   29  O6  UNL     1       3.670  -2.228  -3.471  1.00  0.00    -0.260 OA
HETATM   30  O7  UNL     1       1.829  -1.853  -2.000  1.00  0.00    -0.275 OA
BRANCH  25  31
HETATM   31  O5  UNL     1       0.270  -3.205  -1.165  1.00  0.00    -0.361 OA
ATOM     32  H5  UNL     1       0.575  -3.768  -1.867  1.00  0.00     0.213 HD
ENDBRANCH  25  31
ENDBRANCH   1  25
TORSDOF 12
