REMARK  10 active torsions:
REMARK  status: ('A' for Active; 'I' for Inactive)
REMARK    1  A    between atoms: C2_2  and  N1_3 
REMARK    2  A    between atoms: C3_5  and  C4_6 
REMARK    3  A    between atoms: C3_5  and  N3_25 
REMARK    4  A    between atoms: C4_6  and  C5_11 
REMARK    5  A    between atoms: N2_7  and  O1_9 
REMARK    6  A    between atoms: C7_13  and  C8_14 
REMARK    7  A    between atoms: C8_14  and  C9_15 
REMARK    8  A    between atoms: C10_19  and  C11_20 
REMARK    9  A    between atoms: C11_20  and  O5_22 
REMARK   10  A    between atoms: O5_22  and  C12_23 
ROOT
HETATM    1  C4  UNL     1      -0.498  -0.359   0.271  1.00  0.00     0.109 C 
HETATM    2  N2  UNL     1      -0.400  -1.578   0.574  1.00  0.00    -0.265 N 
ATOM      3  H2  UNL     1      -1.287  -2.081   0.603  1.00  0.00     0.194 HD
ENDROOT
BRANCH   1   4
HETATM    4  C3  UNL     1       0.669   0.502   0.183  1.00  0.00     0.133 C 
HETATM    5  N1  UNL     1       0.619   1.704  -0.129  1.00  0.00    -0.354 N 
ATOM      6  H1  UNL     1      -0.330   2.026  -0.317  1.00  0.00     0.166 HD
BRANCH   5   7
HETATM    7  C2  UNL     1       1.584   2.720  -0.280  1.00  0.00     0.058 C 
HETATM    8  C1  UNL     1       1.848   3.120  -1.715  1.00  0.00     0.054 C 
ENDBRANCH   5   7
BRANCH   4   9
HETATM    9  N3  UNL     1       1.980  -0.014   0.462  1.00  0.00    -0.365 N 
HETATM   10  C14 UNL     1       2.787  -0.552  -0.605  1.00  0.00     0.124 C 
HETATM   11  C15 UNL     1       4.174   0.107  -0.670  1.00  0.00     0.020 C 
HETATM   12  C16 UNL     1       4.765   0.239   0.692  1.00  0.00     0.007 C 
HETATM   13  C17 UNL     1       3.973  -0.369   1.803  1.00  0.00    -0.001 C 
HETATM   14  C18 UNL     1       4.191  -1.854   1.930  1.00  0.00     0.011 C 
HETATM   15  C19 UNL     1       2.522   0.037   1.785  1.00  0.00     0.128 C 
ENDBRANCH   4   9
ENDBRANCH   1   4
BRANCH   1  16
HETATM   16  C5  UNL     1      -1.892   0.144  -0.027  1.00  0.00     0.020 A 
HETATM   17  C6  UNL     1      -2.187   1.478  -0.068  1.00  0.00     0.030 A 
HETATM   18  C7  UNL     1      -3.491   1.855  -0.214  1.00  0.00    -0.006 A 
HETATM   19  S1  UNL     1      -4.306   0.394  -0.294  1.00  0.00    -0.087 SA
HETATM   20  C10 UNL     1      -2.946  -0.709  -0.140  1.00  0.00     0.093 A 
BRANCH  18  21
HETATM   21  C8  UNL     1      -4.021   3.280  -0.281  1.00  0.00     0.159 C 
BRANCH  21  22
HETATM   22  C9  UNL     1      -4.026   3.692  -1.686  1.00  0.00     0.177 C 
HETATM   23  O2  UNL     1      -3.629   2.893  -2.570  1.00  0.00    -0.648 OA
HETATM   24  O3  UNL     1      -4.458   4.951  -2.099  1.00  0.00    -0.648 OA
ENDBRANCH  21  22
ENDBRANCH  18  21
BRANCH  20  25
HETATM   25  C11 UNL     1      -3.116  -2.164  -0.241  1.00  0.00     0.301 C 
HETATM   26  O4  UNL     1      -2.281  -3.042  -0.314  1.00  0.00    -0.259 OA
BRANCH  25  27
HETATM   27  O5  UNL     1      -4.460  -2.655  -0.255  1.00  0.00    -0.317 OA
BRANCH  27  28
HETATM   28  C12 UNL     1      -4.629  -4.069  -0.350  1.00  0.00     0.174 C 
HETATM   29  C13 UNL     1      -3.986  -4.780   0.809  1.00  0.00     0.034 C 
ENDBRANCH  27  28
ENDBRANCH  25  27
ENDBRANCH  20  25
ENDBRANCH   1  16
BRANCH   2  30
HETATM   30  O1  UNL     1       0.662  -2.317   0.861  1.00  0.00    -0.289 OA
ATOM     31  H1  UNL     1       0.736  -3.236   1.089  1.00  0.00     0.244 HD
ENDBRANCH   2  30
TORSDOF 10
