REMARK  11 active torsions:
REMARK  status: ('A' for Active; 'I' for Inactive)
REMARK    1  A    between atoms: O1_2  and  C2_3 
REMARK    2  A    between atoms: C2_3  and  C3_5 
REMARK       I    between atoms: N2_8  and  C4_9 
REMARK       I    between atoms: C4_9  and  N4_13 
REMARK    3  A    between atoms: C5_14  and  S1_15 
REMARK    4  A    between atoms: S1_15  and  N5_18 
REMARK    5  A    between atoms: N5_18  and  C6_20 
REMARK    6  A    between atoms: C11_25  and  N6_26 
REMARK    7  A    between atoms: C15_37  and  N9_38 
REMARK       I    between atoms: N9_38  and  C16_40 
REMARK    8  A    between atoms: C16_40  and  C17_42 
REMARK    9  A    between atoms: C17_42  and  N10_43 
REMARK   10  A    between atoms: C17_42  and  C18_47 
REMARK   11  A    between atoms: C18_47  and  O7_49 
ROOT
HETATM    1  C3  UNL     1       2.275   0.615   0.923  1.00  0.00     0.157 A 
HETATM    2  N1  UNL     1       1.215   1.434   0.947  1.00  0.00    -0.269 N 
ATOM      3  H1  UNL     1       1.116   2.214   1.597  1.00  0.00     0.188 HD
HETATM    4  N2  UNL     1       0.313   1.119   0.037  1.00  0.00    -0.045 N 
HETATM    5  C4  UNL     1      -0.912   1.822  -0.169  1.00  0.00     0.709 C 
HETATM    6  N3  UNL     1      -0.970   3.083   0.172  1.00  0.00    -0.232 N 
ATOM      7  H31 UNL     1      -1.845   3.585   0.025  1.00  0.00     0.174 HD
ATOM      8  H32 UNL     1      -0.125   3.494   0.569  1.00  0.00     0.174 HD
HETATM    9  N4  UNL     1      -2.081   1.254  -0.718  1.00  0.00    -0.117 N 
HETATM   10  C5  UNL     1      -3.019   0.605   0.058  1.00  0.00     0.174 A 
HETATM   11  C9  UNL     1      -4.021   0.188  -0.790  1.00  0.00     0.064 A 
HETATM   12  C10 UNL     1      -3.699   0.582  -2.095  1.00  0.00     0.056 A 
HETATM   13  C11 UNL     1      -4.309   0.446  -3.317  1.00  0.00     0.114 A 
HETATM   14  N7  UNL     1      -3.715   0.959  -4.410  1.00  0.00    -0.338 N 
ATOM     15  H7  UNL     1      -4.163   0.862  -5.321  1.00  0.00     0.168 HD
HETATM   16  C12 UNL     1      -2.523   1.605  -4.310  1.00  0.00     0.183 A 
HETATM   17  N8  UNL     1      -1.946   1.725  -3.106  1.00  0.00    -0.337 N 
ATOM     18  H8  UNL     1      -1.052   2.211  -3.040  1.00  0.00     0.168 HD
HETATM   19  C13 UNL     1      -2.495   1.232  -1.981  1.00  0.00     0.145 A 
HETATM   20  C14 UNL     1       0.789   0.053  -0.615  1.00  0.00     0.311 A 
HETATM   21  O5  UNL     1       0.239  -0.563  -1.558  1.00  0.00    -0.263 OA
HETATM   22  C15 UNL     1       2.029  -0.291  -0.079  1.00  0.00     0.140 A 
ENDROOT
BRANCH  10  23
HETATM   23  S1  UNL     1      -2.948   0.354   1.760  1.00  0.00     0.276 S 
HETATM   24  O3  UNL     1      -1.682  -0.455   2.033  1.00  0.00    -0.199 OA
HETATM   25  O4  UNL     1      -2.682   1.686   2.455  1.00  0.00    -0.199 OA
BRANCH  23  26
HETATM   26  N5  UNL     1      -4.261  -0.397   2.408  1.00  0.00    -0.310 N 
ATOM     27  H5  UNL     1      -4.137  -1.298   2.869  1.00  0.00     0.172 HD
BRANCH  26  28
HETATM   28  C6  UNL     1      -5.544   0.164   2.346  1.00  0.00     0.085 C 
HETATM   29  C7  UNL     1      -6.644  -0.753   1.924  1.00  0.00     0.032 C 
HETATM   30  C8  UNL     1      -5.903   0.602   3.792  1.00  0.00     0.032 C 
ENDBRANCH  26  28
ENDBRANCH  23  26
ENDBRANCH  10  23
BRANCH   1  31
HETATM   31  C2  UNL     1       3.465   0.678   1.804  1.00  0.00     0.313 C 
HETATM   32  O2  UNL     1       4.382  -0.164   1.667  1.00  0.00    -0.257 OA
BRANCH  31  33
HETATM   33  O1  UNL     1       3.584   1.646   2.775  1.00  0.00    -0.321 OA
HETATM   34  C1  UNL     1       4.728   1.723   3.639  1.00  0.00     0.213 C 
ENDBRANCH  31  33
ENDBRANCH   1  31
BRANCH  22  35
HETATM   35  N9  UNL     1       2.878  -1.351  -0.484  1.00  0.00    -0.319 N 
HETATM   36  C16 UNL     1       3.849  -1.184  -1.496  1.00  0.00     0.255 C 
HETATM   37  O6  UNL     1       3.947  -0.052  -2.039  1.00  0.00    -0.271 OA
ATOM     38  H9  UNL     1       2.785  -2.261  -0.032  1.00  0.00     0.169 HD
BRANCH  36  39
HETATM   39  C17 UNL     1       4.764  -2.232  -1.974  1.00  0.00     0.302 C 
BRANCH  39  40
HETATM   40  N10 UNL     1       4.637  -3.489  -1.311  1.00  0.00    -0.064 N 
ATOM     41 3H10 UNL     1       4.736  -3.368  -0.303  1.00  0.00     0.275 HD
ATOM     42 2H10 UNL     1       3.672  -3.816  -1.357  1.00  0.00     0.275 HD
ATOM     43 1H10 UNL     1       5.271  -4.216  -1.642  1.00  0.00     0.275 HD
ENDBRANCH  39  40
BRANCH  39  44
HETATM   44  C18 UNL     1       6.207  -1.777  -1.997  1.00  0.00     0.153 C 
HETATM   45  C19 UNL     1       6.803  -1.654  -0.622  1.00  0.00     0.042 C 
BRANCH  44  46
HETATM   46  O7  UNL     1       6.323  -0.534  -2.658  1.00  0.00    -0.393 OA
ATOM     47  H7  UNL     1       7.229  -0.248  -2.672  1.00  0.00     0.210 HD
ENDBRANCH  44  46
ENDBRANCH  39  44
ENDBRANCH  36  39
ENDBRANCH  22  35
BRANCH  13  48
HETATM   48  N6  UNL     1      -5.440  -0.158  -3.451  1.00  0.00    -0.385 N 
ATOM     49  H62 UNL     1      -5.890  -0.547  -2.622  1.00  0.00     0.157 HD
ATOM     50  H61 UNL     1      -5.893  -0.259  -4.359  1.00  0.00     0.157 HD
ENDBRANCH  13  48
TORSDOF 11
