REMARK  11 active torsions:
REMARK  status: ('A' for Active; 'I' for Inactive)
REMARK    1  A    between atoms: C2_2  and  N1_3 
REMARK    2  A    between atoms: C2_2  and  C19_28 
REMARK    3  A    between atoms: N1_3  and  C3_5 
REMARK    4  A    between atoms: C6_10  and  C7_11 
REMARK    5  A    between atoms: C7_11  and  N3_12 
REMARK    6  A    between atoms: N3_12  and  C8_15 
REMARK    7  A    between atoms: C8_15  and  C9_16 
REMARK    8  A    between atoms: C9_16  and  C10_17 
REMARK    9  A    between atoms: C10_17  and  N4_18 
REMARK   10  A    between atoms: N4_18  and  C11_20 
REMARK   11  A    between atoms: C11_20  and  C12_21 
ROOT
HETATM    1  C3  UNL     1      -3.411  -1.067   0.911  1.00  0.00     0.044 A 
HETATM    2  C4  UNL     1      -3.221  -0.438   2.120  1.00  0.00     0.116 A 
HETATM    3  N2  UNL     1      -2.065   0.147   2.423  1.00  0.00    -0.372 N 
ATOM      4  H2  UNL     1      -1.944   0.610   3.324  1.00  0.00     0.164 HD
HETATM    5  C5  UNL     1      -1.053   0.124   1.529  1.00  0.00     0.096 A 
HETATM    6  C6  UNL     1      -1.154  -0.481   0.298  1.00  0.00    -0.015 A 
HETATM    7  C18 UNL     1      -2.381  -1.086   0.004  1.00  0.00     0.040 A 
ENDROOT
BRANCH   6   8
HETATM    8  C7  UNL     1       0.027  -0.482  -0.568  1.00  0.00     0.272 C 
BRANCH   8   9
HETATM    9  N3  UNL     1       0.416   0.753  -1.135  1.00  0.00    -0.071 N 
ATOM     10  H32 UNL     1      -0.333   1.182  -1.678  1.00  0.00     0.277 HD
ATOM     11  H31 UNL     1       0.522   1.484  -0.432  1.00  0.00     0.277 HD
BRANCH   9  12
HETATM   12  C8  UNL     1       1.635   0.562  -1.926  1.00  0.00     0.234 C 
BRANCH  12  13
HETATM   13  C9  UNL     1       2.849   0.296  -1.073  1.00  0.00     0.046 C 
BRANCH  13  14
HETATM   14  C10 UNL     1       4.078   0.116  -1.928  1.00  0.00     0.115 C 
BRANCH  14  15
HETATM   15  N4  UNL     1       5.259  -0.160  -1.164  1.00  0.00    -0.417 N 
ATOM     16  H4  UNL     1       5.720  -1.069  -1.192  1.00  0.00     0.153 HD
BRANCH  15  17
HETATM   17  C11 UNL     1       5.753   0.917  -0.358  1.00  0.00     0.152 C 
BRANCH  17  18
HETATM   18  C12 UNL     1       6.933   0.417   0.430  1.00  0.00    -0.041 A 
HETATM   19  C13 UNL     1       8.141   1.056   0.409  1.00  0.00     0.009 A 
HETATM   20  C14 UNL     1       9.175   0.528   1.167  1.00  0.00     0.001 A 
HETATM   21  C15 UNL     1       9.022  -0.607   1.929  1.00  0.00     0.000 A 
HETATM   22  C16 UNL     1       7.803  -1.264   1.955  1.00  0.00     0.001 A 
HETATM   23  C17 UNL     1       6.790  -0.721   1.196  1.00  0.00     0.009 A 
ENDBRANCH  17  18
ENDBRANCH  15  17
ENDBRANCH  14  15
ENDBRANCH  13  14
ENDBRANCH  12  13
ENDBRANCH   9  12
ENDBRANCH   8   9
ENDBRANCH   6   8
BRANCH   1  24
HETATM   24  N1  UNL     1      -4.624  -1.722   0.680  1.00  0.00    -0.381 N 
ATOM     25  H1  UNL     1      -4.832  -2.485   1.324  1.00  0.00     0.160 HD
BRANCH  24  26
HETATM   26  C2  UNL     1      -5.611  -1.487  -0.314  1.00  0.00     0.111 C 
HETATM   27  C1  UNL     1      -5.103  -1.362  -1.718  1.00  0.00     0.037 C 
BRANCH  26  28
HETATM   28  C19 UNL     1      -6.579  -0.451   0.038  1.00  0.00    -0.036 A 
HETATM   29  C20 UNL     1      -7.119  -0.429   1.317  1.00  0.00     0.009 A 
HETATM   30  C21 UNL     1      -8.035   0.545   1.643  1.00  0.00     0.001 A 
HETATM   31  C22 UNL     1      -8.440   1.505   0.734  1.00  0.00     0.000 A 
HETATM   32  C23 UNL     1      -7.904   1.486  -0.540  1.00  0.00     0.001 A 
HETATM   33  C24 UNL     1      -6.972   0.494  -0.864  1.00  0.00     0.009 A 
ENDBRANCH  26  28
ENDBRANCH  24  26
ENDBRANCH   1  24
TORSDOF 11
