REMARK  4 active torsions:
REMARK  status: ('A' for Active; 'I' for Inactive)
REMARK    1  A    between atoms: C2_2  and  O1_4 
REMARK    2  A    between atoms: O1_4  and  C4_5 
REMARK    3  A    between atoms: C18_21  and  C19_22 
REMARK    4  A    between atoms: C21_25  and  O5_26 
ROOT
HETATM    1  C4  UNL     1      -1.799   0.228  -0.122  1.00  0.00     0.161 C 
HETATM    2  C5  UNL     1      -1.296   1.356  -0.838  1.00  0.00     0.006 C 
HETATM    3  C6  UNL     1      -0.294   1.383  -1.884  1.00  0.00    -0.003 C 
HETATM    4  C7  UNL     1       0.386   0.169  -2.376  1.00  0.00     0.007 C 
HETATM    5  C8  UNL     1       1.284  -0.618  -1.584  1.00  0.00     0.179 C 
HETATM    6  O2  UNL     1       1.017  -2.004  -1.938  1.00  0.00    -0.310 OA
HETATM    7  C9  UNL     1      -0.183  -2.587  -1.554  1.00  0.00     0.264 C 
HETATM    8  O3  UNL     1      -0.231  -3.806  -1.938  1.00  0.00    -0.265 OA
HETATM    9  C10 UNL     1      -1.338  -2.078  -0.829  1.00  0.00     0.093 C 
HETATM   10  C11 UNL     1      -2.194  -3.258  -0.425  1.00  0.00     0.021 C 
HETATM   11  C12 UNL     1      -1.088  -1.036   0.194  1.00  0.00     0.007 C 
HETATM   12  C13 UNL     1      -1.908  -1.550   1.414  1.00  0.00     0.020 C 
HETATM   13  C14 UNL     1       0.291  -0.961   0.755  1.00  0.00    -0.008 C 
HETATM   14  C15 UNL     1       0.506  -2.266   1.559  1.00  0.00     0.018 C 
HETATM   15  C16 UNL     1       0.424   0.039   1.875  1.00  0.00     0.013 C 
HETATM   16  C17 UNL     1       1.938   0.299   1.952  1.00  0.00     0.012 C 
HETATM   17  C18 UNL     1       2.165   0.550   0.467  1.00  0.00     0.048 C 
HETATM   18  C23 UNL     1       1.426  -0.611  -0.124  1.00  0.00     0.083 C 
HETATM   19 CL1  UNL     1       2.606  -1.996   0.082  1.00  0.00    -0.115 Cl
ENDROOT
BRANCH  17  20
HETATM   20  C19 UNL     1       3.516   0.793   0.085  1.00  0.00    -0.025 A 
HETATM   21  C20 UNL     1       4.715   0.144   0.273  1.00  0.00     0.152 A 
HETATM   22  O4  UNL     1       5.709   0.774  -0.299  1.00  0.00    -0.300 OA
HETATM   23  C21 UNL     1       5.256   1.843  -0.883  1.00  0.00     0.183 A 
HETATM   24  C22 UNL     1       3.904   1.911  -0.682  1.00  0.00     0.073 A 
BRANCH  23  25
HETATM   25  O5  UNL     1       6.026   2.756  -1.592  1.00  0.00    -0.341 OA
ATOM     26  H5  UNL     1       5.695   3.537  -2.019  1.00  0.00     0.220 HD
ENDBRANCH  23  25
ENDBRANCH  17  20
BRANCH   1  27
HETATM   27  O1  UNL     1      -2.453   0.803   1.049  1.00  0.00    -0.347 OA
BRANCH  27  28
HETATM   28  C2  UNL     1      -3.515   1.694   0.834  1.00  0.00     0.034 C 
HETATM   29  C1  UNL     1      -4.698   1.252   0.480  1.00  0.00     0.045 C 
HETATM   30  C3  UNL     1      -3.326   3.158   1.001  1.00  0.00     0.075 C 
ENDBRANCH  27  28
ENDBRANCH   1  27
TORSDOF 4
