REMARK  3 active torsions:
REMARK  status: ('A' for Active; 'I' for Inactive)
REMARK    1  A    between atoms: C3_3  and  N1_4 
REMARK    2  A    between atoms: N1_4  and  C4_6 
REMARK    3  A    between atoms: C4_6  and  C5_7 
ROOT
HETATM    1  N1  UNL     1       0.566   0.483   0.127  1.00  0.00    -0.416 N 
ATOM      2  H1  UNL     1       0.111   1.396   0.135  1.00  0.00     0.153 HD
ENDROOT
BRANCH   1   3
HETATM    3  C3  UNL     1       1.961   0.370   0.147  1.00  0.00     0.079 C 
HETATM    4  C2  UNL     1       2.568  -0.253  -1.095  1.00  0.00     0.052 C 
HETATM    5  C1  UNL     1       4.058   0.001  -1.022  1.00  0.00     0.234 C 
HETATM    6  N2  UNL     1       4.400   0.742   0.173  1.00  0.00    -0.075 N 
HETATM    7  C14 UNL     1       4.028   0.096   1.389  1.00  0.00     0.234 C 
ATOM      8  H22 UNL     1       5.394   0.969   0.179  1.00  0.00     0.277 HD
ATOM      9  H21 UNL     1       4.007   1.683   0.134  1.00  0.00     0.277 HD
HETATM   10  C13 UNL     1       2.571  -0.358   1.317  1.00  0.00     0.052 C 
ENDBRANCH   1   3
BRANCH   1  11
HETATM   11  C4  UNL     1      -0.208  -0.739   0.094  1.00  0.00     0.124 C 
BRANCH  11  12
HETATM   12  C5  UNL     1      -1.608  -0.315  -0.144  1.00  0.00    -0.017 C 
HETATM   13  C6  UNL     1      -1.839   0.445  -1.443  1.00  0.00     0.016 C 
HETATM   14  C7  UNL     1      -3.328   0.712  -1.238  1.00  0.00    -0.013 C 
HETATM   15  C8  UNL     1      -3.828  -0.669  -0.979  1.00  0.00     0.010 C 
HETATM   16  C12 UNL     1      -3.254   1.453   0.078  1.00  0.00     0.010 C 
HETATM   17  C9  UNL     1      -2.738  -1.250  -0.058  1.00  0.00    -0.003 C 
HETATM   18  C10 UNL     1      -2.998  -0.705   1.361  1.00  0.00     0.011 C 
HETATM   19  C11 UNL     1      -2.288   0.562   0.864  1.00  0.00    -0.003 C 
ENDBRANCH  11  12
ENDBRANCH   1  11
TORSDOF 3
