REMARK  14 active torsions:
REMARK  status: ('A' for Active; 'I' for Inactive)
REMARK    1  A    between atoms: C2_2  and  C15_18 
REMARK    2  A    between atoms: C3_3  and  C4_4 
REMARK    3  A    between atoms: C4_4  and  C5_5 
REMARK    4  A    between atoms: C6_7  and  C7_8 
REMARK    5  A    between atoms: C8_9  and  C9_10 
REMARK    6  A    between atoms: C10_11  and  C11_12 
REMARK    7  A    between atoms: C15_18  and  C16_19 
REMARK    8  A    between atoms: C16_19  and  C17_20 
REMARK    9  A    between atoms: C17_20  and  C18_21 
REMARK   10  A    between atoms: C18_21  and  C20_23 
REMARK   11  A    between atoms: C20_23  and  C21_24 
REMARK   12  A    between atoms: C22_25  and  C23_26 
REMARK   13  A    between atoms: C23_26  and  C24_28 
REMARK   14  A    between atoms: C24_28  and  C25_29 
ROOT
HETATM    1  C1  UNL     1       1.061   1.104  -1.414  1.00  0.00     0.043 C 
HETATM    2  C2  UNL     1       0.325   0.666  -0.200  1.00  0.00    -0.087 C 
HETATM    3  C3  UNL     1       0.717   1.089   0.978  1.00  0.00    -0.022 C 
ENDROOT
BRANCH   2   4
HETATM    4  C15 UNL     1      -0.856  -0.263  -0.390  1.00  0.00     0.033 C 
BRANCH   4   5
HETATM    5  C16 UNL     1      -1.461  -0.589   0.915  1.00  0.00     0.005 C 
BRANCH   5   6
HETATM    6  C17 UNL     1      -2.595  -1.493   1.033  1.00  0.00     0.005 C 
BRANCH   6   7
HETATM    7  C18 UNL     1      -3.898  -1.170   0.341  1.00  0.00    -0.015 C 
HETATM    8  C19 UNL     1      -3.716  -1.125  -1.161  1.00  0.00     0.010 C 
BRANCH   7   9
HETATM    9  C20 UNL     1      -4.457   0.122   0.871  1.00  0.00     0.031 C 
BRANCH   9  10
HETATM   10  C21 UNL     1      -5.732   0.575   0.375  1.00  0.00    -0.023 C 
HETATM   11  C22 UNL     1      -6.542   0.025  -0.463  1.00  0.00     0.046 C 
BRANCH  11  12
HETATM   12  C23 UNL     1      -7.830   0.629  -0.873  1.00  0.00     0.159 C 
HETATM   13  O4  UNL     1      -8.202   1.753  -0.388  1.00  0.00    -0.293 OA
BRANCH  12  14
HETATM   14  C24 UNL     1      -8.740  -0.012  -1.840  1.00  0.00     0.196 C 
BRANCH  14  15
HETATM   15  C25 UNL     1     -10.086  -0.127  -1.236  1.00  0.00     0.180 C 
HETATM   16  O5  UNL     1     -10.279   0.280  -0.067  1.00  0.00    -0.648 OA
HETATM   17  O6  UNL     1     -11.128  -0.678  -1.950  1.00  0.00    -0.648 OA
ENDBRANCH  14  15
ENDBRANCH  12  14
ENDBRANCH  11  12
ENDBRANCH   9  10
ENDBRANCH   7   9
ENDBRANCH   6   7
ENDBRANCH   5   6
ENDBRANCH   4   5
ENDBRANCH   2   4
BRANCH   3  18
HETATM   18  C4  UNL     1       1.891   2.003   1.109  1.00  0.00     0.059 C 
BRANCH  18  19
HETATM   19  C5  UNL     1       2.913   1.274   1.971  1.00  0.00     0.129 C 
HETATM   20  O1  UNL     1       3.299   0.077   1.389  1.00  0.00    -0.376 OA
HETATM   21  C6  UNL     1       4.476   0.341   0.699  1.00  0.00     0.145 C 
HETATM   22  C12 UNL     1       5.206   1.399   1.445  1.00  0.00     0.042 C 
HETATM   23  C13 UNL     1       4.132   2.108   2.222  1.00  0.00     0.013 C 
HETATM   24  C14 UNL     1       4.001   3.509   1.645  1.00  0.00     0.012 C 
BRANCH  21  25
HETATM   25  C7  UNL     1       5.294  -0.887   0.510  1.00  0.00     0.005 C 
HETATM   26  C8  UNL     1       6.211  -0.961  -0.433  1.00  0.00    -0.001 C 
BRANCH  26  27
HETATM   27  C9  UNL     1       6.994  -2.170  -0.595  1.00  0.00     0.007 C 
HETATM   28  C10 UNL     1       7.918  -2.237  -1.551  1.00  0.00     0.084 C 
BRANCH  28  29
HETATM   29  C11 UNL     1       8.718  -3.456  -1.726  1.00  0.00     0.198 C 
HETATM   30  O2  UNL     1       8.501  -4.435  -0.936  1.00  0.00    -0.645 OA
HETATM   31  O3  UNL     1       9.664  -3.502  -2.724  1.00  0.00    -0.645 OA
ENDBRANCH  28  29
ENDBRANCH  26  27
ENDBRANCH  21  25
ENDBRANCH  18  19
ENDBRANCH   3  18
TORSDOF 14
