REMARK  10 active torsions:
REMARK  status: ('A' for Active; 'I' for Inactive)
REMARK    1  A    between atoms: C2_2  and  C3_3 
REMARK    2  A    between atoms: C2_2  and  C4_6 
REMARK    3  A    between atoms: C4_6  and  N2_9 
REMARK    4  A    between atoms: N2_9  and  C6_11 
REMARK    5  A    between atoms: C6_11  and  C7_12 
REMARK    6  A    between atoms: C6_11  and  C8_15 
REMARK    7  A    between atoms: C8_15  and  C9_16 
REMARK    8  A    between atoms: C8_15  and  C10_21 
REMARK    9  A    between atoms: C9_16  and  N4_17 
REMARK   10  A    between atoms: C10_21  and  C11_22 
ROOT
HETATM    1  C4  UNL     1       2.872   0.690  -1.140  1.00  0.00     0.225 C 
HETATM    2  C5  UNL     1       3.940   0.496  -2.156  1.00  0.00     0.089 C 
HETATM    3  N1  UNL     1       4.785   0.335  -2.935  1.00  0.00    -0.195 NA
ENDROOT
BRANCH   1   4
HETATM    4  C2  UNL     1       3.349   1.813  -0.290  1.00  0.00     0.045 C 
HETATM    5  C1  UNL     1       2.617   2.898  -0.198  1.00  0.00     0.029 C 
BRANCH   4   6
HETATM    6  C3  UNL     1       4.607   1.738   0.446  1.00  0.00     0.207 C 
HETATM    7  O1  UNL     1       4.991   2.687   1.157  1.00  0.00    -0.644 OA
HETATM    8  O2  UNL     1       5.358   0.581   0.329  1.00  0.00    -0.644 OA
ENDBRANCH   4   6
ENDBRANCH   1   4
BRANCH   1   9
HETATM    9  N2  UNL     1       2.648  -0.485  -0.410  1.00  0.00    -0.390 N 
ATOM     10  H2  UNL     1       3.190  -1.326  -0.609  1.00  0.00     0.155 HD
BRANCH   9  11
HETATM   11  C6  UNL     1       1.662  -0.495   0.607  1.00  0.00     0.173 C 
BRANCH  11  12
HETATM   12  C7  UNL     1       1.913  -1.661   1.455  1.00  0.00     0.254 C 
HETATM   13  N3  UNL     1       1.156  -2.016   2.597  1.00  0.00    -0.060 NA
HETATM   14  O3  UNL     1       2.867  -2.432   1.180  1.00  0.00    -0.275 OA
ENDBRANCH  11  12
BRANCH  11  15
HETATM   15  C8  UNL     1       0.234  -0.476   0.031  1.00  0.00     0.042 C 
BRANCH  15  16
HETATM   16  C9  UNL     1      -0.047  -1.658  -0.798  1.00  0.00     0.236 C 
BRANCH  16  17
HETATM   17  N4  UNL     1       0.886  -1.741  -1.939  1.00  0.00    -0.079 N 
ATOM     18  H43 UNL     1       0.880  -0.884  -2.492  1.00  0.00     0.274 HD
ATOM     19  H42 UNL     1       1.858  -1.721  -1.631  1.00  0.00     0.274 HD
ATOM     20  H41 UNL     1       0.691  -2.561  -2.514  1.00  0.00     0.274 HD
ENDBRANCH  16  17
ENDBRANCH  15  16
BRANCH  15  21
HETATM   21  C10 UNL     1      -0.775   0.079   0.937  1.00  0.00     0.013 C 
BRANCH  21  22
HETATM   22  C11 UNL     1      -2.187   0.172   0.548  1.00  0.00    -0.014 C 
HETATM   23  C12 UNL     1      -2.447   1.018  -0.698  1.00  0.00     0.005 C 
HETATM   24  C13 UNL     1      -3.903   0.758  -1.102  1.00  0.00     0.000 C 
HETATM   25  C14 UNL     1      -4.761   0.677   0.150  1.00  0.00     0.000 C 
HETATM   26  C15 UNL     1      -4.499  -0.598   0.921  1.00  0.00     0.000 C 
HETATM   27  C16 UNL     1      -3.048  -1.038   0.623  1.00  0.00     0.005 C 
ENDBRANCH  21  22
ENDBRANCH  15  21
ENDBRANCH  11  15
ENDBRANCH   9  11
ENDBRANCH   1   9
TORSDOF 10
