REMARK  9 active torsions:
REMARK  status: ('A' for Active; 'I' for Inactive)
REMARK    1  A    between atoms: C2_2  and  C3_3 
REMARK    2  A    between atoms: C3_3  and  N1_4 
REMARK    3  A    between atoms: N1_4  and  C4_6 
REMARK    4  A    between atoms: C8_13  and  O2_14 
REMARK    5  A    between atoms: C10_16  and  O3_17 
REMARK    6  A    between atoms: C16_23  and  O4_24 
REMARK    7  A    between atoms: O4_24  and  C17_25 
REMARK    8  A    between atoms: C19_27  and  O5_28 
REMARK    9  A    between atoms: O5_28  and  C20_29 
ROOT
HETATM    1  C4  UNL     1       0.207   1.998  -0.496  1.00  0.00     0.115 C 
HETATM    2  N2  UNL     1      -0.714   2.615   0.267  1.00  0.00    -0.308 N 
ATOM      3  H2  UNL     1      -0.628   3.630   0.323  1.00  0.00     0.170 HD
HETATM    4  C5  UNL     1      -1.747   2.075   0.977  1.00  0.00     0.258 C 
HETATM    5  O1  UNL     1      -2.308   2.754   1.854  1.00  0.00    -0.267 OA
HETATM    6  C6  UNL     1      -2.253   0.805   0.811  1.00  0.00     0.046 A 
HETATM    7  C7  UNL     1      -3.586   0.692   1.097  1.00  0.00     0.057 A 
HETATM    8  C8  UNL     1      -4.259  -0.490   0.931  1.00  0.00     0.102 A 
HETATM    9  C10 UNL     1      -3.569  -1.586   0.463  1.00  0.00     0.102 A 
HETATM   10  C12 UNL     1      -2.219  -1.530   0.158  1.00  0.00     0.053 A 
HETATM   11  C13 UNL     1      -1.585  -0.344   0.338  1.00  0.00    -0.006 A 
HETATM   12  C14 UNL     1      -0.242  -0.418   0.030  1.00  0.00    -0.008 A 
HETATM   13  C15 UNL     1       0.244  -1.682   0.153  1.00  0.00     0.053 A 
HETATM   14  C16 UNL     1       1.568  -1.896  -0.159  1.00  0.00     0.102 A 
HETATM   15  C19 UNL     1       2.394  -0.836  -0.589  1.00  0.00     0.102 A 
HETATM   16  C22 UNL     1       1.869   0.430  -0.700  1.00  0.00     0.055 A 
HETATM   17  C23 UNL     1       0.539   0.656  -0.388  1.00  0.00     0.022 A 
ENDROOT
BRANCH   1  18
HETATM   18  N1  UNL     1       0.840   2.652  -1.364  1.00  0.00    -0.376 N 
ATOM     19  H1  UNL     1       1.520   2.111  -1.898  1.00  0.00     0.161 HD
BRANCH  18  20
HETATM   20  C3  UNL     1       0.759   4.016  -1.716  1.00  0.00     0.121 C 
BRANCH  20  21
HETATM   21  C2  UNL     1       2.024   4.796  -1.355  1.00  0.00     0.015 C 
HETATM   22  C1  UNL     1       2.271   4.725   0.132  1.00  0.00     0.006 C 
ENDBRANCH  20  21
ENDBRANCH  18  20
ENDBRANCH   1  18
BRANCH  15  23
HETATM   23  O5  UNL     1       3.691  -1.131  -0.878  1.00  0.00    -0.349 OA
BRANCH  23  24
HETATM   24  C20 UNL     1       4.651  -0.206  -1.300  1.00  0.00     0.171 C 
HETATM   25  C21 UNL     1       4.927   0.880  -0.309  1.00  0.00     0.034 C 
ENDBRANCH  23  24
ENDBRANCH  15  23
BRANCH  14  26
HETATM   26  O4  UNL     1       2.065  -3.178  -0.037  1.00  0.00    -0.349 OA
BRANCH  26  27
HETATM   27  C17 UNL     1       1.265  -4.245   0.389  1.00  0.00     0.171 C 
HETATM   28  C18 UNL     1       1.990  -5.548   0.453  1.00  0.00     0.034 C 
ENDBRANCH  26  27
ENDBRANCH  14  26
BRANCH   8  29
HETATM   29  O2  UNL     1      -5.597  -0.602   1.219  1.00  0.00    -0.353 OA
HETATM   30  C9  UNL     1      -6.410   0.425   1.697  1.00  0.00     0.210 C 
ENDBRANCH   8  29
BRANCH   9  31
HETATM   31  O3  UNL     1      -4.222  -2.782   0.287  1.00  0.00    -0.353 OA
HETATM   32  C11 UNL     1      -3.518  -3.902  -0.191  1.00  0.00     0.210 C 
ENDBRANCH   9  31
TORSDOF 9
