REMARK  11 active torsions:
REMARK  status: ('A' for Active; 'I' for Inactive)
REMARK    1  A    between atoms: O1_2  and  C2_3 
REMARK    2  A    between atoms: C5_6  and  N1_7 
REMARK    3  A    between atoms: C6_8  and  C7_9 
REMARK    4  A    between atoms: C11_13  and  N2_14 
REMARK    5  A    between atoms: N2_14  and  C12_16 
REMARK    6  A    between atoms: C17_21  and  C18_22 
REMARK    7  A    between atoms: C19_25  and  N4_26 
REMARK    8  A    between atoms: N4_26  and  C20_27 
REMARK    9  A    between atoms: C20_27  and  O3_28 
REMARK   10  A    between atoms: C20_27  and  C21_30 
REMARK   11  A    between atoms: C21_30  and  C22_31 
ROOT
HETATM    1  N1  UNL     1      -0.430  -0.657  -0.127  1.00  0.00    -0.296 N 
HETATM    2  C6  UNL     1       0.541  -1.438  -0.576  1.00  0.00     0.025 A 
HETATM    3  C10 UNL     1       1.848  -1.128  -0.227  1.00  0.00     0.056 A 
HETATM    4  C11 UNL     1       2.220  -0.062   0.557  1.00  0.00     0.050 A 
HETATM    5  C17 UNL     1       1.198   0.758   1.026  1.00  0.00     0.114 A 
HETATM    6  C19 UNL     1      -0.124   0.453   0.677  1.00  0.00     0.206 A 
ENDROOT
BRANCH   6   7
HETATM    7  N4  UNL     1      -1.052   1.157   1.006  1.00  0.00    -0.362 NA
BRANCH   7   8
HETATM    8  C20 UNL     1      -2.050   1.922   1.365  1.00  0.00     0.227 C 
BRANCH   8   9
HETATM    9  O3  UNL     1      -2.703   1.645   2.465  1.00  0.00    -0.337 OA
ATOM     10  H3  UNL     1      -3.428   2.201   2.726  1.00  0.00     0.220 HD
ENDBRANCH   8   9
BRANCH   8  11
HETATM   11  C21 UNL     1      -2.585   3.126   0.692  1.00  0.00     0.171 C 
HETATM   12  C23 UNL     1      -1.656   3.801  -0.254  1.00  0.00     0.075 C 
HETATM   13  C24 UNL     1      -1.598   5.225   0.144  1.00  0.00    -0.007 C 
HETATM   14  C25 UNL     1      -2.290   5.378   1.250  1.00  0.00     0.080 C 
HETATM   15  N5  UNL     1      -2.851   4.174   1.693  1.00  0.00    -0.377 N 
ATOM     16  H5  UNL     1      -3.361   4.044   2.567  1.00  0.00     0.160 HD
BRANCH  11  17
HETATM   17  C22 UNL     1      -3.893   2.926  -0.030  1.00  0.00     0.390 C 
HETATM   18  F1  UNL     1      -3.887   2.039  -1.027  1.00  0.00    -0.211 F 
HETATM   19  F2  UNL     1      -4.919   2.619   0.847  1.00  0.00    -0.211 F 
ENDBRANCH  11  17
ENDBRANCH   8  11
ENDBRANCH   7   8
ENDBRANCH   6   7
BRANCH   1  20
HETATM   20  C5  UNL     1      -1.774  -0.975  -0.409  1.00  0.00    -0.000 C 
HETATM   21  C4  UNL     1      -2.303  -1.186  -1.753  1.00  0.00     0.056 C 
HETATM   22  C3  UNL     1      -3.692  -1.834  -1.510  1.00  0.00     0.038 C 
HETATM   23  C2  UNL     1      -3.520  -2.615  -0.231  1.00  0.00     0.126 C 
HETATM   24  C26 UNL     1      -2.413  -1.984   0.543  1.00  0.00     0.085 C 
BRANCH  23  25
HETATM   25  O1  UNL     1      -4.740  -2.609   0.428  1.00  0.00    -0.390 OA
HETATM   26  C1  UNL     1      -5.302  -3.868   0.536  1.00  0.00     0.202 C 
ENDBRANCH  23  25
ENDBRANCH   1  20
BRANCH   5  27
HETATM   27  C18 UNL     1       1.570   1.906   1.815  1.00  0.00     0.272 C 
HETATM   28  N3  UNL     1       0.658   2.754   2.479  1.00  0.00    -0.057 NA
HETATM   29  O2  UNL     1       2.792   2.207   1.956  1.00  0.00    -0.271 OA
ENDBRANCH   5  27
BRANCH   2  30
HETATM   30  C7  UNL     1       0.347  -2.584  -1.427  1.00  0.00     0.036 A 
HETATM   31  C8  UNL     1       1.429  -3.701  -1.181  1.00  0.00     0.011 A 
HETATM   32  C9  UNL     1       0.002  -3.955  -1.160  1.00  0.00     0.011 A 
ENDBRANCH   2  30
BRANCH   4  33
HETATM   33  N2  UNL     1       3.597   0.050   0.895  1.00  0.00    -0.384 N 
ATOM     34  H2  UNL     1       3.882   0.641   1.676  1.00  0.00     0.160 HD
BRANCH  33  35
HETATM   35  C12 UNL     1       4.620  -0.688   0.117  1.00  0.00     0.081 C 
HETATM   36  C13 UNL     1       4.649  -0.180  -1.273  1.00  0.00     0.025 C 
HETATM   37  C14 UNL     1       6.067   0.246  -1.538  1.00  0.00     0.002 C 
HETATM   38  C15 UNL     1       6.576   0.676  -0.204  1.00  0.00     0.002 C 
HETATM   39  C16 UNL     1       5.986  -0.385   0.705  1.00  0.00     0.025 C 
ENDBRANCH  33  35
ENDBRANCH   4  33
TORSDOF 11
