REMARK  10 active torsions:
REMARK  status: ('A' for Active; 'I' for Inactive)
REMARK    1  A    between atoms: C2_2  and  O1_3 
REMARK    2  A    between atoms: O1_3  and  N1_4 
REMARK    3  A    between atoms: N1_4  and  C3_5 
REMARK    4  A    between atoms: C3_5  and  C4_6 
REMARK    5  A    between atoms: C3_5  and  C5_9 
REMARK    6  A    between atoms: C4_6  and  O2_7 
REMARK    7  A    between atoms: C5_9  and  N2_10 
REMARK    8  A    between atoms: N2_10  and  C6_13 
REMARK    9  A    between atoms: C6_13  and  C7_14 
REMARK   10  A    between atoms: C7_14  and  O3_15 
ROOT
HETATM    1  C3  UNL     1       0.555  -1.026   0.650  1.00  0.00     0.156 C 
ENDROOT
BRANCH   1   2
HETATM    2  N1  UNL     1       1.778  -0.328   0.881  1.00  0.00    -0.087 NA
BRANCH   2   3
HETATM    3  O1  UNL     1       2.188   0.422  -0.197  1.00  0.00    -0.257 OA
BRANCH   3   4
HETATM    4  C2  UNL     1       3.074   1.478  -0.036  1.00  0.00     0.152 C 
HETATM    5  C1  UNL     1       4.280   1.225   0.389  1.00  0.00     0.039 C 
ENDBRANCH   3   4
ENDBRANCH   2   3
ENDBRANCH   1   2
BRANCH   1   6
HETATM    6  C4  UNL     1       0.623  -1.988  -0.502  1.00  0.00     0.189 C 
BRANCH   6   7
HETATM    7  O2  UNL     1       1.588  -2.972  -0.315  1.00  0.00    -0.399 OA
ATOM      8  H2  UNL     1       1.631  -3.580  -1.043  1.00  0.00     0.209 HD
ENDBRANCH   6   7
ENDBRANCH   1   6
BRANCH   1   9
HETATM    9  C5  UNL     1      -0.564  -0.028   0.504  1.00  0.00     0.258 C 
BRANCH   9  10
HETATM   10  N2  UNL     1      -1.837  -0.668   0.265  1.00  0.00    -0.071 N 
ATOM     11  H22 UNL     1      -1.783  -1.282  -0.548  1.00  0.00     0.277 HD
ATOM     12  H21 UNL     1      -2.032  -1.359   0.989  1.00  0.00     0.277 HD
BRANCH  10  13
HETATM   13  C6  UNL     1      -2.940   0.253   0.132  1.00  0.00     0.258 C 
BRANCH  13  14
HETATM   14  C7  UNL     1      -2.836   1.079  -1.134  1.00  0.00     0.191 C 
BRANCH  14  15
HETATM   15  O3  UNL     1      -3.947   1.952  -1.196  1.00  0.00    -0.399 OA
ATOM     16  H3  UNL     1      -3.882   2.470  -1.990  1.00  0.00     0.209 HD
ENDBRANCH  14  15
ENDBRANCH  13  14
ENDBRANCH  10  13
ENDBRANCH   9  10
ENDBRANCH   1   9
TORSDOF 10
