REMARK  9 active torsions:
REMARK  status: ('A' for Active; 'I' for Inactive)
REMARK    1  A    between atoms: C2_2  and  C3_3 
REMARK    2  A    between atoms: C3_3  and  C4_4 
REMARK    3  A    between atoms: C4_4  and  O1_6 
REMARK    4  A    between atoms: C4_4  and  C6_8 
REMARK    5  A    between atoms: C11_13  and  O2_14 
REMARK    6  A    between atoms: C13_17  and  C15_19 
REMARK    7  A    between atoms: C15_19  and  O4_21 
REMARK    8  A    between atoms: C19_25  and  O5_26 
REMARK    9  A    between atoms: O5_26  and  C20_27 
ROOT
HETATM    1  C6  UNL     1       3.525   0.050   0.755  1.00  0.00     0.029 C 
HETATM    2  C7  UNL     1       2.526  -0.776   1.553  1.00  0.00     0.014 C 
HETATM    3  C8  UNL     1       1.751   0.517   1.681  1.00  0.00    -0.001 C 
HETATM    4  C9  UNL     1       0.273   0.450   1.631  1.00  0.00    -0.003 C 
HETATM    5  C10 UNL     1      -0.306   1.805   1.588  1.00  0.00     0.037 C 
HETATM    6  C11 UNL     1      -1.781   1.882   1.320  1.00  0.00     0.124 C 
HETATM    7  C12 UNL     1      -2.161   0.902   0.231  1.00  0.00     0.043 C 
HETATM    8  C13 UNL     1      -3.532   1.046  -0.301  1.00  0.00     0.051 C 
HETATM    9  C14 UNL     1      -3.548   1.229  -1.830  1.00  0.00     0.026 C 
HETATM   10  C17 UNL     1      -4.393  -0.188  -0.075  1.00  0.00     0.022 C 
HETATM   11  C18 UNL     1      -3.720  -1.415  -0.608  1.00  0.00     0.034 C 
HETATM   12  C19 UNL     1      -2.303  -1.583  -0.223  1.00  0.00     0.137 C 
HETATM   13  C23 UNL     1      -1.706  -0.482   0.571  1.00  0.00    -0.006 C 
HETATM   14  C24 UNL     1      -2.001  -0.864   2.032  1.00  0.00     0.019 C 
HETATM   15  C25 UNL     1      -0.179  -0.479   0.522  1.00  0.00     0.001 C 
HETATM   16  C26 UNL     1       0.460  -0.244  -0.768  1.00  0.00     0.007 C 
HETATM   17  C27 UNL     1       1.606   0.718  -0.812  1.00  0.00     0.010 C 
HETATM   18  C28 UNL     1       2.407   0.937   0.378  1.00  0.00    -0.034 C 
HETATM   19  C29 UNL     1       2.887   2.399   0.483  1.00  0.00     0.016 C 
ENDROOT
BRANCH   1  20
HETATM   20  C4  UNL     1       4.355  -0.656  -0.222  1.00  0.00     0.061 C 
HETATM   21  C5  UNL     1       5.308  -1.565   0.583  1.00  0.00     0.046 C 
BRANCH  20  22
HETATM   22  C3  UNL     1       5.274   0.339  -0.907  1.00  0.00     0.064 C 
BRANCH  22  23
HETATM   23  C2  UNL     1       6.242  -0.351  -1.799  1.00  0.00    -0.034 C 
HETATM   24  C1  UNL     1       7.532  -0.217  -1.578  1.00  0.00     0.007 C 
ENDBRANCH  22  23
ENDBRANCH  20  22
BRANCH  20  25
HETATM   25  O1  UNL     1       3.732  -1.478  -1.119  1.00  0.00    -0.390 OA
ATOM     26  H1  UNL     1       3.157  -2.101  -0.690  1.00  0.00     0.210 HD
ENDBRANCH  20  25
ENDBRANCH   1  20
BRANCH   6  27
HETATM   27  O2  UNL     1      -2.001   3.165   0.748  1.00  0.00    -0.395 OA
ATOM     28  H2  UNL     1      -2.934   3.214   0.578  1.00  0.00     0.210 HD
ENDBRANCH   6  27
BRANCH  12  29
HETATM   29  O5  UNL     1      -1.574  -1.947  -1.399  1.00  0.00    -0.351 OA
BRANCH  29  30
HETATM   30  C20 UNL     1      -1.971  -3.121  -2.023  1.00  0.00     0.033 C 
HETATM   31  C21 UNL     1      -2.088  -3.226  -3.337  1.00  0.00     0.045 C 
HETATM   32  C22 UNL     1      -2.280  -4.313  -1.206  1.00  0.00     0.075 C 
ENDBRANCH  29  30
ENDBRANCH  12  29
BRANCH   8  33
HETATM   33  C15 UNL     1      -4.324   2.175   0.243  1.00  0.00     0.267 C 
HETATM   34  O3  UNL     1      -4.717   3.155  -0.476  1.00  0.00    -0.264 OA
BRANCH  33  35
HETATM   35  O4  UNL     1      -4.703   2.261   1.574  1.00  0.00    -0.326 OA
HETATM   36  C16 UNL     1      -5.463   3.352   2.079  1.00  0.00     0.213 C 
ENDBRANCH  33  35
ENDBRANCH   8  33
TORSDOF 9
