REMARK  6 active torsions:
REMARK  status: ('A' for Active; 'I' for Inactive)
REMARK    1  A    between atoms: C2_2  and  C3_3 
REMARK    2  A    between atoms: C3_3  and  C4_4 
REMARK    3  A    between atoms: C7_7  and  N1_8 
REMARK    4  A    between atoms: C14_21  and  C15_22 
REMARK    5  A    between atoms: C15_22  and  N5_23 
REMARK       I    between atoms: N5_23  and  C16_24 
REMARK    6  A    between atoms: C19_29  and  C20_30 
ROOT
HETATM    1  N1  UNL     1      -0.000  -1.431   0.189  1.00  0.00    -0.366 N 
ATOM      2  H1  UNL     1       0.842  -1.985   0.032  1.00  0.00     0.161 HD
HETATM    3  C8  UNL     1       0.148  -0.258   0.666  1.00  0.00     0.118 A 
HETATM    4  N2  UNL     1      -0.840   0.603   0.928  1.00  0.00    -0.319 N 
ATOM      5  H2  UNL     1      -1.787   0.310   0.689  1.00  0.00     0.169 HD
HETATM    6  C9  UNL     1      -0.697   1.817   1.476  1.00  0.00     0.191 A 
HETATM    7  C10 UNL     1      -1.794   2.707   1.746  1.00  0.00     0.137 C 
HETATM    8  N3  UNL     1      -2.666   3.439   1.945  1.00  0.00    -0.188 NA
HETATM    9  N4  UNL     1       0.548   2.218   1.795  1.00  0.00    -0.319 N 
ATOM     10  H4  UNL     1       0.693   3.137   2.213  1.00  0.00     0.169 HD
HETATM   11  C11 UNL     1       1.618   1.401   1.562  1.00  0.00     0.123 A 
HETATM   12  C12 UNL     1       1.434   0.157   0.995  1.00  0.00     0.054 A 
HETATM   13  C13 UNL     1       2.694  -0.416   0.914  1.00  0.00     0.051 A 
HETATM   14  C14 UNL     1       3.627   0.458   1.421  1.00  0.00     0.065 A 
HETATM   15  N6  UNL     1       2.930   1.540   1.798  1.00  0.00    -0.335 N 
HETATM   16  C18 UNL     1       3.495   2.722   2.400  1.00  0.00     0.158 C 
ENDROOT
BRANCH   1  17
HETATM   17  C7  UNL     1      -1.281  -2.043  -0.150  1.00  0.00     0.128 C 
HETATM   18  C6  UNL     1      -2.188  -2.091   1.042  1.00  0.00     0.033 C 
HETATM   19  C5  UNL     1      -3.578  -1.603   0.759  1.00  0.00     0.027 C 
HETATM   20  C4  UNL     1      -3.952  -2.013  -0.631  1.00  0.00     0.081 C 
HETATM   21  N7  UNL     1      -3.087  -1.418  -1.560  1.00  0.00    -0.390 N 
HETATM   22  C19 UNL     1      -1.828  -1.422  -1.356  1.00  0.00     0.005 C 
ATOM     23  H7  UNL     1      -3.465  -0.981  -2.401  1.00  0.00     0.159 HD
BRANCH  20  24
HETATM   24  C3  UNL     1      -5.424  -1.870  -0.913  1.00  0.00     0.024 C 
BRANCH  24  25
HETATM   25  C2  UNL     1      -5.953  -0.485  -0.762  1.00  0.00    -0.002 C 
HETATM   26  C1  UNL     1      -5.323   0.542  -1.657  1.00  0.00     0.005 C 
ENDBRANCH  24  25
ENDBRANCH  20  24
BRANCH  22  27
HETATM   27  C20 UNL     1      -0.943  -0.821  -2.386  1.00  0.00     0.050 C 
HETATM   28  C21 UNL     1      -1.726  -0.242  -3.547  1.00  0.00     0.011 C 
ENDBRANCH  22  27
ENDBRANCH   1  17
BRANCH  14  29
HETATM   29  C15 UNL     1       5.059   0.183   1.558  1.00  0.00     0.216 C 
BRANCH  29  30
HETATM   30  N5  UNL     1       5.999   0.676   0.719  1.00  0.00    -0.382 NA
HETATM   31  C16 UNL     1       6.944   1.173  -0.126  1.00  0.00     0.287 C 
HETATM   32  C17 UNL     1       7.918   0.219  -0.844  1.00  0.00     0.135 C 
HETATM   33  O1  UNL     1       7.131   2.401  -0.408  1.00  0.00    -0.258 OA
ENDBRANCH  29  30
ENDBRANCH  14  29
TORSDOF 6
