REMARK  7 active torsions:
REMARK  status: ('A' for Active; 'I' for Inactive)
REMARK    1  A    between atoms: C5_7  and  N2_8 
REMARK    2  A    between atoms: N2_8  and  C6_10 
REMARK    3  A    between atoms: C6_10  and  C7_11 
REMARK    4  A    between atoms: C7_11  and  C8_12 
REMARK    5  A    between atoms: C8_12  and  N3_13 
REMARK    6  A    between atoms: N6_24  and  C14_25 
REMARK    7  A    between atoms: C14_25  and  C15_26 
ROOT
HETATM    1  C1  UNL     1      -1.698  -4.405   0.520  1.00  0.00     0.089 C 
HETATM    2  C2  UNL     1      -1.250  -3.018   0.126  1.00  0.00     0.080 A 
HETATM    3  N1  UNL     1      -2.138  -2.186  -0.438  1.00  0.00    -0.330 N 
ATOM      4  H1  UNL     1      -3.098  -2.492  -0.595  1.00  0.00     0.168 HD
HETATM    5  C3  UNL     1      -1.756  -0.947  -0.795  1.00  0.00     0.136 A 
HETATM    6  C4  UNL     1      -0.436  -0.527  -0.578  1.00  0.00     0.118 A 
HETATM    7  C5  UNL     1       0.480  -1.379   0.002  1.00  0.00     0.137 A 
HETATM    8  N4  UNL     1       0.007  -2.626   0.336  1.00  0.00    -0.330 N 
ATOM      9  H4  UNL     1       0.653  -3.287   0.768  1.00  0.00     0.168 HD
HETATM   10  N5  UNL     1      -0.336   0.820  -1.068  1.00  0.00    -0.368 N 
ATOM     11  H5  UNL     1       0.317   1.543  -0.766  1.00  0.00     0.161 HD
HETATM   12  C13 UNL     1      -1.371   0.931  -2.092  1.00  0.00     0.248 C 
HETATM   13  N6  UNL     1      -2.426   0.158  -1.408  1.00  0.00    -0.349 N 
ENDROOT
BRANCH   7  14
HETATM   14  N2  UNL     1       1.652  -1.103   0.235  1.00  0.00    -0.354 N 
ATOM     15  H2  UNL     1       2.084  -1.922   0.662  1.00  0.00     0.166 HD
BRANCH  14  16
HETATM   16  C6  UNL     1       2.612  -0.123   0.147  1.00  0.00     0.064 C 
BRANCH  16  17
HETATM   17  C7  UNL     1       3.530  -0.205  -1.061  1.00  0.00     0.074 C 
BRANCH  17  18
HETATM   18  C8  UNL     1       4.523   0.930  -1.035  1.00  0.00     0.277 C 
BRANCH  18  19
HETATM   19  N3  UNL     1       5.359   0.947   0.122  1.00  0.00     0.090 N 
HETATM   20  C9  UNL     1       6.228   2.111   0.059  1.00  0.00     0.282 C 
HETATM   21  C10 UNL     1       6.697   2.555   1.426  1.00  0.00     0.104 C 
HETATM   22  S1  UNL     1       7.643   1.164   2.117  1.00  0.00    -0.166 SA
HETATM   23  C11 UNL     1       6.717  -0.346   1.704  1.00  0.00     0.104 C 
HETATM   24  C12 UNL     1       6.081  -0.264   0.339  1.00  0.00     0.282 C 
ENDBRANCH  18  19
ENDBRANCH  17  18
ENDBRANCH  16  17
ENDBRANCH  14  16
ENDBRANCH   7  14
BRANCH  13  25
HETATM   25  C14 UNL     1      -3.814   0.477  -1.406  1.00  0.00     0.130 C 
BRANCH  25  26
HETATM   26  C15 UNL     1      -4.697  -0.365  -0.559  1.00  0.00     0.004 C 
HETATM   27  C16 UNL     1      -4.392  -0.350   0.908  1.00  0.00     0.006 C 
HETATM   28  C17 UNL     1      -5.411   0.442   1.720  1.00  0.00     0.000 C 
HETATM   29  C18 UNL     1      -5.738   1.725   1.034  1.00  0.00     0.000 C 
HETATM   30  C19 UNL     1      -6.309   1.461  -0.324  1.00  0.00     0.000 C 
HETATM   31  C20 UNL     1      -6.132   0.057  -0.793  1.00  0.00     0.006 C 
ENDBRANCH  25  26
ENDBRANCH  13  25
TORSDOF 7
