REMARK  1 active torsions:
REMARK  status: ('A' for Active; 'I' for Inactive)
REMARK    1  A    between atoms: N1_1  and  C1_5 
ROOT
HETATM    1  C1  UNL     1       1.219  -0.908   0.840  1.00  0.00     0.128 C 
HETATM    2  C2  UNL     1       1.959   0.367   0.538  1.00  0.00     0.039 C 
HETATM    3  C3  UNL     1       0.939   1.463   0.415  1.00  0.00     0.007 C 
HETATM    4  C4  UNL     1      -0.403   0.762   0.285  1.00  0.00    -0.007 A 
HETATM    5  C5  UNL     1      -0.528   0.095  -1.074  1.00  0.00     0.010 A 
HETATM    6  C6  UNL     1      -0.448  -1.245  -0.403  1.00  0.00    -0.005 A 
HETATM    7  C7  UNL     1       0.947  -1.789  -0.374  1.00  0.00     0.044 C 
HETATM    8  C8  UNL     1      -0.233  -0.590   0.892  1.00  0.00     0.029 A 
ENDROOT
BRANCH   1   9
HETATM    9  N1  UNL     1       1.718  -1.641   1.948  1.00  0.00    -0.070 N 
ATOM     10  H13 UNL     1       2.713  -1.831   1.826  1.00  0.00     0.275 HD
ATOM     11  H12 UNL     1       1.751  -1.048   2.777  1.00  0.00     0.275 HD
ATOM     12  H11 UNL     1       1.216  -2.505   2.153  1.00  0.00     0.275 HD
ENDBRANCH   1   9
TORSDOF 1
