REMARK  17 active torsions:
REMARK  status: ('A' for Active; 'I' for Inactive)
REMARK    1  A    between atoms: C2_2  and  S1_4 
REMARK    2  A    between atoms: S1_4  and  C4_5 
REMARK    3  A    between atoms: C4_5  and  C5_6 
REMARK    4  A    between atoms: C5_6  and  C6_7 
REMARK    5  A    between atoms: C5_6  and  N4_17 
REMARK    6  A    between atoms: C5_6  and  C24_35 
REMARK    7  A    between atoms: C6_7  and  C7_8 
REMARK    8  A    between atoms: C7_8  and  C8_9 
REMARK    9  A    between atoms: C8_9  and  C9_10 
REMARK   10  A    between atoms: C9_10  and  C10_11 
REMARK   11  A    between atoms: C10_11  and  N1_12 
REMARK       I    between atoms: N4_17  and  C12_19 
REMARK       I    between atoms: C12_19  and  N5_21 
REMARK   12  A    between atoms: N5_21  and  C13_23 
REMARK       I    between atoms: C24_35  and  N6_37 
REMARK   13  A    between atoms: N6_37  and  C25_39 
REMARK   14  A    between atoms: C25_39  and  C26_40 
REMARK   15  A    between atoms: C26_40  and  O4_41 
REMARK   16  A    between atoms: C26_40  and  C27_43 
REMARK   17  A    between atoms: C27_43  and  N7_44 
ROOT
HETATM    1  C5  UNL     1       0.118  -0.063  -1.021  1.00  0.00     0.123 C 
ENDROOT
BRANCH   1   2
HETATM    2  C4  UNL     1      -0.534  -0.312  -2.356  1.00  0.00     0.115 C 
BRANCH   2   3
HETATM    3  S1  UNL     1      -2.244  -0.327  -2.544  1.00  0.00    -0.162 SA
BRANCH   3   4
HETATM    4  C2  UNL     1      -3.304   1.028  -2.312  1.00  0.00     0.039 C 
HETATM    5  C1  UNL     1      -3.487   1.418  -0.869  1.00  0.00     0.021 C 
HETATM    6  C3  UNL     1      -4.724   0.770  -2.871  1.00  0.00     0.021 C 
ENDBRANCH   3   4
ENDBRANCH   2   3
ENDBRANCH   1   2
BRANCH   1   7
HETATM    7  C6  UNL     1       1.574  -0.152  -1.125  1.00  0.00     0.042 C 
BRANCH   7   8
HETATM    8  C7  UNL     1       2.402  -1.284  -1.466  1.00  0.00     0.003 C 
BRANCH   8   9
HETATM    9  C8  UNL     1       2.545  -2.438  -0.521  1.00  0.00     0.002 C 
BRANCH   9  10
HETATM   10  C9  UNL     1       3.122  -1.988   0.806  1.00  0.00     0.020 C 
BRANCH  10  11
HETATM   11  C10 UNL     1       3.281  -3.136   1.736  1.00  0.00     0.122 C 
BRANCH  11  12
HETATM   12  N1  UNL     1       2.048  -3.803   2.096  1.00  0.00    -0.367 N 
HETATM   13  C11 UNL     1       1.713  -3.957   3.344  1.00  0.00     0.196 C 
HETATM   14  N2  UNL     1       0.503  -4.613   3.655  1.00  0.00    -0.067 NA
HETATM   15  N3  UNL     1       2.544  -3.474   4.388  1.00  0.00    -0.067 NA
ATOM     16  H1  UNL     1       1.434  -4.157   1.362  1.00  0.00     0.161 HD
ENDBRANCH  11  12
ENDBRANCH  10  11
ENDBRANCH   9  10
ENDBRANCH   8   9
ENDBRANCH   7   8
ENDBRANCH   1   7
BRANCH   1  17
HETATM   17  N4  UNL     1      -0.124   1.295  -0.597  1.00  0.00    -0.324 N 
HETATM   18  C12 UNL     1       0.148   2.495  -1.290  1.00  0.00     0.317 C 
HETATM   19  O1  UNL     1       0.592   2.611  -2.455  1.00  0.00    -0.247 OA
HETATM   20  N5  UNL     1      -0.087   3.768  -0.637  1.00  0.00    -0.338 N 
ATOM     21  H5  UNL     1      -0.401   3.742   0.333  1.00  0.00     0.164 HD
ATOM     22  H4  UNL     1      -0.547   1.402   0.325  1.00  0.00     0.165 HD
BRANCH  20  23
HETATM   23  C13 UNL     1       0.080   5.044  -1.226  1.00  0.00     0.096 C 
HETATM   24  C14 UNL     1       1.539   5.442  -1.465  1.00  0.00     0.010 C 
HETATM   25  C15 UNL     1       2.314   5.694  -0.221  1.00  0.00     0.007 C 
HETATM   26  C23 UNL     1       1.473   6.600  -2.429  1.00  0.00     0.020 C 
HETATM   27  C16 UNL     1       1.630   6.493   0.833  1.00  0.00     0.001 C 
HETATM   28  C17 UNL     1       0.175   6.126   0.984  1.00  0.00     0.009 C 
HETATM   29  C18 UNL     1      -0.510   6.125  -0.399  1.00  0.00     0.039 C 
HETATM   30  C19 UNL     1      -0.340   7.504  -0.926  1.00  0.00     0.137 C 
HETATM   31  O2  UNL     1      -1.474   7.920  -1.645  1.00  0.00    -0.384 OA
HETATM   32  C21 UNL     1       0.574   7.689  -2.077  1.00  0.00     0.004 C 
HETATM   33  C20 UNL     1      -0.732   7.784  -2.824  1.00  0.00     0.179 C 
HETATM   34  C22 UNL     1       1.290   9.043  -2.143  1.00  0.00     0.020 C 
ENDBRANCH  20  23
ENDBRANCH   1  17
BRANCH   1  35
HETATM   35  C24 UNL     1      -0.611  -0.892  -0.025  1.00  0.00     0.246 C 
HETATM   36  O3  UNL     1      -0.963  -0.472   1.108  1.00  0.00    -0.271 OA
HETATM   37  N6  UNL     1      -0.956  -2.200  -0.329  1.00  0.00    -0.356 N 
ATOM     38  H6  UNL     1      -0.675  -2.583  -1.232  1.00  0.00     0.162 HD
BRANCH  37  39
HETATM   39  C25 UNL     1      -1.695  -3.040   0.578  1.00  0.00     0.156 C 
BRANCH  39  40
HETATM   40  C26 UNL     1      -1.942  -4.411  -0.039  1.00  0.00     0.164 C 
BRANCH  40  41
HETATM   41  O4  UNL     1      -0.766  -5.058  -0.290  1.00  0.00    -0.392 OA
ATOM     42  H4  UNL     1      -0.920  -5.913  -0.675  1.00  0.00     0.210 HD
ENDBRANCH  40  41
BRANCH  40  43
HETATM   43  C27 UNL     1      -3.027  -5.197   0.560  1.00  0.00     0.305 C 
BRANCH  43  44
HETATM   44  N7  UNL     1      -2.829  -5.805   1.837  1.00  0.00     0.095 N 
HETATM   45  C28 UNL     1      -1.814  -6.870   1.741  1.00  0.00     0.298 C 
HETATM   46  C29 UNL     1      -1.799  -7.686   3.018  1.00  0.00     0.198 C 
HETATM   47  O5  UNL     1      -3.020  -8.194   3.375  1.00  0.00    -0.388 OA
HETATM   48  C30 UNL     1      -4.006  -7.218   3.423  1.00  0.00     0.198 C 
HETATM   49  C31 UNL     1      -4.081  -6.584   2.072  1.00  0.00     0.298 C 
ENDBRANCH  43  44
ENDBRANCH  40  43
ENDBRANCH  39  40
ENDBRANCH  37  39
ENDBRANCH   1  35
TORSDOF 17
