REMARK  20 active torsions:
REMARK  status: ('A' for Active; 'I' for Inactive)
REMARK    1  A    between atoms: C2_2  and  C3_3 
REMARK    2  A    between atoms: C3_3  and  N1_4 
REMARK    3  A    between atoms: N1_4  and  C4_5 
REMARK       I    between atoms: N1_4  and  C8_9 
REMARK    4  A    between atoms: C4_5  and  C5_6 
REMARK    5  A    between atoms: C8_9  and  O2_11 
REMARK    6  A    between atoms: O2_11  and  C9_12 
REMARK    7  A    between atoms: C9_12  and  C10_13 
REMARK    8  A    between atoms: C9_12  and  C18_24 
REMARK    9  A    between atoms: C9_12  and  C29_35 
REMARK   10  A    between atoms: C10_13  and  N2_14 
REMARK   11  A    between atoms: N2_14  and  C11_15 
REMARK       I    between atoms: N2_14  and  C14_18 
REMARK   12  A    between atoms: C11_15  and  C12_16 
REMARK       I    between atoms: C14_18  and  N3_20 
REMARK   13  A    between atoms: N3_20  and  C15_21 
REMARK   14  A    between atoms: C15_21  and  C16_22 
REMARK   15  A    between atoms: C18_24  and  C19_25 
REMARK   16  A    between atoms: C29_35  and  O4_36 
REMARK   17  A    between atoms: C29_35  and  C30_38 
REMARK   18  A    between atoms: C30_38  and  N4_39 
REMARK       I    between atoms: N4_39  and  C31_41 
REMARK   19  A    between atoms: C31_41  and  O6_43 
REMARK   20  A    between atoms: O6_43  and  C32_44 
ROOT
HETATM    1  C9  UNL     1      -0.063  -0.148   0.134  1.00  0.00     0.132 C 
ENDROOT
BRANCH   1   2
HETATM    2  O2  UNL     1      -0.439   1.195  -0.348  1.00  0.00    -0.284 OA
BRANCH   2   3
HETATM    3  C8  UNL     1      -0.322   1.804  -1.483  1.00  0.00     0.364 C 
HETATM    4  N1  UNL     1      -0.725   3.117  -1.840  1.00  0.00    -0.324 N 
HETATM    5  O1  UNL     1       0.234   1.097  -2.401  1.00  0.00    -0.238 OA
BRANCH   4   6
HETATM    6  C3  UNL     1      -1.236   4.059  -0.911  1.00  0.00     0.154 C 
BRANCH   6   7
HETATM    7  C2  UNL     1      -0.120   4.887  -0.321  1.00  0.00    -0.017 C 
HETATM    8  C1  UNL     1      -0.110   6.186  -0.465  1.00  0.00     0.008 C 
ENDBRANCH   6   7
ENDBRANCH   4   6
BRANCH   4   9
HETATM    9  C4  UNL     1      -0.657   3.526  -3.251  1.00  0.00     0.132 C 
BRANCH   9  10
HETATM   10  C5  UNL     1      -1.912   3.263  -3.998  1.00  0.00    -0.005 C 
HETATM   11  C6  UNL     1      -2.317   1.800  -4.007  1.00  0.00     0.011 C 
HETATM   12  C7  UNL     1      -3.098   4.086  -3.681  1.00  0.00     0.011 C 
ENDBRANCH   9  10
ENDBRANCH   4   9
ENDBRANCH   2   3
ENDBRANCH   1   2
BRANCH   1  13
HETATM   13  C10 UNL     1      -0.776  -1.063  -0.713  1.00  0.00     0.111 C 
BRANCH  13  14
HETATM   14  N2  UNL     1      -0.941  -2.409  -0.901  1.00  0.00    -0.299 N 
HETATM   15  C14 UNL     1      -0.112  -3.044  -1.943  1.00  0.00     0.399 C 
HETATM   16  O3  UNL     1       0.628  -2.252  -2.558  1.00  0.00    -0.230 OA
HETATM   17  N3  UNL     1      -0.159  -4.390  -2.210  1.00  0.00    -0.369 NA
BRANCH  14  18
HETATM   18  C11 UNL     1      -1.770  -3.388  -0.258  1.00  0.00     0.133 C 
BRANCH  18  19
HETATM   19  C12 UNL     1      -3.070  -3.702  -0.938  1.00  0.00     0.016 C 
HETATM   20  C13 UNL     1      -4.020  -2.584  -1.145  1.00  0.00     0.006 C 
ENDBRANCH  18  19
ENDBRANCH  14  18
BRANCH  17  21
HETATM   21  C15 UNL     1      -0.190  -5.723  -2.490  1.00  0.00     0.160 C 
BRANCH  21  22
HETATM   22  C16 UNL     1       1.081  -6.516  -2.230  1.00  0.00     0.055 C 
HETATM   23  C17 UNL     1       2.280  -6.018  -2.944  1.00  0.00     0.011 C 
ENDBRANCH  21  22
ENDBRANCH  17  21
ENDBRANCH  13  14
ENDBRANCH   1  13
BRANCH   1  24
HETATM   24  C18 UNL     1       1.414  -0.033   0.116  1.00  0.00     0.056 C 
BRANCH  24  25
HETATM   25  C19 UNL     1       2.500  -0.853   0.581  1.00  0.00    -0.036 C 
HETATM   26  C20 UNL     1       3.714   0.048   0.095  1.00  0.00     0.014 C 
HETATM   27  C21 UNL     1       5.020  -0.488   0.397  1.00  0.00    -0.013 C 
HETATM   28  C22 UNL     1       5.250  -0.343   1.910  1.00  0.00     0.009 C 
HETATM   29  C26 UNL     1       5.275  -1.915   0.047  1.00  0.00     0.009 C 
HETATM   30  C23 UNL     1       4.127  -1.126   2.507  1.00  0.00    -0.013 C 
HETATM   31  C24 UNL     1       4.196  -2.616   2.166  1.00  0.00     0.009 C 
HETATM   32  C28 UNL     1       2.761  -0.679   2.095  1.00  0.00     0.014 C 
HETATM   33  C25 UNL     1       4.151  -2.717   0.682  1.00  0.00    -0.013 C 
HETATM   34  C27 UNL     1       2.870  -2.163   0.089  1.00  0.00     0.014 C 
ENDBRANCH  24  25
ENDBRANCH   1  24
BRANCH   1  35
HETATM   35  C29 UNL     1      -0.614   0.056   1.530  1.00  0.00     0.176 C 
BRANCH  35  36
HETATM   36  O4  UNL     1      -0.690  -0.942   2.387  1.00  0.00    -0.391 OA
ATOM     37  H4  UNL     1      -1.036  -0.814   3.263  1.00  0.00     0.210 HD
ENDBRANCH  35  36
BRANCH  35  38
HETATM   38  C30 UNL     1      -1.705   1.061   1.727  1.00  0.00     0.160 C 
BRANCH  38  39
HETATM   39  N4  UNL     1      -1.648   1.600   3.080  1.00  0.00    -0.334 N 
HETATM   40  C31 UNL     1      -2.489   2.780   3.309  1.00  0.00     0.361 C 
HETATM   41  O5  UNL     1      -3.202   3.228   2.414  1.00  0.00    -0.238 OA
ATOM     42  H4  UNL     1      -1.068   1.188   3.811  1.00  0.00     0.164 HD
BRANCH  40  43
HETATM   43  O6  UNL     1      -2.445   3.365   4.551  1.00  0.00    -0.294 OA
BRANCH  43  44
HETATM   44  C32 UNL     1      -3.139   4.497   4.940  1.00  0.00     0.061 C 
HETATM   45  C33 UNL     1      -2.704   5.668   4.076  1.00  0.00     0.046 C 
HETATM   46  C34 UNL     1      -2.767   4.898   6.370  1.00  0.00     0.046 C 
HETATM   47  C35 UNL     1      -4.658   4.320   4.893  1.00  0.00     0.046 C 
ENDBRANCH  43  44
ENDBRANCH  40  43
ENDBRANCH  38  39
ENDBRANCH  35  38
ENDBRANCH   1  35
TORSDOF 20
