REMARK  4 active torsions:
REMARK  status: ('A' for Active; 'I' for Inactive)
REMARK    1  A    between atoms: C9_11  and  S1_12 
REMARK    2  A    between atoms: S1_12  and  S2_13 
REMARK    3  A    between atoms: S2_13  and  C10_14 
REMARK    4  A    between atoms: N2_16  and  O3_18 
ROOT
HETATM    1  C1  UNL     1      -0.612   4.564   1.784  1.00  0.00     0.052 C 
HETATM    2  C2  UNL     1      -1.403   3.489   2.361  1.00  0.00     0.114 A 
HETATM    3  O1  UNL     1      -1.702   3.574   3.708  1.00  0.00    -0.342 OA
HETATM    4  C3  UNL     1      -0.577   2.662   3.571  1.00  0.00     0.296 A 
HETATM    5  O2  UNL     1      -0.994   1.326   3.346  1.00  0.00    -0.352 OA
HETATM    6  C4  UNL     1      -0.451   0.304   2.604  1.00  0.00     0.139 C 
HETATM    7  C5  UNL     1       0.731   0.798   1.782  1.00  0.00     0.034 C 
HETATM    8  C6  UNL     1       0.057   1.969   1.102  1.00  0.00     0.010 C 
HETATM    9  C7  UNL     1      -1.353   2.062   1.816  1.00  0.00     0.026 C 
HETATM   10  C8  UNL     1      -2.284   1.220   1.645  1.00  0.00     0.026 C 
HETATM   11  C9  UNL     1      -1.447  -0.031   1.284  1.00  0.00     0.088 C 
ENDROOT
BRANCH  11  12
HETATM   12  S1  UNL     1      -0.767  -0.041  -0.225  1.00  0.00    -0.082 SA
BRANCH  12  13
HETATM   13  S2  UNL     1      -1.170  -1.767  -1.356  1.00  0.00    -0.022 SA
BRANCH  13  14
HETATM   14  C10 UNL     1       0.121  -2.955  -1.080  1.00  0.00     0.184 C 
HETATM   15  N1  UNL     1       0.100  -4.229  -1.727  1.00  0.00    -0.072 NA
HETATM   16  N2  UNL     1       1.064  -2.644  -0.311  1.00  0.00    -0.249 N 
ATOM     17  H2  UNL     1       1.033  -1.717   0.113  1.00  0.00     0.196 HD
BRANCH  16  18
HETATM   18  O3  UNL     1       2.102  -3.422  -0.001  1.00  0.00    -0.288 OA
ATOM     19  H3  UNL     1       2.815  -3.187   0.581  1.00  0.00     0.244 HD
ENDBRANCH  16  18
ENDBRANCH  13  14
ENDBRANCH  12  13
ENDBRANCH  11  12
TORSDOF 4
