REMARK  5 active torsions:
REMARK  status: ('A' for Active; 'I' for Inactive)
REMARK    1  A    between atoms: C1_2  and  C2_4 
REMARK    2  A    between atoms: C2_4  and  C3_5 
REMARK    3  A    between atoms: C3_5  and  C4_6 
REMARK    4  A    between atoms: C8_10  and  N1_11 
REMARK       I    between atoms: N1_11  and  C9_13 
REMARK    5  A    between atoms: C9_13  and  C10_15 
ROOT
HETATM    1  C4  UNL     1      -2.415  -0.619   2.499  1.00  0.00    -0.035 C 
HETATM    2  C5  UNL     1      -2.188  -1.798   1.556  1.00  0.00     0.015 C 
HETATM    3  C6  UNL     1      -1.748  -0.846   0.499  1.00  0.00    -0.007 C 
HETATM    4  C7  UNL     1      -0.480  -1.192  -0.203  1.00  0.00     0.030 C 
HETATM    5  C8  UNL     1       0.738  -0.547   0.336  1.00  0.00     0.085 C 
HETATM    6  C15 UNL     1       0.685  -0.466   1.830  1.00  0.00     0.030 C 
HETATM    7  C16 UNL     1      -0.496   0.247   2.361  1.00  0.00    -0.007 C 
HETATM    8  C17 UNL     1      -1.320  -0.411   3.446  1.00  0.00     0.015 C 
HETATM    9  C18 UNL     1      -1.693   0.235   1.500  1.00  0.00     0.002 C 
ENDROOT
BRANCH   5  10
HETATM   10  N1  UNL     1       0.962   0.700  -0.319  1.00  0.00    -0.356 N 
HETATM   11  C9  UNL     1       2.085   1.023  -1.123  1.00  0.00     0.222 C 
HETATM   12  O3  UNL     1       2.942   0.114  -1.258  1.00  0.00    -0.273 OA
ATOM     13  H1  UNL     1       0.252   1.423  -0.199  1.00  0.00     0.162 HD
BRANCH  11  14
HETATM   14  C10 UNL     1       2.309   2.297  -1.785  1.00  0.00     0.081 C 
HETATM   15  C11 UNL     1       2.405   3.482  -0.871  1.00  0.00     0.041 C 
HETATM   16  C12 UNL     1       1.115   4.129  -0.505  1.00  0.00     0.233 C 
HETATM   17  N2  UNL     1       0.162   4.255  -1.574  1.00  0.00    -0.075 N 
HETATM   18  C13 UNL     1       0.863   4.056  -2.816  1.00  0.00     0.233 C 
ATOM     19  H22 UNL     1      -0.637   3.631  -1.467  1.00  0.00     0.277 HD
ATOM     20  H21 UNL     1      -0.350   5.137  -1.546  1.00  0.00     0.277 HD
HETATM   21  C14 UNL     1       1.269   2.593  -2.851  1.00  0.00     0.041 C 
ENDBRANCH  11  14
ENDBRANCH   5  10
BRANCH   1  22
HETATM   22  C3  UNL     1      -3.821  -0.368   2.759  1.00  0.00     0.020 C 
BRANCH  22  23
HETATM   23  C2  UNL     1      -4.342   0.649   3.650  1.00  0.00     0.114 C 
BRANCH  23  24
HETATM   24  C1  UNL     1      -4.106   0.500   5.098  1.00  0.00     0.172 C 
HETATM   25  O1  UNL     1      -3.730  -0.464   5.576  1.00  0.00    -0.648 OA
HETATM   26  O2  UNL     1      -4.361   1.615   5.922  1.00  0.00    -0.648 OA
ENDBRANCH  23  24
ENDBRANCH  22  23
ENDBRANCH   1  22
TORSDOF 5
