REMARK  6 active torsions:
REMARK  status: ('A' for Active; 'I' for Inactive)
REMARK       I    between atoms: C3_5  and  N2_6 
REMARK       I    between atoms: C3_5  and  N3_11 
REMARK    1  A    between atoms: N2_6  and  C4_8 
REMARK    2  A    between atoms: C4_8  and  C5_9 
REMARK    3  A    between atoms: N3_11  and  C7_13 
REMARK    4  A    between atoms: C7_13  and  C8_14 
REMARK       I    between atoms: C8_14  and  N4_16 
REMARK    5  A    between atoms: N4_16  and  C9_18 
REMARK    6  A    between atoms: C18_28  and  O2_30 
ROOT
HETATM    1  C1  UNL     1      -1.531  -4.194   3.062  1.00  0.00     0.037 C 
HETATM    2  C2  UNL     1      -1.501  -2.991   3.030  1.00  0.00     0.015 C 
HETATM    3  N1  UNL     1      -1.462  -1.601   3.009  1.00  0.00    -0.150 N 
ATOM      4  H1  UNL     1      -1.008  -1.131   3.792  1.00  0.00     0.195 HD
HETATM    5  C3  UNL     1      -1.953  -0.864   2.080  1.00  0.00     0.681 C 
HETATM    6  N2  UNL     1      -2.588  -1.490   0.980  1.00  0.00    -0.226 N 
ATOM      7  H2  UNL     1      -2.482  -2.492   0.821  1.00  0.00     0.177 HD
HETATM    8  N3  UNL     1      -1.844   0.543   2.201  1.00  0.00    -0.217 N 
ATOM      9  H3  UNL     1      -2.592   1.093   1.779  1.00  0.00     0.178 HD
ENDROOT
BRANCH   6  10
HETATM   10  C4  UNL     1      -3.383  -0.691   0.094  1.00  0.00     0.137 C 
BRANCH  10  11
HETATM   11  C5  UNL     1      -4.001  -1.469  -1.018  1.00  0.00     0.016 C 
HETATM   12  C6  UNL     1      -4.810  -0.484  -1.867  1.00  0.00     0.006 C 
ENDBRANCH  10  11
ENDBRANCH   6  10
BRANCH   8  13
HETATM   13  C7  UNL     1      -0.811   1.273   2.844  1.00  0.00     0.241 C 
BRANCH  13  14
HETATM   14  C8  UNL     1       0.510   1.241   2.196  1.00  0.00     0.240 C 
HETATM   15  O1  UNL     1       1.444   1.880   2.748  1.00  0.00    -0.271 OA
HETATM   16  N4  UNL     1       0.810   0.553   1.006  1.00  0.00    -0.330 N 
ATOM     17  H4  UNL     1       0.056   0.033   0.558  1.00  0.00     0.168 HD
BRANCH  16  18
HETATM   18  C9  UNL     1       2.113   0.530   0.371  1.00  0.00     0.011 C 
HETATM   19  C10 UNL     1       2.181   1.273  -0.899  1.00  0.00     0.063 C 
HETATM   20  C11 UNL     1       2.151   0.582  -2.189  1.00  0.00     0.018 C 
HETATM   21  C12 UNL     1       1.039  -0.344  -2.485  1.00  0.00     0.015 C 
HETATM   22  C16 UNL     1       3.526  -0.035  -2.461  1.00  0.00     0.242 C 
HETATM   23  C13 UNL     1       1.489  -1.749  -2.535  1.00  0.00     0.046 C 
HETATM   24  C14 UNL     1       2.630  -1.850  -3.567  1.00  0.00     0.244 C 
HETATM   25  C17 UNL     1       2.623  -2.140  -1.636  1.00  0.00     0.233 C 
HETATM   26  N5  UNL     1       3.507  -1.443  -2.444  1.00  0.00    -0.062 N 
HETATM   27  C15 UNL     1       4.831  -2.008  -2.507  1.00  0.00     0.273 C 
HETATM   28  C18 UNL     1       2.509  -1.957  -0.219  1.00  0.00     0.103 C 
HETATM   29  C19 UNL     1       1.155  -2.558   0.209  1.00  0.00     0.052 C 
HETATM   30  C20 UNL     1       2.846  -0.747   0.491  1.00  0.00     0.037 C 
BRANCH  28  31
HETATM   31  O2  UNL     1       3.415  -2.912   0.372  1.00  0.00    -0.384 OA
ATOM     32  H2  UNL     1       3.339  -2.791   1.311  1.00  0.00     0.211 HD
ENDBRANCH  28  31
ENDBRANCH  16  18
ENDBRANCH  13  14
ENDBRANCH   8  13
TORSDOF 6
