REMARK  11 active torsions:
REMARK  status: ('A' for Active; 'I' for Inactive)
REMARK    1  A    between atoms: C2_2  and  C3_4 
REMARK    2  A    between atoms: N2_21  and  C17_22 
REMARK    3  A    between atoms: C17_22  and  C18_23 
REMARK    4  A    between atoms: C18_23  and  C19_24 
REMARK    5  A    between atoms: C19_24  and  C20_25 
REMARK    6  A    between atoms: C20_25  and  N3_26 
REMARK       I    between atoms: N3_26  and  C21_28 
REMARK    7  A    between atoms: C21_28  and  C22_30 
REMARK    8  A    between atoms: C22_30  and  N4_31 
REMARK    9  A    between atoms: N4_31  and  C25_34 
REMARK   10  A    between atoms: C25_34  and  C26_35 
REMARK   11  A    between atoms: C26_35  and  O4_36 
ROOT
HETATM    1  C3  UNL     1       1.230  -2.340   1.092  1.00  0.00     0.288 C 
HETATM    2  N1  UNL     1       0.094  -2.284   2.092  1.00  0.00    -0.317 N 
ATOM      3  H1  UNL     1      -0.031  -1.598   2.837  1.00  0.00     0.165 HD
HETATM    4  C4  UNL     1      -0.738  -3.343   1.797  1.00  0.00     0.232 C 
HETATM    5  O2  UNL     1      -1.693  -3.783   2.539  1.00  0.00    -0.273 OA
HETATM    6  C5  UNL     1      -0.629  -4.159   0.501  1.00  0.00     0.082 C 
HETATM    7  C6  UNL     1      -0.110  -5.320   1.063  1.00  0.00     0.056 C 
HETATM    8  C7  UNL     1       1.284  -4.879   1.564  1.00  0.00    -0.076 C 
HETATM    9  C8  UNL     1       2.054  -6.018   2.080  1.00  0.00     0.044 C 
HETATM   10  C9  UNL     1       1.817  -3.649   1.568  1.00  0.00    -0.018 C 
HETATM   11  C10 UNL     1       3.167  -3.577   2.151  1.00  0.00     0.049 C 
HETATM   12  C11 UNL     1      -1.668  -3.484  -0.117  1.00  0.00     0.055 C 
HETATM   13  C12 UNL     1      -2.137  -3.738  -1.492  1.00  0.00    -0.017 C 
HETATM   14  C13 UNL     1      -1.209  -4.090  -2.338  1.00  0.00    -0.085 C 
HETATM   15  C14 UNL     1      -1.521  -4.372  -3.739  1.00  0.00     0.043 C 
HETATM   16  C15 UNL     1       0.136  -4.215  -1.828  1.00  0.00     0.068 C 
HETATM   17  C16 UNL     1       0.454  -3.723  -0.468  1.00  0.00     0.217 C 
HETATM   18  N2  UNL     1       0.494  -2.339  -0.147  1.00  0.00    -0.023 N 
HETATM   19  C27 UNL     1      -0.942  -2.082  -0.081  1.00  0.00     0.252 C 
ENDROOT
BRANCH  18  20
HETATM   20  C17 UNL     1       1.021  -1.512  -1.204  1.00  0.00     0.242 C 
BRANCH  20  21
HETATM   21  C18 UNL     1       0.251  -0.402  -1.772  1.00  0.00     0.030 C 
BRANCH  21  22
HETATM   22  C19 UNL     1      -0.202   0.782  -1.065  1.00  0.00     0.021 C 
BRANCH  22  23
HETATM   23  C20 UNL     1       0.759   1.757  -0.508  1.00  0.00     0.122 C 
BRANCH  23  24
HETATM   24  N3  UNL     1       0.031   2.821   0.158  1.00  0.00    -0.360 N 
HETATM   25  C21 UNL     1      -0.874   3.720  -0.452  1.00  0.00     0.243 C 
HETATM   26  O3  UNL     1      -1.145   3.687  -1.701  1.00  0.00    -0.272 OA
ATOM     27  H3  UNL     1       0.187   2.931   1.160  1.00  0.00     0.162 HD
BRANCH  25  28
HETATM   28  C22 UNL     1      -1.528   4.739   0.405  1.00  0.00     0.338 C 
BRANCH  28  29
HETATM   29  N4  UNL     1      -2.427   5.613  -0.266  1.00  0.00    -0.065 N 
HETATM   30  C23 UNL     1      -3.555   4.927  -0.872  1.00  0.00     0.272 C 
HETATM   31  C24 UNL     1      -3.017   6.444   0.803  1.00  0.00     0.272 C 
BRANCH  29  32
HETATM   32  C25 UNL     1      -1.812   6.538  -1.181  1.00  0.00     0.263 C 
BRANCH  32  33
HETATM   33  C26 UNL     1      -2.883   7.546  -1.616  1.00  0.00     0.192 C 
BRANCH  33  34
HETATM   34  O4  UNL     1      -2.315   8.471  -2.517  1.00  0.00    -0.399 OA
ATOM     35  H4  UNL     1      -2.978   9.095  -2.786  1.00  0.00     0.209 HD
ENDBRANCH  33  34
ENDBRANCH  32  33
ENDBRANCH  29  32
ENDBRANCH  28  29
ENDBRANCH  25  28
ENDBRANCH  23  24
ENDBRANCH  22  23
ENDBRANCH  21  22
ENDBRANCH  20  21
ENDBRANCH  18  20
BRANCH   1  36
HETATM   36  C2  UNL     1       2.169  -1.290   1.398  1.00  0.00     0.184 C 
HETATM   37  C1  UNL     1       3.512  -0.961   0.883  1.00  0.00     0.096 C 
HETATM   38  O1  UNL     1       1.796  -0.476   2.287  1.00  0.00    -0.293 OA
ENDBRANCH   1  36
TORSDOF 11
