REMARK  11 active torsions:
REMARK  status: ('A' for Active; 'I' for Inactive)
REMARK       I    between atoms: N1_4  and  C4_6 
REMARK    1  A    between atoms: C4_6  and  C5_8 
REMARK    2  A    between atoms: C7_10  and  C8_11 
REMARK    3  A    between atoms: C8_11  and  C9_12 
REMARK    4  A    between atoms: C9_12  and  C10_13 
REMARK    5  A    between atoms: C10_13  and  C11_14 
REMARK    6  A    between atoms: N2_17  and  C14_18 
REMARK    7  A    between atoms: C14_18  and  O2_19 
REMARK    8  A    between atoms: C14_18  and  C15_21 
REMARK       I    between atoms: C15_21  and  N3_23 
REMARK    9  A    between atoms: C16_25  and  N4_27 
REMARK   10  A    between atoms: N4_27  and  C18_29 
REMARK   11  A    between atoms: C26_37  and  C27_38 
ROOT
HETATM    1  C5  UNL     1      -2.062   2.424  -0.637  1.00  0.00     0.179 C 
HETATM    2  C6  UNL     1      -1.403   1.782  -1.800  1.00  0.00     0.060 C 
HETATM    3  C7  UNL     1      -1.343   0.281  -1.646  1.00  0.00     0.095 C 
HETATM    4  N2  UNL     1      -0.386   0.106  -0.523  1.00  0.00    -0.314 N 
HETATM    5  C25 UNL     1      -0.891  -0.144   0.808  1.00  0.00     0.110 C 
HETATM    6  C26 UNL     1      -0.724  -1.351   1.531  1.00  0.00     0.106 C 
HETATM    7  C28 UNL     1      -0.981   1.208   1.423  1.00  0.00     0.269 C 
HETATM    8  O5  UNL     1      -0.677   1.402   2.561  1.00  0.00    -0.266 OA
HETATM    9  N6  UNL     1      -1.438   2.327   0.660  1.00  0.00    -0.342 N 
ATOM     10  H6  UNL     1      -1.296   3.227   1.119  1.00  0.00     0.163 HD
ENDROOT
BRANCH   4  11
HETATM   11  C14 UNL     1       0.928   0.288  -0.889  1.00  0.00     0.213 C 
BRANCH  11  12
HETATM   12  O2  UNL     1       1.162   0.356  -2.174  1.00  0.00    -0.342 OA
ATOM     13  H2  UNL     1       2.069   0.482  -2.427  1.00  0.00     0.219 HD
ENDBRANCH  11  12
BRANCH  11  14
HETATM   14  C15 UNL     1       2.167   0.441  -0.179  1.00  0.00     0.298 C 
HETATM   15  O3  UNL     1       2.240   0.586   1.039  1.00  0.00    -0.263 OA
HETATM   16  N3  UNL     1       3.386   0.427  -0.883  1.00  0.00    -0.310 N 
HETATM   17  C16 UNL     1       4.576   0.422  -0.462  1.00  0.00     0.076 C 
ATOM     18  H3  UNL     1       3.292   0.420  -1.899  1.00  0.00     0.170 HD
HETATM   19  C17 UNL     1       5.669   0.406  -1.451  1.00  0.00     0.089 C 
BRANCH  17  20
HETATM   20  N4  UNL     1       4.871   0.423   0.911  1.00  0.00    -0.374 N 
ATOM     21  H4  UNL     1       4.523  -0.392   1.416  1.00  0.00     0.161 HD
BRANCH  20  22
HETATM   22  C18 UNL     1       5.557   1.344   1.708  1.00  0.00     0.092 C 
HETATM   23  C19 UNL     1       5.009   2.736   1.912  1.00  0.00     0.013 C 
HETATM   24  C20 UNL     1       5.941   3.164   3.067  1.00  0.00     0.012 C 
HETATM   25  C23 UNL     1       5.807   3.173   0.762  1.00  0.00    -0.002 C 
HETATM   26  C21 UNL     1       7.214   3.004   2.217  1.00  0.00    -0.007 C 
HETATM   27  C22 UNL     1       6.902   4.119   1.206  1.00  0.00     0.010 C 
HETATM   28  C24 UNL     1       6.754   2.060   1.170  1.00  0.00     0.017 C 
ENDBRANCH  20  22
ENDBRANCH  17  20
ENDBRANCH  11  14
ENDBRANCH   4  11
BRANCH   3  29
HETATM   29  C8  UNL     1      -1.167  -0.514  -2.850  1.00  0.00     0.026 C 
BRANCH  29  30
HETATM   30  C9  UNL     1      -1.106  -2.029  -2.639  1.00  0.00     0.002 C 
BRANCH  30  31
HETATM   31  C10 UNL     1      -2.378  -2.554  -2.034  1.00  0.00     0.004 C 
BRANCH  31  32
HETATM   32  C11 UNL     1      -2.293  -4.032  -1.861  1.00  0.00    -0.023 C 
HETATM   33  C12 UNL     1      -3.590  -4.533  -1.245  1.00  0.00     0.009 C 
HETATM   34  C13 UNL     1      -1.150  -4.532  -1.057  1.00  0.00     0.009 C 
ENDBRANCH  31  32
ENDBRANCH  30  31
ENDBRANCH  29  30
ENDBRANCH   3  29
BRANCH   6  35
HETATM   35  C27 UNL     1       0.485  -2.016   1.959  1.00  0.00     0.257 C 
HETATM   36  N5  UNL     1       1.113  -1.957   3.229  1.00  0.00    -0.058 NA
HETATM   37  O4  UNL     1       1.109  -2.752   1.161  1.00  0.00    -0.272 OA
ENDBRANCH   6  35
BRANCH   1  38
HETATM   38  C4  UNL     1      -3.543   2.153  -0.586  1.00  0.00     0.244 C 
HETATM   39  N1  UNL     1      -4.249   1.876   0.596  1.00  0.00    -0.333 N 
HETATM   40  C2  UNL     1      -5.180   1.028   0.762  1.00  0.00    -0.018 C 
ATOM     41  H1  UNL     1      -3.983   2.419   1.417  1.00  0.00     0.168 HD
HETATM   42  C1  UNL     1      -5.776   0.927   2.140  1.00  0.00     0.062 C 
HETATM   43  C3  UNL     1      -5.734   0.132  -0.265  1.00  0.00     0.062 C 
HETATM   44  O1  UNL     1      -4.147   2.185  -1.675  1.00  0.00    -0.271 OA
ENDBRANCH   1  38
TORSDOF 11
