REMARK  4 active torsions:
REMARK  status: ('A' for Active; 'I' for Inactive)
REMARK    1  A    between atoms: O1_2  and  C2_3 
REMARK    2  A    between atoms: C2_3  and  C3_4 
REMARK       I    between atoms: C3_4  and  N1_6 
REMARK    3  A    between atoms: C17_23  and  C18_24 
REMARK    4  A    between atoms: C18_24  and  C19_25 
ROOT
HETATM    1  C2  UNL     1      -0.512   0.876   0.781  1.00  0.00     0.143 C 
HETATM    2  C6  UNL     1       0.094   2.191   0.787  1.00  0.00     0.081 C 
HETATM    3  C7  UNL     1       1.209   2.150  -0.128  1.00  0.00     0.060 A 
HETATM    4  C8  UNL     1       1.912   1.210  -1.009  1.00  0.00     0.034 A 
HETATM    5  C9  UNL     1       1.731   0.866  -0.981  1.00  0.00     0.027 A 
HETATM    6  C10 UNL     1       2.699   1.996  -1.373  1.00  0.00     0.075 A 
HETATM    7  C11 UNL     1       2.690   3.294  -0.920  1.00  0.00     0.234 A 
HETATM    8  O3  UNL     1       3.489   4.183  -1.260  1.00  0.00    -0.272 OA
HETATM    9  N2  UNL     1       1.703   3.426  -0.086  1.00  0.00    -0.344 N 
HETATM   10  C12 UNL     1       1.312   4.554   0.604  1.00  0.00     0.153 C 
HETATM   11  C13 UNL     1       3.612   1.423  -2.322  1.00  0.00    -0.017 A 
HETATM   12  C14 UNL     1       2.809   0.485  -2.005  1.00  0.00     0.023 A 
HETATM   13  C15 UNL     1       2.808  -0.885  -2.597  1.00  0.00     0.004 C 
HETATM   14  C16 UNL     1       1.639  -1.517  -2.778  1.00  0.00    -0.006 C 
HETATM   15 BR1  UNL     1       1.782  -3.217  -3.525  1.00  0.00    -0.055 Br
HETATM   16  C17 UNL     1       0.394  -0.809  -2.396  1.00  0.00     0.054 C 
HETATM   17  C24 UNL     1       0.586  -0.049  -1.109  1.00  0.00     0.015 C 
HETATM   18  C25 UNL     1      -0.658   0.633  -0.726  1.00  0.00     0.054 C 
ENDROOT
BRANCH  16  19
HETATM   19  C18 UNL     1      -0.823  -1.542  -2.539  1.00  0.00    -0.004 C 
BRANCH  19  20
HETATM   20  C19 UNL     1      -1.110  -2.810  -1.899  1.00  0.00    -0.024 A 
HETATM   21  C20 UNL     1      -1.268  -2.995  -0.549  1.00  0.00     0.014 A 
HETATM   22  C21 UNL     1      -1.613  -4.224   0.037  1.00  0.00     0.018 A 
HETATM   23  C22 UNL     1      -1.793  -5.272  -0.814  1.00  0.00     0.087 A 
HETATM   24  N3  UNL     1      -1.638  -5.090  -2.156  1.00  0.00    -0.374 N 
HETATM   25  C23 UNL     1      -1.311  -3.933  -2.731  1.00  0.00     0.098 A 
ATOM     26  H3  UNL     1      -1.783  -5.897  -2.763  1.00  0.00     0.164 HD
ENDBRANCH  19  20
ENDBRANCH  16  19
BRANCH   1  27
HETATM   27  O1  UNL     1       0.480   0.006   1.316  1.00  0.00    -0.375 OA
HETATM   28  C1  UNL     1       0.901   0.286   2.562  1.00  0.00     0.203 C 
ENDBRANCH   1  27
BRANCH   1  29
HETATM   29  C3  UNL     1      -1.748   0.662   1.526  1.00  0.00     0.254 C 
HETATM   30  O2  UNL     1      -1.778  -0.247   2.411  1.00  0.00    -0.270 OA
HETATM   31  N1  UNL     1      -2.969   1.354   1.385  1.00  0.00    -0.358 N 
HETATM   32  C4  UNL     1      -3.101   2.447   0.485  1.00  0.00     0.152 C 
HETATM   33  C5  UNL     1      -4.141   0.960   2.136  1.00  0.00     0.152 C 
ENDBRANCH   1  29
TORSDOF 4
