REMARK  12 active torsions:
REMARK  status: ('A' for Active; 'I' for Inactive)
REMARK    1  A    between atoms: C5_5  and  C6_6 
REMARK    2  A    between atoms: C6_6  and  N1_7 
REMARK       I    between atoms: N1_7  and  C7_9 
REMARK    3  A    between atoms: C7_9  and  C8_11 
REMARK    4  A    between atoms: C8_11  and  N2_12 
REMARK       I    between atoms: N2_12  and  C9_14 
REMARK    5  A    between atoms: C9_14  and  C10_16 
REMARK    6  A    between atoms: C10_16  and  N3_17 
REMARK    7  A    between atoms: N3_17  and  N4_18 
REMARK    8  A    between atoms: N4_18  and  C13_21 
REMARK    9  A    between atoms: C13_21  and  C14_22 
REMARK   10  A    between atoms: C14_22  and  N5_23 
REMARK   11  A    between atoms: N5_23  and  N6_24 
REMARK   12  A    between atoms: C17_29  and  O3_30 
ROOT
HETATM    1  N1  UNL     1       0.524  -1.636  -1.684  1.00  0.00    -0.359 N 
ATOM      2  H1  UNL     1       0.034  -1.061  -0.998  1.00  0.00     0.162 HD
HETATM    3  C7  UNL     1       0.071  -2.942  -1.897  1.00  0.00     0.235 C 
HETATM    4  O1  UNL     1       0.707  -3.635  -2.763  1.00  0.00    -0.272 OA
ENDROOT
BRANCH   1   5
HETATM    5  C6  UNL     1       1.654  -1.054  -2.386  1.00  0.00     0.127 C 
BRANCH   5   6
HETATM    6  C5  UNL     1       1.899   0.381  -1.935  1.00  0.00     0.005 C 
HETATM    7  C4  UNL     1       3.063   0.934  -2.679  1.00  0.00     0.015 C 
HETATM    8  C2  UNL     1       3.730   2.119  -2.006  1.00  0.00    -0.042 C 
HETATM    9  C1  UNL     1       5.003   2.368  -2.824  1.00  0.00     0.015 C 
HETATM   10  C3  UNL     1       2.894   3.325  -2.157  1.00  0.00     0.015 C 
HETATM   11  C22 UNL     1       4.141   1.703  -0.671  1.00  0.00     0.012 C 
HETATM   12  C16 UNL     1       3.034   1.126   0.194  1.00  0.00    -0.001 C 
HETATM   13  C21 UNL     1       4.355   2.597   0.455  1.00  0.00     0.030 C 
HETATM   14  C15 UNL     1       1.937   0.482  -0.455  1.00  0.00     0.019 C 
HETATM   15  C17 UNL     1       3.882   0.434   1.236  1.00  0.00     0.157 C 
HETATM   16  C20 UNL     1       2.881   2.489   0.823  1.00  0.00     0.028 C 
HETATM   17  C18 UNL     1       4.825   1.615   1.543  1.00  0.00     0.155 C 
HETATM   18  O4  UNL     1       4.321   2.221   2.660  1.00  0.00    -0.382 OA
HETATM   19  C19 UNL     1       2.986   2.449   2.352  1.00  0.00     0.174 C 
BRANCH  15  20
HETATM   20  O3  UNL     1       4.676  -0.550   0.658  1.00  0.00    -0.392 OA
ATOM     21  H3  UNL     1       5.209  -0.985   1.313  1.00  0.00     0.210 HD
ENDBRANCH  15  20
ENDBRANCH   5   6
ENDBRANCH   1   5
BRANCH   3  22
HETATM   22  C8  UNL     1      -1.054  -3.616  -1.243  1.00  0.00     0.225 C 
BRANCH  22  23
HETATM   23  N2  UNL     1      -1.768  -2.855  -0.276  1.00  0.00    -0.351 N 
HETATM   24  C9  UNL     1      -2.867  -3.432   0.400  1.00  0.00     0.234 C 
HETATM   25  O2  UNL     1      -3.222  -4.609   0.161  1.00  0.00    -0.272 OA
ATOM     26  H2  UNL     1      -1.488  -1.896  -0.071  1.00  0.00     0.163 HD
BRANCH  24  27
HETATM   27  C10 UNL     1      -3.631  -2.667   1.410  1.00  0.00     0.245 C 
BRANCH  27  28
HETATM   28  N3  UNL     1      -3.073  -1.356   1.527  1.00  0.00    -0.038 NA
BRANCH  28  29
HETATM   29  N4  UNL     1      -3.720  -0.576   2.498  1.00  0.00     0.009 N 
HETATM   30  C11 UNL     1      -3.385  -0.974   3.833  1.00  0.00     0.297 C 
HETATM   31  C12 UNL     1      -5.143  -0.676   2.311  1.00  0.00     0.297 C 
BRANCH  29  32
HETATM   32  C13 UNL     1      -3.223   0.787   2.307  1.00  0.00     0.321 C 
BRANCH  32  33
HETATM   33  C14 UNL     1      -3.983   1.493   1.260  1.00  0.00     0.210 C 
BRANCH  33  34
HETATM   34  N5  UNL     1      -3.391   2.159   0.406  1.00  0.00    -0.348 NA
BRANCH  34  35
HETATM   35  N6  UNL     1      -2.711   2.662  -0.515  1.00  0.00    -0.281 N 
ATOM     36  H62 UNL     1      -2.365   1.723  -0.710  1.00  0.00     0.191 HD
ATOM     37  H61 UNL     1      -2.222   3.212  -1.221  1.00  0.00     0.191 HD
ENDBRANCH  34  35
ENDBRANCH  33  34
ENDBRANCH  32  33
ENDBRANCH  29  32
ENDBRANCH  28  29
ENDBRANCH  27  28
ENDBRANCH  24  27
ENDBRANCH  22  23
ENDBRANCH   3  22
TORSDOF 12
