REMARK  9 active torsions:
REMARK  status: ('A' for Active; 'I' for Inactive)
REMARK    1  A    between atoms: C2_2  and  C3_3 
REMARK    2  A    between atoms: C2_2  and  C28_35 
REMARK    3  A    between atoms: C4_4  and  C5_5 
REMARK    4  A    between atoms: C5_5  and  N1_6 
REMARK    5  A    between atoms: C13_15  and  N3_16 
REMARK    6  A    between atoms: N3_16  and  C14_18 
REMARK    7  A    between atoms: C14_18  and  N4_19 
REMARK    8  A    between atoms: C25_30  and  O1_31 
REMARK    9  A    between atoms: C28_35  and  O2_36 
ROOT
HETATM    1  N1  UNL     1       0.111  -1.257  -1.241  1.00  0.00    -0.027 N 
HETATM    2  C6  UNL     1      -0.409  -2.612  -1.493  1.00  0.00     0.281 C 
HETATM    3  C7  UNL     1      -0.402  -0.504  -2.322  1.00  0.00     0.211 C 
HETATM    4  C8  UNL     1       0.558   0.559  -2.859  1.00  0.00     0.047 C 
HETATM    5  C9  UNL     1       0.745   1.738  -2.078  1.00  0.00     0.051 C 
HETATM    6  C10 UNL     1      -0.246   2.703  -1.570  1.00  0.00     0.066 C 
HETATM    7  N2  UNL     1      -1.078   2.120  -0.704  1.00  0.00    -0.380 N 
HETATM    8  C11 UNL     1      -2.042   3.100  -0.186  1.00  0.00     0.150 C 
HETATM    9  C12 UNL     1      -0.738   0.839  -0.684  1.00  0.00     0.115 C 
HETATM   10  C13 UNL     1       0.748   1.241  -0.686  1.00  0.00     0.126 C 
HETATM   11  C19 UNL     1      -0.614  -0.521  -0.180  1.00  0.00     0.143 C 
HETATM   12  C20 UNL     1      -1.656  -1.253   0.516  1.00  0.00     0.019 C 
HETATM   13  C21 UNL     1      -2.981  -1.735   0.221  1.00  0.00    -0.018 A 
HETATM   14  C22 UNL     1      -3.979  -1.444   1.415  1.00  0.00     0.020 C 
HETATM   15  C23 UNL     1      -3.613  -2.603  -0.699  1.00  0.00     0.021 A 
HETATM   16  C24 UNL     1      -3.584  -1.243  -1.150  1.00  0.00     0.028 A 
HETATM   17  C25 UNL     1      -2.830  -0.057  -1.352  1.00  0.00     0.136 C 
HETATM   18  C26 UNL     1      -1.530   0.343  -1.843  1.00  0.00     0.045 C 
HETATM   19  C27 UNL     1      -1.829   1.097  -3.079  1.00  0.00     0.023 C 
ENDROOT
BRANCH   1  20
HETATM   20  C5  UNL     1       1.442  -1.591  -1.078  1.00  0.00     0.337 C 
BRANCH  20  21
HETATM   21  C4  UNL     1       1.626  -2.371   0.167  1.00  0.00    -0.078 C 
HETATM   22  C3  UNL     1       1.806  -3.015   1.201  1.00  0.00    -0.098 C 
BRANCH  22  23
HETATM   23  C2  UNL     1       1.995  -3.770   2.431  1.00  0.00     0.084 C 
HETATM   24  C1  UNL     1       3.468  -3.840   2.711  1.00  0.00     0.025 C 
BRANCH  23  25
HETATM   25  C28 UNL     1       1.325  -3.113   3.618  1.00  0.00     0.180 C 
BRANCH  25  26
HETATM   26  O2  UNL     1       1.589  -3.901   4.728  1.00  0.00    -0.400 OA
ATOM     27  H2  UNL     1       1.168  -3.489   5.473  1.00  0.00     0.209 HD
ENDBRANCH  25  26
ENDBRANCH  23  25
ENDBRANCH  22  23
ENDBRANCH  20  21
ENDBRANCH   1  20
BRANCH  17  28
HETATM   28  O1  UNL     1      -3.180   0.545  -0.110  1.00  0.00    -0.394 OA
ATOM     29  H1  UNL     1      -2.676   1.339  -0.245  1.00  0.00     0.210 HD
ENDBRANCH  17  28
BRANCH  10  30
HETATM   30  N3  UNL     1       0.911   2.424   0.231  1.00  0.00    -0.371 N 
ATOM     31  H3  UNL     1       0.175   2.709   0.878  1.00  0.00     0.160 HD
BRANCH  30  32
HETATM   32  C14 UNL     1       2.111   3.103   0.149  1.00  0.00     0.300 C 
BRANCH  32  33
HETATM   33  N4  UNL     1       3.328   2.457   0.574  1.00  0.00     0.003 N 
HETATM   34  C15 UNL     1       4.154   1.992  -0.561  1.00  0.00     0.292 C 
HETATM   35  C16 UNL     1       4.160   3.252   1.388  1.00  0.00     0.216 A 
HETATM   36  C17 UNL     1       4.138   2.376   2.341  1.00  0.00     0.052 A 
HETATM   37  C18 UNL     1       3.276   1.487   1.572  1.00  0.00     0.216 A 
ENDBRANCH  32  33
ENDBRANCH  30  32
ENDBRANCH  10  30
TORSDOF 9
