REMARK  1 active torsions:
REMARK  status: ('A' for Active; 'I' for Inactive)
REMARK    1  A    between atoms: N2_21  and  S1_23 
ROOT
HETATM    1  C1  UNL     1      -0.522   1.711  -0.488  1.00  0.00     0.052 C 
HETATM    2  C2  UNL     1      -0.769   0.286  -0.821  1.00  0.00     0.108 C 
HETATM    3  F1  UNL     1      -2.207   0.448  -0.818  1.00  0.00    -0.243 F 
HETATM    4  C3  UNL     1      -0.469  -0.173  -2.222  1.00  0.00     0.073 C 
HETATM    5  C4  UNL     1       0.322  -1.447  -2.444  1.00  0.00     0.085 C 
HETATM    6 CL1  UNL     1       1.046  -1.522  -4.001  1.00  0.00    -0.115 Cl
HETATM    7  C5  UNL     1      -0.384  -2.791  -2.036  1.00  0.00     0.065 C 
HETATM    8 CL2  UNL     1      -0.549  -3.976  -3.227  1.00  0.00    -0.117 Cl
HETATM    9  C6  UNL     1      -1.398  -2.257  -1.205  1.00  0.00     0.040 C 
HETATM   10  C7  UNL     1      -0.068  -1.842  -0.527  1.00  0.00     0.000 C 
HETATM   11  C8  UNL     1      -0.494  -0.750   0.218  1.00  0.00     0.059 C 
HETATM   12  C9  UNL     1       0.530  -0.590   1.277  1.00  0.00     0.061 C 
HETATM   13  C10 UNL     1       0.083   0.221   2.415  1.00  0.00     0.070 C 
HETATM   14  N1  UNL     1      -0.264   0.844   3.323  1.00  0.00    -0.196 NA
HETATM   15  C11 UNL     1       0.744  -2.024   1.804  1.00  0.00     0.025 C 
HETATM   16  C12 UNL     1      -0.386  -2.954   1.735  1.00  0.00     0.002 C 
HETATM   17  C13 UNL     1      -0.441  -3.851   0.472  1.00  0.00     0.007 C 
HETATM   18  C14 UNL     1       0.149  -3.192  -0.648  1.00  0.00     0.022 C 
HETATM   19  C15 UNL     1       1.843  -0.083   0.705  1.00  0.00     0.080 C 
HETATM   20  C16 UNL     1       1.976  -0.426  -0.747  1.00  0.00     0.021 C 
HETATM   21  N2  UNL     1       2.809   0.178  -1.492  1.00  0.00    -0.291 N 
ATOM     22  H2  UNL     1       2.824  -0.126  -2.465  1.00  0.00     0.178 HD
HETATM   23  C18 UNL     1       1.164  -1.456  -1.274  1.00  0.00     0.089 C 
HETATM   24 BR1  UNL     1       2.541  -2.649  -1.862  1.00  0.00    -0.076 Br
ENDROOT
BRANCH  21  25
HETATM   25  S1  UNL     1       3.883   1.399  -1.108  1.00  0.00     0.226 S 
HETATM   26  C17 UNL     1       3.262   3.010  -1.518  1.00  0.00     0.186 C 
HETATM   27  O1  UNL     1       5.114   1.207  -1.994  1.00  0.00    -0.206 OA
HETATM   28  O2  UNL     1       4.337   1.310   0.321  1.00  0.00    -0.206 OA
ENDBRANCH  21  25
TORSDOF 1
