REMARK  15 active torsions:
REMARK  status: ('A' for Active; 'I' for Inactive)
REMARK    1  A    between atoms: C4_4  and  O1_5 
REMARK    2  A    between atoms: C4_4  and  C5_7 
REMARK    3  A    between atoms: C6_10  and  C7_11 
REMARK    4  A    between atoms: C8_13  and  O4_14 
REMARK    5  A    between atoms: O4_14  and  C9_15 
REMARK    6  A    between atoms: C9_15  and  C10_17 
REMARK    7  A    between atoms: C10_17  and  C11_18 
REMARK    8  A    between atoms: C11_18  and  C12_19 
REMARK    9  A    between atoms: C12_19  and  C13_20 
REMARK   10  A    between atoms: C13_20  and  C14_21 
REMARK   11  A    between atoms: C14_21  and  C15_22 
REMARK   12  A    between atoms: C15_22  and  C16_23 
REMARK   13  A    between atoms: C16_23  and  C17_24 
REMARK   14  A    between atoms: N2_25  and  N3_27 
REMARK   15  A    between atoms: C27_39  and  O8_40 
ROOT
HETATM    1  C1  UNL     1      -1.565   0.085  -4.412  1.00  0.00     0.016 C 
HETATM    2  C2  UNL     1      -0.478  -0.192  -3.332  1.00  0.00    -0.034 C 
HETATM    3  C3  UNL     1      -1.192  -0.748  -2.193  1.00  0.00     0.058 C 
HETATM    4  C4  UNL     1      -1.159  -0.263  -0.776  1.00  0.00     0.148 C 
HETATM    5  C6  UNL     1      -0.239  -1.002   0.176  1.00  0.00     0.120 C 
HETATM    6  C8  UNL     1       0.852  -0.306   0.877  1.00  0.00     0.146 C 
HETATM    7  C18 UNL     1       2.290  -0.796   0.474  1.00  0.00     0.039 C 
HETATM    8  C19 UNL     1       2.500  -0.651  -0.941  1.00  0.00     0.004 A 
HETATM    9  C20 UNL     1       3.560   0.081  -1.581  1.00  0.00     0.001 A 
HETATM   10  C21 UNL     1       3.066   0.961  -2.716  1.00  0.00     0.006 C 
HETATM   11  C22 UNL     1       1.593   1.331  -2.625  1.00  0.00     0.006 C 
HETATM   12  C23 UNL     1       0.545   0.813  -3.441  1.00  0.00    -0.005 C 
HETATM   13  C24 UNL     1       1.022   0.045  -4.692  1.00  0.00     0.011 C 
HETATM   14  C25 UNL     1       0.516  -1.174  -3.999  1.00  0.00    -0.003 C 
HETATM   15  C26 UNL     1       1.412  -2.015  -3.276  1.00  0.00     0.038 C 
HETATM   16  C27 UNL     1       2.910  -1.774  -3.176  1.00  0.00     0.127 C 
HETATM   17  C28 UNL     1       3.413  -1.374  -1.794  1.00  0.00    -0.010 A 
HETATM   18  C29 UNL     1       4.400  -2.278  -1.061  1.00  0.00     0.018 C 
ENDROOT
BRANCH   6  19
HETATM   19  O4  UNL     1       0.885  -0.402   2.282  1.00  0.00    -0.312 OA
BRANCH  19  20
HETATM   20  C9  UNL     1       0.936   0.704   3.141  1.00  0.00     0.282 C 
HETATM   21  O5  UNL     1       0.946   1.813   2.534  1.00  0.00    -0.260 OA
BRANCH  20  22
HETATM   22  C10 UNL     1       0.977   0.590   4.583  1.00  0.00     0.078 C 
BRANCH  22  23
HETATM   23  C11 UNL     1      -0.199   0.266   5.382  1.00  0.00    -0.021 C 
BRANCH  23  24
HETATM   24  C12 UNL     1      -1.388   1.125   5.456  1.00  0.00     0.027 C 
BRANCH  24  25
HETATM   25  C13 UNL     1      -2.164   1.388   4.211  1.00  0.00     0.004 C 
BRANCH  25  26
HETATM   26  C14 UNL     1      -3.383   2.226   4.452  1.00  0.00     0.001 C 
BRANCH  26  27
HETATM   27  C15 UNL     1      -4.420   1.659   5.333  1.00  0.00     0.005 C 
BRANCH  27  28
HETATM   28  C16 UNL     1      -5.132   0.440   4.871  1.00  0.00     0.046 C 
BRANCH  28  29
HETATM   29  C17 UNL     1      -4.341  -0.761   4.654  1.00  0.00     0.086 C 
HETATM   30  N2  UNL     1      -4.076  -1.507   5.693  1.00  0.00    -0.256 N 
ATOM     31  H2  UNL     1      -4.420  -1.239   6.615  1.00  0.00     0.192 HD
BRANCH  30  32
HETATM   32  N3  UNL     1      -3.330  -2.658   5.542  1.00  0.00    -0.040 N 
HETATM   33  O6  UNL     1      -3.317  -3.234   4.419  1.00  0.00    -0.516 OA
HETATM   34  O7  UNL     1      -2.620  -3.166   6.576  1.00  0.00    -0.516 OA
ENDBRANCH  30  32
ENDBRANCH  28  29
ENDBRANCH  27  28
ENDBRANCH  26  27
ENDBRANCH  25  26
ENDBRANCH  24  25
ENDBRANCH  23  24
ENDBRANCH  22  23
ENDBRANCH  20  22
ENDBRANCH  19  20
ENDBRANCH   6  19
BRANCH   5  35
HETATM   35  C7  UNL     1      -1.011  -1.665   1.309  1.00  0.00     0.241 C 
HETATM   36  O3  UNL     1      -1.000  -2.839   1.536  1.00  0.00    -0.306 OA
ENDBRANCH   5  35
BRANCH   4  37
HETATM   37  O1  UNL     1      -1.109   1.115  -0.618  1.00  0.00    -0.380 OA
ATOM     38  H1  UNL     1      -1.088   1.423   0.281  1.00  0.00     0.211 HD
ENDBRANCH   4  37
BRANCH   4  39
HETATM   39  C5  UNL     1      -2.536  -0.541  -0.240  1.00  0.00     0.266 C 
HETATM   40  N1  UNL     1      -3.422   0.388   0.324  1.00  0.00    -0.059 NA
HETATM   41  O2  UNL     1      -2.932  -1.723  -0.302  1.00  0.00    -0.273 OA
ENDBRANCH   4  39
BRANCH  16  42
HETATM   42  O8  UNL     1       3.633  -2.989  -3.427  1.00  0.00    -0.395 OA
ATOM     43  H8  UNL     1       4.569  -2.838  -3.365  1.00  0.00     0.210 HD
ENDBRANCH  16  42
TORSDOF 15
