REMARK  2 active torsions:
REMARK  status: ('A' for Active; 'I' for Inactive)
REMARK    1  A    between atoms: C2_2  and  N1_3 
REMARK       I    between atoms: N1_3  and  C3_5 
REMARK    2  A    between atoms: C3_5  and  C4_7 
ROOT
HETATM    1  C4  UNL     1      -0.508  -0.822   0.524  1.00  0.00     0.087 C 
HETATM    2  C5  UNL     1       0.076  -2.173   0.253  1.00  0.00     0.004 C 
HETATM    3  C6  UNL     1       0.693  -2.758   1.529  1.00  0.00     0.011 C 
HETATM    4  C7  UNL     1       1.669  -1.570   1.418  1.00  0.00    -0.004 A 
HETATM    5  C8  UNL     1       1.374  -1.549   0.013  1.00  0.00     0.000 A 
HETATM    6  C9  UNL     1       0.922  -0.394   0.890  1.00  0.00     0.008 A 
ENDROOT
BRANCH   1   7
HETATM    7  C3  UNL     1      -1.138  -0.103  -0.570  1.00  0.00     0.222 C 
HETATM    8  N1  UNL     1      -0.488   0.297  -1.761  1.00  0.00    -0.361 N 
ATOM      9  H1  UNL     1       0.500   0.078  -1.891  1.00  0.00     0.162 HD
HETATM   10  O1  UNL     1      -2.356   0.187  -0.450  1.00  0.00    -0.273 OA
BRANCH   8  11
HETATM   11  C2  UNL     1      -1.193   1.003  -2.786  1.00  0.00     0.118 C 
HETATM   12  C1  UNL     1      -1.757   2.324  -2.282  1.00  0.00     0.026 C 
ENDBRANCH   8  11
ENDBRANCH   1   7
TORSDOF 2
