REMARK  15 active torsions:
REMARK  status: ('A' for Active; 'I' for Inactive)
REMARK    1  A    between atoms: C2_2  and  C3_3 
REMARK    2  A    between atoms: C3_3  and  O1_4 
REMARK    3  A    between atoms: C8_10  and  C9_11 
REMARK    4  A    between atoms: C14_17  and  C15_18 
REMARK    5  A    between atoms: C15_18  and  O3_19 
REMARK    6  A    between atoms: O3_19  and  C16_20 
REMARK    7  A    between atoms: C16_20  and  C17_22 
REMARK    8  A    between atoms: C17_22  and  C18_23 
REMARK    9  A    between atoms: C18_23  and  C19_24 
REMARK   10  A    between atoms: C19_24  and  N1_25 
REMARK   11  A    between atoms: C23_29  and  O5_30 
REMARK   12  A    between atoms: C24_32  and  O6_33 
REMARK   13  A    between atoms: O6_33  and  C25_34 
REMARK   14  A    between atoms: C25_34  and  C26_36 
REMARK   15  A    between atoms: C26_36  and  N2_37 
ROOT
HETATM    1  C3  UNL     1      -0.451   0.770  -3.243  1.00  0.00     0.069 C 
HETATM    2  C4  UNL     1      -0.080   1.920  -2.403  1.00  0.00     0.055 C 
HETATM    3  C5  UNL     1      -0.922   2.573  -1.415  1.00  0.00     0.007 C 
HETATM    4  C6  UNL     1      -2.360   2.756  -1.669  1.00  0.00     0.033 C 
HETATM    5  C7  UNL     1      -3.275   1.633  -1.670  1.00  0.00    -0.015 C 
HETATM    6  C8  UNL     1      -2.935   0.230  -1.676  1.00  0.00    -0.015 C 
HETATM    7  C10 UNL     1      -1.738  -0.517  -1.528  1.00  0.00     0.003 C 
HETATM    8  C11 UNL     1      -2.188  -2.009  -1.532  1.00  0.00     0.022 C 
HETATM    9  C12 UNL     1      -0.666  -0.508  -2.597  1.00  0.00     0.035 C 
HETATM   10  C13 UNL     1       0.108  -1.171  -1.546  1.00  0.00     0.022 C 
HETATM   11  C14 UNL     1      -0.668  -0.360  -0.534  1.00  0.00     0.007 C 
HETATM   12  C22 UNL     1       0.156   0.855  -0.333  1.00  0.00     0.032 C 
HETATM   13  C23 UNL     1       0.962   1.315  -1.543  1.00  0.00     0.138 C 
HETATM   14  C24 UNL     1       1.292   0.755   0.645  1.00  0.00     0.148 C 
HETATM   15  C29 UNL     1       1.343   2.141   1.341  1.00  0.00     0.013 C 
HETATM   16  C30 UNL     1       2.710   2.599   1.673  1.00  0.00     0.012 C 
HETATM   17  C31 UNL     1       0.479   3.069   0.631  1.00  0.00     0.017 C 
HETATM   18  C32 UNL     1      -0.574   2.124  -0.006  1.00  0.00    -0.026 C 
HETATM   19  C33 UNL     1      -1.637   2.170   0.971  1.00  0.00     0.016 C 
ENDROOT
BRANCH  11  20
HETATM   20  C15 UNL     1      -1.177  -0.970   0.730  1.00  0.00     0.190 C 
BRANCH  20  21
HETATM   21  O3  UNL     1      -0.405  -0.991   1.869  1.00  0.00    -0.321 OA
BRANCH  21  22
HETATM   22  C16 UNL     1      -0.874  -1.550   3.014  1.00  0.00     0.258 C 
HETATM   23  O4  UNL     1      -2.020  -2.051   3.045  1.00  0.00    -0.265 OA
BRANCH  22  24
HETATM   24  C17 UNL     1      -0.051  -1.597   4.292  1.00  0.00     0.113 C 
BRANCH  24  25
HETATM   25  C18 UNL     1      -0.799  -2.262   5.378  1.00  0.00     0.040 C 
BRANCH  25  26
HETATM   26  C19 UNL     1      -0.020  -2.396   6.635  1.00  0.00     0.271 C 
BRANCH  26  27
HETATM   27  N1  UNL     1       0.399  -1.186   7.228  1.00  0.00     0.080 N 
HETATM   28  C20 UNL     1       1.419  -0.412   6.653  1.00  0.00     0.309 C 
HETATM   29  C21 UNL     1       0.676  -1.432   8.631  1.00  0.00     0.309 C 
ENDBRANCH  26  27
ENDBRANCH  25  26
ENDBRANCH  24  25
ENDBRANCH  22  24
ENDBRANCH  21  22
ENDBRANCH  20  21
ENDBRANCH  11  20
BRANCH   6  30
HETATM   30  C9  UNL     1      -3.824  -0.461  -2.682  1.00  0.00     0.266 C 
HETATM   31  O2  UNL     1      -4.693   0.184  -3.304  1.00  0.00    -0.302 OA
ENDBRANCH   6  30
BRANCH  13  32
HETATM   32  O5  UNL     1       1.923   2.271  -1.294  1.00  0.00    -0.394 OA
ATOM     33  H5  UNL     1       2.592   1.883  -0.742  1.00  0.00     0.210 HD
ENDBRANCH  13  32
BRANCH  14  34
HETATM   34  O6  UNL     1       2.604   0.569   0.044  1.00  0.00    -0.313 OA
BRANCH  34  35
HETATM   35  C25 UNL     1       3.517  -0.350   0.472  1.00  0.00     0.276 C 
HETATM   36  O7  UNL     1       3.113  -1.066   1.469  1.00  0.00    -0.263 OA
BRANCH  35  37
HETATM   37  C26 UNL     1       4.863  -0.615  -0.042  1.00  0.00     0.227 C 
BRANCH  37  38
HETATM   38  N2  UNL     1       5.195   0.160  -1.180  1.00  0.00    -0.412 N 
HETATM   39  C27 UNL     1       4.500  -0.171  -2.384  1.00  0.00     0.143 C 
HETATM   40  C28 UNL     1       6.580   0.479  -1.334  1.00  0.00     0.143 C 
ENDBRANCH  37  38
ENDBRANCH  35  37
ENDBRANCH  34  35
ENDBRANCH  14  34
BRANCH   1  41
HETATM   41  C2  UNL     1       0.648   0.575  -4.274  1.00  0.00     0.034 C 
HETATM   42  C1  UNL     1       0.307  -0.519  -5.258  1.00  0.00     0.008 C 
ENDBRANCH   1  41
BRANCH   1  43
HETATM   43  O1  UNL     1      -1.547   1.103  -4.061  1.00  0.00    -0.389 OA
ATOM     44  H1  UNL     1      -2.234   1.225  -3.416  1.00  0.00     0.210 HD
ENDBRANCH   1  43
TORSDOF 15
