REMARK  10 active torsions:
REMARK  status: ('A' for Active; 'I' for Inactive)
REMARK    1  A    between atoms: C2_2  and  C3_3 
REMARK    2  A    between atoms: C3_3  and  C4_4 
REMARK    3  A    between atoms: C4_4  and  C5_5 
REMARK    4  A    between atoms: C5_5  and  C6_6 
REMARK    5  A    between atoms: C7_7  and  O1_8 
REMARK    6  A    between atoms: C12_14  and  C13_15 
REMARK    7  A    between atoms: N2_19  and  C15_20 
REMARK    8  A    between atoms: C15_20  and  C16_21 
REMARK    9  A    between atoms: C16_21  and  C17_22 
REMARK   10  A    between atoms: C17_22  and  N3_23 
ROOT
HETATM    1  C6  UNL     1      -0.457   0.480   0.554  1.00  0.00     0.253 C 
HETATM    2  C7  UNL     1      -0.992  -0.910   0.756  1.00  0.00     0.162 C 
HETATM    3  C8  UNL     1       0.224  -1.700   1.008  1.00  0.00     0.024 A 
HETATM    4  C9  UNL     1       0.289  -2.614   2.164  1.00  0.00     0.015 A 
HETATM    5  C10 UNL     1       0.917  -3.664   1.255  1.00  0.00     0.007 A 
HETATM    6  C11 UNL     1       0.699  -2.724   0.103  1.00  0.00     0.014 A 
HETATM    7  C12 UNL     1       1.940  -1.931  -0.193  1.00  0.00     0.114 A 
HETATM    8  C14 UNL     1       1.414  -0.844   0.710  1.00  0.00     0.248 A 
HETATM    9  N2  UNL     1       0.863   0.287   0.041  1.00  0.00     0.102 N 
ENDROOT
BRANCH   9  10
HETATM   10  C15 UNL     1       1.664   1.461   0.013  1.00  0.00     0.275 C 
BRANCH  10  11
HETATM   11  C16 UNL     1       2.050   1.996   1.371  1.00  0.00     0.057 C 
BRANCH  11  12
HETATM   12  C17 UNL     1       2.901   3.248   1.161  1.00  0.00     0.231 C 
BRANCH  12  13
HETATM   13  N3  UNL     1       2.129   4.217   0.442  1.00  0.00    -0.079 N 
ATOM     14  H33 UNL     1       1.758   3.847  -0.433  1.00  0.00     0.274 HD
ATOM     15  H32 UNL     1       1.240   4.422   0.898  1.00  0.00     0.274 HD
ATOM     16  H31 UNL     1       2.697   5.053   0.302  1.00  0.00     0.274 HD
ENDBRANCH  12  13
ENDBRANCH  11  12
ENDBRANCH  10  11
ENDBRANCH   9  10
BRANCH   1  17
HETATM   17  C5  UNL     1      -1.324   1.334  -0.308  1.00  0.00     0.039 C 
BRANCH  17  18
HETATM   18  C4  UNL     1      -2.709   1.505   0.269  1.00  0.00     0.006 C 
BRANCH  18  19
HETATM   19  C3  UNL     1      -2.705   2.156   1.636  1.00  0.00     0.026 C 
BRANCH  19  20
HETATM   20  C2  UNL     1      -4.100   2.282   2.116  1.00  0.00    -0.037 C 
HETATM   21  C1  UNL     1      -4.490   1.703   3.223  1.00  0.00     0.007 C 
ENDBRANCH  19  20
ENDBRANCH  18  19
ENDBRANCH  17  18
ENDBRANCH   1  17
BRANCH   2  22
HETATM   22  O1  UNL     1      -1.821  -1.363  -0.227  1.00  0.00    -0.393 OA
ATOM     23  H1  UNL     1      -2.159  -2.242  -0.099  1.00  0.00     0.210 HD
ENDBRANCH   2  22
BRANCH   7  24
HETATM   24  C13 UNL     1       2.180  -1.585  -1.587  1.00  0.00     0.237 C 
HETATM   25  N1  UNL     1       1.312  -0.814  -2.404  1.00  0.00    -0.062 NA
HETATM   26  O2  UNL     1       3.234  -1.986  -2.146  1.00  0.00    -0.276 OA
ENDBRANCH   7  24
TORSDOF 10
