REMARK  1 active torsions:
REMARK  status: ('A' for Active; 'I' for Inactive)
REMARK    1  A    between atoms: C2_7  and  C3_8 
ROOT
HETATM    1  C3  UNL     1      -0.500   0.948   1.357  1.00  0.00     0.099 C 
HETATM    2  C4  UNL     1      -1.413   0.163   2.092  1.00  0.00     0.205 C 
HETATM    3  N3  UNL     1      -2.203   1.064   1.900  1.00  0.00    -0.014 N 
HETATM    4  C5  UNL     1      -2.137   2.327   1.206  1.00  0.00     0.285 A 
HETATM    5  C6  UNL     1      -2.931   1.827   0.823  1.00  0.00     0.285 A 
HETATM    6  C7  UNL     1      -1.809   0.847   0.704  1.00  0.00     0.224 A 
HETATM    7  N4  UNL     1      -2.220  -0.290   0.163  1.00  0.00    -0.370 N 
ATOM      8  H4  UNL     1      -3.138  -0.236  -0.278  1.00  0.00     0.161 HD
HETATM    9  C8  UNL     1      -1.626  -1.540   0.089  1.00  0.00     0.058 C 
HETATM   10  C9  UNL     1      -1.393  -2.183   1.446  1.00  0.00     0.046 C 
HETATM   11  C10 UNL     1      -1.532  -1.120   2.614  1.00  0.00     0.039 C 
ENDROOT
BRANCH   1  12
HETATM   12  C2  UNL     1       0.760   0.722   0.924  1.00  0.00     0.119 C 
HETATM   13  N2  UNL     1       1.340  -0.253   0.048  1.00  0.00    -0.349 N 
HETATM   14  C1  UNL     1       1.791   0.450  -1.138  1.00  0.00     0.213 C 
ATOM     15  H2  UNL     1       1.421  -1.254   0.225  1.00  0.00     0.163 HD
HETATM   16  N1  UNL     1       2.132  -0.097  -2.181  1.00  0.00    -0.365 N 
HETATM   17  O1  UNL     1       1.752   1.821  -0.845  1.00  0.00    -0.321 OA
ATOM     18  H12 UNL     1       2.160  -1.094  -2.394  1.00  0.00     0.159 HD
ATOM     19  H11 UNL     1       2.449   0.397  -3.015  1.00  0.00     0.159 HD
HETATM   20  C11 UNL     1       1.569   1.995   0.536  1.00  0.00     0.204 C 
ENDBRANCH   1  12
TORSDOF 1
