REMARK  18 active torsions:
REMARK  status: ('A' for Active; 'I' for Inactive)
REMARK    1  A    between atoms: C2_2  and  O1_3 
REMARK    2  A    between atoms: C3_6  and  C4_7 
REMARK    3  A    between atoms: C4_7  and  N1_8 
REMARK    4  A    between atoms: C4_7  and  C5_12 
REMARK    5  A    between atoms: C5_12  and  O3_13 
REMARK    6  A    between atoms: C5_12  and  C6_15 
REMARK    7  A    between atoms: C7_17  and  C8_18 
REMARK    8  A    between atoms: N2_19  and  C9_21 
REMARK    9  A    between atoms: C9_21  and  O5_22 
REMARK   10  A    between atoms: C9_21  and  C10_24 
REMARK   11  A    between atoms: C10_24  and  O6_25 
REMARK   12  A    between atoms: C10_24  and  C11_27 
REMARK   13  A    between atoms: C11_27  and  O7_28 
REMARK   14  A    between atoms: C11_27  and  C12_30 
REMARK   15  A    between atoms: C12_30  and  O8_31 
REMARK   16  A    between atoms: C12_30  and  C13_33 
REMARK   17  A    between atoms: C13_33  and  O9_34 
REMARK   18  A    between atoms: C17_45  and  O11_46 
ROOT
HETATM    1  C6  UNL     1       0.355  -1.277  -1.858  1.00  0.00     0.185 C 
HETATM    2  O4  UNL     1       0.965  -0.455  -0.887  1.00  0.00    -0.343 OA
HETATM    3  C7  UNL     1       1.947  -1.296  -0.337  1.00  0.00     0.197 C 
HETATM    4  N3  UNL     1       2.986  -1.372  -1.340  1.00  0.00    -0.318 N 
ATOM      5  H3  UNL     1       3.817  -1.731  -0.870  1.00  0.00     0.166 HD
HETATM    6  C14 UNL     1       3.336  -1.169  -2.652  1.00  0.00     0.215 C 
HETATM    7  N4  UNL     1       3.639  -0.994  -3.794  1.00  0.00    -0.365 N 
ATOM      8  H41 UNL     1       3.899  -0.843  -4.769  1.00  0.00     0.159 HD
ATOM      9  H42 UNL     1       4.376  -0.435  -3.364  1.00  0.00     0.159 HD
HETATM   10  O10 UNL     1       1.929  -2.237  -3.474  1.00  0.00    -0.314 OA
HETATM   11  C15 UNL     1       1.324  -2.341  -2.238  1.00  0.00     0.166 C 
HETATM   12  C16 UNL     1       1.730  -3.281  -1.391  1.00  0.00     0.072 C 
HETATM   13  C17 UNL     1       1.103  -2.719  -0.097  1.00  0.00     0.182 C 
ENDROOT
BRANCH   3  14
HETATM   14  C8  UNL     1       2.328  -0.855   0.969  1.00  0.00     0.121 C 
HETATM   15  N2  UNL     1       1.686  -0.035   1.590  1.00  0.00    -0.370 N 
ATOM     16  H2  UNL     1       0.928   0.170   0.939  1.00  0.00     0.161 HD
BRANCH  15  17
HETATM   17  C9  UNL     1       1.380   0.760   2.620  1.00  0.00     0.248 C 
BRANCH  17  18
HETATM   18  O5  UNL     1       2.258   0.621   3.742  1.00  0.00    -0.374 OA
ATOM     19  H5  UNL     1       2.041   1.186   4.474  1.00  0.00     0.212 HD
ENDBRANCH  17  18
BRANCH  17  20
HETATM   20  C10 UNL     1      -0.035   0.766   3.161  1.00  0.00     0.197 C 
BRANCH  20  21
HETATM   21  O6  UNL     1      -0.078   1.733   4.206  1.00  0.00    -0.389 OA
ATOM     22  H6  UNL     1      -0.965   1.737   4.545  1.00  0.00     0.210 HD
ENDBRANCH  20  21
BRANCH  20  23
HETATM   23  C11 UNL     1      -0.439  -0.525   3.835  1.00  0.00     0.181 C 
BRANCH  23  24
HETATM   24  O7  UNL     1      -0.430  -1.617   2.976  1.00  0.00    -0.390 OA
ATOM     25  H7  UNL     1      -0.684  -2.428   3.400  1.00  0.00     0.210 HD
ENDBRANCH  23  24
BRANCH  23  26
HETATM   26  C12 UNL     1      -1.921  -0.378   4.249  1.00  0.00     0.173 C 
BRANCH  26  27
HETATM   27  O8  UNL     1      -2.631  -0.157   3.072  1.00  0.00    -0.391 OA
ATOM     28  H8  UNL     1      -3.542  -0.067   3.326  1.00  0.00     0.210 HD
ENDBRANCH  26  27
BRANCH  26  29
HETATM   29  C13 UNL     1      -2.392  -1.689   4.841  1.00  0.00     0.198 C 
BRANCH  29  30
HETATM   30  O9  UNL     1      -3.752  -1.698   5.107  1.00  0.00    -0.398 OA
ATOM     31  H9  UNL     1      -4.048  -2.521   5.479  1.00  0.00     0.209 HD
ENDBRANCH  29  30
ENDBRANCH  26  29
ENDBRANCH  23  26
ENDBRANCH  20  23
ENDBRANCH  17  20
ENDBRANCH  15  17
ENDBRANCH   3  14
BRANCH  13  32
HETATM   32  O11 UNL     1       1.726  -3.223   1.002  1.00  0.00    -0.390 OA
ATOM     33  H11 UNL     1       1.246  -4.032   1.138  1.00  0.00     0.210 HD
ENDBRANCH  13  32
BRANCH   1  34
HETATM   34  C5  UNL     1      -0.236  -0.526  -3.002  1.00  0.00     0.183 C 
BRANCH  34  35
HETATM   35  C4  UNL     1      -1.608   0.008  -2.700  1.00  0.00     0.253 C 
BRANCH  35  36
HETATM   36  C3  UNL     1      -1.683   1.426  -2.236  1.00  0.00     0.228 C 
HETATM   37  O2  UNL     1      -3.010   1.751  -2.008  1.00  0.00    -0.330 OA
HETATM   38  C2  UNL     1      -3.187   2.894  -1.314  1.00  0.00     0.233 C 
HETATM   39  C1  UNL     1      -4.488   2.675  -0.504  1.00  0.00     0.089 C 
HETATM   40  C18 UNL     1      -2.150   3.126  -0.290  1.00  0.00     0.250 C 
HETATM   41  S1  UNL     1      -1.007   1.792  -0.603  1.00  0.00    -0.052 SA
HETATM   42  O12 UNL     1      -2.086   3.973   0.532  1.00  0.00    -0.279 OA
BRANCH  38  43
HETATM   43  O1  UNL     1      -3.341   4.027  -2.116  1.00  0.00    -0.359 OA
ATOM     44  H1  UNL     1      -2.543   4.161  -2.613  1.00  0.00     0.213 HD
ENDBRANCH  38  43
ENDBRANCH  35  36
BRANCH  35  45
HETATM   45  N1  UNL     1      -2.373   0.032  -3.982  1.00  0.00    -0.069 N 
ATOM     46  H13 UNL     1      -3.319   0.405  -3.906  1.00  0.00     0.275 HD
ATOM     47  H12 UNL     1      -2.045   0.719  -4.660  1.00  0.00     0.275 HD
ATOM     48  H11 UNL     1      -2.322  -0.936  -4.299  1.00  0.00     0.275 HD
ENDBRANCH  35  45
ENDBRANCH  34  35
BRANCH  34  49
HETATM   49  O3  UNL     1       0.521   0.260  -3.794  1.00  0.00    -0.391 OA
ATOM     50  H3  UNL     1       1.388  -0.078  -3.985  1.00  0.00     0.210 HD
ENDBRANCH  34  49
ENDBRANCH   1  34
TORSDOF 18
