REMARK  1 active torsions:
REMARK  status: ('A' for Active; 'I' for Inactive)
REMARK    1  A    between atoms: C1_2  and  C2_4 
ROOT
HETATM    1  C2  UNL     1      -1.122   0.308   0.231  1.00  0.00     0.252 C 
HETATM    2  O3  UNL     1      -1.266   1.280  -0.713  1.00  0.00    -0.364 OA
HETATM    3  C3  UNL     1      -0.069   1.873  -0.989  1.00  0.00     0.158 C 
HETATM    4  C4  UNL     1       1.032   0.925  -1.492  1.00  0.00     0.152 C 
HETATM    5  C5  UNL     1       1.936   1.720  -0.532  1.00  0.00     0.044 C 
HETATM    6  C6  UNL     1       0.716   1.672   0.328  1.00  0.00     0.052 C 
HETATM    7  C7  UNL     1       0.370   0.210   0.437  1.00  0.00     0.168 C 
HETATM    8  O4  UNL     1       0.887  -0.245  -0.802  1.00  0.00    -0.374 OA
ENDROOT
BRANCH   1   9
HETATM    9  C1  UNL     1      -1.704  -0.956  -0.281  1.00  0.00     0.205 C 
HETATM   10  O1  UNL     1      -1.727  -1.915   0.279  1.00  0.00    -0.646 OA
HETATM   11  O2  UNL     1      -2.257  -0.915  -1.558  1.00  0.00    -0.646 OA
ENDBRANCH   1   9
TORSDOF 1
