REMARK  6 active torsions:
REMARK  status: ('A' for Active; 'I' for Inactive)
REMARK       I    between atoms: C1_2  and  N1_3 
REMARK    1  A    between atoms: C1_2  and  C4_7 
REMARK    2  A    between atoms: N1_3  and  C2_4 
REMARK    3  A    between atoms: C2_4  and  C3_5 
REMARK    4  A    between atoms: C8_14  and  C9_15 
REMARK    5  A    between atoms: C12_19  and  C13_20 
REMARK    6  A    between atoms: C13_20  and  O3_21 
ROOT
HETATM    1  C4  UNL     1      -0.414   0.030  -0.155  1.00  0.00     0.119 C 
HETATM    2  C5  UNL     1       0.843  -0.223  -0.862  1.00  0.00     0.040 C 
HETATM    3  C6  UNL     1       1.579  -1.547  -0.525  1.00  0.00     0.165 C 
HETATM    4 BR1  UNL     1       0.589  -3.130  -0.677  1.00  0.00    -0.068 Br
HETATM    5  N2  UNL     1       2.037  -1.121   0.775  1.00  0.00    -0.330 N 
HETATM    6  C7  UNL     1       1.008  -0.906   1.699  1.00  0.00     0.232 C 
HETATM    7  O2  UNL     1       0.523  -1.370   2.736  1.00  0.00    -0.272 OA
HETATM    8  C8  UNL     1       0.342   0.379   1.070  1.00  0.00     0.071 C 
HETATM    9  C10 UNL     1       1.400   0.878   0.063  1.00  0.00     0.015 C 
HETATM   10  C11 UNL     1       2.788   0.895   0.488  1.00  0.00     0.034 C 
HETATM   11  C12 UNL     1       3.320  -0.585   0.903  1.00  0.00     0.112 C 
ENDROOT
BRANCH   1  12
HETATM   12  C1  UNL     1      -1.487  -1.005  -0.047  1.00  0.00     0.296 C 
HETATM   13  O1  UNL     1      -1.653  -1.285   0.699  1.00  0.00    -0.257 OA
HETATM   14  N1  UNL     1      -2.134  -1.402  -1.268  1.00  0.00    -0.386 NA
BRANCH  14  15
HETATM   15  C2  UNL     1      -2.720  -1.763  -2.375  1.00  0.00     0.174 C 
BRANCH  15  16
HETATM   16  C3  UNL     1      -4.244  -1.590  -2.539  1.00  0.00     0.174 C 
HETATM   17 CL1  UNL     1      -4.721   0.108  -2.376  1.00  0.00    -0.124 Cl
ENDBRANCH  15  16
ENDBRANCH  14  15
ENDBRANCH   1  12
BRANCH   8  18
HETATM   18  C9  UNL     1      -0.116   1.359   2.044  1.00  0.00     0.135 C 
HETATM   19 CL2  UNL     1      -1.666   0.938   2.765  1.00  0.00    -0.129 Cl
ENDBRANCH   8  18
BRANCH  11  20
HETATM   20  C13 UNL     1       4.393  -0.861  -0.097  1.00  0.00     0.189 C 
BRANCH  20  21
HETATM   21  O3  UNL     1       4.166  -0.371  -1.379  1.00  0.00    -0.399 OA
ATOM     22  H3  UNL     1       4.849  -0.547  -2.016  1.00  0.00     0.209 HD
ENDBRANCH  20  21
ENDBRANCH  11  20
TORSDOF 6
