REMARK  7 active torsions:
REMARK  status: ('A' for Active; 'I' for Inactive)
REMARK    1  A    between atoms: O1_2  and  C2_3 
REMARK    2  A    between atoms: C2_3  and  C3_4 
REMARK    3  A    between atoms: C3_4  and  C4_5 
REMARK    4  A    between atoms: C9_12  and  C10_13 
REMARK    5  A    between atoms: C10_13  and  O4_14 
REMARK    6  A    between atoms: C12_17  and  C13_18 
REMARK    7  A    between atoms: C21_27  and  O5_28 
ROOT
HETATM    1  C10 UNL     1      -0.291  -0.485  -0.997  1.00  0.00     0.094 A 
HETATM    2  C11 UNL     1       0.868   0.363  -1.013  1.00  0.00     0.050 A 
HETATM    3  C12 UNL     1       2.238   0.526  -1.411  1.00  0.00    -0.010 C 
HETATM    4  C14 UNL     1       2.911   0.979  -0.055  1.00  0.00     0.019 C 
HETATM    5  C15 UNL     1       3.330  -0.444   0.058  1.00  0.00     0.023 C 
HETATM    6  C16 UNL     1       4.213  -0.279  -1.219  1.00  0.00     0.024 C 
HETATM    7  C17 UNL     1       3.124  -0.477  -2.034  1.00  0.00     0.007 C 
HETATM    8  C18 UNL     1       2.379  -0.754  -3.187  1.00  0.00     0.017 C 
HETATM    9  C19 UNL     1       1.199  -1.530  -2.529  1.00  0.00     0.017 C 
HETATM   10  C20 UNL     1       1.007  -1.100  -1.047  1.00  0.00     0.034 A 
HETATM   11  C21 UNL     1       2.083  -1.292  -0.059  1.00  0.00     0.080 C 
HETATM   12  C23 UNL     1       2.709  -2.627  -0.528  1.00  0.00     0.092 C 
HETATM   13  C24 UNL     1       3.281  -1.958  -1.691  1.00  0.00    -0.008 C 
HETATM   14  N1  UNL     1       3.984  -2.594  -2.506  1.00  0.00    -0.405 N 
ATOM     15  H11 UNL     1       4.089  -3.582  -2.277  1.00  0.00     0.155 HD
ATOM     16  H12 UNL     1       4.384  -2.126  -3.319  1.00  0.00     0.155 HD
ENDROOT
BRANCH   1  17
HETATM   17  C9  UNL     1      -1.198  -0.944   0.036  1.00  0.00     0.047 C 
HETATM   18  C8  UNL     1      -2.217  -0.182   0.697  1.00  0.00     0.078 C 
HETATM   19  C4  UNL     1      -3.359   0.489   0.104  1.00  0.00     0.183 C 
HETATM   20  O3  UNL     1      -1.848   0.730   1.685  1.00  0.00    -0.317 OA
HETATM   21  O2  UNL     1      -4.082   0.753   1.323  1.00  0.00    -0.344 OA
HETATM   22  C5  UNL     1      -3.112   0.856   2.314  1.00  0.00     0.163 C 
HETATM   23  C6  UNL     1      -3.329  -0.282   3.323  1.00  0.00     0.079 C 
HETATM   24  C7  UNL     1      -3.182   2.113   3.132  1.00  0.00     0.079 C 
BRANCH  19  25
HETATM   25  C3  UNL     1      -3.261   1.853  -0.456  1.00  0.00     0.065 C 
BRANCH  25  26
HETATM   26  C2  UNL     1      -4.675   2.382  -0.705  1.00  0.00     0.170 C 
BRANCH  26  27
HETATM   27  O1  UNL     1      -5.464   2.451   0.399  1.00  0.00    -0.396 OA
HETATM   28  C1  UNL     1      -6.719   2.932   0.112  1.00  0.00     0.201 C 
ENDBRANCH  26  27
ENDBRANCH  25  26
ENDBRANCH  19  25
ENDBRANCH   1  17
BRANCH   1  29
HETATM   29  O4  UNL     1      -1.021  -0.064  -2.153  1.00  0.00    -0.384 OA
ATOM     30  H4  UNL     1      -0.426   0.237  -2.830  1.00  0.00     0.211 HD
ENDBRANCH   1  29
BRANCH   3  31
HETATM   31  C13 UNL     1       2.397   1.786  -2.259  1.00  0.00     0.096 C 
HETATM   32 BR1  UNL     1       1.856   3.322  -1.161  1.00  0.00    -0.096 Br
ENDBRANCH   3  31
BRANCH  11  33
HETATM   33  O5  UNL     1       1.599  -1.380   1.201  1.00  0.00    -0.383 OA
HETATM   34  C22 UNL     1       2.326  -1.927   2.192  1.00  0.00     0.202 C 
ENDBRANCH  11  33
TORSDOF 7
