REMARK  4 active torsions:
REMARK  status: ('A' for Active; 'I' for Inactive)
REMARK    1  A    between atoms: C16_20  and  N2_21 
REMARK       I    between atoms: N2_21  and  C17_23 
REMARK       I    between atoms: C17_23  and  N3_25 
REMARK    2  A    between atoms: N3_25  and  C18_27 
REMARK    3  A    between atoms: C18_27  and  C19_28 
REMARK    4  A    between atoms: C19_28  and  O2_29 
ROOT
HETATM    1  C1  UNL     1       2.567   3.290  -0.153  1.00  0.00     0.015 C 
HETATM    2  C2  UNL     1       1.391   2.418  -0.610  1.00  0.00    -0.037 C 
HETATM    3  C3  UNL     1       0.227   3.024   0.221  1.00  0.00     0.015 C 
HETATM    4  C4  UNL     1       1.145   2.739  -1.988  1.00  0.00     0.021 C 
HETATM    5  C5  UNL     1       2.301   2.804  -2.955  1.00  0.00     0.238 C 
HETATM    6  N1  UNL     1       2.148   1.716  -3.891  1.00  0.00    -0.070 N 
ATOM      7  H11 UNL     1       2.947   1.082  -3.882  1.00  0.00     0.277 HD
ATOM      8  H12 UNL     1       2.222   2.025  -4.860  1.00  0.00     0.277 HD
HETATM    9  C6  UNL     1       0.904   1.035  -3.626  1.00  0.00     0.190 C 
HETATM   10  C7  UNL     1       0.144   1.981  -2.786  1.00  0.00     0.040 C 
HETATM   11  C8  UNL     1       1.168  -0.349  -3.084  1.00  0.00     0.020 C 
HETATM   12  C9  UNL     1       0.101  -0.899  -2.209  1.00  0.00     0.013 C 
HETATM   13  C10 UNL     1       0.371  -1.019  -0.773  1.00  0.00     0.012 C 
HETATM   14  C11 UNL     1       1.663  -1.821  -0.621  1.00  0.00     0.050 C 
HETATM   15  C12 UNL     1       2.722  -0.911  -1.153  1.00  0.00     0.104 C 
HETATM   16  F1  UNL     1       3.926  -1.623  -1.001  1.00  0.00    -0.243 F 
HETATM   17  C13 UNL     1       2.570  -0.575  -2.600  1.00  0.00     0.050 C 
HETATM   18  C14 UNL     1       2.860   0.366  -0.380  1.00  0.00     0.051 C 
HETATM   19  C15 UNL     1       1.601   1.076  -0.035  1.00  0.00     0.020 C 
HETATM   20  C16 UNL     1       0.391   0.182   0.102  1.00  0.00     0.095 C 
ENDROOT
BRANCH  20  21
HETATM   21  N2  UNL     1       0.285  -0.358   1.462  1.00  0.00    -0.338 N 
HETATM   22  C17 UNL     1      -0.854  -0.190   2.283  1.00  0.00     0.316 C 
HETATM   23  O1  UNL     1      -1.814   0.460   1.798  1.00  0.00    -0.247 OA
HETATM   24  N3  UNL     1      -0.965  -0.700   3.582  1.00  0.00    -0.341 N 
ATOM     25  H3  UNL     1      -0.166  -1.220   3.945  1.00  0.00     0.164 HD
ATOM     26  H2  UNL     1       1.076  -0.883   1.836  1.00  0.00     0.164 HD
BRANCH  24  27
HETATM   27  C18 UNL     1      -2.104  -0.559   4.455  1.00  0.00     0.150 C 
BRANCH  27  28
HETATM   28  C19 UNL     1      -3.353  -1.162   3.904  1.00  0.00     0.183 C 
BRANCH  28  29
HETATM   29  O2  UNL     1      -4.443  -1.016   4.767  1.00  0.00    -0.399 OA
ATOM     30  H2  UNL     1      -5.238  -1.400   4.416  1.00  0.00     0.209 HD
ENDBRANCH  28  29
ENDBRANCH  27  28
ENDBRANCH  24  27
ENDBRANCH  20  21
TORSDOF 4
