REMARK  1 active torsions:
REMARK  status: ('A' for Active; 'I' for Inactive)
REMARK    1  A    between atoms: C1_2  and  C2_4 
ROOT
HETATM    1  C2  UNL     1       0.085   0.243   0.473  1.00  0.00     0.056 C 
HETATM    2  C3  UNL     1       0.284   0.542   1.932  1.00  0.00     0.026 C 
HETATM    3  C4  UNL     1      -0.759  -0.569   2.134  1.00  0.00    -0.007 C 
HETATM    4  C5  UNL     1      -1.965   0.189   1.546  1.00  0.00     0.011 C 
HETATM    5  C6  UNL     1      -1.347   0.271   0.138  1.00  0.00     0.006 C 
HETATM    6  C7  UNL     1      -1.236  -1.219  -0.160  1.00  0.00     0.012 C 
HETATM    7  C8  UNL     1      -0.201  -1.200   0.932  1.00  0.00     0.009 C 
ENDROOT
BRANCH   1   8
HETATM    8  C1  UNL     1       1.117   0.433  -0.466  1.00  0.00     0.182 C 
HETATM    9  O1  UNL     1       1.566  -0.522  -1.161  1.00  0.00    -0.647 OA
HETATM   10  O2  UNL     1       1.695   1.671  -0.676  1.00  0.00    -0.647 OA
ENDBRANCH   1   8
TORSDOF 1
