REMARK  4 active torsions:
REMARK  status: ('A' for Active; 'I' for Inactive)
REMARK    1  A    between atoms: C2_2  and  C4_4 
REMARK    2  A    between atoms: C4_4  and  C5_6 
REMARK    3  A    between atoms: C5_6  and  C6_7 
REMARK    4  A    between atoms: C6_7  and  C7_8 
ROOT
HETATM    1  C7  UNL     1      -0.087   1.095   0.744  1.00  0.00     0.273 C 
HETATM    2  O2  UNL     1      -0.029   1.237  -0.645  1.00  0.00    -0.289 OA
HETATM    3  C8  UNL     1       0.439   0.429  -1.628  1.00  0.00     0.269 C 
HETATM    4  O3  UNL     1       1.415   0.843  -2.336  1.00  0.00    -0.264 OA
HETATM    5  C9  UNL     1      -0.072  -0.908  -1.974  1.00  0.00     0.050 C 
HETATM    6  C10 UNL     1       0.546  -1.497  -3.247  1.00  0.00     0.026 C 
HETATM    7  C11 UNL     1      -0.107  -1.871  -0.798  1.00  0.00     0.062 C 
HETATM    8  C12 UNL     1      -1.530  -1.742  -0.712  1.00  0.00     0.116 C 
HETATM    9  C13 UNL     1      -1.598  -1.004  -1.980  1.00  0.00     0.062 C 
HETATM   10  O4  UNL     1      -2.101  -3.056  -0.668  1.00  0.00    -0.225 OA
HETATM   11  O5  UNL     1      -1.651  -3.359   0.565  1.00  0.00    -0.199 OA
HETATM   12  C14 UNL     1      -1.977  -2.324   1.404  1.00  0.00     0.211 C 
HETATM   13  C15 UNL     1      -2.864  -2.577   2.542  1.00  0.00     0.083 C 
HETATM   14  O6  UNL     1      -0.907  -1.469   1.794  1.00  0.00    -0.321 OA
HETATM   15  C16 UNL     1      -1.727  -0.428   1.480  1.00  0.00     0.283 C 
HETATM   16  O7  UNL     1      -1.379   0.775   1.073  1.00  0.00    -0.330 OA
HETATM   17  C17 UNL     1      -2.301  -1.230   0.410  1.00  0.00     0.099 C 
HETATM   18  C18 UNL     1      -3.722  -0.951   0.132  1.00  0.00     0.029 C 
ENDROOT
BRANCH   1  19
HETATM   19  C6  UNL     1       0.191   2.436   1.438  1.00  0.00     0.069 C 
BRANCH  19  20
HETATM   20  C5  UNL     1       1.516   3.017   1.132  1.00  0.00     0.083 C 
BRANCH  20  21
HETATM   21  C4  UNL     1       2.690   2.233   1.533  1.00  0.00     0.130 C 
HETATM   22  O1  UNL     1       2.614   1.199   2.132  1.00  0.00    -0.298 OA
BRANCH  21  23
HETATM   23  C2  UNL     1       4.039   2.767   1.165  1.00  0.00     0.047 C 
HETATM   24  C1  UNL     1       4.167   2.919  -0.339  1.00  0.00     0.017 C 
HETATM   25  C3  UNL     1       5.067   1.754   1.617  1.00  0.00     0.017 C 
ENDBRANCH  21  23
ENDBRANCH  20  21
ENDBRANCH  19  20
ENDBRANCH   1  19
TORSDOF 4
