REMARK  8 active torsions:
REMARK  status: ('A' for Active; 'I' for Inactive)
REMARK    1  A    between atoms: C2_2  and  C3_3 
REMARK    2  A    between atoms: C3_3  and  N1_4 
REMARK       I    between atoms: N1_4  and  C4_6 
REMARK    3  A    between atoms: C4_6  and  C5_8 
REMARK    4  A    between atoms: C10_13  and  C11_14 
REMARK    5  A    between atoms: C11_14  and  O2_15 
REMARK    6  A    between atoms: C23_28  and  C24_29 
REMARK       I    between atoms: C24_29  and  N2_31 
REMARK    7  A    between atoms: C27_34  and  C28_35 
REMARK       I    between atoms: C28_35  and  N3_37 
REMARK    8  A    between atoms: N3_37  and  C29_39 
ROOT
HETATM    1  C5  UNL     1       2.017  -2.501   0.153  1.00  0.00     0.086 C 
HETATM    2  C6  UNL     1       1.162  -3.268   1.192  1.00  0.00     0.020 C 
HETATM    3  C7  UNL     1       0.597  -4.393   0.534  1.00  0.00     0.002 C 
HETATM    4  C8  UNL     1       0.802  -3.982  -0.919  1.00  0.00     0.000 C 
HETATM    5  C9  UNL     1      -0.249  -4.899  -1.204  1.00  0.00     0.018 C 
HETATM    6  C10 UNL     1      -0.837  -4.692   0.191  1.00  0.00    -0.011 C 
HETATM    7  C12 UNL     1      -1.769  -3.569   0.146  1.00  0.00    -0.002 C 
HETATM    8  C13 UNL     1      -3.142  -3.626   0.786  1.00  0.00     0.011 C 
HETATM    9  C14 UNL     1      -3.692  -2.184   0.676  1.00  0.00    -0.000 C 
HETATM   10  C15 UNL     1      -4.422  -1.976  -0.631  1.00  0.00     0.006 C 
HETATM   11  C16 UNL     1      -3.518  -1.137  -1.515  1.00  0.00     0.011 C 
HETATM   12  C17 UNL     1      -2.211  -1.452  -0.838  1.00  0.00    -0.028 C 
HETATM   13  C18 UNL     1      -0.969  -0.910  -1.419  1.00  0.00     0.011 C 
HETATM   14  C19 UNL     1       0.232  -1.411  -0.755  1.00  0.00     0.011 C 
HETATM   15  C20 UNL     1       1.012  -2.591  -1.019  1.00  0.00    -0.028 C 
HETATM   16  C21 UNL     1       1.708  -2.342  -2.366  1.00  0.00     0.016 C 
HETATM   17  C22 UNL     1      -2.059  -2.959  -1.142  1.00  0.00     0.015 C 
HETATM   18  C23 UNL     1      -2.602  -1.138   0.540  1.00  0.00     0.090 C 
ENDROOT
BRANCH  18  19
HETATM   19  C24 UNL     1      -3.254   0.160   0.696  1.00  0.00     0.225 C 
HETATM   20  O3  UNL     1      -4.526   0.282   0.610  1.00  0.00    -0.273 OA
HETATM   21  N2  UNL     1      -2.586   1.365   0.952  1.00  0.00    -0.352 N 
HETATM   22  C25 UNL     1      -1.175   1.528   1.163  1.00  0.00     0.126 C 
HETATM   23  C34 UNL     1      -3.334   2.651   1.028  1.00  0.00     0.126 C 
HETATM   24  C26 UNL     1      -0.973   2.682   2.150  1.00  0.00     0.034 C 
HETATM   25  C27 UNL     1      -1.372   3.995   1.543  1.00  0.00     0.081 C 
HETATM   26  C33 UNL     1      -2.384   3.687   0.461  1.00  0.00     0.034 C 
BRANCH  25  27
HETATM   27  C28 UNL     1      -0.249   4.806   1.049  1.00  0.00     0.222 C 
HETATM   28  O4  UNL     1      -0.226   5.107  -0.185  1.00  0.00    -0.273 OA
HETATM   29  N3  UNL     1       0.806   5.273   1.858  1.00  0.00    -0.353 N 
ATOM     30  H3  UNL     1       0.790   5.032   2.849  1.00  0.00     0.163 HD
BRANCH  29  31
HETATM   31  C29 UNL     1       1.904   6.067   1.377  1.00  0.00     0.022 C 
HETATM   32  C30 UNL     1       2.686   5.319   0.291  1.00  0.00     0.037 C 
HETATM   33  C31 UNL     1       1.459   7.375   0.783  1.00  0.00     0.037 C 
HETATM   34  C32 UNL     1       2.903   6.336   2.486  1.00  0.00     0.037 C 
ENDBRANCH  29  31
ENDBRANCH  25  27
ENDBRANCH  18  19
BRANCH   6  35
HETATM   35  C11 UNL     1      -1.370  -5.925   0.862  1.00  0.00     0.174 C 
BRANCH  35  36
HETATM   36  O2  UNL     1      -2.669  -6.245   0.562  1.00  0.00    -0.400 OA
ATOM     37  H2  UNL     1      -3.006  -7.025   0.987  1.00  0.00     0.209 HD
ENDBRANCH  35  36
ENDBRANCH   6  35
BRANCH   1  38
HETATM   38  C4  UNL     1       3.327  -3.025  -0.068  1.00  0.00     0.222 C 
HETATM   39  N1  UNL     1       4.185  -3.265   1.034  1.00  0.00    -0.357 N 
ATOM     40  H1  UNL     1       3.841  -3.055   1.971  1.00  0.00     0.162 HD
HETATM   41  O1  UNL     1       3.759  -3.287  -1.194  1.00  0.00    -0.273 OA
BRANCH  39  42
HETATM   42  C3  UNL     1       5.526  -3.794   0.896  1.00  0.00     0.149 C 
BRANCH  42  43
HETATM   43  C2  UNL     1       6.294  -2.818   0.051  1.00  0.00    -0.018 C 
HETATM   44  C1  UNL     1       6.832  -3.202  -1.096  1.00  0.00     0.008 C 
ENDBRANCH  42  43
ENDBRANCH  39  42
ENDBRANCH   1  38
TORSDOF 8
