REMARK  9 active torsions:
REMARK  status: ('A' for Active; 'I' for Inactive)
REMARK    1  A    between atoms: C2_2  and  C3_3 
REMARK    2  A    between atoms: C3_3  and  C4_4 
REMARK    3  A    between atoms: C6_6  and  C7_7 
REMARK    4  A    between atoms: C7_7  and  C8_8 
REMARK    5  A    between atoms: C15_16  and  O2_17 
REMARK    6  A    between atoms: C16_19  and  O3_20 
REMARK    7  A    between atoms: C20_26  and  O5_27 
REMARK    8  A    between atoms: C22_31  and  O7_32 
REMARK    9  A    between atoms: C24_34  and  O8_35 
ROOT
HETATM    1  C7  UNL     1      -0.335   0.640  -1.208  1.00  0.00     0.080 C 
HETATM    2  C10 UNL     1       0.482  -0.428  -0.494  1.00  0.00     0.074 C 
HETATM    3  C11 UNL     1       1.466  -1.259  -1.288  1.00  0.00     0.140 C 
HETATM    4  O1  UNL     1       2.767  -1.088  -1.058  1.00  0.00    -0.372 OA
HETATM    5  C12 UNL     1       3.426  -1.515   0.009  1.00  0.00     0.082 C 
HETATM    6  C13 UNL     1       4.129  -0.282   0.618  1.00  0.00     0.048 C 
HETATM    7  C14 UNL     1       4.614  -2.353  -0.513  1.00  0.00     0.048 C 
HETATM    8  C15 UNL     1       2.715  -2.210   1.099  1.00  0.00     0.181 C 
HETATM    9  C16 UNL     1       1.346  -2.719   0.786  1.00  0.00     0.159 C 
HETATM   10  C17 UNL     1       0.809  -2.450  -0.552  1.00  0.00     0.084 C 
HETATM   11  C18 UNL     1      -0.370  -1.614  -0.692  1.00  0.00     0.104 C 
HETATM   12  C19 UNL     1      -1.690  -1.732  -0.176  1.00  0.00     0.213 C 
HETATM   13  O4  UNL     1      -2.329  -0.671  -0.858  1.00  0.00    -0.329 OA
HETATM   14  C20 UNL     1      -1.411  -0.216  -1.825  1.00  0.00     0.294 C 
HETATM   15  O6  UNL     1      -0.686  -1.385  -2.077  1.00  0.00    -0.317 OA
ENDROOT
BRANCH   1  16
HETATM   16  C6  UNL     1      -0.886   1.551  -0.186  1.00  0.00    -0.038 A 
HETATM   17  C5  UNL     1      -1.589   2.688  -0.536  1.00  0.00     0.018 A 
HETATM   18  C4  UNL     1      -2.137   3.551   0.389  1.00  0.00    -0.018 A 
HETATM   19  C24 UNL     1      -1.998   3.298   1.738  1.00  0.00     0.108 A 
HETATM   20  C22 UNL     1      -1.305   2.173   2.134  1.00  0.00     0.102 A 
HETATM   21  C21 UNL     1      -0.762   1.321   1.155  1.00  0.00     0.048 A 
BRANCH  18  22
HETATM   22  C3  UNL     1      -2.891   4.781   0.044  1.00  0.00     0.068 C 
BRANCH  22  23
HETATM   23  C2  UNL     1      -2.924   5.129  -1.368  1.00  0.00    -0.032 C 
HETATM   24  C1  UNL     1      -2.439   6.281  -1.813  1.00  0.00     0.007 C 
ENDBRANCH  22  23
ENDBRANCH  18  22
BRANCH  19  25
HETATM   25  O8  UNL     1      -2.544   4.156   2.688  1.00  0.00    -0.353 OA
HETATM   26  C25 UNL     1      -3.859   3.924   3.125  1.00  0.00     0.210 C 
ENDBRANCH  19  25
BRANCH  20  27
HETATM   27  O7  UNL     1      -1.173   1.930   3.493  1.00  0.00    -0.353 OA
HETATM   28  C23 UNL     1      -0.467   0.781   3.901  1.00  0.00     0.210 C 
ENDBRANCH  20  27
ENDBRANCH   1  16
BRANCH   1  29
HETATM   29  C8  UNL     1       0.594   1.206  -2.175  1.00  0.00     0.019 C 
HETATM   30  C9  UNL     1       0.250   2.319  -3.072  1.00  0.00     0.006 C 
ENDBRANCH   1  29
BRANCH  14  31
HETATM   31  O5  UNL     1      -2.020   0.293  -2.931  1.00  0.00    -0.342 OA
ATOM     32  H5  UNL     1      -2.698  -0.247  -3.320  1.00  0.00     0.215 HD
ENDBRANCH  14  31
BRANCH   9  33
HETATM   33  O3  UNL     1       0.491  -2.267   1.823  1.00  0.00    -0.392 OA
ATOM     34  H3  UNL     1      -0.380  -2.591   1.624  1.00  0.00     0.210 HD
ENDBRANCH   9  33
BRANCH   8  35
HETATM   35  O2  UNL     1       2.740  -1.449   2.293  1.00  0.00    -0.390 OA
ATOM     36  H2  UNL     1       2.282  -1.897   2.995  1.00  0.00     0.210 HD
ENDBRANCH   8  35
TORSDOF 9
