REMARK  4 active torsions:
REMARK  status: ('A' for Active; 'I' for Inactive)
REMARK    1  A    between atoms: C2_2  and  C3_3 
REMARK    2  A    between atoms: C4_4  and  O1_5 
REMARK    3  A    between atoms: C16_19  and  O4_20 
REMARK    4  A    between atoms: O4_20  and  C17_21 
ROOT
HETATM    1  C3  UNL     1       0.341   0.519   0.068  1.00  0.00     0.080 A 
HETATM    2  C4  UNL     1      -0.802   0.251  -0.318  1.00  0.00     0.178 A 
HETATM    3  C6  UNL     1       0.168  -0.210   0.771  1.00  0.00     0.144 A 
HETATM    4  O2  UNL     1       1.536  -0.221   0.190  1.00  0.00     0.000 OA
HETATM    5  C7  UNL     1       2.401  -1.075  -0.231  1.00  0.00    -0.009 C 
HETATM    6  C8  UNL     1       2.306  -0.437  -1.657  1.00  0.00     0.016 C 
HETATM    7  C9  UNL     1       1.245  -1.593  -1.934  1.00  0.00     0.034 C 
HETATM    8  C10 UNL     1       0.579  -1.825  -0.783  1.00  0.00    -0.058 C 
HETATM    9  C11 UNL     1      -0.320  -2.795  -0.534  1.00  0.00     0.009 C 
HETATM   10  C12 UNL     1      -1.219  -3.306   0.452  1.00  0.00     0.014 C 
HETATM   11  C13 UNL     1       1.201  -3.605  -0.135  1.00  0.00     0.009 C 
HETATM   12  C14 UNL     1       2.269  -2.523  -0.437  1.00  0.00     0.013 C 
HETATM   13  C15 UNL     1       0.529  -1.048   0.498  1.00  0.00     0.146 A 
HETATM   14  O3  UNL     1      -0.559  -1.233   0.938  1.00  0.00    -0.351 OA
HETATM   15  C16 UNL     1       1.338  -1.305   1.739  1.00  0.00     0.308 C 
HETATM   16  O6  UNL     1       2.539  -0.525   1.896  1.00  0.00    -0.356 OA
HETATM   17  C19 UNL     1       3.392  -0.783   0.752  1.00  0.00     0.181 C 
ENDROOT
BRANCH  15  18
HETATM   18  O4  UNL     1       0.674  -1.107   2.964  1.00  0.00    -0.286 OA
BRANCH  18  19
HETATM   19  C17 UNL     1       0.552  -1.938   3.993  1.00  0.00     0.257 C 
HETATM   20  C18 UNL     1      -0.166  -1.662   5.257  1.00  0.00     0.126 C 
HETATM   21  O5  UNL     1       1.103  -3.061   3.868  1.00  0.00    -0.266 OA
ENDBRANCH  18  19
ENDBRANCH  15  18
BRANCH   1  22
HETATM   22  C2  UNL     1       0.735   1.755   0.012  1.00  0.00    -0.038 C 
HETATM   23  C1  UNL     1      -0.147   2.810  -0.496  1.00  0.00     0.032 C 
ENDBRANCH   1  22
BRANCH   2  24
HETATM   24  O1  UNL     1      -1.979   0.594   0.246  1.00  0.00    -0.386 OA
HETATM   25  C5  UNL     1      -3.011   0.126  -0.566  1.00  0.00     0.202 C 
ENDBRANCH   2  24
TORSDOF 4
