REMARK  8 active torsions:
REMARK  status: ('A' for Active; 'I' for Inactive)
REMARK    1  A    between atoms: C2_2  and  C3_3 
REMARK    2  A    between atoms: C3_3  and  C4_4 
REMARK    3  A    between atoms: C4_4  and  C5_5 
REMARK    4  A    between atoms: C5_5  and  N1_6 
REMARK    5  A    between atoms: C8_9  and  O1_10 
REMARK    6  A    between atoms: C9_12  and  O2_13 
REMARK    7  A    between atoms: C16_20  and  O3_21 
REMARK    8  A    between atoms: C17_23  and  O4_24 
ROOT
HETATM    1  N1  UNL     1       0.921   0.781  -1.352  1.00  0.00     0.095 N 
HETATM    2  C6  UNL     1       1.179  -0.339  -2.280  1.00  0.00     0.290 C 
HETATM    3  C7  UNL     1      -0.137  -0.831  -1.967  1.00  0.00     0.074 C 
HETATM    4  C8  UNL     1      -0.481  -2.205  -1.584  1.00  0.00     0.162 C 
HETATM    5  C9  UNL     1      -1.656  -2.066  -0.604  1.00  0.00     0.158 C 
HETATM    6  C11 UNL     1      -2.260  -0.677  -0.656  1.00  0.00     0.060 C 
HETATM    7  C12 UNL     1      -1.211   0.291  -0.080  1.00  0.00     0.029 C 
HETATM    8  C13 UNL     1      -1.648   1.705  -0.151  1.00  0.00     0.007 C 
HETATM    9  C14 UNL     1      -2.236   2.178  -1.426  1.00  0.00     0.004 C 
HETATM   10  C15 UNL     1      -3.026   1.156  -2.153  1.00  0.00     0.041 C 
HETATM   11  C16 UNL     1      -2.508  -0.242  -2.071  1.00  0.00     0.091 C 
HETATM   12  C17 UNL     1      -1.232  -0.322  -2.841  1.00  0.00     0.168 C 
HETATM   13  C18 UNL     1       0.064  -0.084  -0.671  1.00  0.00     0.243 C 
ENDROOT
BRANCH   1  14
HETATM   14  C5  UNL     1       2.033   1.257  -0.635  1.00  0.00     0.273 C 
BRANCH  14  15
HETATM   15  C4  UNL     1       2.640   0.398   0.394  1.00  0.00     0.030 C 
BRANCH  15  16
HETATM   16  C3  UNL     1       3.851   1.061   1.069  1.00  0.00     0.001 C 
BRANCH  16  17
HETATM   17  C2  UNL     1       4.421   0.105   2.126  1.00  0.00    -0.005 C 
HETATM   18  C1  UNL     1       3.421  -0.220   3.170  1.00  0.00     0.005 C 
ENDBRANCH  16  17
ENDBRANCH  15  16
ENDBRANCH  14  15
ENDBRANCH   1  14
BRANCH   4  19
HETATM   19  O1  UNL     1      -0.797  -3.059  -2.632  1.00  0.00    -0.392 OA
ATOM     20  H1  UNL     1      -1.020  -3.949  -2.384  1.00  0.00     0.210 HD
ENDBRANCH   4  19
BRANCH  12  21
HETATM   21  O4  UNL     1      -0.920   0.805  -3.553  1.00  0.00    -0.392 OA
ATOM     22  H4  UNL     1      -1.618   1.129  -4.110  1.00  0.00     0.210 HD
ENDBRANCH  12  21
BRANCH   5  23
HETATM   23  O2  UNL     1      -2.569  -3.079  -0.726  1.00  0.00    -0.388 OA
HETATM   24  C10 UNL     1      -2.640  -3.871   0.440  1.00  0.00     0.202 C 
ENDBRANCH   5  23
BRANCH  11  25
HETATM   25  O3  UNL     1      -3.509  -1.087  -2.585  1.00  0.00    -0.387 OA
ATOM     26  H3  UNL     1      -3.666  -0.812  -3.481  1.00  0.00     0.210 HD
ENDBRANCH  11  25
TORSDOF 8
