REMARK  3 active torsions:
REMARK  status: ('A' for Active; 'I' for Inactive)
REMARK    1  A    between atoms: N1_2  and  C2_5 
REMARK    2  A    between atoms: C2_5  and  C3_6 
REMARK    3  A    between atoms: C3_6  and  C4_7 
ROOT
HETATM    1  C4  UNL     1       0.413  -1.001   0.487  1.00  0.00    -0.013 C 
HETATM    2  C5  UNL     1       1.664  -1.343   1.343  1.00  0.00     0.015 C 
HETATM    3  C6  UNL     1       2.514  -0.921   0.225  1.00  0.00     0.012 C 
HETATM    4  C7  UNL     1       1.249  -0.785  -0.637  1.00  0.00    -0.025 C 
HETATM    5  C8  UNL     1       1.427  -1.766  -1.757  1.00  0.00     0.011 C 
HETATM    6  C9  UNL     1       2.479  -1.192  -2.733  1.00  0.00     0.001 C 
HETATM    7  C10 UNL     1       1.779  -0.198  -3.614  1.00  0.00     0.000 C 
HETATM    8  C11 UNL     1       0.787   0.520  -2.677  1.00  0.00     0.006 C 
HETATM    9  C12 UNL     1       1.416   0.590  -1.324  1.00  0.00    -0.001 C 
HETATM   10  C13 UNL     1       0.880   1.551  -0.365  1.00  0.00    -0.009 C 
HETATM   11  C14 UNL     1       1.312   2.956  -0.134  1.00  0.00     0.013 C 
HETATM   12  C15 UNL     1       0.485   3.233   1.153  1.00  0.00     0.009 C 
HETATM   13  C16 UNL     1      -0.833   3.753   0.643  1.00  0.00     0.013 C 
HETATM   14  C17 UNL     1      -1.472   2.463   0.104  1.00  0.00    -0.009 C 
HETATM   15  C18 UNL     1      -1.949   1.752   1.313  1.00  0.00     0.042 C 
HETATM   16  C19 UNL     1      -0.691   1.023   1.873  1.00  0.00    -0.064 C 
HETATM   17  C20 UNL     1       0.305   2.061   2.073  1.00  0.00    -0.015 C 
HETATM   18  C21 UNL     1      -0.524  -0.308   1.281  1.00  0.00    -0.010 C 
HETATM   19  C22 UNL     1      -0.506   1.660  -0.677  1.00  0.00     0.010 C 
ENDROOT
BRANCH   1  20
HETATM   20  C3  UNL     1      -0.213  -2.419   0.242  1.00  0.00     0.042 C 
BRANCH  20  21
HETATM   21  C2  UNL     1      -1.458  -2.437  -0.526  1.00  0.00     0.233 C 
BRANCH  21  22
HETATM   22  N1  UNL     1      -1.816  -3.876  -0.666  1.00  0.00    -0.079 N 
HETATM   23  C1  UNL     1      -3.022  -4.008  -1.403  1.00  0.00     0.266 C 
ATOM     24  H12 UNL     1      -1.867  -4.347   0.238  1.00  0.00     0.276 HD
ATOM     25  H11 UNL     1      -1.057  -4.420  -1.075  1.00  0.00     0.276 HD
ENDBRANCH  21  22
ENDBRANCH  20  21
ENDBRANCH   1  20
TORSDOF 3
