REMARK  4 active torsions:
REMARK  status: ('A' for Active; 'I' for Inactive)
REMARK    1  A    between atoms: O1_1  and  C1_3 
REMARK    2  A    between atoms: C1_3  and  C2_4 
REMARK    3  A    between atoms: C2_4  and  C3_5 
REMARK    4  A    between atoms: C10_12  and  C14_16 
ROOT
HETATM    1  C3  UNL     1      -1.928  -0.569  -0.455  1.00  0.00    -0.026 A 
HETATM    2  C4  UNL     1      -1.150   0.314   0.408  1.00  0.00    -0.000 C 
HETATM    3  C5  UNL     1      -0.252  -0.116   1.538  1.00  0.00     0.006 C 
HETATM    4  C6  UNL     1       1.230  -0.070   1.412  1.00  0.00     0.001 C 
HETATM    5  C7  UNL     1       2.067  -0.131   0.186  1.00  0.00     0.005 C 
HETATM    6  C8  UNL     1       1.523  -0.713  -1.104  1.00  0.00    -0.009 C 
HETATM    7  C9  UNL     1       1.071   0.199  -2.223  1.00  0.00     0.010 C 
HETATM    8  C10 UNL     1      -0.376   0.656  -1.938  1.00  0.00    -0.004 C 
HETATM    9  C11 UNL     1      -0.090   0.512  -0.495  1.00  0.00    -0.000 C 
HETATM   10  C12 UNL     1       0.231  -1.006  -0.608  1.00  0.00    -0.000 C 
HETATM   11  C13 UNL     1      -0.966  -1.443  -1.327  1.00  0.00     0.005 A 
HETATM   12  C14 UNL     1      -1.491  -0.282  -1.955  1.00  0.00     0.005 A 
ENDROOT
BRANCH   1  13
HETATM   13  C2  UNL     1      -3.303  -1.030  -0.234  1.00  0.00     0.037 C 
BRANCH  13  14
HETATM   14  C1  UNL     1      -4.217   0.202  -0.171  1.00  0.00     0.165 C 
BRANCH  14  15
HETATM   15  O1  UNL     1      -5.508  -0.227   0.036  1.00  0.00    -0.401 OA
ATOM     16  H1  UNL     1      -6.074   0.535   0.075  1.00  0.00     0.209 HD
ENDBRANCH  14  15
ENDBRANCH  13  14
ENDBRANCH   1  13
TORSDOF 4
