REMARK  8 active torsions:
REMARK  status: ('A' for Active; 'I' for Inactive)
REMARK    1  A    between atoms: C2_2  and  C3_3 
REMARK    2  A    between atoms: C3_3  and  C5_5 
REMARK    3  A    between atoms: C5_5  and  O1_6 
REMARK    4  A    between atoms: C5_5  and  C10_11 
REMARK    5  A    between atoms: O1_6  and  C6_7 
REMARK    6  A    between atoms: C6_7  and  C7_8 
REMARK    7  A    between atoms: C12_13  and  O2_14 
REMARK    8  A    between atoms: C17_20  and  O3_21 
ROOT
HETATM    1  C10 UNL     1       0.198   1.074  -0.350  1.00  0.00     0.057 A 
HETATM    2  C11 UNL     1       0.259   1.002  -1.886  1.00  0.00     0.058 A 
HETATM    3  C12 UNL     1       0.661   2.444  -1.977  1.00  0.00     0.065 A 
HETATM    4  C13 UNL     1       2.095   2.796  -2.020  1.00  0.00     0.044 A 
HETATM    5  C14 UNL     1       1.981   2.918  -0.491  1.00  0.00     0.003 A 
HETATM    6  C15 UNL     1       3.178   2.370   0.132  1.00  0.00     0.016 C 
HETATM    7  C16 UNL     1       3.209   2.626   1.642  1.00  0.00     0.013 C 
HETATM    8  C17 UNL     1       3.684   1.026  -0.196  1.00  0.00     0.133 C 
HETATM    9  C18 UNL     1       2.692  -0.025  -0.549  1.00  0.00     0.081 C 
HETATM   10  C19 UNL     1       3.161  -1.390  -0.031  1.00  0.00     0.020 C 
HETATM   11  C20 UNL     1       1.403   0.284   0.117  1.00  0.00     0.145 C 
HETATM   12  O4  UNL     1       1.396  -0.216   1.219  1.00  0.00    -0.297 OA
HETATM   13  C21 UNL     1       0.643   2.464  -0.457  1.00  0.00     0.043 A 
ENDROOT
BRANCH   1  14
HETATM   14  C5  UNL     1      -1.105   0.678   0.109  1.00  0.00     0.141 C 
BRANCH  14  15
HETATM   15  C3  UNL     1      -1.649   0.635   1.466  1.00  0.00     0.011 C 
HETATM   16  C4  UNL     1      -1.378  -0.539   2.356  1.00  0.00     0.012 C 
BRANCH  15  17
HETATM   17  C2  UNL     1      -1.710   1.878   2.280  1.00  0.00     0.002 C 
HETATM   18  C1  UNL     1      -0.510   2.254   3.061  1.00  0.00     0.005 C 
ENDBRANCH  15  17
ENDBRANCH  14  15
BRANCH  14  19
HETATM   19  O1  UNL     1      -1.241  -0.686  -0.303  1.00  0.00    -0.384 OA
BRANCH  19  20
HETATM   20  C6  UNL     1      -2.301  -0.933  -1.103  1.00  0.00     0.172 C 
BRANCH  20  21
HETATM   21  C7  UNL     1      -2.254  -2.415  -1.503  1.00  0.00     0.001 C 
HETATM   22  C8  UNL     1      -3.423  -2.742  -2.415  1.00  0.00     0.011 C 
HETATM   23  C9  UNL     1      -2.300  -3.324  -0.309  1.00  0.00     0.011 C 
ENDBRANCH  20  21
ENDBRANCH  19  20
ENDBRANCH  14  19
ENDBRANCH   1  14
BRANCH   3  24
HETATM   24  O2  UNL     1      -0.205   3.317  -2.602  1.00  0.00    -0.389 OA
ATOM     25  H2  UNL     1       0.050   4.230  -2.660  1.00  0.00     0.210 HD
ENDBRANCH   3  24
BRANCH   8  26
HETATM   26  O3  UNL     1       4.687   0.996  -1.191  1.00  0.00    -0.394 OA
ATOM     27  H3  UNL     1       5.013   0.129  -1.403  1.00  0.00     0.210 HD
ENDBRANCH   8  26
TORSDOF 8
