REMARK  3 active torsions:
REMARK  status: ('A' for Active; 'I' for Inactive)
REMARK    1  A    between atoms: C4_6  and  N1_7 
REMARK       I    between atoms: N1_7  and  C5_9 
REMARK    2  A    between atoms: C5_9  and  C6_11 
REMARK    3  A    between atoms: C8_13  and  C14_19 
ROOT
HETATM    1  C6  UNL     1      -0.147   0.784   0.614  1.00  0.00     0.045 C 
HETATM    2  C7  UNL     1      -0.335   0.279  -0.818  1.00  0.00     0.024 C 
HETATM    3  C8  UNL     1       1.122   0.238  -1.299  1.00  0.00    -0.008 C 
HETATM    4  C9  UNL     1       1.775  -0.335  -0.099  1.00  0.00     0.011 C 
HETATM    5  C10 UNL     1       1.278   0.525   0.995  1.00  0.00     0.004 C 
HETATM    6  C11 UNL     1       2.091   1.726   1.313  1.00  0.00     0.011 C 
HETATM    7  C12 UNL     1       2.450   2.657   0.234  1.00  0.00    -0.009 C 
HETATM    8  C13 UNL     1       2.903   1.986  -1.047  1.00  0.00     0.010 C 
HETATM    9  C14 UNL     1       1.608   1.573  -1.735  1.00  0.00    -0.006 C 
HETATM   10  C15 UNL     1       0.616   2.662  -1.704  1.00  0.00    -0.005 C 
HETATM   11  C16 UNL     1       1.347   4.013  -1.603  1.00  0.00     0.011 C 
HETATM   12  C17 UNL     1       1.443   3.701  -0.121  1.00  0.00    -0.006 C 
HETATM   13  C18 UNL     1       0.067   3.097  -0.417  1.00  0.00    -0.004 C 
HETATM   14  C19 UNL     1      -0.493   2.240   0.563  1.00  0.00     0.025 C 
ENDROOT
BRANCH   1  15
HETATM   15  C5  UNL     1      -1.127   0.139   1.522  1.00  0.00     0.227 C 
HETATM   16  N1  UNL     1      -1.256  -1.253   1.719  1.00  0.00    -0.346 N 
ATOM     17  H1  UNL     1      -0.636  -1.879   1.205  1.00  0.00     0.163 HD
HETATM   18  O3  UNL     1      -1.912   0.917   2.172  1.00  0.00    -0.273 OA
BRANCH  16  19
HETATM   19  C4  UNL     1      -2.230  -1.828   2.619  1.00  0.00     0.186 C 
HETATM   20  C1  UNL     1      -3.154  -2.754   1.914  1.00  0.00     0.281 C 
HETATM   21  O1  UNL     1      -3.987  -2.440   1.164  1.00  0.00    -0.263 OA
HETATM   22  O2  UNL     1      -2.866  -4.058   2.294  1.00  0.00    -0.320 OA
HETATM   23  C2  UNL     1      -1.783  -4.106   3.190  1.00  0.00     0.181 C 
HETATM   24  C3  UNL     1      -1.573  -2.688   3.652  1.00  0.00     0.062 C 
ENDBRANCH  16  19
ENDBRANCH   1  15
TORSDOF 3
