REMARK  3 active torsions:
REMARK  status: ('A' for Active; 'I' for Inactive)
REMARK    1  A    between atoms: C3_5  and  C4_6 
REMARK    2  A    between atoms: C14_19  and  C15_20 
REMARK    3  A    between atoms: C15_20  and  N3_21 
REMARK       I    between atoms: N3_21  and  C16_23 
ROOT
HETATM    1  N3  UNL     1      -4.099  -0.348   1.397  1.00  0.00    -0.358 N 
ATOM      2  H3  UNL     1      -4.893  -0.267   0.761  1.00  0.00     0.162 HD
HETATM    3  C16 UNL     1      -3.754   0.784   2.141  1.00  0.00     0.197 C 
HETATM    4  N4  UNL     1      -2.455   1.024   2.631  1.00  0.00    -0.063 NA
HETATM    5  N5  UNL     1      -4.662   1.668   2.404  1.00  0.00    -0.268 N 
ATOM      6  H5  UNL     1      -4.420   2.497   2.946  1.00  0.00     0.180 HD
HETATM    7  C17 UNL     1      -5.990   1.491   1.943  1.00  0.00     0.184 C 
HETATM    8  N6  UNL     1      -7.076   1.366   1.556  1.00  0.00    -0.172 NA
ENDROOT
BRANCH   1   9
HETATM    9  C15 UNL     1      -3.430  -1.612   1.454  1.00  0.00     0.181 C 
BRANCH   9  10
HETATM   10  C14 UNL     1      -2.035  -1.473   0.984  1.00  0.00     0.051 A 
HETATM   11  C2  UNL     1      -1.648  -1.311  -0.335  1.00  0.00     0.031 A 
HETATM   12  C1  UNL     1      -2.564  -1.230  -1.509  1.00  0.00     0.070 C 
HETATM   13  N1  UNL     1      -0.314  -1.247  -0.309  1.00  0.00    -0.347 N 
HETATM   14  C3  UNL     1       0.173  -1.357   0.935  1.00  0.00     0.086 A 
ATOM     15  H1  UNL     1       0.267  -1.128  -1.139  1.00  0.00     0.167 HD
HETATM   16  N2  UNL     1      -0.925  -1.496   1.710  1.00  0.00    -0.346 N 
ATOM     17  H2  UNL     1      -0.903  -1.605   2.724  1.00  0.00     0.167 HD
BRANCH  14  18
HETATM   18  C4  UNL     1       1.559  -1.338   1.428  1.00  0.00     0.063 C 
HETATM   19  C5  UNL     1       2.630  -1.900   0.658  1.00  0.00     0.009 C 
HETATM   20  C6  UNL     1       2.590  -2.543  -0.652  1.00  0.00     0.006 C 
HETATM   21  C10 UNL     1       3.185  -0.525   0.420  1.00  0.00    -0.001 A 
HETATM   22  C7  UNL     1       4.067  -2.697  -1.048  1.00  0.00     0.000 C 
HETATM   23  C8  UNL     1       4.884  -1.473  -0.913  1.00  0.00     0.001 C 
HETATM   24  C9  UNL     1       4.622  -0.643   0.352  1.00  0.00     0.013 C 
HETATM   25  C11 UNL     1       2.620   0.348  -0.620  1.00  0.00     0.179 A 
HETATM   26  C13 UNL     1       2.303  -0.009   1.403  1.00  0.00     0.011 A 
HETATM   27  F1  UNL     1       3.589   1.288  -1.032  1.00  0.00    -0.249 F 
HETATM   28  C12 UNL     1       1.758   0.998   0.419  1.00  0.00     0.044 A 
ENDBRANCH  14  18
ENDBRANCH   9  10
ENDBRANCH   1   9
TORSDOF 3
