REMARK  5 active torsions:
REMARK  status: ('A' for Active; 'I' for Inactive)
REMARK    1  A    between atoms: C2_2  and  S1_3 
REMARK    2  A    between atoms: S1_3  and  C3_4 
REMARK    3  A    between atoms: C8_15  and  O6_16 
REMARK    4  A    between atoms: C8_15  and  C9_18 
REMARK    5  A    between atoms: C14_23  and  O7_24 
ROOT
HETATM    1  C3  UNL     1       1.543  -0.921  -2.421  1.00  0.00     0.267 C 
HETATM    2  C4  UNL     1       0.920   0.044  -1.522  1.00  0.00     0.231 A 
HETATM    3  O1  UNL     1       1.517   1.297  -1.827  1.00  0.00    -0.324 OA
HETATM    4  C5  UNL     1       1.043   1.844  -2.994  1.00  0.00     0.363 C 
HETATM    5  O2  UNL     1       1.402   1.210  -4.158  1.00  0.00    -0.248 OA
HETATM    6  S2  UNL     1       1.111  -0.445  -4.106  1.00  0.00     0.286 S 
HETATM    7  O3  UNL     1      -0.279  -0.813  -4.445  1.00  0.00    -0.197 OA
HETATM    8  O4  UNL     1       2.132  -1.152  -4.986  1.00  0.00    -0.197 OA
HETATM    9  O5  UNL     1      -0.407   0.239  -1.365  1.00  0.00    -0.333 OA
HETATM   10  C6  UNL     1      -0.450   0.058   0.038  1.00  0.00     0.129 A 
HETATM   11  C7  UNL     1      -1.581  -0.833   0.348  1.00  0.00     0.053 C 
HETATM   12  C8  UNL     1      -0.172   1.216   0.888  1.00  0.00     0.101 A 
HETATM   13  C13 UNL     1       1.305   0.951   0.717  1.00  0.00     0.088 A 
HETATM   14  C14 UNL     1       0.930  -0.293  -0.043  1.00  0.00     0.153 A 
ENDROOT
BRANCH   1  15
HETATM   15  S1  UNL     1       1.396  -2.648  -2.132  1.00  0.00    -0.114 SA
BRANCH  15  16
HETATM   16  C2  UNL     1      -0.211  -3.350  -2.327  1.00  0.00     0.036 C 
HETATM   17  C1  UNL     1      -0.667  -4.219  -1.453  1.00  0.00     0.018 C 
ENDBRANCH  15  16
ENDBRANCH   1  15
BRANCH  14  18
HETATM   18  O7  UNL     1       1.470  -1.463   0.322  1.00  0.00    -0.381 OA
ATOM     19  H7  UNL     1       1.476  -1.674   1.248  1.00  0.00     0.211 HD
ENDBRANCH  14  18
BRANCH  12  20
HETATM   20  O6  UNL     1      -0.522   2.406   0.206  1.00  0.00    -0.386 OA
ATOM     21  H6  UNL     1      -0.341   3.158   0.758  1.00  0.00     0.210 HD
ENDBRANCH  12  20
BRANCH  12  22
HETATM   22  C9  UNL     1      -0.559   1.289   2.297  1.00  0.00    -0.017 C 
HETATM   23  C10 UNL     1      -0.077   2.665   2.817  1.00  0.00     0.018 C 
HETATM   24  C11 UNL     1       0.128   0.302   3.220  1.00  0.00     0.018 C 
HETATM   25  C12 UNL     1      -2.004   1.237   2.642  1.00  0.00     0.018 C 
ENDBRANCH  12  22
TORSDOF 5
