REMARK  6 active torsions:
REMARK  status: ('A' for Active; 'I' for Inactive)
REMARK    1  A    between atoms: C2_2  and  C3_3 
REMARK    2  A    between atoms: C10_10  and  O1_11 
REMARK    3  A    between atoms: C13_15  and  O2_16 
REMARK    4  A    between atoms: C14_18  and  O3_19 
REMARK    5  A    between atoms: C18_23  and  C20_25 
REMARK    6  A    between atoms: C20_25  and  O4_26 
ROOT
HETATM    1  C3  UNL     1       2.513   0.119  -2.248  1.00  0.00    -0.003 C 
HETATM    2  C4  UNL     1       1.501   0.776  -1.380  1.00  0.00     0.016 C 
HETATM    3  C5  UNL     1       0.175   0.279  -1.164  1.00  0.00    -0.024 C 
HETATM    4  C6  UNL     1      -0.598  -0.927  -1.117  1.00  0.00     0.011 C 
HETATM    5  C7  UNL     1       0.015  -2.270  -1.135  1.00  0.00     0.007 C 
HETATM    6  C8  UNL     1       1.448  -1.738  -0.929  1.00  0.00     0.006 C 
HETATM    7  C9  UNL     1       1.778  -1.188  -2.235  1.00  0.00     0.051 C 
HETATM    8  C10 UNL     1       0.779  -0.821  -3.327  1.00  0.00     0.045 C 
HETATM    9  C11 UNL     1       0.072   0.491  -3.354  1.00  0.00     0.014 C 
HETATM   10  C12 UNL     1      -0.652   1.057  -2.188  1.00  0.00     0.051 C 
HETATM   11  C13 UNL     1      -0.527   2.370  -1.620  1.00  0.00     0.155 C 
HETATM   12  C14 UNL     1       0.035   2.258  -0.165  1.00  0.00     0.155 C 
HETATM   13  C16 UNL     1      -0.063   0.869   0.234  1.00  0.00     0.027 C 
HETATM   14  C17 UNL     1       0.953   0.063   0.956  1.00  0.00     0.019 C 
HETATM   15  C18 UNL     1       1.484  -1.224   0.440  1.00  0.00    -0.018 C 
HETATM   16  C19 UNL     1       2.854  -1.444   1.141  1.00  0.00     0.018 C 
ENDROOT
BRANCH  15  17
HETATM   17  C20 UNL     1       0.787  -2.320   1.307  1.00  0.00     0.176 C 
BRANCH  17  18
HETATM   18  O4  UNL     1       0.835  -1.896   2.674  1.00  0.00    -0.395 OA
HETATM   19  C21 UNL     1       0.243  -2.805   3.502  1.00  0.00     0.201 C 
ENDBRANCH  17  18
ENDBRANCH  15  17
BRANCH   1  20
HETATM   20  C2  UNL     1       3.923   0.276  -2.050  1.00  0.00     0.001 C 
HETATM   21  C1  UNL     1       4.830  -0.468  -3.009  1.00  0.00     0.005 C 
ENDBRANCH   1  20
BRANCH   8  22
HETATM   22  O1  UNL     1       0.245  -1.823  -4.114  1.00  0.00    -0.365 OA
ATOM     23  H1  UNL     1      -0.377  -1.594  -4.794  1.00  0.00     0.217 HD
ENDBRANCH   8  22
BRANCH  12  24
HETATM   24  O3  UNL     1      -0.765   3.009   0.706  1.00  0.00    -0.388 OA
HETATM   25  C15 UNL     1      -0.060   4.037   1.277  1.00  0.00     0.202 C 
ENDBRANCH  12  24
BRANCH  11  26
HETATM   26  O2  UNL     1      -1.803   2.975  -1.473  1.00  0.00    -0.392 OA
ATOM     27  H2  UNL     1      -1.720   3.844  -1.097  1.00  0.00     0.210 HD
ENDBRANCH  11  26
TORSDOF 6
