REMARK  13 active torsions:
REMARK  status: ('A' for Active; 'I' for Inactive)
REMARK    1  A    between atoms: C2_2  and  C3_3 
REMARK    2  A    between atoms: C3_3  and  C4_4 
REMARK    3  A    between atoms: C4_4  and  N1_5 
REMARK    4  A    between atoms: N1_5  and  C5_7 
REMARK    5  A    between atoms: N2_9  and  C7_11 
REMARK    6  A    between atoms: C7_11  and  C8_12 
REMARK    7  A    between atoms: C8_12  and  C9_13 
REMARK    8  A    between atoms: C9_13  and  N3_14 
REMARK       I    between atoms: N3_14  and  C10_16 
REMARK    9  A    between atoms: C10_16  and  C11_18 
REMARK   10  A    between atoms: C11_18  and  N4_19 
REMARK   11  A    between atoms: C11_18  and  C12_23 
REMARK   12  A    between atoms: C12_23  and  C13_24 
REMARK   13  A    between atoms: C13_24  and  C14_25 
ROOT
HETATM    1  C11 UNL     1      -1.910   0.926  -2.783  1.00  0.00     0.275 C 
ENDROOT
BRANCH   1   2
HETATM    2  C10 UNL     1      -1.339   1.897  -1.778  1.00  0.00     0.251 C 
HETATM    3  N3  UNL     1      -0.194   2.674  -2.032  1.00  0.00    -0.339 N 
ATOM      4  H3  UNL     1       0.211   2.540  -2.959  1.00  0.00     0.167 HD
HETATM    5  O1  UNL     1      -1.954   1.964  -0.705  1.00  0.00    -0.271 OA
BRANCH   3   6
HETATM    6  C9  UNL     1       0.488   3.604  -1.227  1.00  0.00     0.065 C 
BRANCH   6   7
HETATM    7  C8  UNL     1       1.199   3.203  -0.007  1.00  0.00     0.064 C 
BRANCH   7   8
HETATM    8  C7  UNL     1       0.474   2.541   1.109  1.00  0.00     0.126 C 
BRANCH   8   9
HETATM    9  N2  UNL     1       1.463   2.338   2.176  1.00  0.00    -0.380 N 
HETATM   10  C5  UNL     1       1.277   2.579   3.396  1.00  0.00     0.068 C 
HETATM   11  C6  UNL     1      -0.018   3.099   3.878  1.00  0.00     0.088 C 
ATOM     12  H2  UNL     1       2.375   1.971   1.905  1.00  0.00     0.160 HD
BRANCH  10  13
HETATM   13  N1  UNL     1       2.308   2.343   4.333  1.00  0.00    -0.380 N 
ATOM     14  H1  UNL     1       2.836   1.479   4.211  1.00  0.00     0.160 HD
BRANCH  13  15
HETATM   15  C4  UNL     1       2.697   3.166   5.425  1.00  0.00     0.121 C 
BRANCH  15  16
HETATM   16  C3  UNL     1       3.357   4.441   5.075  1.00  0.00     0.019 C 
BRANCH  16  17
HETATM   17  C2  UNL     1       2.535   5.370   4.256  1.00  0.00    -0.003 C 
HETATM   18  C1  UNL     1       3.351   6.658   4.005  1.00  0.00     0.005 C 
ENDBRANCH  16  17
ENDBRANCH  15  16
ENDBRANCH  13  15
ENDBRANCH  10  13
ENDBRANCH   8   9
ENDBRANCH   7   8
ENDBRANCH   6   7
ENDBRANCH   3   6
ENDBRANCH   1   2
BRANCH   1  19
HETATM   19  N4  UNL     1      -1.090   0.994  -3.950  1.00  0.00    -0.066 N 
ATOM     20  H43 UNL     1      -0.997   1.941  -4.318  1.00  0.00     0.275 HD
ATOM     21  H42 UNL     1      -0.102   0.831  -3.754  1.00  0.00     0.275 HD
ATOM     22  H41 UNL     1      -1.476   0.338  -4.629  1.00  0.00     0.275 HD
ENDBRANCH   1  19
BRANCH   1  23
HETATM   23  C12 UNL     1      -1.971  -0.465  -2.182  1.00  0.00     0.045 C 
BRANCH  23  24
HETATM   24  C13 UNL     1      -2.525  -1.464  -3.125  1.00  0.00     0.027 C 
BRANCH  24  25
HETATM   25  C14 UNL     1      -2.604  -2.868  -2.546  1.00  0.00     0.077 C 
HETATM   26  C15 UNL     1      -1.135  -3.216  -2.201  1.00  0.00     0.034 C 
HETATM   27  C16 UNL     1      -1.190  -4.651  -1.995  1.00  0.00    -0.036 C 
HETATM   28  C17 UNL     1      -2.061  -4.841  -0.807  1.00  0.00     0.014 C 
HETATM   29  C22 UNL     1      -1.377  -5.285  -3.296  1.00  0.00     0.032 C 
HETATM   30  C23 UNL     1      -0.330  -5.584  -1.272  1.00  0.00     0.014 C 
HETATM   31  C18 UNL     1      -1.639  -6.287  -0.882  1.00  0.00    -0.012 C 
HETATM   32  C19 UNL     1      -2.496  -6.829  -1.942  1.00  0.00     0.027 C 
HETATM   33  C20 UNL     1      -2.689  -6.060  -3.178  1.00  0.00     0.035 C 
HETATM   34 BR1  UNL     1      -2.724  -7.272  -4.698  1.00  0.00    -0.084 Br
HETATM   35  C21 UNL     1      -3.712  -4.974  -3.257  1.00  0.00     0.135 C 
HETATM   36  N5  UNL     1      -3.231  -3.668  -3.485  1.00  0.00    -0.416 N 
ATOM     37  H5  UNL     1      -3.356  -3.281  -4.420  1.00  0.00     0.153 HD
ENDBRANCH  24  25
ENDBRANCH  23  24
ENDBRANCH   1  23
TORSDOF 13
