REMARK  2 active torsions:
REMARK  status: ('A' for Active; 'I' for Inactive)
REMARK    1  A    between atoms: O1_2  and  C2_3 
REMARK    2  A    between atoms: C16_17  and  O2_18 
ROOT
HETATM    1  C2  UNL     1       1.304  -0.112   0.307  1.00  0.00     0.130 C 
HETATM    2  C3  UNL     1       1.395  -0.900   1.631  1.00  0.00     0.037 C 
HETATM    3  C4  UNL     1       0.069  -1.564   1.649  1.00  0.00    -0.012 C 
HETATM    4  C5  UNL     1      -0.839  -0.606   2.261  1.00  0.00     0.005 C 
HETATM    5  C6  UNL     1      -0.643   0.907   2.065  1.00  0.00     0.005 C 
HETATM    6  C7  UNL     1      -1.084   1.601   0.889  1.00  0.00    -0.006 C 
HETATM    7  C8  UNL     1      -2.168   0.739   0.280  1.00  0.00     0.006 C 
HETATM    8  C9  UNL     1      -1.316  -0.295  -0.306  1.00  0.00     0.013 C 
HETATM    9  C10 UNL     1       0.127  -0.181  -0.492  1.00  0.00    -0.006 C 
HETATM   10  C11 UNL     1       0.260  -1.612  -0.948  1.00  0.00     0.013 C 
HETATM   11  C12 UNL     1      -0.029  -2.316   0.402  1.00  0.00     0.005 C 
HETATM   12  C13 UNL     1       0.192   1.029  -1.300  1.00  0.00    -0.024 C 
HETATM   13  C14 UNL     1      -0.627   0.915  -2.541  1.00  0.00     0.017 C 
HETATM   14  C15 UNL     1       1.431   1.686  -1.791  1.00  0.00     0.047 C 
HETATM   15  C16 UNL     1       1.063   2.955  -2.574  1.00  0.00     0.159 C 
HETATM   16  C17 UNL     1      -0.214   3.553  -2.104  1.00  0.00     0.014 C 
HETATM   17 BR1  UNL     1      -0.887   4.982  -3.198  1.00  0.00    -0.053 Br
HETATM   18  C18 UNL     1      -0.854   3.153  -1.024  1.00  0.00    -0.004 C 
HETATM   19  C19 UNL     1      -0.258   2.049  -0.246  1.00  0.00     0.022 C 
ENDROOT
BRANCH   1  20
HETATM   20  O1  UNL     1       2.367  -0.765  -0.368  1.00  0.00    -0.390 OA
HETATM   21  C1  UNL     1       3.601  -0.335  -0.168  1.00  0.00     0.202 C 
ENDBRANCH   1  20
BRANCH  15  22
HETATM   22  O2  UNL     1       2.013   3.992  -2.351  1.00  0.00    -0.390 OA
ATOM     23  H2  UNL     1       1.785   4.777  -2.835  1.00  0.00     0.210 HD
ENDBRANCH  15  22
TORSDOF 2
