REMARK  8 active torsions:
REMARK  status: ('A' for Active; 'I' for Inactive)
REMARK    1  A    between atoms: C2_2  and  C3_3 
REMARK    2  A    between atoms: C4_4  and  O1_5 
REMARK    3  A    between atoms: C5_7  and  O2_8 
REMARK    4  A    between atoms: C6_10  and  O3_11 
REMARK    5  A    between atoms: O3_11  and  C7_12 
REMARK    6  A    between atoms: C7_12  and  C8_13 
REMARK    7  A    between atoms: N3_31  and  C23_32 
REMARK    8  A    between atoms: C23_32  and  C24_33 
ROOT
HETATM    1  C3  UNL     1      -1.484   2.199   0.819  1.00  0.00     0.231 C 
HETATM    2  C4  UNL     1      -0.362   2.607   1.687  1.00  0.00     0.183 C 
HETATM    3  C5  UNL     1       0.857   2.188   0.974  1.00  0.00     0.214 C 
HETATM    4  C6  UNL     1       0.455   0.976   0.148  1.00  0.00     0.277 C 
HETATM    5  C14 UNL     1       0.113  -0.201   0.862  1.00  0.00     0.132 C 
HETATM    6  C15 UNL     1       0.435  -1.616   0.713  1.00  0.00     0.288 C 
HETATM    7  C16 UNL     1      -0.549  -2.368   1.629  1.00  0.00     0.282 C 
HETATM    8  N1  UNL     1      -1.552  -1.648   2.250  1.00  0.00     0.034 N 
HETATM    9  C17 UNL     1      -2.758  -2.500   2.317  1.00  0.00     0.362 C 
HETATM   10  O4  UNL     1      -1.226  -1.525   3.594  1.00  0.00    -0.060 OA
HETATM   11  C18 UNL     1      -1.979  -0.363   1.693  1.00  0.00     0.357 C 
HETATM   12  C19 UNL     1      -1.308  -0.097   0.365  1.00  0.00     0.182 C 
HETATM   13  C20 UNL     1      -1.856  -1.128  -0.527  1.00  0.00     0.073 C 
HETATM   14  C21 UNL     1      -1.007  -2.221  -1.033  1.00  0.00     0.275 C 
HETATM   15  N2  UNL     1       0.349  -2.208  -0.581  1.00  0.00     0.095 N 
HETATM   16  C22 UNL     1       0.863  -3.591  -0.467  1.00  0.00     0.310 C 
HETATM   17  N3  UNL     1      -0.992   1.211  -0.132  1.00  0.00     0.008 N 
ENDROOT
BRANCH   4  18
HETATM   18  O3  UNL     1       1.244   0.760  -0.918  1.00  0.00    -0.320 OA
BRANCH  18  19
HETATM   19  C7  UNL     1       2.551   0.711  -0.973  1.00  0.00     0.149 C 
BRANCH  19  20
HETATM   20  C8  UNL     1       3.504  -0.164  -0.347  1.00  0.00    -0.014 A 
HETATM   21  C9  UNL     1       3.952  -1.319  -0.925  1.00  0.00     0.013 A 
HETATM   22  C10 UNL     1       4.862  -2.132  -0.332  1.00  0.00     0.001 A 
HETATM   23  C11 UNL     1       5.389  -1.811   0.920  1.00  0.00     0.000 A 
HETATM   24  C12 UNL     1       4.936  -0.646   1.499  1.00  0.00     0.001 A 
HETATM   25  C13 UNL     1       4.019   0.147   0.872  1.00  0.00     0.013 A 
ENDBRANCH  19  20
ENDBRANCH  18  19
ENDBRANCH   4  18
BRANCH   3  26
HETATM   26  O2  UNL     1       1.384   3.232   0.261  1.00  0.00    -0.388 OA
ATOM     27  H2  UNL     1       2.170   2.962  -0.199  1.00  0.00     0.210 HD
ENDBRANCH   3  26
BRANCH  17  28
HETATM   28  C23 UNL     1      -1.217   1.677  -1.390  1.00  0.00     0.219 C 
BRANCH  28  29
HETATM   29  C24 UNL     1      -0.523   1.645  -2.680  1.00  0.00    -0.013 A 
HETATM   30  C25 UNL     1       0.307   2.657  -3.130  1.00  0.00     0.013 A 
HETATM   31  C26 UNL     1       0.985   2.714  -4.315  1.00  0.00     0.001 A 
HETATM   32  C27 UNL     1       0.831   1.648  -5.167  1.00  0.00     0.000 A 
HETATM   33  C28 UNL     1       0.022   0.593  -4.804  1.00  0.00     0.001 A 
HETATM   34  C29 UNL     1      -0.607   0.640  -3.599  1.00  0.00     0.013 A 
ENDBRANCH  28  29
ENDBRANCH  17  28
BRANCH   2  35
HETATM   35  O1  UNL     1      -0.271   4.016   1.853  1.00  0.00    -0.391 OA
ATOM     36  H1  UNL     1       0.451   4.279   2.412  1.00  0.00     0.210 HD
ENDBRANCH   2  35
BRANCH   1  37
HETATM   37  C2  UNL     1      -2.287   3.379   0.458  1.00  0.00     0.032 C 
HETATM   38  C1  UNL     1      -3.534   3.200  -0.361  1.00  0.00     0.007 C 
ENDBRANCH   1  37
TORSDOF 8
