REMARK  5 active torsions:
REMARK  status: ('A' for Active; 'I' for Inactive)
REMARK    1  A    between atoms: N1_2  and  C3_4 
REMARK    2  A    between atoms: C8_9  and  O1_10 
REMARK    3  A    between atoms: C10_13  and  C11_14 
REMARK    4  A    between atoms: N3_16  and  C12_18 
REMARK    5  A    between atoms: C12_18  and  N4_21 
ROOT
HETATM    1  C3  UNL     1      -1.776   0.686  -1.559  1.00  0.00     0.238 A 
HETATM    2  C4  UNL     1      -0.391   1.138  -1.149  1.00  0.00     0.058 A 
HETATM    3  C5  UNL     1      -0.313   2.591  -0.802  1.00  0.00    -0.022 C 
HETATM    4  C6  UNL     1      -0.744   2.806   0.433  1.00  0.00    -0.022 C 
HETATM    5  C7  UNL     1      -1.168   1.569   1.092  1.00  0.00     0.054 A 
HETATM    6  C8  UNL     1      -2.554   1.075   0.747  1.00  0.00     0.134 A 
HETATM    7  C9  UNL     1      -1.933   0.072  -0.190  1.00  0.00     0.066 A 
HETATM    8  C10 UNL     1      -0.613   0.519   0.175  1.00  0.00     0.042 A 
ENDROOT
BRANCH   8   9
HETATM    9  C11 UNL     1       0.394  -0.346   0.753  1.00  0.00     0.101 C 
HETATM   10  N2  UNL     1       1.675   0.233   0.982  1.00  0.00    -0.087 NA
HETATM   11  N3  UNL     1       0.239  -1.578   1.076  1.00  0.00    -0.350 N 
ATOM     12  H3  UNL     1      -0.669  -2.017   0.923  1.00  0.00     0.163 HD
BRANCH  11  13
HETATM   13  C12 UNL     1       1.309  -2.367   1.651  1.00  0.00     0.189 C 
HETATM   14  C13 UNL     1       2.438  -2.431   0.640  1.00  0.00     0.070 C 
HETATM   15  C14 UNL     1       0.819  -3.746   1.990  1.00  0.00     0.070 C 
BRANCH  13  16
HETATM   16  N4  UNL     1       1.859  -1.728   2.845  1.00  0.00    -0.053 N 
ATOM     17  H43 UNL     1       2.160  -0.773   2.653  1.00  0.00     0.277 HD
ATOM     18  H42 UNL     1       1.131  -1.528   3.531  1.00  0.00     0.277 HD
ATOM     19  H41 UNL     1       2.612  -2.284   3.250  1.00  0.00     0.277 HD
ENDBRANCH  13  16
ENDBRANCH  11  13
ENDBRANCH   8   9
BRANCH   1  20
HETATM   20  N1  UNL     1      -1.850  -0.207  -2.664  1.00  0.00     0.085 N 
HETATM   21  C1  UNL     1      -1.292   0.374  -3.854  1.00  0.00     0.309 C 
HETATM   22  C2  UNL     1      -1.318  -1.516  -2.425  1.00  0.00     0.309 C 
ENDBRANCH   1  20
BRANCH   6  23
HETATM   23  O1  UNL     1      -3.287   0.553   1.783  1.00  0.00    -0.394 OA
ATOM     24  H1  UNL     1      -4.158   0.242   1.566  1.00  0.00     0.210 HD
ENDBRANCH   6  23
TORSDOF 5
