REMARK  8 active torsions:
REMARK  status: ('A' for Active; 'I' for Inactive)
REMARK    1  A    between atoms: C2_2  and  C5_5 
REMARK    2  A    between atoms: C8_8  and  O1_9 
REMARK    3  A    between atoms: N1_15  and  C13_16 
REMARK    4  A    between atoms: C13_16  and  C14_17 
REMARK    5  A    between atoms: C19_22  and  C20_23 
REMARK    6  A    between atoms: C20_23  and  C21_24 
REMARK    7  A    between atoms: N2_30  and  C25_31 
REMARK    8  A    between atoms: C25_31  and  C26_32 
ROOT
HETATM    1  C5  UNL     1       1.666   0.756   0.955  1.00  0.00     0.001 C 
HETATM    2  C6  UNL     1       2.036  -0.679   1.122  1.00  0.00     0.014 C 
HETATM    3  C7  UNL     1       1.495  -1.377  -0.063  1.00  0.00     0.033 C 
HETATM    4  C8  UNL     1       2.096  -0.378  -1.080  1.00  0.00     0.088 C 
HETATM    5  C9  UNL     1       1.393   0.855  -0.475  1.00  0.00     0.039 C 
HETATM    6  C10 UNL     1       0.153   0.115  -1.028  1.00  0.00     0.004 C 
HETATM    7  C11 UNL     1      -0.951   1.005  -1.298  1.00  0.00     0.057 C 
HETATM    8  C12 UNL     1      -1.764   1.476  -0.168  1.00  0.00     0.059 C 
HETATM    9  N1  UNL     1      -2.063   0.704   0.902  1.00  0.00    -0.387 N 
HETATM   10  C17 UNL     1      -1.967  -0.647   1.067  1.00  0.00     0.094 A 
HETATM   11  C18 UNL     1      -2.392  -1.499  -0.069  1.00  0.00     0.039 A 
HETATM   12  C19 UNL     1      -0.964  -1.513   0.606  1.00  0.00     0.001 A 
HETATM   13  C22 UNL     1       0.043  -1.197  -0.423  1.00  0.00    -0.009 C 
HETATM   14  C23 UNL     1      -0.222  -2.341  -1.438  1.00  0.00     0.056 C 
HETATM   15  C24 UNL     1      -0.236  -1.869  -2.863  1.00  0.00     0.064 C 
HETATM   16  N2  UNL     1       0.955  -1.158  -3.034  1.00  0.00    -0.365 N 
HETATM   17  C29 UNL     1       1.134  -0.124  -2.165  1.00  0.00     0.133 C 
ENDROOT
BRANCH   1  18
HETATM   18  C2  UNL     1       2.648   1.775   1.407  1.00  0.00    -0.047 C 
HETATM   19  C1  UNL     1       3.991   1.784   0.782  1.00  0.00     0.015 C 
HETATM   20  C3  UNL     1       2.066   3.192   1.237  1.00  0.00     0.015 C 
HETATM   21  C4  UNL     1       2.904   1.696   2.925  1.00  0.00     0.015 C 
ENDBRANCH   1  18
BRANCH   4  22
HETATM   22  O1  UNL     1       3.379  -0.403  -1.320  1.00  0.00    -0.387 OA
ATOM     23  H1  UNL     1       3.748   0.210  -1.944  1.00  0.00     0.210 HD
ENDBRANCH   4  22
BRANCH  12  24
HETATM   24  C20 UNL     1      -0.782  -2.898   1.204  1.00  0.00     0.125 C 
BRANCH  24  25
HETATM   25  C21 UNL     1      -0.521  -2.865   2.667  1.00  0.00     0.173 C 
HETATM   26  O2  UNL     1      -0.228  -3.962   3.270  1.00  0.00    -0.648 OA
HETATM   27  O3  UNL     1      -0.558  -1.764   3.473  1.00  0.00    -0.648 OA
ENDBRANCH  24  25
ENDBRANCH  12  24
BRANCH  16  28
HETATM   28  C25 UNL     1       1.589  -1.109  -4.286  1.00  0.00     0.068 C 
BRANCH  28  29
HETATM   29  C26 UNL     1       2.155  -2.443  -4.716  1.00  0.00     0.024 A 
HETATM   30  C27 UNL     1       3.176  -3.159  -3.933  1.00  0.00     0.010 A 
HETATM   31  C28 UNL     1       3.578  -2.510  -5.220  1.00  0.00     0.010 A 
ENDBRANCH  28  29
ENDBRANCH  16  28
BRANCH   9  32
HETATM   32  C13 UNL     1      -2.509   1.506   2.018  1.00  0.00     0.127 C 
BRANCH  32  33
HETATM   33  C14 UNL     1      -3.872   2.121   1.773  1.00  0.00     0.003 A 
HETATM   34  C15 UNL     1      -5.033   1.222   1.534  1.00  0.00     0.007 A 
HETATM   35  C16 UNL     1      -4.875   1.835   2.885  1.00  0.00     0.007 A 
ENDBRANCH  32  33
ENDBRANCH   9  32
TORSDOF 8
