REMARK  1 active torsions:
REMARK  status: ('A' for Active; 'I' for Inactive)
REMARK    1  A    between atoms: C2_2  and  O1_3 
ROOT
HETATM    1  C1  UNL     1       0.302  -1.160   2.320  1.00  0.00     0.046 C 
HETATM    2  C2  UNL     1       1.246  -0.961   1.191  1.00  0.00     0.059 C 
HETATM    3  C3  UNL     1       1.119  -2.239   0.339  1.00  0.00     0.038 C 
HETATM    4  C4  UNL     1       1.415  -2.054  -1.093  1.00  0.00     0.006 C 
HETATM    5  C5  UNL     1       0.368  -1.486  -1.952  1.00  0.00     0.038 C 
HETATM    6  C6  UNL     1      -0.298  -0.223  -1.621  1.00  0.00     0.065 C 
HETATM    7  C7  UNL     1      -1.588  -0.123  -2.433  1.00  0.00     0.046 C 
HETATM    8  O2  UNL     1       0.479   0.962  -1.752  1.00  0.00    -0.368 OA
HETATM    9  C8  UNL     1      -0.044   1.542  -0.615  1.00  0.00     0.072 C 
HETATM   10  C9  UNL     1      -0.926   2.662  -0.631  1.00  0.00     0.047 C 
HETATM   11  C10 UNL     1      -0.366   0.171  -0.213  1.00  0.00     0.063 C 
HETATM   12  C11 UNL     1       1.082   0.148   0.307  1.00  0.00     0.040 C 
HETATM   13  C12 UNL     1       0.900   1.561   0.605  1.00  0.00    -0.009 C 
HETATM   14  C13 UNL     1       2.051   2.507   0.216  1.00  0.00     0.018 C 
HETATM   15  C14 UNL     1       0.269   2.024   1.848  1.00  0.00     0.018 C 
ENDROOT
BRANCH   2  16
HETATM   16  O1  UNL     1       2.544  -0.921   1.761  1.00  0.00    -0.390 OA
ATOM     17  H1  UNL     1       3.148  -0.794   1.039  1.00  0.00     0.210 HD
ENDBRANCH   2  16
TORSDOF 1
