REMARK  3 active torsions:
REMARK  status: ('A' for Active; 'I' for Inactive)
REMARK    1  A    between atoms: C6_6  and  C7_7 
REMARK    2  A    between atoms: C14_16  and  O3_17 
REMARK    3  A    between atoms: C29_38  and  O6_39 
ROOT
HETATM    1  C1  UNL     1      -0.144   3.000  -1.043  1.00  0.00     0.013 C 
HETATM    2  C2  UNL     1       0.332   1.703  -1.560  1.00  0.00     0.022 C 
HETATM    3  C3  UNL     1       0.727   0.695  -0.470  1.00  0.00     0.017 C 
HETATM    4  C4  UNL     1       0.111  -0.607  -0.766  1.00  0.00     0.010 C 
HETATM    5  C5  UNL     1       0.835  -1.762  -1.384  1.00  0.00     0.021 C 
HETATM    6  C6  UNL     1      -0.345  -2.613  -1.823  1.00  0.00     0.029 C 
HETATM    7  C8  UNL     1      -0.131  -3.844  -2.503  1.00  0.00     0.009 A 
HETATM    8  C9  UNL     1       0.608  -4.193  -3.717  1.00  0.00     0.014 A 
HETATM    9  C10 UNL     1      -0.731  -3.550  -3.918  1.00  0.00     0.021 A 
HETATM   10  C11 UNL     1      -0.668  -2.042  -4.056  1.00  0.00     0.132 C 
HETATM   11  O2  UNL     1       0.514  -1.706  -4.581  1.00  0.00    -0.384 OA
HETATM   12  C12 UNL     1       1.453  -1.109  -3.839  1.00  0.00     0.181 C 
HETATM   13  C13 UNL     1       1.163  -0.774  -2.435  1.00  0.00     0.025 C 
HETATM   14  C14 UNL     1       2.367  -0.036  -1.915  1.00  0.00     0.147 C 
HETATM   15  C15 UNL     1       2.227   0.522  -0.515  1.00  0.00     0.068 C 
HETATM   16  C16 UNL     1       2.664  -0.469   0.545  1.00  0.00     0.028 C 
HETATM   17  C17 UNL     1       3.000   1.767  -0.326  1.00  0.00     0.229 C 
HETATM   18  O4  UNL     1       3.476   2.269  -1.424  1.00  0.00    -0.273 OA
HETATM   19  N1  UNL     1       3.281   2.459   0.861  1.00  0.00    -0.360 N 
ATOM     20  H1  UNL     1       4.270   2.649   1.023  1.00  0.00     0.162 HD
HETATM   21  C18 UNL     1       2.397   2.942   1.884  1.00  0.00     0.135 C 
HETATM   22  C19 UNL     1       2.681   2.412   3.274  1.00  0.00     0.128 C 
HETATM   23  S1  UNL     1       1.216   2.700   4.278  1.00  0.00     0.016 S 
HETATM   24  O5  UNL     1       1.555   3.639   5.602  1.00  0.00    -0.258 OA
HETATM   25  C20 UNL     1       0.340   1.242   4.628  1.00  0.00     0.109 C 
HETATM   26  C21 UNL     1      -0.534   0.732   3.536  1.00  0.00     0.016 C 
HETATM   27  C22 UNL     1      -1.531   1.705   3.008  1.00  0.00     0.027 C 
HETATM   28  C23 UNL     1      -2.798   1.009   2.696  1.00  0.00    -0.031 C 
HETATM   29  C24 UNL     1      -3.703   1.386   1.815  1.00  0.00    -0.031 C 
HETATM   30  C25 UNL     1      -3.621   2.594   0.961  1.00  0.00     0.027 C 
HETATM   31  C26 UNL     1      -3.696   2.275  -0.513  1.00  0.00     0.004 C 
HETATM   32  C27 UNL     1      -2.723   1.148  -0.897  1.00  0.00     0.003 C 
HETATM   33  C28 UNL     1      -2.082   1.342  -2.207  1.00  0.00     0.039 C 
HETATM   34  C29 UNL     1      -0.695   0.968  -2.427  1.00  0.00     0.071 C 
HETATM   35  C30 UNL     1      -0.238  -0.376  -2.212  1.00  0.00     0.015 C 
HETATM   36  C31 UNL     1      -1.015  -1.562  -2.708  1.00  0.00     0.044 C 
ENDROOT
BRANCH   6  37
HETATM   37  C7  UNL     1      -1.315  -2.833  -0.689  1.00  0.00     0.242 C 
HETATM   38  O1  UNL     1      -2.464  -2.494  -0.750  1.00  0.00    -0.306 OA
ENDBRANCH   6  37
BRANCH  14  39
HETATM   39  O3  UNL     1       3.385  -0.991  -1.831  1.00  0.00    -0.393 OA
ATOM     40  H3  UNL     1       4.145  -0.525  -1.503  1.00  0.00     0.210 HD
ENDBRANCH  14  39
BRANCH  34  41
HETATM   41  O6  UNL     1      -0.379   1.324  -3.765  1.00  0.00    -0.389 OA
ATOM     42  H6  UNL     1      -1.016   0.868  -4.303  1.00  0.00     0.210 HD
ENDBRANCH  34  41
TORSDOF 3
