REMARK  7 active torsions:
REMARK  status: ('A' for Active; 'I' for Inactive)
REMARK    1  A    between atoms: C6_6  and  O1_7 
REMARK    2  A    between atoms: O1_7  and  C7_8 
REMARK    3  A    between atoms: C9_10  and  O2_11 
REMARK    4  A    between atoms: C14_18  and  O4_19 
REMARK    5  A    between atoms: C18_24  and  O5_25 
REMARK    6  A    between atoms: O5_25  and  O6_26 
REMARK    7  A    between atoms: C20_29  and  O7_30 
ROOT
HETATM    1  C1  UNL     1      -0.454  -0.787  -1.982  1.00  0.00     0.019 C 
HETATM    2  C2  UNL     1      -1.300  -0.556  -1.005  1.00  0.00    -0.059 C 
HETATM    3  C3  UNL     1      -1.082   0.125   0.226  1.00  0.00    -0.038 A 
HETATM    4  C4  UNL     1      -0.733   0.673   1.440  1.00  0.00     0.063 A 
HETATM    5  C5  UNL     1       0.359   0.416   2.499  1.00  0.00     0.061 C 
HETATM    6  C6  UNL     1       1.054  -0.769   1.995  1.00  0.00     0.179 C 
HETATM    7  C14 UNL     1      -0.231  -0.974   1.372  1.00  0.00     0.067 C 
HETATM    8  C15 UNL     1      -0.894   0.337   0.883  1.00  0.00     0.060 A 
HETATM    9  C16 UNL     1      -0.152   1.606   0.311  1.00  0.00    -0.006 C 
HETATM   10  C17 UNL     1      -0.581   2.434  -0.717  1.00  0.00     0.012 C 
HETATM   11  C18 UNL     1      -1.453   2.713  -1.847  1.00  0.00     0.125 A 
HETATM   12  C19 UNL     1      -2.906   2.959  -1.880  1.00  0.00     0.065 A 
HETATM   13  C20 UNL     1      -4.034   2.239  -2.654  1.00  0.00     0.130 C 
HETATM   14  C21 UNL     1      -3.405   1.078  -1.909  1.00  0.00     0.023 C 
HETATM   15  C22 UNL     1      -3.383  -0.266  -2.376  1.00  0.00     0.016 C 
HETATM   16  C23 UNL     1      -2.634  -1.145  -1.366  1.00  0.00     0.014 C 
HETATM   17  C24 UNL     1      -2.489  -2.468  -2.128  1.00  0.00     0.015 C 
HETATM   18  C25 UNL     1      -2.256   1.866  -2.515  1.00  0.00     0.044 A 
HETATM   19  C26 UNL     1      -2.239   0.501   1.708  1.00  0.00     0.100 A 
HETATM   20  C27 UNL     1      -1.701   1.753   1.798  1.00  0.00     0.148 A 
HETATM   21  O8  UNL     1      -1.346   2.555   2.703  1.00  0.00    -0.296 OA
ENDROOT
BRANCH   6  22
HETATM   22  O1  UNL     1       2.156  -0.469   1.314  1.00  0.00    -0.350 OA
BRANCH  22  23
HETATM   23  C7  UNL     1       3.215  -1.230   1.720  1.00  0.00     0.263 C 
HETATM   24  C8  UNL     1       3.631  -1.971   0.459  1.00  0.00     0.092 C 
HETATM   25  C9  UNL     1       4.599  -1.023  -0.246  1.00  0.00     0.122 C 
HETATM   26  C10 UNL     1       4.033   0.314  -0.491  1.00  0.00     0.034 C 
HETATM   27  C11 UNL     1       4.098   1.307   0.590  1.00  0.00     0.034 C 
HETATM   28  C12 UNL     1       4.250   0.835   1.978  1.00  0.00     0.120 C 
HETATM   29  C13 UNL     1       5.496   1.414   2.639  1.00  0.00     0.039 C 
HETATM   30  O3  UNL     1       4.308  -0.527   2.164  1.00  0.00    -0.356 OA
BRANCH  25  31
HETATM   31  O2  UNL     1       5.812  -1.039   0.395  1.00  0.00    -0.395 OA
ATOM     32  H2  UNL     1       6.414  -0.449  -0.044  1.00  0.00     0.210 HD
ENDBRANCH  25  31
ENDBRANCH  22  23
ENDBRANCH   6  22
BRANCH   7  33
HETATM   33  O4  UNL     1      -0.271  -2.084   0.670  1.00  0.00    -0.365 OA
ATOM     34  H4  UNL     1      -1.117  -2.219   0.260  1.00  0.00     0.217 HD
ENDBRANCH   7  33
BRANCH  11  35
HETATM   35  O5  UNL     1      -0.842   3.671  -2.769  1.00  0.00    -0.227 OA
BRANCH  35  36
HETATM   36  O6  UNL     1      -0.659   4.741  -2.021  1.00  0.00    -0.249 OA
ATOM     37  H6  UNL     1      -0.262   5.363  -2.620  1.00  0.00     0.253 HD
ENDBRANCH  35  36
ENDBRANCH  11  35
BRANCH  13  38
HETATM   38  O7  UNL     1      -5.256   2.640  -2.181  1.00  0.00    -0.395 OA
ATOM     39  H7  UNL     1      -5.949   2.198  -2.657  1.00  0.00     0.210 HD
ENDBRANCH  13  38
TORSDOF 7
