REMARK  7 active torsions:
REMARK  status: ('A' for Active; 'I' for Inactive)
REMARK    1  A    between atoms: C2_2  and  C3_3 
REMARK    2  A    between atoms: C2_2  and  C4_5 
REMARK    3  A    between atoms: C4_5  and  N1_6 
REMARK       I    between atoms: N1_6  and  C5_7 
REMARK    4  A    between atoms: C5_7  and  C6_9 
REMARK    5  A    between atoms: C7_10  and  C8_11 
REMARK    6  A    between atoms: C18_22  and  O3_23 
REMARK    7  A    between atoms: C23_31  and  O5_32 
ROOT
HETATM    1  C8  UNL     1       0.571   0.374  -0.818  1.00  0.00     0.040 C 
HETATM    2  C9  UNL     1      -0.028   0.641  -2.197  1.00  0.00     0.026 C 
HETATM    3  C10 UNL     1      -0.332  -0.672  -0.184  1.00  0.00     0.078 C 
HETATM    4  C11 UNL     1       0.243  -1.987   0.192  1.00  0.00     0.047 C 
HETATM    5  O2  UNL     1      -1.635  -0.741  -0.691  1.00  0.00    -0.378 OA
HETATM    6  C12 UNL     1      -2.298  -0.936   0.535  1.00  0.00     0.174 C 
HETATM    7  C13 UNL     1      -1.813   0.339   1.311  1.00  0.00     0.020 C 
HETATM    8  C14 UNL     1      -2.807   1.338   1.054  1.00  0.00     0.015 C 
HETATM    9  C15 UNL     1      -3.144   2.508   1.852  1.00  0.00     0.030 C 
HETATM   10  C16 UNL     1      -3.277   2.503   3.306  1.00  0.00     0.020 C 
HETATM   11  C17 UNL     1      -4.751   2.534   3.726  1.00  0.00     0.013 C 
HETATM   12  C18 UNL     1      -2.659   3.724   4.020  1.00  0.00     0.154 C 
HETATM   13  C19 UNL     1      -1.723   4.511   3.058  1.00  0.00     0.197 C 
HETATM   14  O4  UNL     1      -2.643   4.874   2.113  1.00  0.00    -0.365 OA
HETATM   15  C20 UNL     1      -2.240   3.686   1.470  1.00  0.00     0.103 C 
HETATM   16  C21 UNL     1      -2.397   4.005   0.052  1.00  0.00     0.050 C 
HETATM   17  C22 UNL     1      -1.020   3.553   2.193  1.00  0.00     0.190 C 
HETATM   18  F1  UNL     1      -0.755   2.542   3.141  1.00  0.00    -0.234 F 
HETATM   19  C23 UNL     1       0.156   3.651   1.376  1.00  0.00     0.195 C 
HETATM   20  C24 UNL     1       0.680   2.235   1.198  1.00  0.00     0.191 A 
HETATM   21  O6  UNL     1       1.639   1.832   0.473  1.00  0.00    -0.365 OA
HETATM   22  C25 UNL     1       0.300   1.344   0.239  1.00  0.00     0.110 A 
HETATM   23  C26 UNL     1      -0.416   0.295   0.967  1.00  0.00     0.066 C 
ENDROOT
BRANCH   1  24
HETATM   24  C7  UNL     1       1.853  -0.320  -1.037  1.00  0.00    -0.005 C 
HETATM   25  C6  UNL     1       3.001  -0.253  -0.445  1.00  0.00     0.086 C 
BRANCH  25  26
HETATM   26  C5  UNL     1       4.160  -1.108  -0.898  1.00  0.00     0.310 C 
HETATM   27  N1  UNL     1       4.098  -1.951  -1.912  1.00  0.00    -0.411 NA
HETATM   28  O1  UNL     1       5.193  -0.889  -0.156  1.00  0.00    -0.252 OA
BRANCH  27  29
HETATM   29  C4  UNL     1       4.049  -2.865  -3.006  1.00  0.00     0.227 C 
BRANCH  29  30
HETATM   30  C2  UNL     1       4.384  -4.273  -2.569  1.00  0.00     0.026 C 
HETATM   31  C1  UNL     1       4.333  -5.244  -3.713  1.00  0.00     0.014 C 
BRANCH  30  32
HETATM   32  C3  UNL     1       3.521  -4.798  -1.470  1.00  0.00     0.121 C 
HETATM   33 CL1  UNL     1       1.838  -5.009  -1.945  1.00  0.00    -0.130 Cl
ENDBRANCH  30  32
ENDBRANCH  29  30
ENDBRANCH  27  29
ENDBRANCH  25  26
ENDBRANCH   1  24
BRANCH  19  34
HETATM   34  O5  UNL     1       0.119   4.365   0.184  1.00  0.00    -0.389 OA
ATOM     35  H5  UNL     1       0.897   4.430  -0.357  1.00  0.00     0.210 HD
ENDBRANCH  19  34
BRANCH  12  36
HETATM   36  O3  UNL     1      -3.589   4.612   4.482  1.00  0.00    -0.392 OA
ATOM     37  H3  UNL     1      -3.209   5.363   4.921  1.00  0.00     0.210 HD
ENDBRANCH  12  36
TORSDOF 7
