REMARK  10 active torsions:
REMARK  status: ('A' for Active; 'I' for Inactive)
REMARK    1  A    between atoms: O1_2  and  C2_3 
REMARK    2  A    between atoms: C2_3  and  C3_4 
REMARK    3  A    between atoms: C3_4  and  O2_5 
REMARK    4  A    between atoms: O2_5  and  C4_6 
REMARK    5  A    between atoms: C9_12  and  O3_13 
REMARK    6  A    between atoms: N1_19  and  C15_20 
REMARK    7  A    between atoms: C15_20  and  C16_21 
REMARK    8  A    between atoms: C19_24  and  O4_25 
REMARK    9  A    between atoms: C25_33  and  O6_34 
REMARK   10  A    between atoms: C28_39  and  N2_40 
ROOT
HETATM    1  C4  UNL     1       3.342   2.137   0.040  1.00  0.00     0.114 A 
HETATM    2  C5  UNL     1       2.901   2.393   1.236  1.00  0.00     0.041 A 
HETATM    3 BR1  UNL     1       3.717   3.606   2.324  1.00  0.00    -0.051 Br
HETATM    4  C6  UNL     1       1.669   1.891   1.568  1.00  0.00     0.064 A 
HETATM    5  C7  UNL     1       1.031   1.647   1.781  1.00  0.00    -0.013 A 
HETATM    6  C8  UNL     1       1.205   1.092   0.186  1.00  0.00     0.086 A 
HETATM    7  C9  UNL     1       2.274   1.365  -0.516  1.00  0.00     0.099 A 
HETATM    8  C11 UNL     1       0.315   0.241  -0.591  1.00  0.00    -0.002 C 
HETATM    9  C12 UNL     1      -1.034   0.432  -0.630  1.00  0.00     0.079 C 
HETATM   10  C13 UNL     1      -2.101  -0.187  -1.278  1.00  0.00     0.030 C 
HETATM   11  C14 UNL     1      -1.738  -0.900  -2.500  1.00  0.00     0.157 C 
HETATM   12  N1  UNL     1      -0.818  -1.927  -2.153  1.00  0.00    -0.362 N 
HETATM   13  C23 UNL     1       0.491  -1.434  -2.322  1.00  0.00     0.091 C 
HETATM   14  C24 UNL     1       1.002  -0.899  -1.113  1.00  0.00     0.028 C 
HETATM   15  O5  UNL     1      -1.657   1.452   0.129  1.00  0.00    -0.303 OA
HETATM   16  C25 UNL     1      -0.921   1.892   1.185  1.00  0.00     0.271 C 
HETATM   17  O7  UNL     1       0.512   1.400   1.107  1.00  0.00     0.000 OA
HETATM   18  C27 UNL     1      -1.199   0.959   2.262  1.00  0.00     0.081 A 
HETATM   19  S1  UNL     1      -2.179   0.049   3.203  1.00  0.00    -0.051 SA
HETATM   20  C28 UNL     1      -1.025  -0.316   4.420  1.00  0.00     0.143 A 
HETATM   21  N3  UNL     1       0.044   0.299   3.995  1.00  0.00    -0.336 N 
ATOM     22  H3  UNL     1       0.904   0.253   4.541  1.00  0.00     0.168 HD
HETATM   23  C29 UNL     1       0.022   1.011   2.815  1.00  0.00     0.058 A 
ENDROOT
BRANCH  12  24
HETATM   24  C15 UNL     1      -1.135  -3.252  -2.263  1.00  0.00     0.102 C 
BRANCH  24  25
HETATM   25  C16 UNL     1      -2.324  -3.564  -1.390  1.00  0.00    -0.018 A 
HETATM   26  C17 UNL     1      -2.162  -3.893  -0.061  1.00  0.00     0.016 A 
HETATM   27  C18 UNL     1      -3.214  -4.184   0.773  1.00  0.00     0.041 A 
HETATM   28  C19 UNL     1      -4.504  -4.153   0.289  1.00  0.00     0.106 A 
HETATM   29  C21 UNL     1      -4.695  -3.824  -1.049  1.00  0.00     0.150 A 
HETATM   30  F1  UNL     1      -5.968  -3.798  -1.524  1.00  0.00    -0.203 F 
HETATM   31  C22 UNL     1      -3.614  -3.539  -1.855  1.00  0.00     0.058 A 
BRANCH  28  32
HETATM   32  O4  UNL     1      -5.560  -4.441   1.114  1.00  0.00    -0.353 OA
HETATM   33  C20 UNL     1      -5.363  -4.769   2.464  1.00  0.00     0.210 C 
ENDBRANCH  28  32
ENDBRANCH  24  25
ENDBRANCH  12  24
BRANCH  16  34
HETATM   34  O6  UNL     1      -0.974   3.198   1.413  1.00  0.00    -0.351 OA
HETATM   35  C26 UNL     1      -2.326   3.306   1.630  1.00  0.00     0.206 C 
ENDBRANCH  16  34
BRANCH   7  36
HETATM   36  O3  UNL     1       2.519   0.975  -1.861  1.00  0.00    -0.356 OA
HETATM   37  C10 UNL     1       2.127   1.959  -2.761  1.00  0.00     0.209 C 
ENDBRANCH   7  36
BRANCH   1  38
HETATM   38  O2  UNL     1       4.459   2.460  -0.580  1.00  0.00    -0.345 OA
BRANCH  38  39
HETATM   39  C3  UNL     1       5.679   1.820  -0.629  1.00  0.00     0.202 C 
BRANCH  39  40
HETATM   40  C2  UNL     1       6.619   2.603  -1.501  1.00  0.00     0.193 C 
BRANCH  40  41
HETATM   41  O1  UNL     1       7.860   1.996  -1.575  1.00  0.00    -0.394 OA
HETATM   42  C1  UNL     1       8.506   1.879  -0.377  1.00  0.00     0.201 C 
ENDBRANCH  40  41
ENDBRANCH  39  40
ENDBRANCH  38  39
ENDBRANCH   1  38
BRANCH  20  43
HETATM   43  N2  UNL     1      -1.063  -1.010   5.512  1.00  0.00    -0.380 N 
ATOM     44  H22 UNL     1      -1.899  -1.491   5.844  1.00  0.00     0.158 HD
ATOM     45  H21 UNL     1      -0.377  -1.227   6.235  1.00  0.00     0.158 HD
ENDBRANCH  20  43
TORSDOF 10
