MODEL 1
REMARK VINA RESULT: -5.832681040      0.000      0.000
REMARK  2 active torsions:
REMARK  status: ('A' for Active; 'I' for Inactive)
REMARK    1  A    between atoms: N1_2  and  O1_3 
REMARK    2  A    between atoms: N1_2  and  C2_5 
ROOT
HETATM    1  C2  UNL     1      26.647   7.326   4.185  1.00  0.00     0.112 C 
HETATM    2  C3  UNL     1      26.962   6.266   3.155  1.00  0.00     0.028 C 
HETATM    3  C4  UNL     1      26.531   4.892   3.635  1.00  0.00     0.002 C 
HETATM    4  C5  UNL     1      25.300   4.960   4.497  1.00  0.00     0.000 C 
HETATM    5  C6  UNL     1      25.653   5.664   5.781  1.00  0.00     0.002 C 
HETATM    6  C7  UNL     1      26.646   6.778   5.583  1.00  0.00     0.028 C 
ENDROOT
BRANCH   1   7
HETATM    7  N1  UNL     1      27.646   8.362   4.084  1.00  0.00    -0.277 N 
HETATM    8  C1  UNL     1      27.641   9.275   3.174  1.00  0.00     0.150 C 
BRANCH   7   9
HETATM    9  O1  UNL     1      28.706   8.411   5.003  1.00  0.00    -0.288 OA
ATOM     10  H1  UNL     1      28.474   8.288   5.916  1.00  0.00     0.244 HD
ENDBRANCH   7   9
ENDBRANCH   1   7
TORSDOF 2
ENDMDL
MODEL 2
REMARK VINA RESULT: -5.596981392      0.740      1.845
REMARK  2 active torsions:
REMARK  status: ('A' for Active; 'I' for Inactive)
REMARK    1  A    between atoms: N1_2  and  O1_3 
REMARK    2  A    between atoms: N1_2  and  C2_5 
ROOT
HETATM    1  C2  UNL     1      27.359   6.795   4.152  1.00  0.00     0.112 C 
HETATM    2  C3  UNL     1      26.087   6.537   4.925  1.00  0.00     0.028 C 
HETATM    3  C4  UNL     1      25.352   5.326   4.380  1.00  0.00     0.002 C 
HETATM    4  C5  UNL     1      26.301   4.285   3.853  1.00  0.00     0.000 C 
HETATM    5  C6  UNL     1      26.985   4.837   2.629  1.00  0.00     0.002 C 
HETATM    6  C7  UNL     1      27.270   6.311   2.734  1.00  0.00     0.028 C 
ENDROOT
BRANCH   1   7
HETATM    7  N1  UNL     1      27.603   8.217   4.152  1.00  0.00    -0.277 N 
HETATM    8  C1  UNL     1      26.940   9.058   3.432  1.00  0.00     0.150 C 
BRANCH   7   9
HETATM    9  O1  UNL     1      28.615   8.759   4.961  1.00  0.00    -0.288 OA
ATOM     10  H1  UNL     1      28.486   8.683   5.899  1.00  0.00     0.244 HD
ENDBRANCH   7   9
ENDBRANCH   1   7
TORSDOF 2
ENDMDL
MODEL 3
REMARK VINA RESULT: -5.500560937      2.329      3.916
REMARK  2 active torsions:
REMARK  status: ('A' for Active; 'I' for Inactive)
REMARK    1  A    between atoms: N1_2  and  O1_3 
REMARK    2  A    between atoms: N1_2  and  C2_5 
ROOT
HETATM    1  C2  UNL     1      26.262   6.785   4.161  1.00  0.00     0.112 C 
HETATM    2  C3  UNL     1      26.860   7.770   5.138  1.00  0.00     0.028 C 
HETATM    3  C4  UNL     1      28.031   8.511   4.518  1.00  0.00     0.002 C 
HETATM    4  C5  UNL     1      27.842   8.723   3.041  1.00  0.00     0.000 C 
HETATM    5  C6  UNL     1      27.896   7.384   2.355  1.00  0.00     0.002 C 
HETATM    6  C7  UNL     1      27.271   6.283   3.170  1.00  0.00     0.028 C 
ENDROOT
BRANCH   1   7
HETATM    7  N1  UNL     1      25.741   5.668   4.913  1.00  0.00    -0.277 N 
HETATM    8  C1  UNL     1      26.039   5.434   6.146  1.00  0.00     0.150 C 
BRANCH   7   9
HETATM    9  O1  UNL     1      24.864   4.756   4.305  1.00  0.00    -0.288 OA
ATOM     10  H1  UNL     1      24.444   5.050   3.505  1.00  0.00     0.244 HD
ENDBRANCH   7   9
ENDBRANCH   1   7
TORSDOF 2
ENDMDL
MODEL 4
REMARK VINA RESULT: -5.350012465      1.682      3.994
REMARK  2 active torsions:
REMARK  status: ('A' for Active; 'I' for Inactive)
REMARK    1  A    between atoms: N1_2  and  O1_3 
REMARK    2  A    between atoms: N1_2  and  C2_5 
ROOT
HETATM    1  C2  UNL     1      27.052   7.796   3.024  1.00  0.00     0.112 C 
HETATM    2  C3  UNL     1      26.797   9.284   3.078  1.00  0.00     0.028 C 
HETATM    3  C4  UNL     1      27.486   9.999   1.930  1.00  0.00     0.002 C 
HETATM    4  C5  UNL     1      27.539   9.149   0.691  1.00  0.00     0.000 C 
HETATM    5  C6  UNL     1      28.454   7.981   0.951  1.00  0.00     0.002 C 
HETATM    6  C7  UNL     1      28.359   7.467   2.363  1.00  0.00     0.028 C 
ENDROOT
BRANCH   1   7
HETATM    7  N1  UNL     1      27.066   7.294   4.376  1.00  0.00    -0.277 N 
HETATM    8  C1  UNL     1      26.233   6.417   4.823  1.00  0.00     0.150 C 
BRANCH   7   9
HETATM    9  O1  UNL     1      28.020   7.763   5.293  1.00  0.00    -0.288 OA
ATOM     10  H1  UNL     1      28.930   7.647   5.046  1.00  0.00     0.244 HD
ENDBRANCH   7   9
ENDBRANCH   1   7
TORSDOF 2
ENDMDL
MODEL 5
REMARK VINA RESULT: -5.330834983      1.878      3.838
REMARK  2 active torsions:
REMARK  status: ('A' for Active; 'I' for Inactive)
REMARK    1  A    between atoms: N1_2  and  O1_3 
REMARK    2  A    between atoms: N1_2  and  C2_5 
ROOT
HETATM    1  C2  UNL     1      26.444   7.114   4.072  1.00  0.00     0.112 C 
HETATM    2  C3  UNL     1      26.894   8.160   5.065  1.00  0.00     0.028 C 
HETATM    3  C4  UNL     1      28.007   9.016   4.490  1.00  0.00     0.002 C 
HETATM    4  C5  UNL     1      27.861   9.202   3.005  1.00  0.00     0.000 C 
HETATM    5  C6  UNL     1      28.084   7.873   2.332  1.00  0.00     0.002 C 
HETATM    6  C7  UNL     1      27.542   6.717   3.128  1.00  0.00     0.028 C 
ENDROOT
BRANCH   1   7
HETATM    7  N1  UNL     1      26.011   5.952   4.809  1.00  0.00    -0.277 N 
HETATM    8  C1  UNL     1      25.761   4.810   4.264  1.00  0.00     0.150 C 
BRANCH   7   9
HETATM    9  O1  UNL     1      25.831   6.025   6.200  1.00  0.00    -0.288 OA
ATOM     10  H1  UNL     1      24.933   5.987   6.508  1.00  0.00     0.244 HD
ENDBRANCH   7   9
ENDBRANCH   1   7
TORSDOF 2
ENDMDL
