MODEL 1
REMARK VINA RESULT: -6.577551871      0.000      0.000
REMARK  0 active torsions:
REMARK  status: ('A' for Active; 'I' for Inactive)
ROOT
HETATM    1  C1  UNL     1      27.198   7.680   4.093  1.00  0.00     0.000 C 
HETATM    2  C2  UNL     1      26.626   7.648   5.460  1.00  0.00     0.000 C 
HETATM    3  C3  UNL     1      26.837   6.343   6.187  1.00  0.00     0.005 C 
HETATM    4  C4  UNL     1      25.699   5.413   5.843  1.00  0.00    -0.005 A 
HETATM    5  C5  UNL     1      25.275   5.610   4.487  1.00  0.00    -0.001 A 
HETATM    6  C6  UNL     1      26.188   5.497   3.377  1.00  0.00    -0.005 A 
HETATM    7  C7  UNL     1      27.418   6.346   3.466  1.00  0.00     0.005 C 
HETATM    8  C8  UNL     1      26.123   4.520   4.613  1.00  0.00    -0.001 A 
ENDROOT
TORSDOF 0
ENDMDL
MODEL 2
REMARK VINA RESULT: -6.248622543      0.720      3.100
REMARK  0 active torsions:
REMARK  status: ('A' for Active; 'I' for Inactive)
ROOT
HETATM    1  C1  UNL     1      25.507   5.482   5.246  1.00  0.00     0.000 C 
HETATM    2  C2  UNL     1      25.750   5.491   3.785  1.00  0.00     0.000 C 
HETATM    3  C3  UNL     1      27.190   5.719   3.399  1.00  0.00     0.005 C 
HETATM    4  C4  UNL     1      27.431   7.207   3.305  1.00  0.00    -0.005 A 
HETATM    5  C5  UNL     1      26.658   7.910   4.287  1.00  0.00    -0.001 A 
HETATM    6  C6  UNL     1      26.756   7.611   5.694  1.00  0.00    -0.005 A 
HETATM    7  C7  UNL     1      26.539   6.177   6.065  1.00  0.00     0.005 C 
HETATM    8  C8  UNL     1      27.971   7.726   4.694  1.00  0.00    -0.001 A 
ENDROOT
TORSDOF 0
ENDMDL
MODEL 3
REMARK VINA RESULT: -6.230139551      0.670      2.381
REMARK  0 active torsions:
REMARK  status: ('A' for Active; 'I' for Inactive)
ROOT
HETATM    1  C1  UNL     1      27.058   5.987   3.216  1.00  0.00     0.000 C 
HETATM    2  C2  UNL     1      26.389   4.866   3.917  1.00  0.00     0.000 C 
HETATM    3  C3  UNL     1      25.276   5.292   4.842  1.00  0.00     0.005 C 
HETATM    4  C4  UNL     1      25.869   5.597   6.197  1.00  0.00    -0.005 A 
HETATM    5  C5  UNL     1      27.175   6.175   6.061  1.00  0.00    -0.001 A 
HETATM    6  C6  UNL     1      27.406   7.367   5.283  1.00  0.00    -0.005 A 
HETATM    7  C7  UNL     1      26.916   7.318   3.869  1.00  0.00     0.005 C 
HETATM    8  C8  UNL     1      26.200   7.139   6.274  1.00  0.00    -0.001 A 
ENDROOT
TORSDOF 0
ENDMDL
MODEL 4
REMARK VINA RESULT: -6.137015573      0.700      1.255
REMARK  0 active torsions:
REMARK  status: ('A' for Active; 'I' for Inactive)
ROOT
HETATM    1  C1  UNL     1      27.244   6.504   2.999  1.00  0.00     0.000 C 
HETATM    2  C2  UNL     1      27.039   7.561   4.017  1.00  0.00     0.000 C 
HETATM    3  C3  UNL     1      27.356   7.130   5.428  1.00  0.00     0.005 C 
HETATM    4  C4  UNL     1      26.119   6.508   6.029  1.00  0.00    -0.005 A 
HETATM    5  C5  UNL     1      25.374   5.793   5.033  1.00  0.00    -0.001 A 
HETATM    6  C6  UNL     1      25.967   4.740   4.246  1.00  0.00    -0.005 A 
HETATM    7  C7  UNL     1      27.224   5.109   3.520  1.00  0.00     0.005 C 
HETATM    8  C8  UNL     1      26.166   4.948   5.797  1.00  0.00    -0.001 A 
ENDROOT
TORSDOF 0
ENDMDL
MODEL 5
REMARK VINA RESULT: -6.134688922      0.730      2.281
REMARK  0 active torsions:
REMARK  status: ('A' for Active; 'I' for Inactive)
ROOT
HETATM    1  C1  UNL     1      27.491   7.095   3.735  1.00  0.00     0.000 C 
HETATM    2  C2  UNL     1      26.883   5.799   3.355  1.00  0.00     0.000 C 
HETATM    3  C3  UNL     1      25.501   5.576   3.916  1.00  0.00     0.005 C 
HETATM    4  C4  UNL     1      25.634   4.950   5.284  1.00  0.00    -0.005 A 
HETATM    5  C5  UNL     1      26.793   5.454   5.962  1.00  0.00    -0.001 A 
HETATM    6  C6  UNL     1      26.995   6.865   6.184  1.00  0.00    -0.005 A 
HETATM    7  C7  UNL     1      26.926   7.725   4.961  1.00  0.00     0.005 C 
HETATM    8  C8  UNL     1      25.632   6.093   6.372  1.00  0.00    -0.001 A 
ENDROOT
TORSDOF 0
ENDMDL
