MODEL 1
REMARK VINA RESULT: -5.511290913      0.000      0.000
REMARK  0 active torsions:
REMARK  status: ('A' for Active; 'I' for Inactive)
ROOT
HETATM    1  C1  UNL     1      26.604   7.208   4.545  1.00  0.00     0.011 C 
HETATM    2  C2  UNL     1      26.426   6.480   5.887  1.00  0.00    -0.004 A 
HETATM    3  C3  UNL     1      25.274   5.537   5.833  1.00  0.00    -0.004 A 
HETATM    4  C4  UNL     1      24.844   5.277   4.413  1.00  0.00     0.015 C 
HETATM    5  C5  UNL     1      26.301   4.964   4.099  1.00  0.00    -0.032 A 
HETATM    6  C6  UNL     1      26.727   5.237   2.810  1.00  0.00     0.015 A 
HETATM    7  C7  UNL     1      27.254   6.167   3.729  1.00  0.00    -0.004 A 
HETATM    8  C8  UNL     1      26.604   5.028   5.490  1.00  0.00     0.003 A 
ENDROOT
TORSDOF 0
ENDMDL
MODEL 2
REMARK VINA RESULT: -5.487053017      0.607      2.317
REMARK  0 active torsions:
REMARK  status: ('A' for Active; 'I' for Inactive)
ROOT
HETATM    1  C1  UNL     1      27.367   6.388   3.776  1.00  0.00     0.011 C 
HETATM    2  C2  UNL     1      26.229   5.459   3.326  1.00  0.00    -0.004 A 
HETATM    3  C3  UNL     1      25.916   4.451   4.376  1.00  0.00    -0.004 A 
HETATM    4  C4  UNL     1      26.516   4.838   5.703  1.00  0.00     0.015 C 
HETATM    5  C5  UNL     1      25.870   6.204   5.523  1.00  0.00    -0.032 A 
HETATM    6  C6  UNL     1      26.524   7.279   6.101  1.00  0.00     0.015 A 
HETATM    7  C7  UNL     1      26.661   7.295   4.698  1.00  0.00    -0.004 A 
HETATM    8  C8  UNL     1      25.171   5.712   4.382  1.00  0.00     0.003 A 
ENDROOT
TORSDOF 0
ENDMDL
MODEL 3
REMARK VINA RESULT: -5.468603424      1.518      3.037
REMARK  0 active torsions:
REMARK  status: ('A' for Active; 'I' for Inactive)
ROOT
HETATM    1  C1  UNL     1      26.939   6.906   5.500  1.00  0.00     0.011 C 
HETATM    2  C2  UNL     1      26.872   8.432   5.320  1.00  0.00    -0.004 A 
HETATM    3  C3  UNL     1      28.064   8.934   4.582  1.00  0.00    -0.004 A 
HETATM    4  C4  UNL     1      28.801   7.811   3.900  1.00  0.00     0.015 C 
HETATM    5  C5  UNL     1      27.466   7.385   3.304  1.00  0.00    -0.032 A 
HETATM    6  C6  UNL     1      27.306   6.034   3.047  1.00  0.00     0.015 A 
HETATM    7  C7  UNL     1      26.541   6.435   4.161  1.00  0.00    -0.004 A 
HETATM    8  C8  UNL     1      26.871   8.577   3.811  1.00  0.00     0.003 A 
ENDROOT
TORSDOF 0
ENDMDL
MODEL 4
REMARK VINA RESULT: -5.421387511      1.663      3.518
REMARK  0 active torsions:
REMARK  status: ('A' for Active; 'I' for Inactive)
ROOT
HETATM    1  C1  UNL     1      27.034   6.382   3.580  1.00  0.00     0.011 C 
HETATM    2  C2  UNL     1      28.188   7.230   3.022  1.00  0.00    -0.004 A 
HETATM    3  C3  UNL     1      27.823   8.673   2.992  1.00  0.00    -0.004 A 
HETATM    4  C4  UNL     1      26.609   8.950   3.840  1.00  0.00     0.015 C 
HETATM    5  C5  UNL     1      27.308   8.205   4.968  1.00  0.00    -0.032 A 
HETATM    6  C6  UNL     1      26.494   7.547   5.874  1.00  0.00     0.015 A 
HETATM    7  C7  UNL     1      27.154   6.635   5.027  1.00  0.00    -0.004 A 
HETATM    8  C8  UNL     1      28.497   8.153   4.184  1.00  0.00     0.003 A 
ENDROOT
TORSDOF 0
ENDMDL
MODEL 5
REMARK VINA RESULT: -5.394080136      0.743      2.055
REMARK  0 active torsions:
REMARK  status: ('A' for Active; 'I' for Inactive)
ROOT
HETATM    1  C1  UNL     1      26.911   4.673   3.835  1.00  0.00     0.011 C 
HETATM    2  C2  UNL     1      25.498   4.669   4.441  1.00  0.00    -0.004 A 
HETATM    3  C3  UNL     1      25.474   5.393   5.742  1.00  0.00    -0.004 A 
HETATM    4  C4  UNL     1      26.711   6.233   5.926  1.00  0.00     0.015 C 
HETATM    5  C5  UNL     1      26.439   6.817   4.546  1.00  0.00    -0.032 A 
HETATM    6  C6  UNL     1      27.544   7.224   3.818  1.00  0.00     0.015 A 
HETATM    7  C7  UNL     1      26.994   6.039   3.289  1.00  0.00    -0.004 A 
HETATM    8  C8  UNL     1      25.180   6.150   4.522  1.00  0.00     0.003 A 
ENDROOT
TORSDOF 0
ENDMDL
