MODEL 1
REMARK VINA RESULT: -7.615091062      0.000      0.000
REMARK  10 active torsions:
REMARK  status: ('A' for Active; 'I' for Inactive)
REMARK       I    between atoms: C2_2  and  N1_4 
REMARK    1  A    between atoms: N1_4  and  C3_6 
REMARK    2  A    between atoms: C5_10  and  C6_11 
REMARK    3  A    between atoms: N3_13  and  N4_15 
REMARK    4  A    between atoms: C8_17  and  O2_18 
REMARK    5  A    between atoms: C8_17  and  C12_34 
REMARK    6  A    between atoms: O2_18  and  C9_19 
REMARK    7  A    between atoms: C10_22  and  N6_23 
REMARK    8  A    between atoms: C11_28  and  N8_29 
REMARK    9  A    between atoms: N13_41  and  N14_42 
REMARK   10  A    between atoms: C14_47  and  N16_48 
ROOT
HETATM    1  N4  UNL     1     103.593  24.966   0.362  1.00  0.00    -0.277 N 
ATOM      2  H4  UNL     1     102.857  25.022   1.066  1.00  0.00     0.189 HD
HETATM    3  C8  UNL     1     103.801  23.776   0.141  1.00  0.00     0.200 C 
ENDROOT
BRANCH   3   4
HETATM    4  O2  UNL     1     102.972  22.891   0.915  1.00  0.00    -0.257 OA
BRANCH   4   5
HETATM    5  C9  UNL     1     101.771  22.456   0.399  1.00  0.00     0.259 A 
HETATM    6  N5  UNL     1     100.861  23.286  -0.128  1.00  0.00    -0.154 N 
HETATM    7  C10 UNL     1      99.685  22.825  -0.630  1.00  0.00     0.693 A 
ATOM      8  H5  UNL     1     101.055  24.287  -0.154  1.00  0.00     0.188 HD
HETATM    9  N7  UNL     1      99.437  21.507  -0.594  1.00  0.00    -0.023 N 
HETATM   10  C11 UNL     1     100.334  20.652  -0.070  1.00  0.00     0.693 A 
ATOM     11  H7  UNL     1      98.558  21.150  -0.967  1.00  0.00     0.203 HD
HETATM   12  N9  UNL     1     101.496  21.150   0.421  1.00  0.00    -0.154 N 
ATOM     13  H9  UNL     1     102.180  20.507   0.819  1.00  0.00     0.188 HD
BRANCH   7  14
HETATM   14  N6  UNL     1      98.806  23.607  -1.135  1.00  0.00    -0.234 N 
ATOM     15  H62 UNL     1      99.117  24.402  -1.693  1.00  0.00     0.174 HD
ATOM     16  H61 UNL     1      97.806  23.460  -0.999  1.00  0.00     0.174 HD
ENDBRANCH   7  14
BRANCH  10  17
HETATM   17  N8  UNL     1     100.060  19.400  -0.055  1.00  0.00    -0.234 N 
ATOM     18  H82 UNL     1      99.104  19.049   0.000  1.00  0.00     0.174 HD
ATOM     19  H81 UNL     1     100.826  18.727  -0.098  1.00  0.00     0.174 HD
ENDBRANCH  10  17
ENDBRANCH   4   5
ENDBRANCH   3   4
BRANCH   3  20
HETATM   20  C12 UNL     1     104.739  23.136  -0.764  1.00  0.00     0.170 A 
HETATM   21  C13 UNL     1     105.324  23.613  -1.905  1.00  0.00     0.167 A 
HETATM   22  N10 UNL     1     105.173  24.869  -2.527  1.00  0.00    -0.079 NA
HETATM   23  N11 UNL     1     106.139  22.656  -2.423  1.00  0.00    -0.270 N 
HETATM   24  N12 UNL     1     106.057  21.630  -1.628  1.00  0.00    -0.220 N 
ATOM     25  H11 UNL     1     106.704  22.728  -3.270  1.00  0.00     0.190 HD
HETATM   26  N13 UNL     1     105.234  21.871  -0.626  1.00  0.00    -0.181 N 
ATOM     27  H12 UNL     1     106.562  20.754  -1.760  1.00  0.00     0.210 HD
BRANCH  26  28
HETATM   28  N14 UNL     1     104.957  20.943   0.380  1.00  0.00    -0.322 N 
ATOM     29 2H14 UNL     1     104.355  21.144   1.178  1.00  0.00     0.179 HD
ATOM     30 1H14 UNL     1     105.295  19.983   0.461  1.00  0.00     0.179 HD
ENDBRANCH  26  28
ENDBRANCH   3  20
BRANCH   1  31
HETATM   31  N3  UNL     1     103.938  26.199   0.055  1.00  0.00    -0.299 N 
HETATM   32  C6  UNL     1     104.868  26.956   0.444  1.00  0.00     0.066 C 
HETATM   33  C7  UNL     1     105.882  26.563   1.444  1.00  0.00     0.074 C 
ATOM     34  H3  UNL     1     103.327  26.631  -0.638  1.00  0.00     0.186 HD
BRANCH  32  35
HETATM   35  C5  UNL     1     104.947  28.311  -0.134  1.00  0.00     0.130 A 
HETATM   36  N2  UNL     1     104.199  28.662  -1.187  1.00  0.00    -0.348 N 
HETATM   37  C4  UNL     1     104.300  29.923  -1.692  1.00  0.00     0.123 A 
ATOM     38  H2  UNL     1     103.558  27.990  -1.608  1.00  0.00     0.167 HD
HETATM   39  C3  UNL     1     105.140  30.881  -1.178  1.00  0.00     0.094 A 
HETATM   40  C14 UNL     1     105.899  30.468  -0.082  1.00  0.00     0.129 A 
HETATM   41  N15 UNL     1     105.770  29.231   0.379  1.00  0.00    -0.325 N 
ATOM     42  H15 UNL     1     106.340  28.963   1.182  1.00  0.00     0.169 HD
BRANCH  39  43
HETATM   43  N1  UNL     1     105.292  32.197  -1.650  1.00  0.00    -0.323 N 
HETATM   44  C2  UNL     1     104.377  33.254  -1.621  1.00  0.00     0.218 C 
HETATM   45  C1  UNL     1     104.762  34.597  -2.194  1.00  0.00     0.117 C 
HETATM   46  O1  UNL     1     103.221  33.205  -1.152  1.00  0.00    -0.274 OA
ATOM     47  H1  UNL     1     106.195  32.410  -2.072  1.00  0.00     0.169 HD
ENDBRANCH  39  43
BRANCH  40  48
HETATM   48  N16 UNL     1     106.709  31.306   0.458  1.00  0.00    -0.384 N 
ATOM     49 2H16 UNL     1     106.373  32.152   0.919  1.00  0.00     0.157 HD
ATOM     50 1H16 UNL     1     107.709  31.113   0.420  1.00  0.00     0.157 HD
ENDBRANCH  40  48
ENDBRANCH  32  35
ENDBRANCH   1  31
TORSDOF 10
ENDMDL
MODEL 2
REMARK VINA RESULT: -7.605978817      0.092      1.398
REMARK  10 active torsions:
REMARK  status: ('A' for Active; 'I' for Inactive)
REMARK       I    between atoms: C2_2  and  N1_4 
REMARK    1  A    between atoms: N1_4  and  C3_6 
REMARK    2  A    between atoms: C5_10  and  C6_11 
REMARK    3  A    between atoms: N3_13  and  N4_15 
REMARK    4  A    between atoms: C8_17  and  O2_18 
REMARK    5  A    between atoms: C8_17  and  C12_34 
REMARK    6  A    between atoms: O2_18  and  C9_19 
REMARK    7  A    between atoms: C10_22  and  N6_23 
REMARK    8  A    between atoms: C11_28  and  N8_29 
REMARK    9  A    between atoms: N13_41  and  N14_42 
REMARK   10  A    between atoms: C14_47  and  N16_48 
ROOT
HETATM    1  N4  UNL     1     103.549  25.007   0.424  1.00  0.00    -0.277 N 
ATOM      2  H4  UNL     1     102.839  25.071   1.154  1.00  0.00     0.189 HD
HETATM    3  C8  UNL     1     103.729  23.815   0.191  1.00  0.00     0.200 C 
ENDROOT
BRANCH   3   4
HETATM    4  O2  UNL     1     102.913  22.941   0.990  1.00  0.00    -0.257 OA
BRANCH   4   5
HETATM    5  C9  UNL     1     101.751  22.421   0.462  1.00  0.00     0.259 A 
HETATM    6  N5  UNL     1     101.473  21.110   0.462  1.00  0.00    -0.154 N 
HETATM    7  C10 UNL     1     100.318  20.629  -0.067  1.00  0.00     0.693 A 
ATOM      8  H5  UNL     1     102.145  20.459   0.868  1.00  0.00     0.188 HD
HETATM    9  N7  UNL     1      99.439  21.491  -0.598  1.00  0.00    -0.023 N 
HETATM   10  C11 UNL     1      99.692  22.813  -0.611  1.00  0.00     0.693 A 
ATOM     11  H7  UNL     1      98.569  21.142  -0.998  1.00  0.00     0.203 HD
HETATM   12  N9  UNL     1     100.857  23.255  -0.074  1.00  0.00    -0.154 N 
ATOM     13  H9  UNL     1     101.055  24.255  -0.080  1.00  0.00     0.188 HD
BRANCH   7  14
HETATM   14  N6  UNL     1     100.041  19.379  -0.075  1.00  0.00    -0.234 N 
ATOM     15  H62 UNL     1     100.773  18.713  -0.319  1.00  0.00     0.174 HD
ATOM     16  H61 UNL     1      99.111  19.027   0.156  1.00  0.00     0.174 HD
ENDBRANCH   7  14
BRANCH  10  17
HETATM   17  N8  UNL     1      98.828  23.605  -1.127  1.00  0.00    -0.234 N 
ATOM     18  H82 UNL     1      98.786  24.597  -0.893  1.00  0.00     0.174 HD
ATOM     19  H81 UNL     1      98.155  23.232  -1.798  1.00  0.00     0.174 HD
ENDBRANCH  10  17
ENDBRANCH   4   5
ENDBRANCH   3   4
BRANCH   3  20
HETATM   20  C12 UNL     1     104.624  23.164  -0.749  1.00  0.00     0.170 A 
HETATM   21  C13 UNL     1     105.131  23.615  -1.936  1.00  0.00     0.167 A 
HETATM   22  N10 UNL     1     104.919  24.848  -2.586  1.00  0.00    -0.079 NA
HETATM   23  N11 UNL     1     105.932  22.656  -2.474  1.00  0.00    -0.270 N 
HETATM   24  N12 UNL     1     105.917  21.655  -1.644  1.00  0.00    -0.220 N 
ATOM     25  H11 UNL     1     106.444  22.712  -3.355  1.00  0.00     0.190 HD
HETATM   26  N13 UNL     1     105.151  21.913  -0.603  1.00  0.00    -0.181 N 
ATOM     27  H12 UNL     1     106.430  20.784  -1.781  1.00  0.00     0.210 HD
BRANCH  26  28
HETATM   28  N14 UNL     1     104.952  21.011   0.446  1.00  0.00    -0.322 N 
ATOM     29 2H14 UNL     1     104.378  21.219   1.263  1.00  0.00     0.179 HD
ATOM     30 1H14 UNL     1     105.328  20.067   0.544  1.00  0.00     0.179 HD
ENDBRANCH  26  28
ENDBRANCH   3  20
BRANCH   1  31
HETATM   31  N3  UNL     1     103.904  26.236   0.111  1.00  0.00    -0.299 N 
HETATM   32  C6  UNL     1     104.853  26.980   0.480  1.00  0.00     0.066 C 
HETATM   33  C7  UNL     1     105.883  26.571   1.458  1.00  0.00     0.074 C 
ATOM     34  H3  UNL     1     103.284  26.676  -0.569  1.00  0.00     0.186 HD
BRANCH  32  35
HETATM   35  C5  UNL     1     104.937  28.334  -0.098  1.00  0.00     0.130 A 
HETATM   36  N2  UNL     1     104.185  28.691  -1.146  1.00  0.00    -0.348 N 
HETATM   37  C4  UNL     1     104.292  29.951  -1.652  1.00  0.00     0.123 A 
ATOM     38  H2  UNL     1     103.536  28.023  -1.563  1.00  0.00     0.167 HD
HETATM   39  C3  UNL     1     105.142  30.903  -1.144  1.00  0.00     0.094 A 
HETATM   40  C14 UNL     1     105.905  30.484  -0.053  1.00  0.00     0.129 A 
HETATM   41  N15 UNL     1     105.771  29.248   0.409  1.00  0.00    -0.325 N 
ATOM     42  H15 UNL     1     106.344  28.975   1.208  1.00  0.00     0.169 HD
BRANCH  39  43
HETATM   43  N1  UNL     1     105.300  32.217  -1.617  1.00  0.00    -0.323 N 
HETATM   44  C2  UNL     1     104.382  33.271  -1.612  1.00  0.00     0.218 C 
HETATM   45  C1  UNL     1     104.776  34.614  -2.181  1.00  0.00     0.117 C 
HETATM   46  O1  UNL     1     103.216  33.221  -1.169  1.00  0.00    -0.274 OA
ATOM     47  H1  UNL     1     106.213  32.432  -2.019  1.00  0.00     0.169 HD
ENDBRANCH  39  43
BRANCH  40  48
HETATM   48  N16 UNL     1     106.725  31.316   0.481  1.00  0.00    -0.384 N 
ATOM     49 2H16 UNL     1     107.609  31.558   0.033  1.00  0.00     0.157 HD
ATOM     50 1H16 UNL     1     106.479  31.739   1.376  1.00  0.00     0.157 HD
ENDBRANCH  40  48
ENDBRANCH  32  35
ENDBRANCH   1  31
TORSDOF 10
ENDMDL
MODEL 3
REMARK VINA RESULT: -7.601863505      1.672      4.217
REMARK  10 active torsions:
REMARK  status: ('A' for Active; 'I' for Inactive)
REMARK       I    between atoms: C2_2  and  N1_4 
REMARK    1  A    between atoms: N1_4  and  C3_6 
REMARK    2  A    between atoms: C5_10  and  C6_11 
REMARK    3  A    between atoms: N3_13  and  N4_15 
REMARK    4  A    between atoms: C8_17  and  O2_18 
REMARK    5  A    between atoms: C8_17  and  C12_34 
REMARK    6  A    between atoms: O2_18  and  C9_19 
REMARK    7  A    between atoms: C10_22  and  N6_23 
REMARK    8  A    between atoms: C11_28  and  N8_29 
REMARK    9  A    between atoms: N13_41  and  N14_42 
REMARK   10  A    between atoms: C14_47  and  N16_48 
ROOT
HETATM    1  N4  UNL     1     103.297  23.620  -1.260  1.00  0.00    -0.277 N 
ATOM      2  H4  UNL     1     104.152  23.077  -1.385  1.00  0.00     0.189 HD
HETATM    3  C8  UNL     1     102.362  22.826  -1.216  1.00  0.00     0.200 C 
ENDROOT
BRANCH   3   4
HETATM    4  O2  UNL     1     102.763  21.451  -1.349  1.00  0.00    -0.257 OA
BRANCH   4   5
HETATM    5  C9  UNL     1     104.085  21.107  -1.171  1.00  0.00     0.259 A 
HETATM    6  N5  UNL     1     105.026  21.324  -2.101  1.00  0.00    -0.154 N 
HETATM    7  C10 UNL     1     106.322  20.972  -1.895  1.00  0.00     0.693 A 
ATOM      8  H5  UNL     1     104.763  21.763  -2.983  1.00  0.00     0.188 HD
HETATM    9  N7  UNL     1     106.661  20.396  -0.732  1.00  0.00    -0.023 N 
HETATM   10  C11 UNL     1     105.737  20.167   0.218  1.00  0.00     0.693 A 
ATOM     11  H7  UNL     1     107.631  20.128  -0.567  1.00  0.00     0.203 HD
HETATM   12  N9  UNL     1     104.453  20.532  -0.024  1.00  0.00    -0.154 N 
ATOM     13  H9  UNL     1     103.748  20.362   0.692  1.00  0.00     0.188 HD
BRANCH   7  14
HETATM   14  N6  UNL     1     107.231  21.172  -2.775  1.00  0.00    -0.234 N 
ATOM     15  H62 UNL     1     107.237  22.056  -3.285  1.00  0.00     0.174 HD
ATOM     16  H61 UNL     1     107.949  20.478  -2.982  1.00  0.00     0.174 HD
ENDBRANCH   7  14
BRANCH  10  17
HETATM   17  N8  UNL     1     106.100  19.615   1.316  1.00  0.00    -0.234 N 
ATOM     18  H82 UNL     1     106.948  19.889   1.812  1.00  0.00     0.174 HD
ATOM     19  H81 UNL     1     105.522  18.873   1.710  1.00  0.00     0.174 HD
ENDBRANCH  10  17
ENDBRANCH   4   5
ENDBRANCH   3   4
BRANCH   3  20
HETATM   20  C12 UNL     1     100.937  23.057  -1.054  1.00  0.00     0.170 A 
HETATM   21  C13 UNL     1     100.159  24.093  -1.494  1.00  0.00     0.167 A 
HETATM   22  N10 UNL     1     100.530  25.237  -2.230  1.00  0.00    -0.079 NA
HETATM   23  N11 UNL     1      98.873  23.882  -1.107  1.00  0.00    -0.270 N 
HETATM   24  N12 UNL     1      98.863  22.757  -0.454  1.00  0.00    -0.220 N 
ATOM     25  H11 UNL     1      98.072  24.488  -1.292  1.00  0.00     0.190 HD
HETATM   26  N13 UNL     1     100.071  22.232  -0.397  1.00  0.00    -0.181 N 
ATOM     27  H12 UNL     1      98.032  22.337  -0.040  1.00  0.00     0.210 HD
BRANCH  26  28
HETATM   28  N14 UNL     1     100.352  21.022   0.244  1.00  0.00    -0.322 N 
ATOM     29 2H14 UNL     1     101.183  20.465   0.050  1.00  0.00     0.179 HD
ATOM     30 1H14 UNL     1      99.802  20.547   0.960  1.00  0.00     0.179 HD
ENDBRANCH  26  28
ENDBRANCH   3  20
BRANCH   1  31
HETATM   31  N3  UNL     1     103.641  24.890  -1.211  1.00  0.00    -0.299 N 
HETATM   32  C6  UNL     1     103.665  25.741  -0.280  1.00  0.00     0.066 C 
HETATM   33  C7  UNL     1     103.260  25.448   1.110  1.00  0.00     0.074 C 
ATOM     34  H3  UNL     1     103.952  25.261  -2.108  1.00  0.00     0.186 HD
BRANCH  32  35
HETATM   35  C5  UNL     1     104.122  27.106  -0.601  1.00  0.00     0.130 A 
HETATM   36  N2  UNL     1     103.780  27.702  -1.750  1.00  0.00    -0.348 N 
HETATM   37  C4  UNL     1     104.222  28.964  -2.011  1.00  0.00     0.123 A 
ATOM     38  H2  UNL     1     103.193  27.213  -2.427  1.00  0.00     0.167 HD
HETATM   39  C3  UNL     1     105.015  29.682  -1.149  1.00  0.00     0.094 A 
HETATM   40  C14 UNL     1     105.344  29.020   0.035  1.00  0.00     0.129 A 
HETATM   41  N15 UNL     1     104.893  27.791   0.249  1.00  0.00    -0.325 N 
ATOM     42  H15 UNL     1     105.152  27.337   1.125  1.00  0.00     0.169 HD
BRANCH  39  43
HETATM   43  N1  UNL     1     105.504  30.984  -1.355  1.00  0.00    -0.323 N 
HETATM   44  C2  UNL     1     104.797  32.154  -1.647  1.00  0.00     0.218 C 
HETATM   45  C1  UNL     1     105.541  33.456  -1.830  1.00  0.00     0.117 C 
HETATM   46  O1  UNL     1     103.559  32.245  -1.779  1.00  0.00    -0.274 OA
ATOM     47  H1  UNL     1     106.516  31.089  -1.282  1.00  0.00     0.169 HD
ENDBRANCH  39  43
BRANCH  40  48
HETATM   48  N16 UNL     1     106.082  29.624   0.895  1.00  0.00    -0.384 N 
ATOM     49 2H16 UNL     1     107.090  29.472   0.935  1.00  0.00     0.157 HD
ATOM     50 1H16 UNL     1     105.641  30.271   1.549  1.00  0.00     0.157 HD
ENDBRANCH  40  48
ENDBRANCH  32  35
ENDBRANCH   1  31
TORSDOF 10
ENDMDL
MODEL 4
REMARK VINA RESULT: -7.596623173      2.580      9.517
REMARK  10 active torsions:
REMARK  status: ('A' for Active; 'I' for Inactive)
REMARK       I    between atoms: C2_2  and  N1_4 
REMARK    1  A    between atoms: N1_4  and  C3_6 
REMARK    2  A    between atoms: C5_10  and  C6_11 
REMARK    3  A    between atoms: N3_13  and  N4_15 
REMARK    4  A    between atoms: C8_17  and  O2_18 
REMARK    5  A    between atoms: C8_17  and  C12_34 
REMARK    6  A    between atoms: O2_18  and  C9_19 
REMARK    7  A    between atoms: C10_22  and  N6_23 
REMARK    8  A    between atoms: C11_28  and  N8_29 
REMARK    9  A    between atoms: N13_41  and  N14_42 
REMARK   10  A    between atoms: C14_47  and  N16_48 
ROOT
HETATM    1  N4  UNL     1     104.656  30.551  -1.239  1.00  0.00    -0.277 N 
ATOM      2  H4  UNL     1     104.229  31.111  -0.501  1.00  0.00     0.189 HD
HETATM    3  C8  UNL     1     105.362  31.300  -1.907  1.00  0.00     0.200 C 
ENDROOT
BRANCH   3   4
HETATM    4  O2  UNL     1     105.354  32.664  -1.448  1.00  0.00    -0.257 OA
BRANCH   4   5
HETATM    5  C9  UNL     1     104.236  33.443  -1.646  1.00  0.00     0.259 A 
HETATM    6  N5  UNL     1     102.987  32.966  -1.545  1.00  0.00    -0.154 N 
HETATM    7  C10 UNL     1     101.904  33.762  -1.747  1.00  0.00     0.693 A 
ATOM      8  H5  UNL     1     102.847  31.983  -1.313  1.00  0.00     0.188 HD
HETATM    9  N7  UNL     1     102.096  35.053  -2.052  1.00  0.00    -0.023 N 
HETATM   10  C11 UNL     1     103.338  35.559  -2.158  1.00  0.00     0.693 A 
ATOM     11  H7  UNL     1     101.291  35.660  -2.204  1.00  0.00     0.203 HD
HETATM   12  N9  UNL     1     104.395  34.733  -1.951  1.00  0.00    -0.154 N 
ATOM     13  H9  UNL     1     105.339  35.110  -2.029  1.00  0.00     0.188 HD
BRANCH   7  14
HETATM   14  N6  UNL     1     100.707  33.318  -1.655  1.00  0.00    -0.234 N 
ATOM     15  H62 UNL     1     100.494  32.616  -0.947  1.00  0.00     0.174 HD
ATOM     16  H61 UNL     1      99.958  33.645  -2.267  1.00  0.00     0.174 HD
ENDBRANCH   7  14
BRANCH  10  17
HETATM   17  N8  UNL     1     103.481  36.798  -2.451  1.00  0.00    -0.234 N 
ATOM     18  H82 UNL     1     102.988  37.539  -1.951  1.00  0.00     0.174 HD
ATOM     19  H81 UNL     1     104.110  37.057  -3.212  1.00  0.00     0.174 HD
ENDBRANCH  10  17
ENDBRANCH   4   5
ENDBRANCH   3   4
BRANCH   3  20
HETATM   20  C12 UNL     1     106.187  31.028  -3.071  1.00  0.00     0.170 A 
HETATM   21  C13 UNL     1     106.613  29.835  -3.587  1.00  0.00     0.167 A 
HETATM   22  N10 UNL     1     106.368  28.525  -3.125  1.00  0.00    -0.079 NA
HETATM   23  N11 UNL     1     107.368  30.070  -4.693  1.00  0.00    -0.270 N 
HETATM   24  N12 UNL     1     107.403  31.361  -4.849  1.00  0.00    -0.220 N 
ATOM     25  H11 UNL     1     107.819  29.371  -5.284  1.00  0.00     0.190 HD
HETATM   26  N13 UNL     1     106.714  31.971  -3.905  1.00  0.00    -0.181 N 
ATOM     27  H12 UNL     1     107.898  31.838  -5.602  1.00  0.00     0.210 HD
BRANCH  26  28
HETATM   28  N14 UNL     1     106.582  33.360  -3.829  1.00  0.00    -0.322 N 
ATOM     29 2H14 UNL     1     105.682  33.835  -3.769  1.00  0.00     0.179 HD
ATOM     30 1H14 UNL     1     107.322  34.063  -3.820  1.00  0.00     0.179 HD
ENDBRANCH  26  28
ENDBRANCH   3  20
BRANCH   1  31
HETATM   31  N3  UNL     1     104.229  29.314  -1.090  1.00  0.00    -0.299 N 
HETATM   32  C6  UNL     1     104.515  28.395  -0.275  1.00  0.00     0.066 C 
HETATM   33  C7  UNL     1     105.508  28.540   0.809  1.00  0.00     0.074 C 
ATOM     34  H3  UNL     1     103.523  29.043  -1.774  1.00  0.00     0.186 HD
BRANCH  32  35
HETATM   35  C5  UNL     1     103.817  27.103  -0.414  1.00  0.00     0.130 A 
HETATM   36  N2  UNL     1     103.514  26.602  -1.617  1.00  0.00    -0.348 N 
HETATM   37  C4  UNL     1     102.869  25.406  -1.705  1.00  0.00     0.123 A 
ATOM     38  H2  UNL     1     103.765  27.114  -2.464  1.00  0.00     0.167 HD
HETATM   39  C3  UNL     1     102.499  24.662  -0.610  1.00  0.00     0.094 A 
HETATM   40  C14 UNL     1     102.837  25.225   0.622  1.00  0.00     0.129 A 
HETATM   41  N15 UNL     1     103.465  26.392   0.662  1.00  0.00    -0.325 N 
ATOM     42  H15 UNL     1     103.697  26.774   1.579  1.00  0.00     0.169 HD
BRANCH  39  43
HETATM   43  N1  UNL     1     101.834  23.424  -0.630  1.00  0.00    -0.323 N 
HETATM   44  C2  UNL     1     100.526  23.133  -1.030  1.00  0.00     0.218 C 
HETATM   45  C1  UNL     1     100.019  21.712  -0.964  1.00  0.00     0.117 C 
HETATM   46  O1  UNL     1      99.693  23.959  -1.456  1.00  0.00    -0.274 OA
ATOM     47  H1  UNL     1     102.382  22.627  -0.307  1.00  0.00     0.169 HD
ENDBRANCH  39  43
BRANCH  40  48
HETATM   48  N16 UNL     1     102.527  24.591   1.695  1.00  0.00    -0.384 N 
ATOM     49 2H16 UNL     1     103.018  24.757   2.574  1.00  0.00     0.157 HD
ATOM     50 1H16 UNL     1     101.772  23.906   1.657  1.00  0.00     0.157 HD
ENDBRANCH  40  48
ENDBRANCH  32  35
ENDBRANCH   1  31
TORSDOF 10
ENDMDL
MODEL 5
REMARK VINA RESULT: -7.572772117      1.792      4.346
REMARK  10 active torsions:
REMARK  status: ('A' for Active; 'I' for Inactive)
REMARK       I    between atoms: C2_2  and  N1_4 
REMARK    1  A    between atoms: N1_4  and  C3_6 
REMARK    2  A    between atoms: C5_10  and  C6_11 
REMARK    3  A    between atoms: N3_13  and  N4_15 
REMARK    4  A    between atoms: C8_17  and  O2_18 
REMARK    5  A    between atoms: C8_17  and  C12_34 
REMARK    6  A    between atoms: O2_18  and  C9_19 
REMARK    7  A    between atoms: C10_22  and  N6_23 
REMARK    8  A    between atoms: C11_28  and  N8_29 
REMARK    9  A    between atoms: N13_41  and  N14_42 
REMARK   10  A    between atoms: C14_47  and  N16_48 
ROOT
HETATM    1  N4  UNL     1     103.203  23.470  -1.492  1.00  0.00    -0.277 N 
ATOM      2  H4  UNL     1     104.029  22.916  -1.717  1.00  0.00     0.189 HD
HETATM    3  C8  UNL     1     102.247  22.701  -1.446  1.00  0.00     0.200 C 
ENDROOT
BRANCH   3   4
HETATM    4  O2  UNL     1     102.594  21.331  -1.712  1.00  0.00    -0.257 OA
BRANCH   4   5
HETATM    5  C9  UNL     1     103.874  20.890  -1.460  1.00  0.00     0.259 A 
HETATM    6  N5  UNL     1     104.297  20.541  -0.237  1.00  0.00    -0.154 N 
HETATM    7  C10 UNL     1     105.567  20.110  -0.020  1.00  0.00     0.693 A 
ATOM      8  H5  UNL     1     103.650  20.601   0.549  1.00  0.00     0.188 HD
HETATM    9  N7  UNL     1     106.412  20.033  -1.059  1.00  0.00    -0.023 N 
HETATM   10  C11 UNL     1     106.014  20.377  -2.297  1.00  0.00     0.693 A 
ATOM     11  H7  UNL     1     107.367  19.710  -0.909  1.00  0.00     0.203 HD
HETATM   12  N9  UNL     1     104.738  20.803  -2.474  1.00  0.00    -0.154 N 
ATOM     13  H9  UNL     1     104.430  21.064  -3.410  1.00  0.00     0.188 HD
BRANCH   7  14
HETATM   14  N6  UNL     1     105.984  19.774   1.143  1.00  0.00    -0.234 N 
ATOM     15  H62 UNL     1     106.972  19.895   1.366  1.00  0.00     0.174 HD
ATOM     16  H61 UNL     1     105.361  19.391   1.854  1.00  0.00     0.174 HD
ENDBRANCH   7  14
BRANCH  10  17
HETATM   17  N8  UNL     1     106.850  20.289  -3.264  1.00  0.00    -0.234 N 
ATOM     18  H82 UNL     1     107.770  20.729  -3.234  1.00  0.00     0.174 HD
ATOM     19  H81 UNL     1     106.589  19.760  -4.097  1.00  0.00     0.174 HD
ENDBRANCH  10  17
ENDBRANCH   4   5
ENDBRANCH   3   4
BRANCH   3  20
HETATM   20  C12 UNL     1     100.845  22.957  -1.169  1.00  0.00     0.170 A 
HETATM   21  C13 UNL     1     100.071  24.041  -1.482  1.00  0.00     0.167 A 
HETATM   22  N10 UNL     1     100.426  25.225  -2.162  1.00  0.00    -0.079 NA
HETATM   23  N11 UNL     1      98.808  23.838  -1.021  1.00  0.00    -0.270 N 
HETATM   24  N12 UNL     1      98.808  22.670  -0.448  1.00  0.00    -0.220 N 
ATOM     25  H11 UNL     1      98.016  24.476  -1.108  1.00  0.00     0.190 HD
HETATM   26  N13 UNL     1      99.999  22.110  -0.512  1.00  0.00    -0.181 N 
ATOM     27  H12 UNL     1      97.994  22.244  -0.007  1.00  0.00     0.210 HD
BRANCH  26  28
HETATM   28  N14 UNL     1     100.286  20.852   0.024  1.00  0.00    -0.322 N 
ATOM     29 2H14 UNL     1     101.187  20.611   0.436  1.00  0.00     0.179 HD
ATOM     30 1H14 UNL     1      99.673  20.039   0.082  1.00  0.00     0.179 HD
ENDBRANCH  26  28
ENDBRANCH   3  20
BRANCH   1  31
HETATM   31  N3  UNL     1     103.591  24.722  -1.367  1.00  0.00    -0.299 N 
HETATM   32  C6  UNL     1     103.674  25.505  -0.382  1.00  0.00     0.066 C 
HETATM   33  C7  UNL     1     103.308  25.127   0.999  1.00  0.00     0.074 C 
ATOM     34  H3  UNL     1     103.884  25.145  -2.247  1.00  0.00     0.186 HD
BRANCH  32  35
HETATM   35  C5  UNL     1     104.166  26.874  -0.624  1.00  0.00     0.130 A 
HETATM   36  N2  UNL     1     103.964  27.488  -1.796  1.00  0.00    -0.348 N 
HETATM   37  C4  UNL     1     104.433  28.753  -1.981  1.00  0.00     0.123 A 
ATOM     38  H2  UNL     1     103.461  27.011  -2.545  1.00  0.00     0.167 HD
HETATM   39  C3  UNL     1     105.118  29.457  -1.020  1.00  0.00     0.094 A 
HETATM   40  C14 UNL     1     105.303  28.775   0.184  1.00  0.00     0.129 A 
HETATM   41  N15 UNL     1     104.830  27.544   0.323  1.00  0.00    -0.325 N 
ATOM     42  H15 UNL     1     104.984  27.076   1.216  1.00  0.00     0.169 HD
BRANCH  39  43
HETATM   43  N1  UNL     1     105.627  30.761  -1.146  1.00  0.00    -0.323 N 
HETATM   44  C2  UNL     1     104.967  31.930  -1.538  1.00  0.00     0.218 C 
HETATM   45  C1  UNL     1     105.725  33.235  -1.602  1.00  0.00     0.117 C 
HETATM   46  O1  UNL     1     103.763  32.017  -1.857  1.00  0.00    -0.274 OA
ATOM     47  H1  UNL     1     106.615  30.870  -0.919  1.00  0.00     0.169 HD
ENDBRANCH  39  43
BRANCH  40  48
HETATM   48  N16 UNL     1     105.933  29.365   1.135  1.00  0.00    -0.384 N 
ATOM     49 2H16 UNL     1     105.437  29.838   1.891  1.00  0.00     0.157 HD
ATOM     50 1H16 UNL     1     106.953  29.355   1.126  1.00  0.00     0.157 HD
ENDBRANCH  40  48
ENDBRANCH  32  35
ENDBRANCH   1  31
TORSDOF 10
ENDMDL
