MODEL 1
REMARK VINA RESULT: -8.123351414      0.000      0.000
REMARK  14 active torsions:
REMARK  status: ('A' for Active; 'I' for Inactive)
REMARK    1  A    between atoms: C2_2  and  C3_4 
REMARK    2  A    between atoms: C3_4  and  N1_6 
REMARK       I    between atoms: N1_6  and  C5_8 
REMARK    3  A    between atoms: C5_8  and  C6_10 
REMARK       I    between atoms: N2_13  and  C9_14 
REMARK    4  A    between atoms: C9_14  and  C10_16 
REMARK    5  A    between atoms: C10_16  and  N3_19 
REMARK       I    between atoms: N3_19  and  C13_21 
REMARK    6  A    between atoms: C13_21  and  C14_23 
REMARK    7  A    between atoms: C14_23  and  C15_24 
REMARK    8  A    between atoms: C14_23  and  N4_32 
REMARK    9  A    between atoms: C15_24  and  S1_25 
REMARK   10  A    between atoms: S1_25  and  C16_28 
REMARK       I    between atoms: N4_32  and  C20_34 
REMARK       I    between atoms: C20_34  and  N5_36 
REMARK   11  A    between atoms: N5_36  and  C21_38 
REMARK   12  A    between atoms: C21_38  and  C22_39 
REMARK   13  A    between atoms: C21_38  and  C26_44 
REMARK   14  A    between atoms: C22_39  and  C23_41 
ROOT
HETATM    1  C14 UNL     1      18.085 -15.475  23.618  1.00  0.00     0.095 C 
ENDROOT
BRANCH   1   2
HETATM    2  C13 UNL     1      17.782 -14.591  22.471  1.00  0.00     0.266 C 
HETATM    3  N3  UNL     1      18.611 -14.641  21.356  1.00  0.00    -0.339 N 
ATOM      4  H3  UNL     1      19.336 -15.348  21.470  1.00  0.00     0.164 HD
HETATM    5  O4  UNL     1      16.774 -13.796  22.577  1.00  0.00    -0.266 OA
BRANCH   3   6
HETATM    6  C10 UNL     1      18.732 -13.986  20.106  1.00  0.00     0.107 C 
HETATM    7  C11 UNL     1      19.598 -14.909  19.222  1.00  0.00     0.048 C 
HETATM    8  C12 UNL     1      19.675 -12.767  20.438  1.00  0.00     0.048 C 
BRANCH   6   9
HETATM    9  C9  UNL     1      17.624 -13.467  19.381  1.00  0.00     0.248 C 
HETATM   10  N2  UNL     1      16.328 -14.063  19.252  1.00  0.00    -0.336 N 
HETATM   11  C6  UNL     1      15.074 -13.576  18.605  1.00  0.00     0.180 C 
HETATM   12  C8  UNL     1      15.668 -15.267  19.570  1.00  0.00     0.129 C 
HETATM   13  C7  UNL     1      14.758 -15.051  18.346  1.00  0.00     0.055 C 
HETATM   14  O3  UNL     1      17.719 -12.353  18.752  1.00  0.00    -0.271 OA
BRANCH  11  15
HETATM   15  C5  UNL     1      14.010 -13.032  19.416  1.00  0.00     0.241 C 
HETATM   16  N1  UNL     1      14.019 -11.832  20.193  1.00  0.00    -0.348 N 
ATOM     17  H1  UNL     1      14.869 -11.270  20.248  1.00  0.00     0.163 HD
HETATM   18  O2  UNL     1      12.877 -13.655  19.486  1.00  0.00    -0.271 OA
BRANCH  16  19
HETATM   19  C3  UNL     1      12.810 -11.404  20.915  1.00  0.00     0.149 C 
HETATM   20  C4  UNL     1      12.485  -9.976  20.594  1.00  0.00     0.040 C 
BRANCH  19  21
HETATM   21  C2  UNL     1      13.002 -11.591  22.356  1.00  0.00     0.145 C 
HETATM   22  C1  UNL     1      12.588 -10.639  23.402  1.00  0.00     0.093 C 
HETATM   23  O1  UNL     1      13.563 -12.633  22.701  1.00  0.00    -0.296 OA
ENDBRANCH  19  21
ENDBRANCH  16  19
ENDBRANCH  11  15
ENDBRANCH   6   9
ENDBRANCH   3   6
ENDBRANCH   1   2
BRANCH   1  24
HETATM   24  C15 UNL     1      18.842 -15.020  24.768  1.00  0.00     0.204 C 
BRANCH  24  25
HETATM   25  S1  UNL     1      20.571 -15.309  24.530  1.00  0.00     0.157 S 
HETATM   26  O5  UNL     1      20.789 -16.780  24.335  1.00  0.00    -0.227 OA
HETATM   27  O6  UNL     1      21.047 -14.627  23.293  1.00  0.00    -0.227 OA
BRANCH  25  28
HETATM   28  C16 UNL     1      21.571 -14.752  25.873  1.00  0.00     0.053 C 
HETATM   29  C17 UNL     1      22.791 -14.051  25.318  1.00  0.00     0.031 C 
HETATM   30  C18 UNL     1      20.843 -13.866  26.807  1.00  0.00     0.031 C 
HETATM   31  C19 UNL     1      22.123 -15.959  26.657  1.00  0.00     0.031 C 
ENDBRANCH  25  28
ENDBRANCH  24  25
ENDBRANCH   1  24
BRANCH   1  32
HETATM   32  N4  UNL     1      17.035 -16.422  23.791  1.00  0.00    -0.307 N 
HETATM   33  C20 UNL     1      16.682 -17.565  23.078  1.00  0.00     0.321 C 
HETATM   34  O7  UNL     1      17.331 -17.888  22.066  1.00  0.00    -0.247 OA
HETATM   35  N5  UNL     1      15.594 -18.316  23.578  1.00  0.00    -0.331 N 
ATOM     36  H5  UNL     1      15.078 -17.951  24.378  1.00  0.00     0.165 HD
ATOM     37  H4  UNL     1      16.428 -16.226  24.588  1.00  0.00     0.170 HD
BRANCH  35  38
HETATM   38  C21 UNL     1      15.168 -19.608  22.993  1.00  0.00     0.159 C 
BRANCH  38  39
HETATM   39  C22 UNL     1      13.877 -19.448  22.349  1.00  0.00     0.153 C 
HETATM   40  O8  UNL     1      12.929 -19.975  22.998  1.00  0.00    -0.295 OA
BRANCH  39  41
HETATM   41  C23 UNL     1      13.491 -18.793  21.108  1.00  0.00     0.049 C 
HETATM   42  C24 UNL     1      14.617 -18.977  20.094  1.00  0.00     0.017 C 
HETATM   43  C25 UNL     1      13.083 -17.361  21.172  1.00  0.00     0.017 C 
ENDBRANCH  39  41
ENDBRANCH  38  39
BRANCH  38  44
HETATM   44  C26 UNL     1      15.054 -20.483  24.272  1.00  0.00     0.007 C 
HETATM   45  C27 UNL     1      15.466 -19.789  25.510  1.00  0.00     0.012 C 
HETATM   46  C28 UNL     1      15.746 -21.799  24.067  1.00  0.00     0.012 C 
ENDBRANCH  38  44
ENDBRANCH  35  38
ENDBRANCH   1  32
TORSDOF 14
ENDMDL
MODEL 2
REMARK VINA RESULT: -8.099123101      1.328      1.678
REMARK  14 active torsions:
REMARK  status: ('A' for Active; 'I' for Inactive)
REMARK    1  A    between atoms: C2_2  and  C3_4 
REMARK    2  A    between atoms: C3_4  and  N1_6 
REMARK       I    between atoms: N1_6  and  C5_8 
REMARK    3  A    between atoms: C5_8  and  C6_10 
REMARK       I    between atoms: N2_13  and  C9_14 
REMARK    4  A    between atoms: C9_14  and  C10_16 
REMARK    5  A    between atoms: C10_16  and  N3_19 
REMARK       I    between atoms: N3_19  and  C13_21 
REMARK    6  A    between atoms: C13_21  and  C14_23 
REMARK    7  A    between atoms: C14_23  and  C15_24 
REMARK    8  A    between atoms: C14_23  and  N4_32 
REMARK    9  A    between atoms: C15_24  and  S1_25 
REMARK   10  A    between atoms: S1_25  and  C16_28 
REMARK       I    between atoms: N4_32  and  C20_34 
REMARK       I    between atoms: C20_34  and  N5_36 
REMARK   11  A    between atoms: N5_36  and  C21_38 
REMARK   12  A    between atoms: C21_38  and  C22_39 
REMARK   13  A    between atoms: C21_38  and  C26_44 
REMARK   14  A    between atoms: C22_39  and  C23_41 
ROOT
HETATM    1  C14 UNL     1      19.806 -16.402  22.527  1.00  0.00     0.095 C 
ENDROOT
BRANCH   1   2
HETATM    2  C13 UNL     1      19.592 -15.645  21.274  1.00  0.00     0.266 C 
HETATM    3  N3  UNL     1      19.046 -14.368  21.354  1.00  0.00    -0.339 N 
ATOM      4  H3  UNL     1      18.893 -14.096  22.325  1.00  0.00     0.164 HD
HETATM    5  O4  UNL     1      19.901 -16.220  20.165  1.00  0.00    -0.266 OA
BRANCH   3   6
HETATM    6  C10 UNL     1      18.644 -13.339  20.469  1.00  0.00     0.107 C 
HETATM    7  C11 UNL     1      19.853 -13.071  19.547  1.00  0.00     0.048 C 
HETATM    8  C12 UNL     1      18.580 -12.074  21.407  1.00  0.00     0.048 C 
BRANCH   6   9
HETATM    9  C9  UNL     1      17.428 -13.370  19.731  1.00  0.00     0.248 C 
HETATM   10  N2  UNL     1      16.231 -14.074  20.079  1.00  0.00    -0.336 N 
HETATM   11  C6  UNL     1      14.881 -14.107  19.442  1.00  0.00     0.180 C 
HETATM   12  C8  UNL     1      15.779 -15.011  21.030  1.00  0.00     0.129 C 
HETATM   13  C7  UNL     1      14.774 -15.534  19.986  1.00  0.00     0.055 C 
HETATM   14  O3  UNL     1      17.317 -12.723  18.628  1.00  0.00    -0.271 OA
BRANCH  11  15
HETATM   15  C5  UNL     1      13.799 -13.337  20.008  1.00  0.00     0.241 C 
HETATM   16  N1  UNL     1      13.873 -12.087  20.699  1.00  0.00    -0.348 N 
ATOM     17  H1  UNL     1      14.782 -11.658  20.875  1.00  0.00     0.163 HD
HETATM   18  O2  UNL     1      12.583 -13.771  19.907  1.00  0.00    -0.271 OA
BRANCH  16  19
HETATM   19  C3  UNL     1      12.647 -11.416  21.158  1.00  0.00     0.149 C 
HETATM   20  C4  UNL     1      12.587 -10.014  20.631  1.00  0.00     0.040 C 
BRANCH  19  21
HETATM   21  C2  UNL     1      12.592 -11.433  22.622  1.00  0.00     0.145 C 
HETATM   22  C1  UNL     1      12.519 -10.242  23.487  1.00  0.00     0.093 C 
HETATM   23  O1  UNL     1      12.617 -12.544  23.157  1.00  0.00    -0.296 OA
ENDBRANCH  19  21
ENDBRANCH  16  19
ENDBRANCH  11  15
ENDBRANCH   6   9
ENDBRANCH   3   6
ENDBRANCH   1   2
BRANCH   1  24
HETATM   24  C15 UNL     1      20.896 -16.104  23.435  1.00  0.00     0.204 C 
BRANCH  24  25
HETATM   25  S1  UNL     1      20.287 -15.342  24.911  1.00  0.00     0.157 S 
HETATM   26  O5  UNL     1      19.397 -14.197  24.529  1.00  0.00    -0.227 OA
HETATM   27  O6  UNL     1      19.453 -16.305  25.687  1.00  0.00    -0.227 OA
BRANCH  25  28
HETATM   28  C16 UNL     1      21.561 -14.749  25.978  1.00  0.00     0.053 C 
HETATM   29  C17 UNL     1      22.089 -15.904  26.799  1.00  0.00     0.031 C 
HETATM   30  C18 UNL     1      22.663 -14.085  25.248  1.00  0.00     0.031 C 
HETATM   31  C19 UNL     1      20.974 -13.760  27.004  1.00  0.00     0.031 C 
ENDBRANCH  25  28
ENDBRANCH  24  25
ENDBRANCH   1  24
BRANCH   1  32
HETATM   32  N4  UNL     1      18.555 -16.848  23.044  1.00  0.00    -0.307 N 
HETATM   33  C20 UNL     1      17.706 -17.886  22.667  1.00  0.00     0.321 C 
HETATM   34  O7  UNL     1      17.997 -18.598  21.688  1.00  0.00    -0.247 OA
HETATM   35  N5  UNL     1      16.552 -18.081  23.457  1.00  0.00    -0.331 N 
ATOM     36  H5  UNL     1      16.356 -17.417  24.206  1.00  0.00     0.165 HD
ATOM     37  H4  UNL     1      18.219 -16.305  23.839  1.00  0.00     0.170 HD
BRANCH  35  38
HETATM   38  C21 UNL     1      15.611 -19.206  23.248  1.00  0.00     0.159 C 
BRANCH  38  39
HETATM   39  C22 UNL     1      14.511 -18.770  22.405  1.00  0.00     0.153 C 
HETATM   40  O8  UNL     1      14.033 -17.652  22.752  1.00  0.00    -0.295 OA
BRANCH  39  41
HETATM   41  C23 UNL     1      13.879 -19.384  21.248  1.00  0.00     0.049 C 
HETATM   42  C24 UNL     1      14.884 -19.400  20.099  1.00  0.00     0.017 C 
HETATM   43  C25 UNL     1      12.576 -18.826  20.786  1.00  0.00     0.017 C 
ENDBRANCH  39  41
ENDBRANCH  38  39
BRANCH  38  44
HETATM   44  C26 UNL     1      15.135 -19.462  24.704  1.00  0.00     0.007 C 
HETATM   45  C27 UNL     1      16.229 -19.468  25.698  1.00  0.00     0.012 C 
HETATM   46  C28 UNL     1      14.269 -20.687  24.762  1.00  0.00     0.012 C 
ENDBRANCH  38  44
ENDBRANCH  35  38
ENDBRANCH   1  32
TORSDOF 14
ENDMDL
MODEL 3
REMARK VINA RESULT: -7.981491168      3.398      8.798
REMARK  14 active torsions:
REMARK  status: ('A' for Active; 'I' for Inactive)
REMARK    1  A    between atoms: C2_2  and  C3_4 
REMARK    2  A    between atoms: C3_4  and  N1_6 
REMARK       I    between atoms: N1_6  and  C5_8 
REMARK    3  A    between atoms: C5_8  and  C6_10 
REMARK       I    between atoms: N2_13  and  C9_14 
REMARK    4  A    between atoms: C9_14  and  C10_16 
REMARK    5  A    between atoms: C10_16  and  N3_19 
REMARK       I    between atoms: N3_19  and  C13_21 
REMARK    6  A    between atoms: C13_21  and  C14_23 
REMARK    7  A    between atoms: C14_23  and  C15_24 
REMARK    8  A    between atoms: C14_23  and  N4_32 
REMARK    9  A    between atoms: C15_24  and  S1_25 
REMARK   10  A    between atoms: S1_25  and  C16_28 
REMARK       I    between atoms: N4_32  and  C20_34 
REMARK       I    between atoms: C20_34  and  N5_36 
REMARK   11  A    between atoms: N5_36  and  C21_38 
REMARK   12  A    between atoms: C21_38  and  C22_39 
REMARK   13  A    between atoms: C21_38  and  C26_44 
REMARK   14  A    between atoms: C22_39  and  C23_41 
ROOT
HETATM    1  C14 UNL     1      17.155 -12.632  16.627  1.00  0.00     0.095 C 
ENDROOT
BRANCH   1   2
HETATM    2  C13 UNL     1      18.315 -13.119  17.406  1.00  0.00     0.266 C 
HETATM    3  N3  UNL     1      18.179 -13.257  18.784  1.00  0.00    -0.339 N 
ATOM      4  H3  UNL     1      17.232 -13.026  19.083  1.00  0.00     0.164 HD
HETATM    5  O4  UNL     1      19.405 -13.367  16.768  1.00  0.00    -0.266 OA
BRANCH   3   6
HETATM    6  C10 UNL     1      18.985 -13.627  19.887  1.00  0.00     0.107 C 
HETATM    7  C11 UNL     1      20.301 -12.833  19.742  1.00  0.00     0.048 C 
HETATM    8  C12 UNL     1      19.386 -15.113  19.546  1.00  0.00     0.048 C 
BRANCH   6   9
HETATM    9  C9  UNL     1      18.524 -13.621  21.233  1.00  0.00     0.248 C 
HETATM   10  N2  UNL     1      18.315 -14.761  22.073  1.00  0.00    -0.336 N 
HETATM   11  C6  UNL     1      17.928 -14.875  23.511  1.00  0.00     0.180 C 
HETATM   12  C8  UNL     1      18.309 -16.168  21.986  1.00  0.00     0.129 C 
HETATM   13  C7  UNL     1      17.269 -16.200  23.121  1.00  0.00     0.055 C 
HETATM   14  O3  UNL     1      18.245 -12.516  21.823  1.00  0.00    -0.271 OA
BRANCH  11  15
HETATM   15  C5  UNL     1      18.935 -15.158  24.507  1.00  0.00     0.241 C 
HETATM   16  N1  UNL     1      20.111 -14.404  24.811  1.00  0.00    -0.348 N 
ATOM     17  H1  UNL     1      20.338 -13.574  24.262  1.00  0.00     0.163 HD
HETATM   18  O2  UNL     1      18.815 -16.205  25.258  1.00  0.00    -0.271 OA
BRANCH  16  19
HETATM   19  C3  UNL     1      20.998 -14.820  25.909  1.00  0.00     0.149 C 
HETATM   20  C4  UNL     1      21.058 -13.758  26.966  1.00  0.00     0.040 C 
BRANCH  19  21
HETATM   21  C2  UNL     1      22.334 -15.115  25.382  1.00  0.00     0.145 C 
HETATM   22  C1  UNL     1      23.274 -14.122  24.835  1.00  0.00     0.093 C 
HETATM   23  O1  UNL     1      22.678 -16.299  25.402  1.00  0.00    -0.296 OA
ENDBRANCH  19  21
ENDBRANCH  16  19
ENDBRANCH  11  15
ENDBRANCH   6   9
ENDBRANCH   3   6
ENDBRANCH   1   2
BRANCH   1  24
HETATM   24  C15 UNL     1      16.774 -13.221  15.358  1.00  0.00     0.204 C 
BRANCH  24  25
HETATM   25  S1  UNL     1      15.982 -12.022  14.328  1.00  0.00     0.157 S 
HETATM   26  O5  UNL     1      14.543 -11.912  14.736  1.00  0.00    -0.227 OA
HETATM   27  O6  UNL     1      16.597 -10.678  14.526  1.00  0.00    -0.227 OA
BRANCH  25  28
HETATM   28  C16 UNL     1      16.064 -12.404  12.607  1.00  0.00     0.053 C 
HETATM   29  C17 UNL     1      16.526 -13.835  12.444  1.00  0.00     0.031 C 
HETATM   30  C18 UNL     1      14.780 -12.190  11.905  1.00  0.00     0.031 C 
HETATM   31  C19 UNL     1      17.153 -11.551  11.927  1.00  0.00     0.031 C 
ENDBRANCH  25  28
ENDBRANCH  24  25
ENDBRANCH   1  24
BRANCH   1  32
HETATM   32  N4  UNL     1      16.151 -12.138  17.509  1.00  0.00    -0.307 N 
HETATM   33  C20 UNL     1      15.169 -12.780  18.259  1.00  0.00     0.321 C 
HETATM   34  O7  UNL     1      15.051 -14.019  18.192  1.00  0.00    -0.247 OA
HETATM   35  N5  UNL     1      14.366 -11.965  19.086  1.00  0.00    -0.331 N 
ATOM     36  H5  UNL     1      14.488 -10.954  19.038  1.00  0.00     0.165 HD
ATOM     37  H4  UNL     1      16.152 -11.123  17.609  1.00  0.00     0.170 HD
BRANCH  35  38
HETATM   38  C21 UNL     1      13.354 -12.510  20.021  1.00  0.00     0.159 C 
BRANCH  38  39
HETATM   39  C22 UNL     1      12.891 -11.455  20.905  1.00  0.00     0.153 C 
HETATM   40  O8  UNL     1      13.545 -10.381  20.781  1.00  0.00    -0.295 OA
BRANCH  39  41
HETATM   41  C23 UNL     1      11.821 -11.420  21.889  1.00  0.00     0.049 C 
HETATM   42  C24 UNL     1      12.286 -10.588  23.081  1.00  0.00     0.017 C 
HETATM   43  C25 UNL     1      11.257 -12.719  22.356  1.00  0.00     0.017 C 
ENDBRANCH  39  41
ENDBRANCH  38  39
BRANCH  38  44
HETATM   44  C26 UNL     1      14.204 -13.557  20.792  1.00  0.00     0.007 C 
HETATM   45  C27 UNL     1      13.453 -14.773  21.172  1.00  0.00     0.012 C 
HETATM   46  C28 UNL     1      14.912 -12.907  21.944  1.00  0.00     0.012 C 
ENDBRANCH  38  44
ENDBRANCH  35  38
ENDBRANCH   1  32
TORSDOF 14
ENDMDL
MODEL 4
REMARK VINA RESULT: -7.969284110      0.969      1.098
REMARK  14 active torsions:
REMARK  status: ('A' for Active; 'I' for Inactive)
REMARK    1  A    between atoms: C2_2  and  C3_4 
REMARK    2  A    between atoms: C3_4  and  N1_6 
REMARK       I    between atoms: N1_6  and  C5_8 
REMARK    3  A    between atoms: C5_8  and  C6_10 
REMARK       I    between atoms: N2_13  and  C9_14 
REMARK    4  A    between atoms: C9_14  and  C10_16 
REMARK    5  A    between atoms: C10_16  and  N3_19 
REMARK       I    between atoms: N3_19  and  C13_21 
REMARK    6  A    between atoms: C13_21  and  C14_23 
REMARK    7  A    between atoms: C14_23  and  C15_24 
REMARK    8  A    between atoms: C14_23  and  N4_32 
REMARK    9  A    between atoms: C15_24  and  S1_25 
REMARK   10  A    between atoms: S1_25  and  C16_28 
REMARK       I    between atoms: N4_32  and  C20_34 
REMARK       I    between atoms: C20_34  and  N5_36 
REMARK   11  A    between atoms: N5_36  and  C21_38 
REMARK   12  A    between atoms: C21_38  and  C22_39 
REMARK   13  A    between atoms: C21_38  and  C26_44 
REMARK   14  A    between atoms: C22_39  and  C23_41 
ROOT
HETATM    1  C14 UNL     1      17.804 -15.578  23.826  1.00  0.00     0.095 C 
ENDROOT
BRANCH   1   2
HETATM    2  C13 UNL     1      17.609 -14.662  22.681  1.00  0.00     0.266 C 
HETATM    3  N3  UNL     1      18.466 -14.769  21.591  1.00  0.00    -0.339 N 
ATOM      4  H3  UNL     1      19.129 -15.533  21.720  1.00  0.00     0.164 HD
HETATM    5  O4  UNL     1      16.665 -13.791  22.763  1.00  0.00    -0.266 OA
BRANCH   3   6
HETATM    6  C10 UNL     1      18.678 -14.116  20.352  1.00  0.00     0.107 C 
HETATM    7  C11 UNL     1      19.514 -15.089  19.493  1.00  0.00     0.048 C 
HETATM    8  C12 UNL     1      19.688 -12.965  20.731  1.00  0.00     0.048 C 
BRANCH   6   9
HETATM    9  C9  UNL     1      17.636 -13.518  19.591  1.00  0.00     0.248 C 
HETATM   10  N2  UNL     1      16.329 -14.054  19.358  1.00  0.00    -0.336 N 
HETATM   11  C6  UNL     1      15.135 -13.486  18.664  1.00  0.00     0.180 C 
HETATM   12  C8  UNL     1      15.606 -15.244  19.575  1.00  0.00     0.129 C 
HETATM   13  C7  UNL     1      14.780 -14.933  18.313  1.00  0.00     0.055 C 
HETATM   14  O3  UNL     1      17.810 -12.380  19.026  1.00  0.00    -0.271 OA
BRANCH  11  15
HETATM   15  C5  UNL     1      14.046 -12.939  19.438  1.00  0.00     0.241 C 
HETATM   16  N1  UNL     1      14.042 -11.758  20.243  1.00  0.00    -0.348 N 
ATOM     17  H1  UNL     1      14.898 -11.214  20.350  1.00  0.00     0.163 HD
HETATM   18  O2  UNL     1      12.899 -13.541  19.442  1.00  0.00    -0.271 OA
BRANCH  16  19
HETATM   19  C3  UNL     1      12.809 -11.322  20.918  1.00  0.00     0.149 C 
HETATM   20  C4  UNL     1      12.495  -9.897  20.571  1.00  0.00     0.040 C 
BRANCH  19  21
HETATM   21  C2  UNL     1      12.952 -11.492  22.367  1.00  0.00     0.145 C 
HETATM   22  C1  UNL     1      12.581 -10.493  23.385  1.00  0.00     0.093 C 
HETATM   23  O1  UNL     1      13.430 -12.564  22.746  1.00  0.00    -0.296 OA
ENDBRANCH  19  21
ENDBRANCH  16  19
ENDBRANCH  11  15
ENDBRANCH   6   9
ENDBRANCH   3   6
ENDBRANCH   1   2
BRANCH   1  24
HETATM   24  C15 UNL     1      18.399 -15.140  25.074  1.00  0.00     0.204 C 
BRANCH  24  25
HETATM   25  S1  UNL     1      19.990 -15.880  25.299  1.00  0.00     0.157 S 
HETATM   26  O5  UNL     1      20.058 -16.463  26.680  1.00  0.00    -0.227 OA
HETATM   27  O6  UNL     1      20.181 -17.005  24.338  1.00  0.00    -0.227 OA
BRANCH  25  28
HETATM   28  C16 UNL     1      21.330 -14.753  25.084  1.00  0.00     0.053 C 
HETATM   29  C17 UNL     1      21.463 -14.424  23.614  1.00  0.00     0.031 C 
HETATM   30  C18 UNL     1      21.178 -13.516  25.881  1.00  0.00     0.031 C 
HETATM   31  C19 UNL     1      22.659 -15.433  25.466  1.00  0.00     0.031 C 
ENDBRANCH  25  28
ENDBRANCH  24  25
ENDBRANCH   1  24
BRANCH   1  32
HETATM   32  N4  UNL     1      16.777 -16.565  23.839  1.00  0.00    -0.307 N 
HETATM   33  C20 UNL     1      16.459 -17.593  22.955  1.00  0.00     0.321 C 
HETATM   34  O7  UNL     1      17.126 -17.742  21.913  1.00  0.00    -0.247 OA
HETATM   35  N5  UNL     1      15.387 -18.437  23.320  1.00  0.00    -0.331 N 
ATOM     36  H5  UNL     1      14.855 -18.212  24.160  1.00  0.00     0.165 HD
ATOM     37  H4  UNL     1      16.158 -16.508  24.648  1.00  0.00     0.170 HD
BRANCH  35  38
HETATM   38  C21 UNL     1      15.000 -19.635  22.539  1.00  0.00     0.159 C 
BRANCH  38  39
HETATM   39  C22 UNL     1      14.213 -19.230  21.387  1.00  0.00     0.153 C 
HETATM   40  O8  UNL     1      14.770 -19.502  20.285  1.00  0.00    -0.295 OA
BRANCH  39  41
HETATM   41  C23 UNL     1      12.916 -18.580  21.283  1.00  0.00     0.049 C 
HETATM   42  C24 UNL     1      12.151 -19.210  20.122  1.00  0.00     0.017 C 
HETATM   43  C25 UNL     1      12.886 -17.093  21.174  1.00  0.00     0.017 C 
ENDBRANCH  39  41
ENDBRANCH  38  39
BRANCH  38  44
HETATM   44  C26 UNL     1      14.127 -20.390  23.578  1.00  0.00     0.007 C 
HETATM   45  C27 UNL     1      14.578 -20.220  24.975  1.00  0.00     0.012 C 
HETATM   46  C28 UNL     1      13.963 -21.827  23.174  1.00  0.00     0.012 C 
ENDBRANCH  38  44
ENDBRANCH  35  38
ENDBRANCH   1  32
TORSDOF 14
ENDMDL
MODEL 5
REMARK VINA RESULT: -7.913034570      5.763      8.392
REMARK  14 active torsions:
REMARK  status: ('A' for Active; 'I' for Inactive)
REMARK    1  A    between atoms: C2_2  and  C3_4 
REMARK    2  A    between atoms: C3_4  and  N1_6 
REMARK       I    between atoms: N1_6  and  C5_8 
REMARK    3  A    between atoms: C5_8  and  C6_10 
REMARK       I    between atoms: N2_13  and  C9_14 
REMARK    4  A    between atoms: C9_14  and  C10_16 
REMARK    5  A    between atoms: C10_16  and  N3_19 
REMARK       I    between atoms: N3_19  and  C13_21 
REMARK    6  A    between atoms: C13_21  and  C14_23 
REMARK    7  A    between atoms: C14_23  and  C15_24 
REMARK    8  A    between atoms: C14_23  and  N4_32 
REMARK    9  A    between atoms: C15_24  and  S1_25 
REMARK   10  A    between atoms: S1_25  and  C16_28 
REMARK       I    between atoms: N4_32  and  C20_34 
REMARK       I    between atoms: C20_34  and  N5_36 
REMARK   11  A    between atoms: N5_36  and  C21_38 
REMARK   12  A    between atoms: C21_38  and  C22_39 
REMARK   13  A    between atoms: C21_38  and  C26_44 
REMARK   14  A    between atoms: C22_39  and  C23_41 
ROOT
HETATM    1  C14 UNL     1      17.242 -13.113  17.583  1.00  0.00     0.095 C 
ENDROOT
BRANCH   1   2
HETATM    2  C13 UNL     1      16.757 -12.872  16.206  1.00  0.00     0.266 C 
HETATM    3  N3  UNL     1      15.942 -13.829  15.611  1.00  0.00    -0.339 N 
ATOM      4  H3  UNL     1      15.745 -14.594  16.256  1.00  0.00     0.164 HD
HETATM    5  O4  UNL     1      17.140 -11.794  15.615  1.00  0.00    -0.266 OA
BRANCH   3   6
HETATM    6  C10 UNL     1      15.307 -14.041  14.363  1.00  0.00     0.107 C 
HETATM    7  C11 UNL     1      14.386 -15.266  14.554  1.00  0.00     0.048 C 
HETATM    8  C12 UNL     1      16.482 -14.573  13.458  1.00  0.00     0.048 C 
BRANCH   6   9
HETATM    9  C9  UNL     1      14.653 -13.011  13.631  1.00  0.00     0.248 C 
HETATM   10  N2  UNL     1      14.377 -13.001  12.227  1.00  0.00    -0.336 N 
HETATM   11  C6  UNL     1      13.626 -12.034  11.372  1.00  0.00     0.180 C 
HETATM   12  C8  UNL     1      14.673 -13.753  11.072  1.00  0.00     0.129 C 
HETATM   13  C7  UNL     1      14.568 -12.460  10.243  1.00  0.00     0.055 C 
HETATM   14  O3  UNL     1      14.238 -11.951  14.223  1.00  0.00    -0.271 OA
BRANCH  11  15
HETATM   15  C5  UNL     1      12.275 -12.336  10.959  1.00  0.00     0.241 C 
HETATM   16  N1  UNL     1      11.687 -12.158   9.668  1.00  0.00    -0.348 N 
ATOM     17  H1  UNL     1      12.232 -11.734   8.917  1.00  0.00     0.163 HD
HETATM   18  O2  UNL     1      11.443 -12.840  11.813  1.00  0.00    -0.271 OA
BRANCH  16  19
HETATM   19  C3  UNL     1      10.300 -12.582   9.418  1.00  0.00     0.149 C 
HETATM   20  C4  UNL     1      10.276 -13.870   8.650  1.00  0.00     0.040 C 
BRANCH  19  21
HETATM   21  C2  UNL     1       9.582 -11.526   8.700  1.00  0.00     0.145 C 
HETATM   22  C1  UNL     1       8.286 -10.950   9.101  1.00  0.00     0.093 C 
HETATM   23  O1  UNL     1      10.118 -11.102   7.673  1.00  0.00    -0.296 OA
ENDBRANCH  19  21
ENDBRANCH  16  19
ENDBRANCH  11  15
ENDBRANCH   6   9
ENDBRANCH   3   6
ENDBRANCH   1   2
BRANCH   1  24
HETATM   24  C15 UNL     1      18.651 -13.243  17.896  1.00  0.00     0.204 C 
BRANCH  24  25
HETATM   25  S1  UNL     1      18.877 -14.212  19.358  1.00  0.00     0.157 S 
HETATM   26  O5  UNL     1      17.580 -14.886  19.694  1.00  0.00    -0.227 OA
HETATM   27  O6  UNL     1      19.881 -15.289  19.119  1.00  0.00    -0.227 OA
BRANCH  25  28
HETATM   28  C16 UNL     1      19.415 -13.273  20.752  1.00  0.00     0.053 C 
HETATM   29  C17 UNL     1      20.719 -12.588  20.408  1.00  0.00     0.031 C 
HETATM   30  C18 UNL     1      18.412 -12.283  21.203  1.00  0.00     0.031 C 
HETATM   31  C19 UNL     1      19.752 -14.213  21.925  1.00  0.00     0.031 C 
ENDBRANCH  25  28
ENDBRANCH  24  25
ENDBRANCH   1  24
BRANCH   1  32
HETATM   32  N4  UNL     1      16.362 -12.498  18.521  1.00  0.00    -0.307 N 
HETATM   33  C20 UNL     1      15.069 -12.812  18.931  1.00  0.00     0.321 C 
HETATM   34  O7  UNL     1      14.475 -13.780  18.420  1.00  0.00    -0.247 OA
HETATM   35  N5  UNL     1      14.510 -12.003  19.945  1.00  0.00    -0.331 N 
ATOM     36  H5  UNL     1      15.039 -11.194  20.269  1.00  0.00     0.165 HD
ATOM     37  H4  UNL     1      16.754 -11.674  18.977  1.00  0.00     0.170 HD
BRANCH  35  38
HETATM   38  C21 UNL     1      13.190 -12.275  20.560  1.00  0.00     0.159 C 
BRANCH  38  39
HETATM   39  C22 UNL     1      12.649 -11.046  21.113  1.00  0.00     0.153 C 
HETATM   40  O8  UNL     1      12.919 -10.027  20.416  1.00  0.00    -0.295 OA
BRANCH  39  41
HETATM   41  C23 UNL     1      11.860 -10.790  22.307  1.00  0.00     0.049 C 
HETATM   42  C24 UNL     1      12.721 -10.010  23.298  1.00  0.00     0.017 C 
HETATM   43  C25 UNL     1      11.219 -11.953  22.985  1.00  0.00     0.017 C 
ENDBRANCH  39  41
ENDBRANCH  38  39
BRANCH  38  44
HETATM   44  C26 UNL     1      13.591 -13.268  21.685  1.00  0.00     0.007 C 
HETATM   45  C27 UNL     1      15.040 -13.286  21.978  1.00  0.00     0.012 C 
HETATM   46  C28 UNL     1      13.022 -14.629  21.406  1.00  0.00     0.012 C 
ENDBRANCH  38  44
ENDBRANCH  35  38
ENDBRANCH   1  32
TORSDOF 14
ENDMDL
