MODEL 1
REMARK VINA RESULT: -5.532737940      0.000      0.000
REMARK  5 active torsions:
REMARK  status: ('A' for Active; 'I' for Inactive)
REMARK    1  A    between atoms: C3_7  and  N3_8 
REMARK    2  A    between atoms: N4_11  and  C4_12 
REMARK    3  A    between atoms: C4_12  and  N5_13 
REMARK    4  A    between atoms: C4_12  and  C5_17 
REMARK    5  A    between atoms: C5_17  and  N6_18 
ROOT
HETATM    1  N6  UNL     1      24.490  28.956  25.177  1.00  0.00    -0.325 N 
ATOM      2  H6  UNL     1      25.293  29.161  25.771  1.00  0.00     0.171 HD
HETATM    3  C6  UNL     1      24.001  29.925  24.265  1.00  0.00     0.177 C 
HETATM    4  N7  UNL     1      23.613  30.721  23.522  1.00  0.00    -0.172 NA
ENDROOT
BRANCH   1   5
HETATM    5  C5  UNL     1      23.814  27.646  25.250  1.00  0.00     0.186 C 
BRANCH   5   6
HETATM    6  C4  UNL     1      23.961  27.033  23.917  1.00  0.00     0.324 C 
BRANCH   6   7
HETATM    7  N4  UNL     1      25.167  26.302  23.716  1.00  0.00    -0.139 N 
HETATM    8  C2  UNL     1      26.180  26.664  22.860  1.00  0.00     0.113 A 
HETATM    9  C1  UNL     1      26.129  27.881  22.026  1.00  0.00     0.091 C 
HETATM   10  N1  UNL     1      27.135  25.732  22.951  1.00  0.00    -0.274 N 
HETATM   11  N2  UNL     1      26.784  24.811  23.809  1.00  0.00    -0.131 N 
ATOM     12  H1  UNL     1      28.010  25.739  22.428  1.00  0.00     0.189 HD
HETATM   13  C3  UNL     1      25.557  25.157  24.294  1.00  0.00     0.696 A 
ATOM     14  H2  UNL     1      27.325  23.986  24.067  1.00  0.00     0.205 HD
BRANCH  13  15
HETATM   15  N3  UNL     1      24.974  24.423  25.163  1.00  0.00    -0.233 N 
ATOM     16  H32 UNL     1      25.240  23.520  25.556  1.00  0.00     0.174 HD
ATOM     17  H31 UNL     1      24.090  24.717  25.580  1.00  0.00     0.174 HD
ENDBRANCH  13  15
ENDBRANCH   6   7
BRANCH   6  18
HETATM   18  N5  UNL     1      22.770  26.319  23.520  1.00  0.00    -0.056 N 
ATOM     19  H53 UNL     1      23.001  25.580  22.857  1.00  0.00     0.276 HD
ATOM     20  H52 UNL     1      22.417  25.755  24.291  1.00  0.00     0.276 HD
ATOM     21  H51 UNL     1      22.034  26.918  23.146  1.00  0.00     0.276 HD
ENDBRANCH   6  18
ENDBRANCH   5   6
ENDBRANCH   1   5
TORSDOF 5
ENDMDL
MODEL 2
REMARK VINA RESULT: -5.429216844      2.418      3.977
REMARK  5 active torsions:
REMARK  status: ('A' for Active; 'I' for Inactive)
REMARK    1  A    between atoms: C3_7  and  N3_8 
REMARK    2  A    between atoms: N4_11  and  C4_12 
REMARK    3  A    between atoms: C4_12  and  N5_13 
REMARK    4  A    between atoms: C4_12  and  C5_17 
REMARK    5  A    between atoms: C5_17  and  N6_18 
ROOT
HETATM    1  N6  UNL     1      23.362  26.153  24.112  1.00  0.00    -0.325 N 
ATOM      2  H6  UNL     1      22.492  25.698  24.391  1.00  0.00     0.171 HD
HETATM    3  C6  UNL     1      23.340  27.359  23.370  1.00  0.00     0.177 C 
HETATM    4  N7  UNL     1      23.311  28.346  22.768  1.00  0.00    -0.172 NA
ENDROOT
BRANCH   1   5
HETATM    5  C5  UNL     1      24.667  25.566  24.476  1.00  0.00     0.186 C 
BRANCH   5   6
HETATM    6  C4  UNL     1      25.337  26.556  25.339  1.00  0.00     0.324 C 
BRANCH   6   7
HETATM    7  N4  UNL     1      24.783  26.697  26.644  1.00  0.00    -0.139 N 
HETATM    8  C2  UNL     1      24.384  27.883  27.212  1.00  0.00     0.113 A 
HETATM    9  C1  UNL     1      24.492  29.181  26.518  1.00  0.00     0.091 C 
HETATM   10  N1  UNL     1      23.921  27.606  28.436  1.00  0.00    -0.274 N 
HETATM   11  N2  UNL     1      24.005  26.323  28.668  1.00  0.00    -0.131 N 
ATOM     12  H1  UNL     1      23.555  28.295  29.092  1.00  0.00     0.189 HD
HETATM   13  C3  UNL     1      24.541  25.744  27.555  1.00  0.00     0.696 A 
ATOM     14  H2  UNL     1      23.723  25.843  29.523  1.00  0.00     0.205 HD
BRANCH  13  15
HETATM   15  N3  UNL     1      24.732  24.481  27.511  1.00  0.00    -0.233 N 
ATOM     16  H32 UNL     1      24.605  23.764  28.225  1.00  0.00     0.174 HD
ATOM     17  H31 UNL     1      25.068  24.039  26.655  1.00  0.00     0.174 HD
ENDBRANCH  13  15
ENDBRANCH   6   7
BRANCH   6  18
HETATM   18  N5  UNL     1      26.772  26.398  25.325  1.00  0.00    -0.056 N 
ATOM     19  H53 UNL     1      27.203  27.095  24.718  1.00  0.00     0.276 HD
ATOM     20  H52 UNL     1      27.172  26.678  26.220  1.00  0.00     0.276 HD
ATOM     21  H51 UNL     1      27.083  25.461  25.070  1.00  0.00     0.276 HD
ENDBRANCH   6  18
ENDBRANCH   5   6
ENDBRANCH   1   5
TORSDOF 5
ENDMDL
MODEL 3
REMARK VINA RESULT: -5.240528569      3.332      5.372
REMARK  5 active torsions:
REMARK  status: ('A' for Active; 'I' for Inactive)
REMARK    1  A    between atoms: C3_7  and  N3_8 
REMARK    2  A    between atoms: N4_11  and  C4_12 
REMARK    3  A    between atoms: C4_12  and  N5_13 
REMARK    4  A    between atoms: C4_12  and  C5_17 
REMARK    5  A    between atoms: C5_17  and  N6_18 
ROOT
HETATM    1  N6  UNL     1      26.614  26.036  25.142  1.00  0.00    -0.325 N 
ATOM      2  H6  UNL     1      26.406  26.913  24.663  1.00  0.00     0.171 HD
HETATM    3  C6  UNL     1      25.986  24.830  24.745  1.00  0.00     0.177 C 
HETATM    4  N7  UNL     1      25.471  23.850  24.409  1.00  0.00    -0.172 NA
ENDROOT
BRANCH   1   5
HETATM    5  C5  UNL     1      27.574  26.001  26.262  1.00  0.00     0.186 C 
BRANCH   5   6
HETATM    6  C4  UNL     1      26.976  26.806  27.343  1.00  0.00     0.324 C 
BRANCH   6   7
HETATM    7  N4  UNL     1      25.826  26.234  27.959  1.00  0.00    -0.139 N 
HETATM    8  C2  UNL     1      24.576  26.805  27.989  1.00  0.00     0.113 A 
HETATM    9  C1  UNL     1      24.276  28.112  27.373  1.00  0.00     0.091 C 
HETATM   10  N1  UNL     1      23.769  25.970  28.653  1.00  0.00    -0.274 N 
HETATM   11  N2  UNL     1      24.435  24.915  29.040  1.00  0.00    -0.131 N 
ATOM     12  H1  UNL     1      22.779  26.133  28.831  1.00  0.00     0.189 HD
HETATM   13  C3  UNL     1      25.721  25.067  28.611  1.00  0.00     0.696 A 
ATOM     14  H2  UNL     1      24.063  24.123  29.565  1.00  0.00     0.205 HD
BRANCH  13  15
HETATM   15  N3  UNL     1      26.595  24.168  28.855  1.00  0.00    -0.233 N 
ATOM     16  H32 UNL     1      26.661  23.494  29.617  1.00  0.00     0.174 HD
ATOM     17  H31 UNL     1      27.392  24.039  28.230  1.00  0.00     0.174 HD
ENDBRANCH  13  15
ENDBRANCH   6   7
BRANCH   6  18
HETATM   18  N5  UNL     1      27.971  27.274  28.279  1.00  0.00    -0.056 N 
ATOM     19  H53 UNL     1      27.942  26.724  29.137  1.00  0.00     0.276 HD
ATOM     20  H52 UNL     1      28.907  27.037  27.954  1.00  0.00     0.276 HD
ATOM     21  H51 UNL     1      27.905  28.270  28.490  1.00  0.00     0.276 HD
ENDBRANCH   6  18
ENDBRANCH   5   6
ENDBRANCH   1   5
TORSDOF 5
ENDMDL
MODEL 4
REMARK VINA RESULT: -5.222058945      1.621      1.995
REMARK  5 active torsions:
REMARK  status: ('A' for Active; 'I' for Inactive)
REMARK    1  A    between atoms: C3_7  and  N3_8 
REMARK    2  A    between atoms: N4_11  and  C4_12 
REMARK    3  A    between atoms: C4_12  and  N5_13 
REMARK    4  A    between atoms: C4_12  and  C5_17 
REMARK    5  A    between atoms: C5_17  and  N6_18 
ROOT
HETATM    1  N6  UNL     1      24.939  26.798  26.683  1.00  0.00    -0.325 N 
ATOM      2  H6  UNL     1      25.862  26.504  27.004  1.00  0.00     0.171 HD
HETATM    3  C6  UNL     1      24.465  28.105  26.953  1.00  0.00     0.177 C 
HETATM    4  N7  UNL     1      24.089  29.176  27.176  1.00  0.00    -0.172 NA
ENDROOT
BRANCH   1   5
HETATM    5  C5  UNL     1      24.074  25.870  25.930  1.00  0.00     0.186 C 
BRANCH   5   6
HETATM    6  C4  UNL     1      23.939  26.440  24.577  1.00  0.00     0.324 C 
BRANCH   6   7
HETATM    7  N4  UNL     1      25.132  26.445  23.799  1.00  0.00    -0.139 N 
HETATM    8  C2  UNL     1      25.692  27.555  23.214  1.00  0.00     0.113 A 
HETATM    9  C1  UNL     1      25.103  28.904  23.323  1.00  0.00     0.091 C 
HETATM   10  N1  UNL     1      26.798  27.157  22.575  1.00  0.00    -0.274 N 
HETATM   11  N2  UNL     1      26.964  25.869  22.723  1.00  0.00    -0.131 N 
ATOM     12  H1  UNL     1      27.421  27.769  22.048  1.00  0.00     0.189 HD
HETATM   13  C3  UNL     1      25.930  25.414  23.487  1.00  0.00     0.696 A 
ATOM     14  H2  UNL     1      27.724  25.309  22.339  1.00  0.00     0.205 HD
BRANCH  13  15
HETATM   15  N3  UNL     1      25.847  24.175  23.792  1.00  0.00    -0.233 N 
ATOM     16  H32 UNL     1      26.034  23.693  24.671  1.00  0.00     0.174 HD
ATOM     17  H31 UNL     1      25.553  23.490  23.095  1.00  0.00     0.174 HD
ENDBRANCH  13  15
ENDBRANCH   6   7
BRANCH   6  18
HETATM   18  N5  UNL     1      22.789  25.911  23.882  1.00  0.00    -0.056 N 
ATOM     19  H53 UNL     1      22.887  26.040  22.876  1.00  0.00     0.276 HD
ATOM     20  H52 UNL     1      22.782  24.893  23.925  1.00  0.00     0.276 HD
ATOM     21  H51 UNL     1      21.899  26.289  24.206  1.00  0.00     0.276 HD
ENDBRANCH   6  18
ENDBRANCH   5   6
ENDBRANCH   1   5
TORSDOF 5
ENDMDL
MODEL 5
REMARK VINA RESULT: -5.195695277      2.580      3.453
REMARK  5 active torsions:
REMARK  status: ('A' for Active; 'I' for Inactive)
REMARK    1  A    between atoms: C3_7  and  N3_8 
REMARK    2  A    between atoms: N4_11  and  C4_12 
REMARK    3  A    between atoms: C4_12  and  N5_13 
REMARK    4  A    between atoms: C4_12  and  C5_17 
REMARK    5  A    between atoms: C5_17  and  N6_18 
ROOT
HETATM    1  N6  UNL     1      23.746  28.411  25.360  1.00  0.00    -0.325 N 
ATOM      2  H6  UNL     1      22.838  28.030  25.627  1.00  0.00     0.171 HD
HETATM    3  C6  UNL     1      23.838  29.442  24.393  1.00  0.00     0.177 C 
HETATM    4  N7  UNL     1      23.903  30.287  23.606  1.00  0.00    -0.172 NA
ENDROOT
BRANCH   1   5
HETATM    5  C5  UNL     1      24.987  27.898  25.972  1.00  0.00     0.186 C 
BRANCH   5   6
HETATM    6  C4  UNL     1      24.946  26.432  25.818  1.00  0.00     0.324 C 
BRANCH   6   7
HETATM    7  N4  UNL     1      25.442  25.692  26.930  1.00  0.00    -0.139 N 
HETATM    8  C2  UNL     1      26.634  25.010  26.960  1.00  0.00     0.113 A 
HETATM    9  C1  UNL     1      27.560  24.960  25.811  1.00  0.00     0.091 C 
HETATM   10  N1  UNL     1      26.745  24.447  28.169  1.00  0.00    -0.274 N 
HETATM   11  N2  UNL     1      25.698  24.735  28.895  1.00  0.00    -0.131 N 
ATOM     12  H1  UNL     1      27.531  23.877  28.478  1.00  0.00     0.189 HD
HETATM   13  C3  UNL     1      24.877  25.514  28.133  1.00  0.00     0.696 A 
ATOM     14  H2  UNL     1      25.525  24.434  29.854  1.00  0.00     0.205 HD
BRANCH  13  15
HETATM   15  N3  UNL     1      23.771  25.944  28.606  1.00  0.00    -0.233 N 
ATOM     16  H32 UNL     1      22.819  25.862  28.249  1.00  0.00     0.174 HD
ATOM     17  H31 UNL     1      23.751  26.468  29.481  1.00  0.00     0.174 HD
ENDBRANCH  13  15
ENDBRANCH   6   7
BRANCH   6  18
HETATM   18  N5  UNL     1      23.664  25.977  25.336  1.00  0.00    -0.056 N 
ATOM     19  H53 UNL     1      23.523  24.994  25.567  1.00  0.00     0.276 HD
ATOM     20  H52 UNL     1      22.909  26.392  25.880  1.00  0.00     0.276 HD
ATOM     21  H51 UNL     1      23.516  26.135  24.339  1.00  0.00     0.276 HD
ENDBRANCH   6  18
ENDBRANCH   5   6
ENDBRANCH   1   5
TORSDOF 5
ENDMDL
