MODEL 1
REMARK VINA RESULT: -6.697882352      0.000      0.000
REMARK  13 active torsions:
REMARK  status: ('A' for Active; 'I' for Inactive)
REMARK    1  A    between atoms: O1_2  and  C2_3 
REMARK    2  A    between atoms: C3_6  and  N2_7 
REMARK    3  A    between atoms: C4_14  and  O2_15 
REMARK    4  A    between atoms: O2_15  and  C5_16 
REMARK    5  A    between atoms: C6_19  and  N7_20 
REMARK    6  A    between atoms: C7_25  and  N9_26 
REMARK    7  A    between atoms: C8_29  and  N10_30 
REMARK    8  A    between atoms: N10_30  and  C9_32 
REMARK    9  A    between atoms: C9_32  and  N11_33 
REMARK   10  A    between atoms: C10_38  and  C11_39 
REMARK       I    between atoms: C11_39  and  N14_41 
REMARK   11  A    between atoms: N14_41  and  C12_43 
REMARK   12  A    between atoms: C13_47  and  O4_48 
REMARK   13  A    between atoms: C15_54  and  O6_55 
ROOT
HETATM    1  C5  UNL     1      38.992  -6.924  14.691  1.00  0.00     0.197 A 
HETATM    2  N6  UNL     1      39.714  -6.236  13.779  1.00  0.00    -0.168 N 
ATOM      3  H6  UNL     1      39.522  -5.246  13.623  1.00  0.00     0.186 HD
HETATM    4  C6  UNL     1      40.681  -6.847  13.079  1.00  0.00     0.679 A 
HETATM    5  N8  UNL     1      40.909  -8.141  13.305  1.00  0.00    -0.175 N 
ATOM      6  H8  UNL     1      41.647  -8.594  12.767  1.00  0.00     0.186 HD
HETATM    7  C7  UNL     1      40.230  -8.894  14.198  1.00  0.00     0.146 A 
HETATM    8  C8  UNL     1      39.239  -8.273  14.918  1.00  0.00     0.130 A 
ENDROOT
BRANCH   8   9
HETATM    9  N10 UNL     1      38.440  -8.941  15.879  1.00  0.00    -0.343 N 
ATOM     10  H10 UNL     1      37.559  -9.336  15.553  1.00  0.00     0.167 HD
BRANCH   9  11
HETATM   11  C9  UNL     1      38.752  -9.113  17.262  1.00  0.00     0.229 C 
BRANCH  11  12
HETATM   12  N11 UNL     1      38.131  -8.171  18.157  1.00  0.00    -0.176 N 
HETATM   13  N12 UNL     1      36.954  -7.592  18.009  1.00  0.00    -0.219 N 
HETATM   14  N13 UNL     1      36.687  -6.789  19.021  1.00  0.00    -0.264 N 
ATOM     15  H12 UNL     1      36.332  -7.744  17.215  1.00  0.00     0.210 HD
HETATM   16  C10 UNL     1      37.734  -6.851  19.860  1.00  0.00     0.206 A 
ATOM     17  H13 UNL     1      35.845  -6.227  19.143  1.00  0.00     0.190 HD
HETATM   18  N16 UNL     1      38.606  -7.698  19.319  1.00  0.00    -0.256 N 
ATOM     19  H16 UNL     1      39.504  -7.951  19.728  1.00  0.00     0.191 HD
BRANCH  16  20
HETATM   20  C11 UNL     1      37.831  -6.103  21.112  1.00  0.00     0.291 C 
HETATM   21  O3  UNL     1      38.611  -6.453  22.023  1.00  0.00    -0.264 OA
HETATM   22  N14 UNL     1      37.022  -4.958  21.297  1.00  0.00    -0.305 N 
ATOM     23  H14 UNL     1      36.384  -4.672  20.554  1.00  0.00     0.167 HD
BRANCH  22  24
HETATM   24  C12 UNL     1      37.079  -4.186  22.516  1.00  0.00     0.440 C 
HETATM   25  N15 UNL     1      38.345  -3.438  22.547  1.00  0.00     0.020 N 
HETATM   26  C13 UNL     1      37.514  -2.394  23.122  1.00  0.00     0.475 C 
ATOM     27 2H15 UNL     1      39.189  -3.790  23.000  1.00  0.00     0.288 HD
ATOM     28 1H15 UNL     1      38.927  -3.293  21.721  1.00  0.00     0.288 HD
HETATM   29  O5  UNL     1      36.427  -2.960  22.444  1.00  0.00    -0.289 OA
BRANCH  26  30
HETATM   30  O4  UNL     1      37.319  -2.515  24.489  1.00  0.00    -0.349 OA
ATOM     31  H4  UNL     1      38.107  -2.393  25.005  1.00  0.00     0.214 HD
ENDBRANCH  26  30
ENDBRANCH  22  24
ENDBRANCH  16  20
ENDBRANCH  11  12
ENDBRANCH   9  11
ENDBRANCH   8   9
BRANCH   1  32
HETATM   32  O2  UNL     1      38.003  -6.244  15.390  1.00  0.00    -0.256 OA
BRANCH  32  33
HETATM   33  C4  UNL     1      37.535  -5.021  14.946  1.00  0.00     0.271 A 
HETATM   34  N2  UNL     1      37.777  -3.796  15.442  1.00  0.00    -0.185 N 
HETATM   35  N3  UNL     1      37.110  -2.942  14.682  1.00  0.00    -0.216 N 
HETATM   36  N4  UNL     1      36.478  -3.609  13.754  1.00  0.00    -0.224 N 
ATOM     37  H3  UNL     1      37.092  -1.930  14.801  1.00  0.00     0.210 HD
HETATM   38  N5  UNL     1      36.710  -4.902  13.874  1.00  0.00    -0.247 N 
ATOM     39  H4  UNL     1      35.888  -3.189  13.036  1.00  0.00     0.210 HD
ATOM     40  H5  UNL     1      36.346  -5.652  13.288  1.00  0.00     0.192 HD
BRANCH  34  41
HETATM   41  C3  UNL     1      38.591  -3.486  16.559  1.00  0.00     0.137 A 
HETATM   42  N1  UNL     1      38.649  -4.201  17.694  1.00  0.00    -0.319 N 
HETATM   43  C2  UNL     1      39.532  -3.615  18.549  1.00  0.00     0.177 A 
ATOM     44  H1  UNL     1      38.116  -5.049  17.885  1.00  0.00     0.169 HD
HETATM   45  C15 UNL     1      40.047  -2.494  17.932  1.00  0.00     0.120 A 
HETATM   46  C14 UNL     1      39.446  -2.422  16.677  1.00  0.00     0.091 A 
BRANCH  43  47
HETATM   47  O1  UNL     1      39.891  -4.024  19.825  1.00  0.00    -0.339 OA
HETATM   48  C1  UNL     1      41.091  -4.725  20.090  1.00  0.00     0.211 C 
ENDBRANCH  43  47
BRANCH  45  49
HETATM   49  O6  UNL     1      40.970  -1.590  18.412  1.00  0.00    -0.356 OA
ATOM     50  H6  UNL     1      41.278  -0.784  18.013  1.00  0.00     0.218 HD
ENDBRANCH  45  49
ENDBRANCH  34  41
ENDBRANCH  32  33
ENDBRANCH   1  32
BRANCH   7  51
HETATM   51  N9  UNL     1      40.493 -10.151  14.365  1.00  0.00    -0.383 N 
ATOM     52  H92 UNL     1      40.234 -10.843  13.663  1.00  0.00     0.157 HD
ATOM     53  H91 UNL     1      40.974 -10.490  15.198  1.00  0.00     0.157 HD
ENDBRANCH   7  51
BRANCH   4  54
HETATM   54  N7  UNL     1      41.370  -6.164  12.200  1.00  0.00    -0.234 N 
ATOM     55  H72 UNL     1      41.131  -5.204  11.953  1.00  0.00     0.174 HD
ATOM     56  H71 UNL     1      42.172  -6.599  11.744  1.00  0.00     0.174 HD
ENDBRANCH   4  54
TORSDOF 13
ENDMDL
MODEL 2
REMARK VINA RESULT: -6.602339376      2.498      4.104
REMARK  13 active torsions:
REMARK  status: ('A' for Active; 'I' for Inactive)
REMARK    1  A    between atoms: O1_2  and  C2_3 
REMARK    2  A    between atoms: C3_6  and  N2_7 
REMARK    3  A    between atoms: C4_14  and  O2_15 
REMARK    4  A    between atoms: O2_15  and  C5_16 
REMARK    5  A    between atoms: C6_19  and  N7_20 
REMARK    6  A    between atoms: C7_25  and  N9_26 
REMARK    7  A    between atoms: C8_29  and  N10_30 
REMARK    8  A    between atoms: N10_30  and  C9_32 
REMARK    9  A    between atoms: C9_32  and  N11_33 
REMARK   10  A    between atoms: C10_38  and  C11_39 
REMARK       I    between atoms: C11_39  and  N14_41 
REMARK   11  A    between atoms: N14_41  and  C12_43 
REMARK   12  A    between atoms: C13_47  and  O4_48 
REMARK   13  A    between atoms: C15_54  and  O6_55 
ROOT
HETATM    1  C5  UNL     1      38.077  -3.838  16.331  1.00  0.00     0.197 A 
HETATM    2  N6  UNL     1      37.656  -2.842  15.522  1.00  0.00    -0.168 N 
ATOM      3  H6  UNL     1      37.816  -1.870  15.788  1.00  0.00     0.186 HD
HETATM    4  C6  UNL     1      37.029  -3.123  14.369  1.00  0.00     0.679 A 
HETATM    5  N8  UNL     1      36.836  -4.402  14.048  1.00  0.00    -0.175 N 
ATOM      6  H8  UNL     1      36.359  -4.604  13.169  1.00  0.00     0.186 HD
HETATM    7  C7  UNL     1      37.227  -5.451  14.804  1.00  0.00     0.146 A 
HETATM    8  C8  UNL     1      37.869  -5.168  15.985  1.00  0.00     0.130 A 
ENDROOT
BRANCH   8   9
HETATM    9  N10 UNL     1      38.324  -6.166  16.882  1.00  0.00    -0.343 N 
ATOM     10  H10 UNL     1      39.330  -6.336  16.912  1.00  0.00     0.167 HD
BRANCH   9  11
HETATM   11  C9  UNL     1      37.510  -6.957  17.747  1.00  0.00     0.229 C 
BRANCH  11  12
HETATM   12  N11 UNL     1      37.477  -6.533  19.123  1.00  0.00    -0.176 N 
HETATM   13  N12 UNL     1      37.074  -7.241  20.162  1.00  0.00    -0.219 N 
HETATM   14  N13 UNL     1      37.184  -6.551  21.281  1.00  0.00    -0.264 N 
ATOM     15  H12 UNL     1      36.723  -8.197  20.107  1.00  0.00     0.210 HD
HETATM   16  C10 UNL     1      37.680  -5.346  20.953  1.00  0.00     0.206 A 
ATOM     17  H13 UNL     1      36.940  -6.871  22.218  1.00  0.00     0.190 HD
HETATM   18  N16 UNL     1      37.853  -5.352  19.634  1.00  0.00    -0.256 N 
ATOM     19  H16 UNL     1      38.219  -4.571  19.090  1.00  0.00     0.191 HD
BRANCH  16  20
HETATM   20  C11 UNL     1      37.952  -4.279  21.915  1.00  0.00     0.291 C 
HETATM   21  O3  UNL     1      39.098  -4.097  22.380  1.00  0.00    -0.264 OA
HETATM   22  N14 UNL     1      36.896  -3.436  22.329  1.00  0.00    -0.305 N 
ATOM     23  H14 UNL     1      35.961  -3.584  21.949  1.00  0.00     0.167 HD
BRANCH  22  24
HETATM   24  C12 UNL     1      37.113  -2.368  23.277  1.00  0.00     0.440 C 
HETATM   25  N15 UNL     1      38.153  -1.470  22.753  1.00  0.00     0.020 N 
HETATM   26  C13 UNL     1      37.306  -0.438  23.324  1.00  0.00     0.475 C 
ATOM     27 2H15 UNL     1      39.142  -1.569  22.984  1.00  0.00     0.288 HD
ATOM     28 1H15 UNL     1      38.448  -1.470  21.776  1.00  0.00     0.288 HD
HETATM   29  O5  UNL     1      36.222  -1.308  23.154  1.00  0.00    -0.289 OA
BRANCH  26  30
HETATM   30  O4  UNL     1      37.514  -0.219  24.677  1.00  0.00    -0.349 OA
ATOM     31  H4  UNL     1      36.942  -0.724  25.244  1.00  0.00     0.214 HD
ENDBRANCH  26  30
ENDBRANCH  22  24
ENDBRANCH  16  20
ENDBRANCH  11  12
ENDBRANCH   9  11
ENDBRANCH   8   9
BRANCH   1  32
HETATM   32  O2  UNL     1      38.721  -3.492  17.513  1.00  0.00    -0.256 OA
BRANCH  32  33
HETATM   33  C4  UNL     1      40.100  -3.416  17.572  1.00  0.00     0.271 A 
HETATM   34  N2  UNL     1      40.887  -2.329  17.528  1.00  0.00    -0.185 N 
HETATM   35  N3  UNL     1      42.135  -2.761  17.619  1.00  0.00    -0.216 N 
HETATM   36  N4  UNL     1      42.124  -4.063  17.714  1.00  0.00    -0.224 N 
ATOM     37  H3  UNL     1      42.968  -2.173  17.615  1.00  0.00     0.210 HD
HETATM   38  N5  UNL     1      40.886  -4.518  17.690  1.00  0.00    -0.247 N 
ATOM     39  H4  UNL     1      42.956  -4.647  17.796  1.00  0.00     0.210 HD
ATOM     40  H5  UNL     1      40.583  -5.490  17.748  1.00  0.00     0.192 HD
BRANCH  34  41
HETATM   41  C3  UNL     1      40.458  -0.984  17.409  1.00  0.00     0.137 A 
HETATM   42  N1  UNL     1      40.651  -0.027  18.330  1.00  0.00    -0.319 N 
HETATM   43  C2  UNL     1      40.107   1.140  17.886  1.00  0.00     0.177 A 
ATOM     44  H1  UNL     1      41.130  -0.154  19.222  1.00  0.00     0.169 HD
HETATM   45  C15 UNL     1      39.554   0.910  16.644  1.00  0.00     0.120 A 
HETATM   46  C14 UNL     1      39.779  -0.433  16.353  1.00  0.00     0.091 A 
BRANCH  43  47
HETATM   47  O1  UNL     1      40.083   2.372  18.523  1.00  0.00    -0.339 OA
HETATM   48  C1  UNL     1      38.948   2.845  19.223  1.00  0.00     0.211 C 
ENDBRANCH  43  47
BRANCH  45  49
HETATM   49  O6  UNL     1      38.896   1.792  15.814  1.00  0.00    -0.356 OA
ATOM     50  H6  UNL     1      38.908   1.840  14.865  1.00  0.00     0.218 HD
ENDBRANCH  45  49
ENDBRANCH  34  41
ENDBRANCH  32  33
ENDBRANCH   1  32
BRANCH   7  51
HETATM   51  N9  UNL     1      37.000  -6.673  14.440  1.00  0.00    -0.383 N 
ATOM     52  H92 UNL     1      37.366  -7.039  13.561  1.00  0.00     0.157 HD
ATOM     53  H91 UNL     1      36.456  -7.311  15.019  1.00  0.00     0.157 HD
ENDBRANCH   7  51
BRANCH   4  54
HETATM   54  N7  UNL     1      36.630  -2.145  13.598  1.00  0.00    -0.234 N 
ATOM     55  H72 UNL     1      36.537  -1.188  13.941  1.00  0.00     0.174 HD
ATOM     56  H71 UNL     1      36.400  -2.336  12.623  1.00  0.00     0.174 HD
ENDBRANCH   4  54
TORSDOF 13
ENDMDL
MODEL 3
REMARK VINA RESULT: -6.482124544      1.158      1.464
REMARK  13 active torsions:
REMARK  status: ('A' for Active; 'I' for Inactive)
REMARK    1  A    between atoms: O1_2  and  C2_3 
REMARK    2  A    between atoms: C3_6  and  N2_7 
REMARK    3  A    between atoms: C4_14  and  O2_15 
REMARK    4  A    between atoms: O2_15  and  C5_16 
REMARK    5  A    between atoms: C6_19  and  N7_20 
REMARK    6  A    between atoms: C7_25  and  N9_26 
REMARK    7  A    between atoms: C8_29  and  N10_30 
REMARK    8  A    between atoms: N10_30  and  C9_32 
REMARK    9  A    between atoms: C9_32  and  N11_33 
REMARK   10  A    between atoms: C10_38  and  C11_39 
REMARK       I    between atoms: C11_39  and  N14_41 
REMARK   11  A    between atoms: N14_41  and  C12_43 
REMARK   12  A    between atoms: C13_47  and  O4_48 
REMARK   13  A    between atoms: C15_54  and  O6_55 
ROOT
HETATM    1  C5  UNL     1      38.379  -6.114  15.340  1.00  0.00     0.197 A 
HETATM    2  N6  UNL     1      39.415  -5.848  14.516  1.00  0.00    -0.168 N 
ATOM      3  H6  UNL     1      39.657  -4.881  14.300  1.00  0.00     0.186 HD
HETATM    4  C6  UNL     1      40.129  -6.850  13.979  1.00  0.00     0.679 A 
HETATM    5  N8  UNL     1      39.790  -8.103  14.279  1.00  0.00    -0.175 N 
ATOM      6  H8  UNL     1      40.340  -8.856  13.865  1.00  0.00     0.186 HD
HETATM    7  C7  UNL     1      38.768  -8.448  15.093  1.00  0.00     0.146 A 
HETATM    8  C8  UNL     1      38.035  -7.426  15.646  1.00  0.00     0.130 A 
ENDROOT
BRANCH   8   9
HETATM    9  N10 UNL     1      36.931  -7.639  16.508  1.00  0.00    -0.343 N 
ATOM     10  H10 UNL     1      36.043  -7.219  16.233  1.00  0.00     0.167 HD
BRANCH   9  11
HETATM   11  C9  UNL     1      36.942  -8.386  17.724  1.00  0.00     0.229 C 
BRANCH  11  12
HETATM   12  N11 UNL     1      37.655  -7.777  18.817  1.00  0.00    -0.176 N 
HETATM   13  N12 UNL     1      38.904  -8.007  19.176  1.00  0.00    -0.219 N 
HETATM   14  N13 UNL     1      39.245  -7.271  20.216  1.00  0.00    -0.264 N 
ATOM     15  H12 UNL     1      39.526  -8.668  18.710  1.00  0.00     0.210 HD
HETATM   16  C10 UNL     1      38.171  -6.533  20.545  1.00  0.00     0.206 A 
ATOM     17  H13 UNL     1      40.151  -7.264  20.683  1.00  0.00     0.190 HD
HETATM   18  N16 UNL     1      37.211  -6.853  19.682  1.00  0.00    -0.256 N 
ATOM     19  H16 UNL     1      36.273  -6.454  19.678  1.00  0.00     0.191 HD
BRANCH  16  20
HETATM   20  C11 UNL     1      38.136  -5.580  21.652  1.00  0.00     0.291 C 
HETATM   21  O3  UNL     1      39.005  -5.589  22.550  1.00  0.00    -0.264 OA
HETATM   22  N14 UNL     1      37.094  -4.625  21.710  1.00  0.00    -0.305 N 
ATOM     23  H14 UNL     1      36.384  -4.617  20.977  1.00  0.00     0.167 HD
BRANCH  22  24
HETATM   24  C12 UNL     1      37.014  -3.663  22.783  1.00  0.00     0.440 C 
HETATM   25  N15 UNL     1      38.190  -2.781  22.721  1.00  0.00     0.020 N 
HETATM   26  C13 UNL     1      37.227  -1.758  23.091  1.00  0.00     0.475 C 
ATOM     27 2H15 UNL     1      39.046  -2.957  23.248  1.00  0.00     0.288 HD
ATOM     28 1H15 UNL     1      38.789  -2.709  21.898  1.00  0.00     0.288 HD
HETATM   29  O5  UNL     1      36.239  -2.546  22.490  1.00  0.00    -0.289 OA
BRANCH  26  30
HETATM   30  O4  UNL     1      36.986  -1.676  24.454  1.00  0.00    -0.349 OA
ATOM     31  H4  UNL     1      36.223  -1.158  24.682  1.00  0.00     0.214 HD
ENDBRANCH  26  30
ENDBRANCH  22  24
ENDBRANCH  16  20
ENDBRANCH  11  12
ENDBRANCH   9  11
ENDBRANCH   8   9
BRANCH   1  32
HETATM   32  O2  UNL     1      37.672  -5.042  15.870  1.00  0.00    -0.256 OA
BRANCH  32  33
HETATM   33  C4  UNL     1      37.348  -3.951  15.086  1.00  0.00     0.271 A 
HETATM   34  N2  UNL     1      37.797  -2.687  15.170  1.00  0.00    -0.185 N 
HETATM   35  N3  UNL     1      37.199  -2.008  14.206  1.00  0.00    -0.216 N 
HETATM   36  N4  UNL     1      36.409  -2.814  13.549  1.00  0.00    -0.224 N 
ATOM     37  H3  UNL     1      37.333  -1.017  14.007  1.00  0.00     0.210 HD
HETATM   38  N5  UNL     1      36.465  -4.031  14.056  1.00  0.00    -0.247 N 
ATOM     39  H4  UNL     1      35.828  -2.542  12.756  1.00  0.00     0.210 HD
ATOM     40  H5  UNL     1      35.955  -4.856  13.742  1.00  0.00     0.192 HD
BRANCH  34  41
HETATM   41  C3  UNL     1      38.732  -2.189  16.111  1.00  0.00     0.137 A 
HETATM   42  N1  UNL     1      39.260  -2.896  17.123  1.00  0.00    -0.319 N 
HETATM   43  C2  UNL     1      40.117  -2.103  17.824  1.00  0.00     0.177 A 
ATOM     44  H1  UNL     1      39.052  -3.871  17.333  1.00  0.00     0.169 HD
HETATM   45  C15 UNL     1      40.129  -0.857  17.233  1.00  0.00     0.120 A 
HETATM   46  C14 UNL     1      39.251  -0.921  16.154  1.00  0.00     0.091 A 
BRANCH  43  47
HETATM   47  O1  UNL     1      40.872  -2.432  18.940  1.00  0.00    -0.339 OA
HETATM   48  C1  UNL     1      40.448  -3.391  19.890  1.00  0.00     0.211 C 
ENDBRANCH  43  47
BRANCH  45  49
HETATM   49  O6  UNL     1      40.844   0.265  17.595  1.00  0.00    -0.356 OA
ATOM     50  H6  UNL     1      41.780   0.356  17.737  1.00  0.00     0.218 HD
ENDBRANCH  45  49
ENDBRANCH  34  41
ENDBRANCH  32  33
ENDBRANCH   1  32
BRANCH   7  51
HETATM   51  N9  UNL     1      38.483  -9.687  15.338  1.00  0.00    -0.383 N 
ATOM     52  H92 UNL     1      37.732 -10.165  14.842  1.00  0.00     0.157 HD
ATOM     53  H91 UNL     1      39.003 -10.228  16.028  1.00  0.00     0.157 HD
ENDBRANCH   7  51
BRANCH   4  54
HETATM   54  N7  UNL     1      41.130  -6.572  13.183  1.00  0.00    -0.234 N 
ATOM     55  H72 UNL     1      42.099  -6.746  13.450  1.00  0.00     0.174 HD
ATOM     56  H71 UNL     1      40.943  -6.168  12.265  1.00  0.00     0.174 HD
ENDBRANCH   4  54
TORSDOF 13
ENDMDL
MODEL 4
REMARK VINA RESULT: -6.352149389      3.127      6.737
REMARK  13 active torsions:
REMARK  status: ('A' for Active; 'I' for Inactive)
REMARK    1  A    between atoms: O1_2  and  C2_3 
REMARK    2  A    between atoms: C3_6  and  N2_7 
REMARK    3  A    between atoms: C4_14  and  O2_15 
REMARK    4  A    between atoms: O2_15  and  C5_16 
REMARK    5  A    between atoms: C6_19  and  N7_20 
REMARK    6  A    between atoms: C7_25  and  N9_26 
REMARK    7  A    between atoms: C8_29  and  N10_30 
REMARK    8  A    between atoms: N10_30  and  C9_32 
REMARK    9  A    between atoms: C9_32  and  N11_33 
REMARK   10  A    between atoms: C10_38  and  C11_39 
REMARK       I    between atoms: C11_39  and  N14_41 
REMARK   11  A    between atoms: N14_41  and  C12_43 
REMARK   12  A    between atoms: C13_47  and  O4_48 
REMARK   13  A    between atoms: C15_54  and  O6_55 
ROOT
HETATM    1  C5  UNL     1      38.414  -4.958  20.495  1.00  0.00     0.197 A 
HETATM    2  N6  UNL     1      37.259  -5.347  21.077  1.00  0.00    -0.168 N 
ATOM      3  H6  UNL     1      36.420  -5.466  20.509  1.00  0.00     0.186 HD
HETATM    4  C6  UNL     1      37.210  -5.578  22.398  1.00  0.00     0.679 A 
HETATM    5  N8  UNL     1      38.322  -5.414  23.114  1.00  0.00    -0.175 N 
ATOM      6  H8  UNL     1      38.272  -5.593  24.117  1.00  0.00     0.186 HD
HETATM    7  C7  UNL     1      39.512  -5.028  22.604  1.00  0.00     0.146 A 
HETATM    8  C8  UNL     1      39.568  -4.791  21.252  1.00  0.00     0.130 A 
ENDROOT
BRANCH   8   9
HETATM    9  N10 UNL     1      40.745  -4.370  20.584  1.00  0.00    -0.343 N 
ATOM     10  H10 UNL     1      41.399  -5.099  20.298  1.00  0.00     0.167 HD
BRANCH   9  11
HETATM   11  C9  UNL     1      41.103  -3.024  20.273  1.00  0.00     0.229 C 
BRANCH  11  12
HETATM   12  N11 UNL     1      40.788  -2.050  21.286  1.00  0.00    -0.176 N 
HETATM   13  N12 UNL     1      41.478  -1.794  22.382  1.00  0.00    -0.219 N 
HETATM   14  N13 UNL     1      40.912  -0.834  23.088  1.00  0.00    -0.264 N 
ATOM     15  H12 UNL     1      42.336  -2.275  22.649  1.00  0.00     0.210 HD
HETATM   16  C10 UNL     1      39.809  -0.452  22.421  1.00  0.00     0.206 A 
ATOM     17  H13 UNL     1      41.247  -0.453  23.972  1.00  0.00     0.190 HD
HETATM   18  N16 UNL     1      39.749  -1.204  21.324  1.00  0.00    -0.256 N 
ATOM     19  H16 UNL     1      39.018  -1.144  20.616  1.00  0.00     0.191 HD
BRANCH  16  20
HETATM   20  C11 UNL     1      38.896   0.596  22.872  1.00  0.00     0.291 C 
HETATM   21  O3  UNL     1      38.483   1.481  22.093  1.00  0.00    -0.264 OA
HETATM   22  N14 UNL     1      38.472   0.609  24.221  1.00  0.00    -0.305 N 
ATOM     23  H14 UNL     1      38.810  -0.113  24.857  1.00  0.00     0.167 HD
BRANCH  22  24
HETATM   24  C12 UNL     1      37.572   1.623  24.716  1.00  0.00     0.440 C 
HETATM   25  N15 UNL     1      36.282   1.496  24.022  1.00  0.00     0.020 N 
HETATM   26  C13 UNL     1      35.741   1.815  25.332  1.00  0.00     0.475 C 
ATOM     27 2H15 UNL     1      36.048   2.023  23.180  1.00  0.00     0.288 HD
ATOM     28 1H15 UNL     1      36.012   0.664  23.496  1.00  0.00     0.288 HD
HETATM   29  O5  UNL     1      36.907   1.272  25.886  1.00  0.00    -0.289 OA
BRANCH  26  30
HETATM   30  O4  UNL     1      35.688   3.172  25.607  1.00  0.00    -0.349 OA
ATOM     31  H4  UNL     1      36.203   3.708  25.015  1.00  0.00     0.214 HD
ENDBRANCH  26  30
ENDBRANCH  22  24
ENDBRANCH  16  20
ENDBRANCH  11  12
ENDBRANCH   9  11
ENDBRANCH   8   9
BRANCH   1  32
HETATM   32  O2  UNL     1      38.412  -4.733  19.124  1.00  0.00    -0.256 OA
BRANCH  32  33
HETATM   33  C4  UNL     1      38.000  -5.716  18.245  1.00  0.00     0.271 A 
HETATM   34  N2  UNL     1      37.647  -5.600  16.954  1.00  0.00    -0.185 N 
HETATM   35  N3  UNL     1      37.330  -6.815  16.537  1.00  0.00    -0.216 N 
HETATM   36  N4  UNL     1      37.477  -7.652  17.528  1.00  0.00    -0.224 N 
ATOM     37  H3  UNL     1      37.021  -7.058  15.596  1.00  0.00     0.210 HD
HETATM   38  N5  UNL     1      37.891  -7.020  18.609  1.00  0.00    -0.247 N 
ATOM     39  H4  UNL     1      37.297  -8.655  17.474  1.00  0.00     0.210 HD
ATOM     40  H5  UNL     1      38.087  -7.425  19.525  1.00  0.00     0.192 HD
BRANCH  34  41
HETATM   41  C3  UNL     1      37.625  -4.405  16.193  1.00  0.00     0.137 A 
HETATM   42  N1  UNL     1      38.143  -3.230  16.586  1.00  0.00    -0.319 N 
HETATM   43  C2  UNL     1      37.942  -2.303  15.608  1.00  0.00     0.177 A 
ATOM     44  H1  UNL     1      38.613  -3.060  17.474  1.00  0.00     0.169 HD
HETATM   45  C15 UNL     1      37.276  -2.914  14.567  1.00  0.00     0.120 A 
HETATM   46  C14 UNL     1      37.080  -4.240  14.946  1.00  0.00     0.091 A 
BRANCH  43  47
HETATM   47  O1  UNL     1      38.317  -0.967  15.604  1.00  0.00    -0.339 OA
HETATM   48  C1  UNL     1      39.464  -0.495  16.285  1.00  0.00     0.211 C 
ENDBRANCH  43  47
BRANCH  45  49
HETATM   49  O6  UNL     1      36.861  -2.372  13.370  1.00  0.00    -0.356 OA
ATOM     50  H6  UNL     1      36.006  -2.030  13.135  1.00  0.00     0.218 HD
ENDBRANCH  45  49
ENDBRANCH  34  41
ENDBRANCH  32  33
ENDBRANCH   1  32
BRANCH   7  51
HETATM   51  N9  UNL     1      40.556  -4.878  23.355  1.00  0.00    -0.383 N 
ATOM     52  H92 UNL     1      41.026  -3.976  23.433  1.00  0.00     0.157 HD
ATOM     53  H91 UNL     1      40.939  -5.651  23.898  1.00  0.00     0.157 HD
ENDBRANCH   7  51
BRANCH   4  54
HETATM   54  N7  UNL     1      36.082  -5.954  22.944  1.00  0.00    -0.234 N 
ATOM     55  H72 UNL     1      36.007  -6.173  23.937  1.00  0.00     0.174 HD
ATOM     56  H71 UNL     1      35.246  -6.035  22.364  1.00  0.00     0.174 HD
ENDBRANCH   4  54
TORSDOF 13
ENDMDL
MODEL 5
REMARK VINA RESULT: -6.290858210      2.998      5.621
REMARK  13 active torsions:
REMARK  status: ('A' for Active; 'I' for Inactive)
REMARK    1  A    between atoms: O1_2  and  C2_3 
REMARK    2  A    between atoms: C3_6  and  N2_7 
REMARK    3  A    between atoms: C4_14  and  O2_15 
REMARK    4  A    between atoms: O2_15  and  C5_16 
REMARK    5  A    between atoms: C6_19  and  N7_20 
REMARK    6  A    between atoms: C7_25  and  N9_26 
REMARK    7  A    between atoms: C8_29  and  N10_30 
REMARK    8  A    between atoms: N10_30  and  C9_32 
REMARK    9  A    between atoms: C9_32  and  N11_33 
REMARK   10  A    between atoms: C10_38  and  C11_39 
REMARK       I    between atoms: C11_39  and  N14_41 
REMARK   11  A    between atoms: N14_41  and  C12_43 
REMARK   12  A    between atoms: C13_47  and  O4_48 
REMARK   13  A    between atoms: C15_54  and  O6_55 
ROOT
HETATM    1  C5  UNL     1      39.340  -5.367  19.384  1.00  0.00     0.197 A 
HETATM    2  N6  UNL     1      40.335  -5.024  18.537  1.00  0.00    -0.168 N 
ATOM      3  H6  UNL     1      40.115  -4.758  17.577  1.00  0.00     0.186 HD
HETATM    4  C6  UNL     1      41.612  -5.032  18.951  1.00  0.00     0.679 A 
HETATM    5  N8  UNL     1      41.869  -5.385  20.210  1.00  0.00    -0.175 N 
ATOM      6  H8  UNL     1      42.843  -5.386  20.513  1.00  0.00     0.186 HD
HETATM    7  C7  UNL     1      40.929  -5.740  21.114  1.00  0.00     0.146 A 
HETATM    8  C8  UNL     1      39.621  -5.733  20.695  1.00  0.00     0.130 A 
ENDROOT
BRANCH   8   9
HETATM    9  N10 UNL     1      38.535  -6.093  21.531  1.00  0.00    -0.343 N 
ATOM     10  H10 UNL     1      37.878  -6.781  21.164  1.00  0.00     0.167 HD
BRANCH   9  11
HETATM   11  C9  UNL     1      38.272  -5.584  22.838  1.00  0.00     0.229 C 
BRANCH  11  12
HETATM   12  N11 UNL     1      37.771  -4.235  22.888  1.00  0.00    -0.176 N 
HETATM   13  N12 UNL     1      36.556  -3.827  22.570  1.00  0.00    -0.219 N 
HETATM   14  N13 UNL     1      36.431  -2.525  22.740  1.00  0.00    -0.264 N 
ATOM     15  H12 UNL     1      35.812  -4.439  22.237  1.00  0.00     0.210 HD
HETATM   16  C10 UNL     1      37.614  -2.070  23.186  1.00  0.00     0.206 A 
ATOM     17  H13 UNL     1      35.595  -1.968  22.565  1.00  0.00     0.190 HD
HETATM   18  N16 UNL     1      38.420  -3.125  23.271  1.00  0.00    -0.256 N 
ATOM     19  H16 UNL     1      39.390  -3.095  23.582  1.00  0.00     0.191 HD
BRANCH  16  20
HETATM   20  C11 UNL     1      37.892  -0.670  23.498  1.00  0.00     0.291 C 
HETATM   21  O3  UNL     1      39.062  -0.241  23.589  1.00  0.00    -0.264 OA
HETATM   22  N14 UNL     1      36.813   0.220  23.704  1.00  0.00    -0.305 N 
ATOM     23  H14 UNL     1      35.857  -0.129  23.631  1.00  0.00     0.167 HD
BRANCH  22  24
HETATM   24  C12 UNL     1      37.034   1.612  24.016  1.00  0.00     0.440 C 
HETATM   25  N15 UNL     1      37.384   2.328  22.780  1.00  0.00     0.020 N 
HETATM   26  C13 UNL     1      36.563   3.377  23.359  1.00  0.00     0.475 C 
ATOM     27 2H15 UNL     1      38.347   2.478  22.477  1.00  0.00     0.288 HD
ATOM     28 1H15 UNL     1      37.220   1.943  21.849  1.00  0.00     0.288 HD
HETATM   29  O5  UNL     1      35.874   2.378  24.058  1.00  0.00    -0.289 OA
BRANCH  26  30
HETATM   30  O4  UNL     1      37.235   4.190  24.258  1.00  0.00    -0.349 OA
ATOM     31  H4  UNL     1      36.679   4.820  24.701  1.00  0.00     0.214 HD
ENDBRANCH  26  30
ENDBRANCH  22  24
ENDBRANCH  16  20
ENDBRANCH  11  12
ENDBRANCH   9  11
ENDBRANCH   8   9
BRANCH   1  32
HETATM   32  O2  UNL     1      38.036  -5.342  18.906  1.00  0.00    -0.256 OA
BRANCH  32  33
HETATM   33  C4  UNL     1      37.625  -6.222  17.922  1.00  0.00     0.271 A 
HETATM   34  N2  UNL     1      37.346  -5.975  16.632  1.00  0.00    -0.185 N 
HETATM   35  N3  UNL     1      36.995  -7.131  16.092  1.00  0.00    -0.216 N 
HETATM   36  N4  UNL     1      37.053  -8.059  17.009  1.00  0.00    -0.224 N 
ATOM     37  H3  UNL     1      36.725  -7.274  15.119  1.00  0.00     0.210 HD
HETATM   38  N5  UNL     1      37.439  -7.546  18.161  1.00  0.00    -0.247 N 
ATOM     39  H4  UNL     1      36.831  -9.043  16.855  1.00  0.00     0.210 HD
ATOM     40  H5  UNL     1      37.569  -8.040  19.044  1.00  0.00     0.192 HD
BRANCH  34  41
HETATM   41  C3  UNL     1      37.417  -4.718  15.983  1.00  0.00     0.137 A 
HETATM   42  N1  UNL     1      38.025  -3.627  16.477  1.00  0.00    -0.319 N 
HETATM   43  C2  UNL     1      37.897  -2.602  15.589  1.00  0.00     0.177 A 
ATOM     44  H1  UNL     1      38.506  -3.575  17.374  1.00  0.00     0.169 HD
HETATM   45  C15 UNL     1      37.185  -3.062  14.501  1.00  0.00     0.120 A 
HETATM   46  C14 UNL     1      36.886  -4.398  14.760  1.00  0.00     0.091 A 
BRANCH  43  47
HETATM   47  O1  UNL     1      38.374  -1.304  15.702  1.00  0.00    -0.339 OA
HETATM   48  C1  UNL     1      39.565  -0.989  16.400  1.00  0.00     0.211 C 
ENDBRANCH  43  47
BRANCH  45  49
HETATM   49  O6  UNL     1      36.814  -2.383  13.361  1.00  0.00    -0.356 OA
ATOM     50  H6  UNL     1      36.018  -1.891  13.192  1.00  0.00     0.218 HD
ENDBRANCH  45  49
ENDBRANCH  34  41
ENDBRANCH  32  33
ENDBRANCH   1  32
BRANCH   7  51
HETATM   51  N9  UNL     1      41.245  -6.082  22.322  1.00  0.00    -0.383 N 
ATOM     52  H92 UNL     1      40.807  -6.882  22.777  1.00  0.00     0.157 HD
ATOM     53  H91 UNL     1      41.946  -5.569  22.857  1.00  0.00     0.157 HD
ENDBRANCH   7  51
BRANCH   4  54
HETATM   54  N7  UNL     1      42.561  -4.697  18.115  1.00  0.00    -0.234 N 
ATOM     55  H72 UNL     1      43.234  -3.960  18.328  1.00  0.00     0.174 HD
ATOM     56  H71 UNL     1      42.637  -5.181  17.221  1.00  0.00     0.174 HD
ENDBRANCH   4  54
TORSDOF 13
ENDMDL
