MODEL 1
REMARK VINA RESULT: -4.833793430      0.000      0.000
REMARK  4 active torsions:
REMARK  status: ('A' for Active; 'I' for Inactive)
REMARK    1  A    between atoms: N1_2  and  C2_4 
REMARK    2  A    between atoms: C7_9  and  N2_10 
REMARK    3  A    between atoms: C8_14  and  C9_15 
REMARK    4  A    between atoms: C9_15  and  N3_16 
ROOT
HETATM    1  C2  UNL     1      11.308  36.593  33.746  1.00  0.00    -0.011 C 
HETATM    2  C3  UNL     1      12.250  37.043  34.797  1.00  0.00     0.052 C 
HETATM    3  C4  UNL     1      13.518  36.354  35.010  1.00  0.00     0.006 C 
HETATM    4  C5  UNL     1      13.279  35.193  35.991  1.00  0.00     0.002 C 
HETATM    5  C6  UNL     1      12.635  34.114  35.152  1.00  0.00     0.033 C 
HETATM    6  C7  UNL     1      11.177  34.349  34.960  1.00  0.00     0.194 C 
HETATM    7  C8  UNL     1      10.781  35.214  33.841  1.00  0.00     0.086 C 
ENDROOT
BRANCH   7   8
HETATM    8  C9  UNL     1       9.241  35.178  33.812  1.00  0.00     0.242 C 
BRANCH   8   9
HETATM    9  N3  UNL     1       8.741  34.305  32.799  1.00  0.00    -0.079 N 
ATOM     10  H33 UNL     1       7.806  34.582  32.501  1.00  0.00     0.274 HD
ATOM     11  H32 UNL     1       9.239  34.439  31.918  1.00  0.00     0.274 HD
ATOM     12  H31 UNL     1       8.762  33.327  33.089  1.00  0.00     0.274 HD
ENDBRANCH   8   9
ENDBRANCH   7   8
BRANCH   1  13
HETATM   13  N1  UNL     1      11.676  37.001  32.419  1.00  0.00    -0.400 N 
HETATM   14  C1  UNL     1      10.769  36.860  31.371  1.00  0.00     0.145 C 
ATOM     15  H1  UNL     1      12.601  37.395  32.244  1.00  0.00     0.158 HD
ENDBRANCH   1  13
BRANCH   6  16
HETATM   16  N2  UNL     1      10.589  34.735  36.244  1.00  0.00    -0.074 N 
ATOM     17  H23 UNL     1       9.914  34.050  36.585  1.00  0.00     0.274 HD
ATOM     18  H22 UNL     1      11.255  34.671  37.013  1.00  0.00     0.274 HD
ATOM     19  H21 UNL     1      10.186  35.667  36.153  1.00  0.00     0.274 HD
ENDBRANCH   6  16
TORSDOF 4
ENDMDL
MODEL 2
REMARK VINA RESULT: -4.416916114      4.155      5.639
REMARK  4 active torsions:
REMARK  status: ('A' for Active; 'I' for Inactive)
REMARK    1  A    between atoms: N1_2  and  C2_4 
REMARK    2  A    between atoms: C7_9  and  N2_10 
REMARK    3  A    between atoms: C8_14  and  C9_15 
REMARK    4  A    between atoms: C9_15  and  N3_16 
ROOT
HETATM    1  C2  UNL     1      15.010  38.611  37.188  1.00  0.00    -0.011 C 
HETATM    2  C3  UNL     1      15.058  38.827  38.653  1.00  0.00     0.052 C 
HETATM    3  C4  UNL     1      16.110  38.223  39.464  1.00  0.00     0.006 C 
HETATM    4  C5  UNL     1      15.650  36.815  39.881  1.00  0.00     0.002 C 
HETATM    5  C6  UNL     1      15.871  35.965  38.651  1.00  0.00     0.033 C 
HETATM    6  C7  UNL     1      14.767  36.112  37.663  1.00  0.00     0.194 C 
HETATM    7  C8  UNL     1      14.872  37.219  36.704  1.00  0.00     0.086 C 
ENDROOT
BRANCH   7   8
HETATM    8  C9  UNL     1      13.677  37.055  35.745  1.00  0.00     0.242 C 
BRANCH   8   9
HETATM    9  N3  UNL     1      14.070  37.140  34.375  1.00  0.00    -0.079 N 
ATOM     10  H33 UNL     1      15.015  37.515  34.285  1.00  0.00     0.274 HD
ATOM     11  H32 UNL     1      14.224  36.213  33.977  1.00  0.00     0.274 HD
ATOM     12  H31 UNL     1      13.405  37.676  33.816  1.00  0.00     0.274 HD
ENDBRANCH   8   9
ENDBRANCH   7   8
BRANCH   1  13
HETATM   13  N1  UNL     1      15.946  39.410  36.449  1.00  0.00    -0.400 N 
HETATM   14  C1  UNL     1      16.146  40.746  36.793  1.00  0.00     0.145 C 
ATOM     15  H1  UNL     1      16.466  39.000  35.673  1.00  0.00     0.158 HD
ENDBRANCH   1  13
BRANCH   6  16
HETATM   16  N2  UNL     1      13.488  36.063  38.373  1.00  0.00    -0.074 N 
ATOM     17  H23 UNL     1      13.606  35.961  39.381  1.00  0.00     0.274 HD
ATOM     18  H22 UNL     1      13.010  36.964  38.378  1.00  0.00     0.274 HD
ATOM     19  H21 UNL     1      12.917  35.321  37.970  1.00  0.00     0.274 HD
ENDBRANCH   6  16
TORSDOF 4
ENDMDL
MODEL 3
REMARK VINA RESULT: -4.289073999      4.924      6.950
REMARK  4 active torsions:
REMARK  status: ('A' for Active; 'I' for Inactive)
REMARK    1  A    between atoms: N1_2  and  C2_4 
REMARK    2  A    between atoms: C7_9  and  N2_10 
REMARK    3  A    between atoms: C8_14  and  C9_15 
REMARK    4  A    between atoms: C9_15  and  N3_16 
ROOT
HETATM    1  C2  UNL     1      17.055  37.693  37.310  1.00  0.00    -0.011 C 
HETATM    2  C3  UNL     1      16.728  36.250  37.244  1.00  0.00     0.052 C 
HETATM    3  C4  UNL     1      16.091  35.682  36.061  1.00  0.00     0.006 C 
HETATM    4  C5  UNL     1      14.567  35.824  36.216  1.00  0.00     0.002 C 
HETATM    5  C6  UNL     1      14.286  37.271  35.884  1.00  0.00     0.033 C 
HETATM    6  C7  UNL     1      14.561  38.174  37.036  1.00  0.00     0.194 C 
HETATM    7  C8  UNL     1      15.939  38.657  37.191  1.00  0.00     0.086 C 
ENDROOT
BRANCH   7   8
HETATM    8  C9  UNL     1      15.902  39.650  38.369  1.00  0.00     0.242 C 
BRANCH   8   9
HETATM    9  N3  UNL     1      16.364  40.948  37.995  1.00  0.00    -0.079 N 
ATOM     10  H33 UNL     1      16.728  40.949  37.041  1.00  0.00     0.274 HD
ATOM     11  H32 UNL     1      15.586  41.596  37.872  1.00  0.00     0.274 HD
ATOM     12  H31 UNL     1      17.052  41.316  38.653  1.00  0.00     0.274 HD
ENDBRANCH   8   9
ENDBRANCH   7   8
BRANCH   1  13
HETATM   13  N1  UNL     1      18.238  38.057  36.580  1.00  0.00    -0.400 N 
HETATM   14  C1  UNL     1      19.390  37.280  36.689  1.00  0.00     0.145 C 
ATOM     15  H1  UNL     1      18.235  38.883  35.983  1.00  0.00     0.158 HD
ENDBRANCH   1  13
BRANCH   6  16
HETATM   16  N2  UNL     1      14.004  37.574  38.249  1.00  0.00    -0.074 N 
ATOM     17  H23 UNL     1      14.581  36.813  38.608  1.00  0.00     0.274 HD
ATOM     18  H22 UNL     1      14.070  38.193  39.057  1.00  0.00     0.274 HD
ATOM     19  H21 UNL     1      13.046  37.281  38.060  1.00  0.00     0.274 HD
ENDBRANCH   6  16
TORSDOF 4
ENDMDL
MODEL 4
REMARK VINA RESULT: -4.259349021      5.352      7.318
REMARK  4 active torsions:
REMARK  status: ('A' for Active; 'I' for Inactive)
REMARK    1  A    between atoms: N1_2  and  C2_4 
REMARK    2  A    between atoms: C7_9  and  N2_10 
REMARK    3  A    between atoms: C8_14  and  C9_15 
REMARK    4  A    between atoms: C9_15  and  N3_16 
ROOT
HETATM    1  C2  UNL     1      16.540  38.842  37.569  1.00  0.00    -0.011 C 
HETATM    2  C3  UNL     1      15.144  38.750  37.085  1.00  0.00     0.052 C 
HETATM    3  C4  UNL     1      14.125  38.059  37.868  1.00  0.00     0.006 C 
HETATM    4  C5  UNL     1      14.152  36.568  37.489  1.00  0.00     0.002 C 
HETATM    5  C6  UNL     1      15.346  36.011  38.229  1.00  0.00     0.033 C 
HETATM    6  C7  UNL     1      16.625  36.289  37.519  1.00  0.00     0.194 C 
HETATM    7  C8  UNL     1      17.274  37.577  37.794  1.00  0.00     0.086 C 
ENDROOT
BRANCH   7   8
HETATM    8  C9  UNL     1      18.613  37.540  37.032  1.00  0.00     0.242 C 
BRANCH   8   9
HETATM    9  N3  UNL     1      18.757  38.647  36.141  1.00  0.00    -0.079 N 
ATOM     10  H33 UNL     1      18.251  38.487  35.270  1.00  0.00     0.274 HD
ATOM     11  H32 UNL     1      18.245  39.461  36.480  1.00  0.00     0.274 HD
ATOM     12  H31 UNL     1      19.736  38.873  35.964  1.00  0.00     0.274 HD
ENDBRANCH   8   9
ENDBRANCH   7   8
BRANCH   1  13
HETATM   13  N1  UNL     1      16.741  39.838  38.584  1.00  0.00    -0.400 N 
HETATM   14  C1  UNL     1      16.170  41.101  38.443  1.00  0.00     0.145 C 
ATOM     15  H1  UNL     1      17.302  39.621  39.408  1.00  0.00     0.158 HD
ENDBRANCH   1  13
BRANCH   6  16
HETATM   16  N2  UNL     1      16.444  36.010  36.094  1.00  0.00    -0.074 N 
ATOM     17  H23 UNL     1      17.297  35.668  35.652  1.00  0.00     0.274 HD
ATOM     18  H22 UNL     1      15.861  35.189  35.928  1.00  0.00     0.274 HD
ATOM     19  H21 UNL     1      16.077  36.845  35.640  1.00  0.00     0.274 HD
ENDBRANCH   6  16
TORSDOF 4
ENDMDL
MODEL 5
REMARK VINA RESULT: -4.252678530      2.966      5.204
REMARK  4 active torsions:
REMARK  status: ('A' for Active; 'I' for Inactive)
REMARK    1  A    between atoms: N1_2  and  C2_4 
REMARK    2  A    between atoms: C7_9  and  N2_10 
REMARK    3  A    between atoms: C8_14  and  C9_15 
REMARK    4  A    between atoms: C9_15  and  N3_16 
ROOT
HETATM    1  C2  UNL     1      13.690  35.579  38.012  1.00  0.00    -0.011 C 
HETATM    2  C3  UNL     1      14.995  36.146  38.424  1.00  0.00     0.052 C 
HETATM    3  C4  UNL     1      15.146  37.578  38.660  1.00  0.00     0.006 C 
HETATM    4  C5  UNL     1      15.490  38.256  37.323  1.00  0.00     0.002 C 
HETATM    5  C6  UNL     1      14.171  38.341  36.590  1.00  0.00     0.033 C 
HETATM    6  C7  UNL     1      13.813  37.055  35.930  1.00  0.00     0.194 C 
HETATM    7  C8  UNL     1      13.099  36.063  36.744  1.00  0.00     0.086 C 
ENDROOT
BRANCH   7   8
HETATM    8  C9  UNL     1      12.757  34.906  35.785  1.00  0.00     0.242 C 
BRANCH   8   9
HETATM    9  N3  UNL     1      11.353  34.653  35.726  1.00  0.00    -0.079 N 
ATOM     10  H33 UNL     1      10.971  34.473  36.655  1.00  0.00     0.274 HD
ATOM     11  H32 UNL     1      10.835  35.501  35.499  1.00  0.00     0.274 HD
ATOM     12  H31 UNL     1      11.125  33.896  35.080  1.00  0.00     0.274 HD
ENDBRANCH   8   9
ENDBRANCH   7   8
BRANCH   1  13
HETATM   13  N1  UNL     1      12.752  35.431  39.089  1.00  0.00    -0.400 N 
HETATM   14  C1  UNL     1      13.169  34.898  40.307  1.00  0.00     0.145 C 
ATOM     15  H1  UNL     1      11.781  35.717  38.963  1.00  0.00     0.158 HD
ENDBRANCH   1  13
BRANCH   6  16
HETATM   16  N2  UNL     1      14.999  36.526  35.255  1.00  0.00    -0.074 N 
ATOM     17  H23 UNL     1      15.435  37.212  34.639  1.00  0.00     0.274 HD
ATOM     18  H22 UNL     1      15.783  36.390  35.893  1.00  0.00     0.274 HD
ATOM     19  H21 UNL     1      14.742  35.670  34.765  1.00  0.00     0.274 HD
ENDBRANCH   6  16
TORSDOF 4
ENDMDL
