MODEL 1
REMARK VINA RESULT: -4.424350028      0.000      0.000
REMARK  1 active torsions:
REMARK  status: ('A' for Active; 'I' for Inactive)
REMARK    1  A    between atoms: C5_5  and  N1_7 
ROOT
HETATM    1  C1  UNL     1      12.094  36.364  34.232  1.00  0.00     0.017 C 
HETATM    2  C2  UNL     1      11.151  35.827  33.198  1.00  0.00    -0.013 A 
HETATM    3  C3  UNL     1      10.858  36.724  32.040  1.00  0.00     0.017 C 
HETATM    4  C4  UNL     1      11.289  34.329  32.968  1.00  0.00     0.050 A 
HETATM    5  C5  UNL     1      10.055  34.927  33.627  1.00  0.00     0.128 A 
HETATM    6  C6  UNL     1       9.842  34.761  35.093  1.00  0.00     0.047 C 
ENDROOT
BRANCH   5   7
HETATM    7  N1  UNL     1       8.859  34.770  32.811  1.00  0.00    -0.070 N 
ATOM      8  H13 UNL     1       8.320  35.633  32.868  1.00  0.00     0.275 HD
ATOM      9  H12 UNL     1       9.141  34.764  31.831  1.00  0.00     0.275 HD
ATOM     10  H11 UNL     1       8.223  33.987  32.964  1.00  0.00     0.275 HD
ENDBRANCH   5   7
TORSDOF 1
ENDMDL
MODEL 2
REMARK VINA RESULT: -4.332359859      1.402      2.105
REMARK  1 active torsions:
REMARK  status: ('A' for Active; 'I' for Inactive)
REMARK    1  A    between atoms: C5_5  and  N1_7 
ROOT
HETATM    1  C1  UNL     1      10.269  34.719  35.026  1.00  0.00     0.017 C 
HETATM    2  C2  UNL     1      10.941  35.376  33.859  1.00  0.00    -0.013 A 
HETATM    3  C3  UNL     1      12.099  36.263  34.175  1.00  0.00     0.017 C 
HETATM    4  C4  UNL     1      10.983  34.505  32.611  1.00  0.00     0.050 A 
HETATM    5  C5  UNL     1      10.122  35.758  32.684  1.00  0.00     0.128 A 
HETATM    6  C6  UNL     1       8.642  35.635  32.813  1.00  0.00     0.047 C 
ENDROOT
BRANCH   5   7
HETATM    7  N1  UNL     1      10.574  36.795  31.768  1.00  0.00    -0.070 N 
ATOM      8  H13 UNL     1      10.545  36.417  30.821  1.00  0.00     0.275 HD
ATOM      9  H12 UNL     1       9.854  37.516  31.724  1.00  0.00     0.275 HD
ATOM     10  H11 UNL     1      11.475  37.253  31.901  1.00  0.00     0.275 HD
ENDBRANCH   5   7
TORSDOF 1
ENDMDL
MODEL 3
REMARK VINA RESULT: -4.302330231      1.555      2.994
REMARK  1 active torsions:
REMARK  status: ('A' for Active; 'I' for Inactive)
REMARK    1  A    between atoms: C5_5  and  N1_7 
ROOT
HETATM    1  C1  UNL     1       8.923  34.522  32.737  1.00  0.00     0.017 C 
HETATM    2  C2  UNL     1      10.096  34.878  33.599  1.00  0.00    -0.013 A 
HETATM    3  C3  UNL     1       9.867  34.849  35.074  1.00  0.00     0.017 C 
HETATM    4  C4  UNL     1      11.429  34.402  33.039  1.00  0.00     0.050 A 
HETATM    5  C5  UNL     1      11.070  35.879  33.104  1.00  0.00     0.128 A 
HETATM    6  C6  UNL     1      10.719  36.614  31.855  1.00  0.00     0.047 C 
ENDROOT
BRANCH   5   7
HETATM    7  N1  UNL     1      11.917  36.615  34.032  1.00  0.00    -0.070 N 
ATOM      8  H13 UNL     1      12.039  37.560  33.668  1.00  0.00     0.275 HD
ATOM      9  H12 UNL     1      11.382  36.788  34.882  1.00  0.00     0.275 HD
ATOM     10  H11 UNL     1      12.833  36.256  34.300  1.00  0.00     0.275 HD
ENDBRANCH   5   7
TORSDOF 1
ENDMDL
MODEL 4
REMARK VINA RESULT: -4.203193614      1.333      2.139
REMARK  1 active torsions:
REMARK  status: ('A' for Active; 'I' for Inactive)
REMARK    1  A    between atoms: C5_5  and  N1_7 
ROOT
HETATM    1  C1  UNL     1      10.814  36.633  31.741  1.00  0.00     0.017 C 
HETATM    2  C2  UNL     1      10.242  35.642  32.709  1.00  0.00    -0.013 A 
HETATM    3  C3  UNL     1       8.752  35.559  32.767  1.00  0.00     0.017 C 
HETATM    4  C4  UNL     1      11.068  34.371  32.840  1.00  0.00     0.050 A 
HETATM    5  C5  UNL     1      10.964  35.378  33.975  1.00  0.00     0.128 A 
HETATM    6  C6  UNL     1      12.125  36.259  34.296  1.00  0.00     0.047 C 
ENDROOT
BRANCH   5   7
HETATM    7  N1  UNL     1      10.265  34.840  35.133  1.00  0.00    -0.070 N 
ATOM      8  H13 UNL     1       9.274  35.060  35.037  1.00  0.00     0.275 HD
ATOM      9  H12 UNL     1      10.260  33.823  35.057  1.00  0.00     0.275 HD
ATOM     10  H11 UNL     1      10.556  35.086  36.079  1.00  0.00     0.275 HD
ENDBRANCH   5   7
TORSDOF 1
ENDMDL
MODEL 5
REMARK VINA RESULT: -4.060938046      1.726      2.555
REMARK  1 active torsions:
REMARK  status: ('A' for Active; 'I' for Inactive)
REMARK    1  A    between atoms: C5_5  and  N1_7 
ROOT
HETATM    1  C1  UNL     1      11.056  33.906  33.377  1.00  0.00     0.017 C 
HETATM    2  C2  UNL     1      10.559  35.026  32.514  1.00  0.00    -0.013 A 
HETATM    3  C3  UNL     1      10.378  34.715  31.064  1.00  0.00     0.017 C 
HETATM    4  C4  UNL     1       9.562  35.938  33.214  1.00  0.00     0.050 A 
HETATM    5  C5  UNL     1      10.958  36.414  32.842  1.00  0.00     0.128 A 
HETATM    6  C6  UNL     1      11.988  36.595  33.906  1.00  0.00     0.047 C 
ENDROOT
BRANCH   5   7
HETATM    7  N1  UNL     1      10.937  37.456  31.826  1.00  0.00    -0.070 N 
ATOM      8  H13 UNL     1      11.666  37.248  31.143  1.00  0.00     0.275 HD
ATOM      9  H12 UNL     1      10.092  37.339  31.268  1.00  0.00     0.275 HD
ATOM     10  H11 UNL     1      11.015  38.439  32.085  1.00  0.00     0.275 HD
ENDBRANCH   5   7
TORSDOF 1
ENDMDL
