MODEL 1
REMARK VINA RESULT: -5.698945488      0.000      0.000
REMARK  5 active torsions:
REMARK  status: ('A' for Active; 'I' for Inactive)
REMARK    1  A    between atoms: C2_2  and  C3_3 
REMARK    2  A    between atoms: C3_3  and  C4_4 
REMARK    3  A    between atoms: C4_4  and  C5_5 
REMARK    4  A    between atoms: C5_5  and  C6_6 
REMARK    5  A    between atoms: C9_11  and  C10_12 
ROOT
HETATM    1  C6  UNL     1      10.079 -50.640  36.600  1.00  0.00     0.092 C 
HETATM    2  C7  UNL     1      10.266 -49.171  36.188  1.00  0.00     0.076 C 
HETATM    3  N1  UNL     1      10.091 -48.813  34.870  1.00  0.00    -0.380 N 
ATOM      4  H1  UNL     1       9.649 -47.915  34.669  1.00  0.00     0.164 HD
HETATM    5  C8  UNL     1      10.483 -49.611  33.792  1.00  0.00     0.071 C 
HETATM    6  C9  UNL     1      10.826 -51.028  34.251  1.00  0.00     0.087 C 
HETATM    7  C11 UNL     1       9.842 -51.407  35.281  1.00  0.00     0.038 C 
ENDROOT
BRANCH   1   8
HETATM    8  C5  UNL     1       9.267 -50.932  37.577  1.00  0.00    -0.162 C 
BRANCH   8   9
HETATM    9  C4  UNL     1       8.376 -51.252  38.647  1.00  0.00     0.160 C 
BRANCH   9  10
HETATM   10  C3  UNL     1       7.349 -50.298  38.796  1.00  0.00    -0.172 C 
BRANCH  10  11
HETATM   11  C2  UNL     1       6.482 -49.394  38.896  1.00  0.00     0.076 C 
HETATM   12  C1  UNL     1       6.795 -47.959  39.055  1.00  0.00     0.017 C 
ENDBRANCH  10  11
ENDBRANCH   9  10
ENDBRANCH   8   9
ENDBRANCH   1   8
BRANCH   6  13
HETATM   13  C10 UNL     1      12.251 -51.176  34.541  1.00  0.00     0.241 C 
HETATM   14  O1  UNL     1      13.096 -50.267  34.486  1.00  0.00    -0.306 OA
ENDBRANCH   6  13
TORSDOF 5
ENDMDL
MODEL 2
REMARK VINA RESULT: -5.659487496      1.684      2.139
REMARK  5 active torsions:
REMARK  status: ('A' for Active; 'I' for Inactive)
REMARK    1  A    between atoms: C2_2  and  C3_3 
REMARK    2  A    between atoms: C3_3  and  C4_4 
REMARK    3  A    between atoms: C4_4  and  C5_5 
REMARK    4  A    between atoms: C5_5  and  C6_6 
REMARK    5  A    between atoms: C9_11  and  C10_12 
ROOT
HETATM    1  C6  UNL     1      10.075 -50.957  35.840  1.00  0.00     0.092 C 
HETATM    2  C7  UNL     1      11.177 -51.957  35.454  1.00  0.00     0.076 C 
HETATM    3  N1  UNL     1      12.364 -51.486  34.938  1.00  0.00    -0.380 N 
ATOM      4  H1  UNL     1      13.227 -51.959  35.208  1.00  0.00     0.164 HD
HETATM    5  C8  UNL     1      12.453 -50.398  34.067  1.00  0.00     0.071 C 
HETATM    6  C9  UNL     1      11.136 -49.622  34.019  1.00  0.00     0.087 C 
HETATM    7  C11 UNL     1      10.601 -49.577  35.392  1.00  0.00     0.038 C 
ENDROOT
BRANCH   1   8
HETATM    8  C5  UNL     1       9.560 -51.004  37.037  1.00  0.00    -0.162 C 
BRANCH   8   9
HETATM    9  C4  UNL     1       8.996 -51.055  38.348  1.00  0.00     0.160 C 
BRANCH   9  10
HETATM   10  C3  UNL     1       7.717 -50.468  38.407  1.00  0.00    -0.172 C 
BRANCH  10  11
HETATM   11  C2  UNL     1       6.591 -49.908  38.390  1.00  0.00     0.076 C 
HETATM   12  C1  UNL     1       6.201 -48.802  39.289  1.00  0.00     0.017 C 
ENDBRANCH  10  11
ENDBRANCH   9  10
ENDBRANCH   8   9
ENDBRANCH   1   8
BRANCH   6  13
HETATM   13  C10 UNL     1      10.272 -50.085  32.934  1.00  0.00     0.241 C 
HETATM   14  O1  UNL     1      10.184 -49.565  31.810  1.00  0.00    -0.306 OA
ENDBRANCH   6  13
TORSDOF 5
ENDMDL
MODEL 3
REMARK VINA RESULT: -5.432187924      1.710      2.016
REMARK  5 active torsions:
REMARK  status: ('A' for Active; 'I' for Inactive)
REMARK    1  A    between atoms: C2_2  and  C3_3 
REMARK    2  A    between atoms: C3_3  and  C4_4 
REMARK    3  A    between atoms: C4_4  and  C5_5 
REMARK    4  A    between atoms: C5_5  and  C6_6 
REMARK    5  A    between atoms: C9_11  and  C10_12 
ROOT
HETATM    1  C6  UNL     1       9.044 -49.984  36.080  1.00  0.00     0.092 C 
HETATM    2  C7  UNL     1      10.327 -49.745  36.892  1.00  0.00     0.076 C 
HETATM    3  N1  UNL     1      11.475 -49.356  36.240  1.00  0.00    -0.380 N 
ATOM      4  H1  UNL     1      12.086 -48.681  36.701  1.00  0.00     0.164 HD
HETATM    5  C8  UNL     1      11.851 -49.832  34.982  1.00  0.00     0.071 C 
HETATM    6  C9  UNL     1      10.696 -50.571  34.305  1.00  0.00     0.087 C 
HETATM    7  C11 UNL     1       9.461 -49.824  34.602  1.00  0.00     0.038 C 
ENDROOT
BRANCH   1   8
HETATM    8  C5  UNL     1       7.945 -49.374  36.426  1.00  0.00    -0.162 C 
BRANCH   8   9
HETATM    9  C4  UNL     1       6.740 -48.706  36.806  1.00  0.00     0.160 C 
BRANCH   9  10
HETATM   10  C3  UNL     1       6.741 -48.326  38.163  1.00  0.00    -0.172 C 
BRANCH  10  11
HETATM   11  C2  UNL     1       6.791 -47.928  39.354  1.00  0.00     0.076 C 
HETATM   12  C1  UNL     1       7.272 -46.592  39.762  1.00  0.00     0.017 C 
ENDBRANCH  10  11
ENDBRANCH   9  10
ENDBRANCH   8   9
ENDBRANCH   1   8
BRANCH   6  13
HETATM   13  C10 UNL     1      10.739 -52.008  34.572  1.00  0.00     0.241 C 
HETATM   14  O1  UNL     1      11.483 -52.566  35.396  1.00  0.00    -0.306 OA
ENDBRANCH   6  13
TORSDOF 5
ENDMDL
MODEL 4
REMARK VINA RESULT: -5.381676221      1.840      2.481
REMARK  5 active torsions:
REMARK  status: ('A' for Active; 'I' for Inactive)
REMARK    1  A    between atoms: C2_2  and  C3_3 
REMARK    2  A    between atoms: C3_3  and  C4_4 
REMARK    3  A    between atoms: C4_4  and  C5_5 
REMARK    4  A    between atoms: C5_5  and  C6_6 
REMARK    5  A    between atoms: C9_11  and  C10_12 
ROOT
HETATM    1  C6  UNL     1       8.565 -49.635  35.784  1.00  0.00     0.092 C 
HETATM    2  C7  UNL     1       9.485 -50.729  36.350  1.00  0.00     0.076 C 
HETATM    3  N1  UNL     1      10.839 -50.497  36.428  1.00  0.00    -0.380 N 
ATOM      4  H1  UNL     1      11.345 -50.860  37.237  1.00  0.00     0.164 HD
HETATM    5  C8  UNL     1      11.561 -49.792  35.461  1.00  0.00     0.071 C 
HETATM    6  C9  UNL     1      10.625 -49.058  34.501  1.00  0.00     0.087 C 
HETATM    7  C11 UNL     1       9.511 -48.517  35.300  1.00  0.00     0.038 C 
ENDROOT
BRANCH   1   8
HETATM    8  C5  UNL     1       7.535 -49.243  36.480  1.00  0.00    -0.162 C 
BRANCH   8   9
HETATM    9  C4  UNL     1       6.406 -48.811  37.242  1.00  0.00     0.160 C 
BRANCH   9  10
HETATM   10  C3  UNL     1       6.772 -48.303  38.504  1.00  0.00    -0.172 C 
BRANCH  10  11
HETATM   11  C2  UNL     1       7.115 -47.780  39.594  1.00  0.00     0.076 C 
HETATM   12  C1  UNL     1       7.258 -46.325  39.808  1.00  0.00     0.017 C 
ENDBRANCH  10  11
ENDBRANCH   9  10
ENDBRANCH   8   9
ENDBRANCH   1   8
BRANCH   6  13
HETATM   13  C10 UNL     1      10.325 -49.860  33.315  1.00  0.00     0.241 C 
HETATM   14  O1  UNL     1      10.374 -49.457  32.141  1.00  0.00    -0.306 OA
ENDBRANCH   6  13
TORSDOF 5
ENDMDL
MODEL 5
REMARK VINA RESULT: -5.332722531      1.642      2.365
REMARK  5 active torsions:
REMARK  status: ('A' for Active; 'I' for Inactive)
REMARK    1  A    between atoms: C2_2  and  C3_3 
REMARK    2  A    between atoms: C3_3  and  C4_4 
REMARK    3  A    between atoms: C4_4  and  C5_5 
REMARK    4  A    between atoms: C5_5  and  C6_6 
REMARK    5  A    between atoms: C9_11  and  C10_12 
ROOT
HETATM    1  C6  UNL     1       9.708 -49.859  34.990  1.00  0.00     0.092 C 
HETATM    2  C7  UNL     1       9.333 -50.680  33.745  1.00  0.00     0.076 C 
HETATM    3  N1  UNL     1       9.802 -51.969  33.622  1.00  0.00    -0.380 N 
ATOM      4  H1  UNL     1       9.184 -52.668  33.209  1.00  0.00     0.164 HD
HETATM    5  C8  UNL     1      11.075 -52.373  34.031  1.00  0.00     0.071 C 
HETATM    6  C9  UNL     1      11.739 -51.305  34.901  1.00  0.00     0.087 C 
HETATM    7  C11 UNL     1      10.697 -50.743  35.779  1.00  0.00     0.038 C 
ENDROOT
BRANCH   1   8
HETATM    8  C5  UNL     1       8.764 -49.299  35.694  1.00  0.00    -0.162 C 
BRANCH   8   9
HETATM    9  C4  UNL     1       7.730 -48.687  36.467  1.00  0.00     0.160 C 
BRANCH   9  10
HETATM   10  C3  UNL     1       7.429 -49.413  37.636  1.00  0.00    -0.172 C 
BRANCH  10  11
HETATM   11  C2  UNL     1       7.218 -50.114  38.658  1.00  0.00     0.076 C 
HETATM   12  C1  UNL     1       8.024 -51.292  39.037  1.00  0.00     0.017 C 
ENDBRANCH  10  11
ENDBRANCH   9  10
ENDBRANCH   8   9
ENDBRANCH   1   8
BRANCH   6  13
HETATM   13  C10 UNL     1      12.568 -50.397  34.109  1.00  0.00     0.241 C 
HETATM   14  O1  UNL     1      12.588 -50.336  32.869  1.00  0.00    -0.306 OA
ENDBRANCH   6  13
TORSDOF 5
ENDMDL
