MODEL 1
REMARK VINA RESULT: -5.157634968      0.000      0.000
REMARK  5 active torsions:
REMARK  status: ('A' for Active; 'I' for Inactive)
REMARK    1  A    between atoms: N1_2  and  C3_4 
REMARK    2  A    between atoms: C3_4  and  C4_5 
REMARK    3  A    between atoms: C5_8  and  N3_9 
REMARK    4  A    between atoms: C6_15  and  N6_16 
REMARK    5  A    between atoms: N8_22  and  O1_23 
ROOT
HETATM    1  C4  UNL     1      16.052   0.034  35.040  1.00  0.00     0.172 A 
HETATM    2  N2  UNL     1      17.283  -0.031  35.566  1.00  0.00    -0.174 N 
ATOM      3  H2  UNL     1      17.909   0.766  35.447  1.00  0.00     0.185 HD
HETATM    4  C5  UNL     1      17.726  -1.104  36.247  1.00  0.00     0.714 A 
HETATM    5  N4  UNL     1      16.915  -2.154  36.410  1.00  0.00     0.107 N 
HETATM    6  N5  UNL     1      17.103  -3.317  37.029  1.00  0.00    -0.096 N 
ATOM      7  H5  UNL     1      17.955  -3.607  37.508  1.00  0.00     0.207 HD
HETATM    8  C6  UNL     1      15.979  -4.043  36.916  1.00  0.00     0.706 A 
HETATM    9  N7  UNL     1      15.116  -3.290  36.215  1.00  0.00    -0.017 N 
ATOM     10  H7  UNL     1      14.167  -3.567  35.961  1.00  0.00     0.203 HD
HETATM   11  C7  UNL     1      15.688  -2.121  35.900  1.00  0.00     0.761 A 
HETATM   12  N8  UNL     1      15.250  -1.027  35.212  1.00  0.00    -0.034 N 
ENDROOT
BRANCH   1  13
HETATM   13  C3  UNL     1      15.639   1.253  34.304  1.00  0.00     0.351 C 
BRANCH  13  14
HETATM   14  N1  UNL     1      16.692   2.221  34.206  1.00  0.00     0.087 N 
HETATM   15  C1  UNL     1      17.235   2.370  32.890  1.00  0.00     0.309 C 
HETATM   16  C2  UNL     1      16.165   3.502  34.639  1.00  0.00     0.309 C 
ENDBRANCH  13  14
ENDBRANCH   1  13
BRANCH  12  17
HETATM   17  O1  UNL     1      13.983  -1.004  34.691  1.00  0.00    -0.268 OA
ATOM     18  H1  UNL     1      13.307  -0.504  35.133  1.00  0.00     0.246 HD
ENDBRANCH  12  17
BRANCH   4  19
HETATM   19  N3  UNL     1      18.933  -1.077  36.721  1.00  0.00    -0.232 N 
ATOM     20  H32 UNL     1      19.308  -0.269  37.218  1.00  0.00     0.174 HD
ATOM     21  H31 UNL     1      19.524  -1.898  36.588  1.00  0.00     0.174 HD
ENDBRANCH   4  19
BRANCH   8  22
HETATM   22  N6  UNL     1      15.778  -5.243  37.395  1.00  0.00    -0.233 N 
ATOM     23  H62 UNL     1      16.452  -5.837  37.880  1.00  0.00     0.174 HD
ATOM     24  H61 UNL     1      14.908  -5.772  37.357  1.00  0.00     0.174 HD
ENDBRANCH   8  22
TORSDOF 5
ENDMDL
MODEL 2
REMARK VINA RESULT: -4.993154693      1.578      2.149
REMARK  5 active torsions:
REMARK  status: ('A' for Active; 'I' for Inactive)
REMARK    1  A    between atoms: N1_2  and  C3_4 
REMARK    2  A    between atoms: C3_4  and  C4_5 
REMARK    3  A    between atoms: C5_8  and  N3_9 
REMARK    4  A    between atoms: C6_15  and  N6_16 
REMARK    5  A    between atoms: N8_22  and  O1_23 
ROOT
HETATM    1  C4  UNL     1      16.846   1.779  34.658  1.00  0.00     0.172 A 
HETATM    2  N2  UNL     1      17.883   1.135  35.211  1.00  0.00    -0.174 N 
ATOM      3  H2  UNL     1      18.765   1.635  35.327  1.00  0.00     0.185 HD
HETATM    4  C5  UNL     1      17.808  -0.144  35.620  1.00  0.00     0.714 A 
HETATM    5  N4  UNL     1      16.659  -0.811  35.474  1.00  0.00     0.107 N 
HETATM    6  N5  UNL     1      16.325  -2.060  35.789  1.00  0.00    -0.096 N 
ATOM      7  H5  UNL     1      16.938  -2.750  36.220  1.00  0.00     0.207 HD
HETATM    8  C6  UNL     1      15.043  -2.255  35.441  1.00  0.00     0.706 A 
HETATM    9  N7  UNL     1      14.617  -1.097  34.911  1.00  0.00    -0.017 N 
ATOM     10  H7  UNL     1      13.679  -0.926  34.549  1.00  0.00     0.203 HD
HETATM   11  C7  UNL     1      15.612  -0.200  34.929  1.00  0.00     0.761 A 
HETATM   12  N8  UNL     1      15.699   1.098  34.518  1.00  0.00    -0.034 N 
ENDROOT
BRANCH   1  13
HETATM   13  C3  UNL     1      17.010   3.191  34.234  1.00  0.00     0.351 C 
BRANCH  13  14
HETATM   14  N1  UNL     1      18.179   3.392  33.429  1.00  0.00     0.087 N 
HETATM   15  C1  UNL     1      18.069   2.890  32.093  1.00  0.00     0.309 C 
HETATM   16  C2  UNL     1      18.441   4.819  33.369  1.00  0.00     0.309 C 
ENDBRANCH  13  14
ENDBRANCH   1  13
BRANCH  12  17
HETATM   17  O1  UNL     1      14.614   1.718  33.958  1.00  0.00    -0.268 OA
ATOM     18  H1  UNL     1      14.634   1.948  33.036  1.00  0.00     0.246 HD
ENDBRANCH  12  17
BRANCH   4  19
HETATM   19  N3  UNL     1      18.864  -0.687  36.145  1.00  0.00    -0.232 N 
ATOM     20  H32 UNL     1      18.825  -1.555  36.679  1.00  0.00     0.174 HD
ATOM     21  H31 UNL     1      19.763  -0.222  36.015  1.00  0.00     0.174 HD
ENDBRANCH   4  19
BRANCH   8  22
HETATM   22  N6  UNL     1      14.356  -3.358  35.592  1.00  0.00    -0.233 N 
ATOM     23  H62 UNL     1      14.712  -4.314  35.587  1.00  0.00     0.174 HD
ATOM     24  H61 UNL     1      13.350  -3.430  35.741  1.00  0.00     0.174 HD
ENDBRANCH   8  22
TORSDOF 5
ENDMDL
MODEL 3
REMARK VINA RESULT: -4.952882401      1.594      2.230
REMARK  5 active torsions:
REMARK  status: ('A' for Active; 'I' for Inactive)
REMARK    1  A    between atoms: N1_2  and  C3_4 
REMARK    2  A    between atoms: C3_4  and  C4_5 
REMARK    3  A    between atoms: C5_8  and  N3_9 
REMARK    4  A    between atoms: C6_15  and  N6_16 
REMARK    5  A    between atoms: N8_22  and  O1_23 
ROOT
HETATM    1  C4  UNL     1      16.825   1.768  34.624  1.00  0.00     0.172 A 
HETATM    2  N2  UNL     1      17.868   1.125  35.166  1.00  0.00    -0.174 N 
ATOM      3  H2  UNL     1      18.753   1.623  35.266  1.00  0.00     0.185 HD
HETATM    4  C5  UNL     1      17.796  -0.152  35.585  1.00  0.00     0.714 A 
HETATM    5  N4  UNL     1      16.642  -0.816  35.460  1.00  0.00     0.107 N 
HETATM    6  N5  UNL     1      16.310  -2.062  35.788  1.00  0.00    -0.096 N 
ATOM      7  H5  UNL     1      16.927  -2.752  36.215  1.00  0.00     0.207 HD
HETATM    8  C6  UNL     1      15.023  -2.256  35.460  1.00  0.00     0.706 A 
HETATM    9  N7  UNL     1      14.593  -1.101  34.928  1.00  0.00    -0.017 N 
ATOM     10  H7  UNL     1      13.649  -0.930  34.579  1.00  0.00     0.203 HD
HETATM   11  C7  UNL     1      15.589  -0.206  34.926  1.00  0.00     0.761 A 
HETATM   12  N8  UNL     1      15.674   1.089  34.505  1.00  0.00    -0.034 N 
ENDROOT
BRANCH   1  13
HETATM   13  C3  UNL     1      16.986   3.176  34.187  1.00  0.00     0.351 C 
BRANCH  13  14
HETATM   14  N1  UNL     1      17.435   4.033  35.245  1.00  0.00     0.087 N 
HETATM   15  C1  UNL     1      18.084   5.228  34.801  1.00  0.00     0.309 C 
HETATM   16  C2  UNL     1      16.280   4.400  36.044  1.00  0.00     0.309 C 
ENDBRANCH  13  14
ENDBRANCH   1  13
BRANCH  12  17
HETATM   17  O1  UNL     1      14.583   1.708  33.956  1.00  0.00    -0.268 OA
ATOM     18  H1  UNL     1      14.501   2.652  34.022  1.00  0.00     0.246 HD
ENDBRANCH  12  17
BRANCH   4  19
HETATM   19  N3  UNL     1      18.858  -0.693  36.098  1.00  0.00    -0.232 N 
ATOM     20  H32 UNL     1      19.659  -0.970  35.531  1.00  0.00     0.174 HD
ATOM     21  H31 UNL     1      18.885  -0.845  37.107  1.00  0.00     0.174 HD
ENDBRANCH   4  19
BRANCH   8  22
HETATM   22  N6  UNL     1      14.336  -3.357  35.629  1.00  0.00    -0.233 N 
ATOM     23  H62 UNL     1      14.647  -4.313  35.458  1.00  0.00     0.174 HD
ATOM     24  H61 UNL     1      13.374  -3.425  35.961  1.00  0.00     0.174 HD
ENDBRANCH   8  22
TORSDOF 5
ENDMDL
MODEL 4
REMARK VINA RESULT: -4.801826310      1.035      1.156
REMARK  5 active torsions:
REMARK  status: ('A' for Active; 'I' for Inactive)
REMARK    1  A    between atoms: N1_2  and  C3_4 
REMARK    2  A    between atoms: C3_4  and  C4_5 
REMARK    3  A    between atoms: C5_8  and  N3_9 
REMARK    4  A    between atoms: C6_15  and  N6_16 
REMARK    5  A    between atoms: N8_22  and  O1_23 
ROOT
HETATM    1  C4  UNL     1      16.612  -0.568  35.076  1.00  0.00     0.172 A 
HETATM    2  N2  UNL     1      17.683  -0.807  35.846  1.00  0.00    -0.174 N 
ATOM      3  H2  UNL     1      18.435  -0.118  35.867  1.00  0.00     0.185 HD
HETATM    4  C5  UNL     1      17.807  -1.921  36.591  1.00  0.00     0.714 A 
HETATM    5  N4  UNL     1      16.828  -2.832  36.572  1.00  0.00     0.107 N 
HETATM    6  N5  UNL     1      16.704  -3.996  37.204  1.00  0.00    -0.096 N 
ATOM      7  H5  UNL     1      17.384  -4.402  37.845  1.00  0.00     0.207 HD
HETATM    8  C6  UNL     1      15.530  -4.545  36.852  1.00  0.00     0.706 A 
HETATM    9  N7  UNL     1      14.956  -3.684  35.996  1.00  0.00    -0.017 N 
ATOM     10  H7  UNL     1      14.049  -3.819  35.549  1.00  0.00     0.203 HD
HETATM   11  C7  UNL     1      15.753  -2.623  35.820  1.00  0.00     0.761 A 
HETATM   12  N8  UNL     1      15.639  -1.490  35.068  1.00  0.00    -0.034 N 
ENDROOT
BRANCH   1  13
HETATM   13  C3  UNL     1      16.551   0.684  34.284  1.00  0.00     0.351 C 
BRANCH  13  14
HETATM   14  N1  UNL     1      15.783   1.708  34.930  1.00  0.00     0.087 N 
HETATM   15  C1  UNL     1      16.564   2.667  35.649  1.00  0.00     0.309 C 
HETATM   16  C2  UNL     1      15.016   2.402  33.911  1.00  0.00     0.309 C 
ENDBRANCH  13  14
ENDBRANCH   1  13
BRANCH  12  17
HETATM   17  O1  UNL     1      14.526  -1.285  34.296  1.00  0.00    -0.268 OA
ATOM     18  H1  UNL     1      13.733  -1.774  34.482  1.00  0.00     0.246 HD
ENDBRANCH  12  17
BRANCH   4  19
HETATM   19  N3  UNL     1      18.880  -2.068  37.306  1.00  0.00    -0.232 N 
ATOM     20  H32 UNL     1      19.547  -2.822  37.142  1.00  0.00     0.174 HD
ATOM     21  H31 UNL     1      19.057  -1.401  38.057  1.00  0.00     0.174 HD
ENDBRANCH   4  19
BRANCH   8  22
HETATM   22  N6  UNL     1      15.053  -5.690  37.267  1.00  0.00    -0.233 N 
ATOM     23  H62 UNL     1      14.092  -6.023  37.193  1.00  0.00     0.174 HD
ATOM     24  H61 UNL     1      15.577  -6.432  37.730  1.00  0.00     0.174 HD
ENDBRANCH   8  22
TORSDOF 5
ENDMDL
MODEL 5
REMARK VINA RESULT: -4.715216866      1.489      5.290
REMARK  5 active torsions:
REMARK  status: ('A' for Active; 'I' for Inactive)
REMARK    1  A    between atoms: N1_2  and  C3_4 
REMARK    2  A    between atoms: C3_4  and  C4_5 
REMARK    3  A    between atoms: C5_8  and  N3_9 
REMARK    4  A    between atoms: C6_15  and  N6_16 
REMARK    5  A    between atoms: N8_22  and  O1_23 
ROOT
HETATM    1  C4  UNL     1      15.700  -1.771  36.330  1.00  0.00     0.172 A 
HETATM    2  N2  UNL     1      16.332  -1.199  37.363  1.00  0.00    -0.174 N 
ATOM      3  H2  UNL     1      16.587  -1.778  38.163  1.00  0.00     0.185 HD
HETATM    4  C5  UNL     1      16.646   0.110  37.388  1.00  0.00     0.714 A 
HETATM    5  N4  UNL     1      16.318   0.880  36.345  1.00  0.00     0.107 N 
HETATM    6  N5  UNL     1      16.508   2.178  36.122  1.00  0.00    -0.096 N 
ATOM      7  H5  UNL     1      16.966   2.831  36.756  1.00  0.00     0.207 HD
HETATM    8  C6  UNL     1      15.995   2.479  34.918  1.00  0.00     0.706 A 
HETATM    9  N7  UNL     1      15.493   1.334  34.427  1.00  0.00    -0.017 N 
ATOM     10  H7  UNL     1      15.031   1.236  33.523  1.00  0.00     0.203 HD
HETATM   11  C7  UNL     1      15.690   0.342  35.305  1.00  0.00     0.761 A 
HETATM   12  N8  UNL     1      15.377  -0.986  35.291  1.00  0.00    -0.034 N 
ENDROOT
BRANCH   1  13
HETATM   13  C3  UNL     1      15.390  -3.220  36.379  1.00  0.00     0.351 C 
BRANCH  13  14
HETATM   14  N1  UNL     1      16.315  -3.954  37.193  1.00  0.00     0.087 N 
HETATM   15  C1  UNL     1      15.857  -5.253  37.580  1.00  0.00     0.309 C 
HETATM   16  C2  UNL     1      17.551  -4.100  36.446  1.00  0.00     0.309 C 
ENDBRANCH  13  14
ENDBRANCH   1  13
BRANCH  12  17
HETATM   17  O1  UNL     1      14.730  -1.530  34.213  1.00  0.00    -0.268 OA
ATOM     18  H1  UNL     1      15.204  -1.653  33.399  1.00  0.00     0.246 HD
ENDBRANCH  12  17
BRANCH   4  19
HETATM   19  N3  UNL     1      17.259   0.577  38.432  1.00  0.00    -0.232 N 
ATOM     20  H32 UNL     1      16.783   0.737  39.320  1.00  0.00     0.174 HD
ATOM     21  H31 UNL     1      18.254   0.790  38.354  1.00  0.00     0.174 HD
ENDBRANCH   4  19
BRANCH   8  22
HETATM   22  N6  UNL     1      15.990   3.656  34.349  1.00  0.00    -0.233 N 
ATOM     23  H62 UNL     1      16.689   4.039  33.711  1.00  0.00     0.174 HD
ATOM     24  H61 UNL     1      15.278   4.378  34.456  1.00  0.00     0.174 HD
ENDBRANCH   8  22
TORSDOF 5
ENDMDL
