MODEL 1
REMARK VINA RESULT: -6.259410574      0.000      0.000
REMARK  3 active torsions:
REMARK  status: ('A' for Active; 'I' for Inactive)
REMARK    1  A    between atoms: O1_2  and  C2_3 
REMARK    2  A    between atoms: C8_12  and  O4_13 
REMARK    3  A    between atoms: C9_15  and  O5_17 
ROOT
HETATM    1  C2  UNL     1      33.750  16.211 -21.208  1.00  0.00     0.161 C 
HETATM    2  C3  UNL     1      34.928  16.667 -20.394  1.00  0.00     0.057 C 
HETATM    3  C4  UNL     1      34.484  16.825 -18.947  1.00  0.00     0.129 C 
HETATM    4  C5  UNL     1      35.157  17.984 -18.361  1.00  0.00     0.067 C 
HETATM    5  N1  UNL     1      35.689  18.890 -17.923  1.00  0.00    -0.197 NA
HETATM    6  C6  UNL     1      34.720  15.573 -18.147  1.00  0.00     0.197 C 
HETATM    7  O2  UNL     1      34.896  14.543 -19.100  1.00  0.00    -0.346 OA
HETATM    8  C7  UNL     1      33.630  14.308 -19.573  1.00  0.00     0.300 C 
HETATM    9  O3  UNL     1      32.710  14.874 -18.741  1.00  0.00    -0.326 OA
HETATM   10  C8  UNL     1      33.408  15.050 -17.541  1.00  0.00     0.290 C 
HETATM   11  C9  UNL     1      33.537  14.749 -21.007  1.00  0.00     0.130 C 
HETATM   12  C10 UNL     1      32.200  14.294 -21.590  1.00  0.00     0.054 C 
ENDROOT
BRANCH   1  13
HETATM   13  O1  UNL     1      33.804  16.505 -22.525  1.00  0.00    -0.387 OA
HETATM   14  C1  UNL     1      34.813  17.343 -22.932  1.00  0.00     0.202 C 
ENDBRANCH   1  13
BRANCH  10  15
HETATM   15  O4  UNL     1      32.828  15.939 -16.691  1.00  0.00    -0.368 OA
ATOM     16  H4  UNL     1      31.917  15.735 -16.509  1.00  0.00     0.212 HD
ENDBRANCH  10  15
BRANCH  11  17
HETATM   17  O5  UNL     1      34.529  14.051 -21.706  1.00  0.00    -0.383 OA
ATOM     18  H5  UNL     1      34.140  13.276 -22.095  1.00  0.00     0.210 HD
ENDBRANCH  11  17
TORSDOF 3
ENDMDL
MODEL 2
REMARK VINA RESULT: -5.784140742      1.191      1.227
REMARK  3 active torsions:
REMARK  status: ('A' for Active; 'I' for Inactive)
REMARK    1  A    between atoms: O1_2  and  C2_3 
REMARK    2  A    between atoms: C8_12  and  O4_13 
REMARK    3  A    between atoms: C9_15  and  O5_17 
ROOT
HETATM    1  C2  UNL     1      34.377  15.937 -20.338  1.00  0.00     0.161 C 
HETATM    2  C3  UNL     1      35.461  15.858 -19.299  1.00  0.00     0.057 C 
HETATM    3  C4  UNL     1      34.909  16.388 -17.984  1.00  0.00     0.129 C 
HETATM    4  C5  UNL     1      35.956  17.136 -17.289  1.00  0.00     0.067 C 
HETATM    5  N1  UNL     1      36.783  17.714 -16.764  1.00  0.00    -0.197 NA
HETATM    6  C6  UNL     1      34.341  15.288 -17.129  1.00  0.00     0.197 C 
HETATM    7  O2  UNL     1      34.142  14.194 -18.004  1.00  0.00    -0.346 OA
HETATM    8  C7  UNL     1      33.035  14.548 -18.732  1.00  0.00     0.300 C 
HETATM    9  O3  UNL     1      32.392  15.586 -18.126  1.00  0.00    -0.326 OA
HETATM   10  C8  UNL     1      32.860  15.547 -16.809  1.00  0.00     0.290 C 
HETATM   11  C9  UNL     1      33.430  14.800 -20.161  1.00  0.00     0.130 C 
HETATM   12  C10 UNL     1      32.171  14.983 -21.008  1.00  0.00     0.054 C 
ENDROOT
BRANCH   1  13
HETATM   13  O1  UNL     1      34.802  16.003 -21.619  1.00  0.00    -0.387 OA
HETATM   14  C1  UNL     1      34.769  17.239 -22.218  1.00  0.00     0.202 C 
ENDBRANCH   1  13
BRANCH  10  15
HETATM   15  O4  UNL     1      32.664  16.702 -16.118  1.00  0.00    -0.368 OA
ATOM     16  H4  UNL     1      33.115  16.713 -15.282  1.00  0.00     0.212 HD
ENDBRANCH  10  15
BRANCH  11  17
HETATM   17  O5  UNL     1      34.043  13.627 -20.619  1.00  0.00    -0.383 OA
ATOM     18  H5  UNL     1      34.147  13.686 -21.562  1.00  0.00     0.210 HD
ENDBRANCH  11  17
TORSDOF 3
ENDMDL
MODEL 3
REMARK VINA RESULT: -5.664341818      2.795      4.634
REMARK  3 active torsions:
REMARK  status: ('A' for Active; 'I' for Inactive)
REMARK    1  A    between atoms: O1_2  and  C2_3 
REMARK    2  A    between atoms: C8_12  and  O4_13 
REMARK    3  A    between atoms: C9_15  and  O5_17 
ROOT
HETATM    1  C2  UNL     1      33.199  15.609 -17.367  1.00  0.00     0.161 C 
HETATM    2  C3  UNL     1      34.400  15.171 -18.158  1.00  0.00     0.057 C 
HETATM    3  C4  UNL     1      34.924  16.365 -18.942  1.00  0.00     0.129 C 
HETATM    4  C5  UNL     1      35.394  15.912 -20.251  1.00  0.00     0.067 C 
HETATM    5  N1  UNL     1      35.753  15.541 -21.265  1.00  0.00    -0.197 NA
HETATM    6  C6  UNL     1      35.993  17.107 -18.186  1.00  0.00     0.197 C 
HETATM    7  O2  UNL     1      35.863  16.690 -16.840  1.00  0.00    -0.346 OA
HETATM    8  C7  UNL     1      34.739  17.341 -16.399  1.00  0.00     0.300 C 
HETATM    9  O3  UNL     1      34.411  18.343 -17.263  1.00  0.00    -0.326 OA
HETATM   10  C8  UNL     1      35.596  18.576 -17.971  1.00  0.00     0.290 C 
HETATM   11  C9  UNL     1      33.643  16.343 -16.148  1.00  0.00     0.130 C 
HETATM   12  C10 UNL     1      32.472  17.042 -15.458  1.00  0.00     0.054 C 
ENDROOT
BRANCH   1  13
HETATM   13  O1  UNL     1      32.328  14.630 -17.038  1.00  0.00    -0.387 OA
HETATM   14  C1  UNL     1      31.404  14.278 -17.992  1.00  0.00     0.202 C 
ENDBRANCH   1  13
BRANCH  10  15
HETATM   15  O4  UNL     1      35.418  19.252 -19.137  1.00  0.00    -0.368 OA
ATOM     16  H4  UNL     1      35.998  20.000 -19.221  1.00  0.00     0.212 HD
ENDBRANCH  10  15
BRANCH  11  17
HETATM   17  O5  UNL     1      34.147  15.419 -15.225  1.00  0.00    -0.383 OA
ATOM     18  H5  UNL     1      33.522  14.710 -15.130  1.00  0.00     0.210 HD
ENDBRANCH  11  17
TORSDOF 3
ENDMDL
MODEL 4
REMARK VINA RESULT: -5.220126561      2.032      3.181
REMARK  3 active torsions:
REMARK  status: ('A' for Active; 'I' for Inactive)
REMARK    1  A    between atoms: O1_2  and  C2_3 
REMARK    2  A    between atoms: C8_12  and  O4_13 
REMARK    3  A    between atoms: C9_15  and  O5_17 
ROOT
HETATM    1  C2  UNL     1      32.643  15.084 -19.989  1.00  0.00     0.161 C 
HETATM    2  C3  UNL     1      33.787  15.279 -20.945  1.00  0.00     0.057 C 
HETATM    3  C4  UNL     1      34.430  16.629 -20.660  1.00  0.00     0.129 C 
HETATM    4  C5  UNL     1      34.842  17.242 -21.922  1.00  0.00     0.067 C 
HETATM    5  N1  UNL     1      35.155  17.703 -22.914  1.00  0.00    -0.197 NA
HETATM    6  C6  UNL     1      35.575  16.511 -19.691  1.00  0.00     0.197 C 
HETATM    7  O2  UNL     1      35.409  15.255 -19.060  1.00  0.00    -0.346 OA
HETATM    8  C7  UNL     1      34.362  15.454 -18.196  1.00  0.00     0.300 C 
HETATM    9  O3  UNL     1      34.138  16.789 -18.036  1.00  0.00    -0.326 OA
HETATM   10  C8  UNL     1      35.336  17.382 -18.447  1.00  0.00     0.290 C 
HETATM   11  C9  UNL     1      33.169  14.665 -18.658  1.00  0.00     0.130 C 
HETATM   12  C10 UNL     1      32.082  14.718 -17.586  1.00  0.00     0.054 C 
ENDROOT
BRANCH   1  13
HETATM   13  O1  UNL     1      31.676  14.237 -20.403  1.00  0.00    -0.387 OA
HETATM   14  C1  UNL     1      31.303  14.321 -21.723  1.00  0.00     0.202 C 
ENDBRANCH   1  13
BRANCH  10  15
HETATM   15  O4  UNL     1      35.225  18.705 -18.742  1.00  0.00    -0.368 OA
ATOM     16  H4  UNL     1      34.347  18.950 -19.010  1.00  0.00     0.212 HD
ENDBRANCH  10  15
BRANCH  11  17
HETATM   17  O5  UNL     1      33.578  13.328 -18.737  1.00  0.00    -0.383 OA
ATOM     18  H5  UNL     1      32.822  12.769 -18.600  1.00  0.00     0.210 HD
ENDBRANCH  11  17
TORSDOF 3
ENDMDL
MODEL 5
REMARK VINA RESULT: -5.151959714      2.144      4.127
REMARK  3 active torsions:
REMARK  status: ('A' for Active; 'I' for Inactive)
REMARK    1  A    between atoms: O1_2  and  C2_3 
REMARK    2  A    between atoms: C8_12  and  O4_13 
REMARK    3  A    between atoms: C9_15  and  O5_17 
ROOT
HETATM    1  C2  UNL     1      33.271  14.679 -20.298  1.00  0.00     0.161 C 
HETATM    2  C3  UNL     1      34.545  15.454 -20.110  1.00  0.00     0.057 C 
HETATM    3  C4  UNL     1      35.699  14.628 -20.661  1.00  0.00     0.129 C 
HETATM    4  C5  UNL     1      36.872  14.812 -19.808  1.00  0.00     0.067 C 
HETATM    5  N1  UNL     1      37.775  14.966 -19.132  1.00  0.00    -0.197 NA
HETATM    6  C6  UNL     1      35.991  14.961 -22.099  1.00  0.00     0.197 C 
HETATM    7  O2  UNL     1      34.838  15.631 -22.574  1.00  0.00    -0.346 OA
HETATM    8  C7  UNL     1      33.912  14.631 -22.726  1.00  0.00     0.300 C 
HETATM    9  O3  UNL     1      34.531  13.416 -22.701  1.00  0.00    -0.326 OA
HETATM   10  C8  UNL     1      35.866  13.714 -22.989  1.00  0.00     0.290 C 
HETATM   11  C9  UNL     1      32.815  14.799 -21.712  1.00  0.00     0.130 C 
HETATM   12  C10 UNL     1      31.686  13.817 -22.021  1.00  0.00     0.054 C 
ENDROOT
BRANCH   1  13
HETATM   13  O1  UNL     1      32.268  14.992 -19.449  1.00  0.00    -0.387 OA
HETATM   14  C1  UNL     1      32.426  14.614 -18.138  1.00  0.00     0.202 C 
ENDBRANCH   1  13
BRANCH  10  15
HETATM   15  O4  UNL     1      36.739  12.730 -22.645  1.00  0.00    -0.368 OA
ATOM     16  H4  UNL     1      37.473  12.661 -23.244  1.00  0.00     0.212 HD
ENDBRANCH  10  15
BRANCH  11  17
HETATM   17  O5  UNL     1      32.285  16.081 -21.905  1.00  0.00    -0.383 OA
ATOM     18  H5  UNL     1      32.520  16.380 -22.776  1.00  0.00     0.210 HD
ENDBRANCH  11  17
TORSDOF 3
ENDMDL
