MODEL 1
REMARK VINA RESULT: -10.653117481      0.000      0.000
REMARK  17 active torsions:
REMARK  status: ('A' for Active; 'I' for Inactive)
REMARK    1  A    between atoms: C5_5  and  N1_6 
REMARK       I    between atoms: N1_6  and  C6_8 
REMARK    2  A    between atoms: C6_8  and  C7_10 
REMARK    3  A    between atoms: C7_10  and  C8_11 
REMARK    4  A    between atoms: C8_11  and  C9_12 
REMARK    5  A    between atoms: C9_12  and  C10_13 
REMARK    6  A    between atoms: C9_12  and  N4_45 
REMARK    7  A    between atoms: C10_13  and  C11_14 
REMARK    8  A    between atoms: C11_14  and  C12_15 
REMARK    9  A    between atoms: C12_15  and  C13_16 
REMARK   10  A    between atoms: C13_16  and  N2_17 
REMARK       I    between atoms: N2_17  and  C14_18 
REMARK   11  A    between atoms: C14_18  and  C15_20 
REMARK   12  A    between atoms: C17_22  and  O3_23 
REMARK   13  A    between atoms: C22_30  and  C23_31 
REMARK   14  A    between atoms: C23_31  and  C24_32 
REMARK       I    between atoms: C24_32  and  N3_34 
REMARK   15  A    between atoms: N3_34  and  C25_36 
REMARK   16  A    between atoms: N4_45  and  S1_47 
REMARK   17  A    between atoms: S1_47  and  N5_48 
ROOT
HETATM    1  N2  UNL     1       4.998  -0.325  12.649  1.00  0.00    -0.415 NA
HETATM    2  C14 UNL     1       4.184   0.545  13.452  1.00  0.00     0.292 C 
HETATM    3  O2  UNL     1       4.115   0.316  14.593  1.00  0.00    -0.257 OA
ENDROOT
BRANCH   1   4
HETATM    4  C13 UNL     1       5.789  -1.205  12.002  1.00  0.00     0.221 C 
BRANCH   4   5
HETATM    5  C12 UNL     1       7.318  -0.866  12.120  1.00  0.00     0.033 C 
BRANCH   5   6
HETATM    6  C11 UNL     1       7.971  -1.609  13.207  1.00  0.00     0.005 C 
BRANCH   6   7
HETATM    7  C10 UNL     1       7.475  -2.892  13.653  1.00  0.00     0.026 C 
BRANCH   7   8
HETATM    8  C9  UNL     1       6.719  -2.844  15.180  1.00  0.00     0.098 C 
BRANCH   8   9
HETATM    9  C8  UNL     1       7.550  -4.247  15.785  1.00  0.00     0.058 C 
BRANCH   9  10
HETATM   10  C7  UNL     1       7.271  -4.323  17.188  1.00  0.00     0.050 C 
BRANCH  10  11
HETATM   11  C6  UNL     1       6.654  -5.537  17.830  1.00  0.00     0.243 C 
HETATM   12  N1  UNL     1       5.901  -6.358  16.971  1.00  0.00    -0.310 N 
ATOM     13  H1  UNL     1       6.240  -6.461  16.014  1.00  0.00     0.170 HD
HETATM   14  O1  UNL     1       6.828  -5.741  19.021  1.00  0.00    -0.269 OA
BRANCH  12  15
HETATM   15  C5  UNL     1       4.788  -7.013  17.292  1.00  0.00     0.107 A 
HETATM   16  C4  UNL     1       4.566  -8.288  16.845  1.00  0.00     0.049 A 
HETATM   17  C3  UNL     1       3.430  -8.943  17.209  1.00  0.00     0.012 A 
HETATM   18  C2  UNL     1       2.509  -8.302  18.040  1.00  0.00    -0.046 A 
HETATM   19  C1  UNL     1       1.203  -8.984  18.377  1.00  0.00     0.049 C 
HETATM   20  C34 UNL     1       2.715  -7.051  18.491  1.00  0.00     0.096 A 
HETATM   21  N6  UNL     1       3.954  -6.408  18.051  1.00  0.00    -0.352 N 
ATOM     22  H6  UNL     1       4.157  -5.456  18.356  1.00  0.00     0.166 HD
ENDBRANCH  12  15
ENDBRANCH  10  11
ENDBRANCH   9  10
ENDBRANCH   8   9
BRANCH   8  23
HETATM   23  N4  UNL     1       5.617  -3.480  14.767  1.00  0.00    -0.298 N 
ATOM     24  H4  UNL     1       5.802  -4.148  14.020  1.00  0.00     0.174 HD
BRANCH  23  25
HETATM   25  S1  UNL     1       4.037  -3.423  15.196  1.00  0.00     0.313 S 
HETATM   26  O6  UNL     1       3.329  -4.729  15.541  1.00  0.00    -0.183 OA
HETATM   27  O7  UNL     1       3.257  -3.070  13.877  1.00  0.00    -0.183 OA
BRANCH  25  28
HETATM   28  N5  UNL     1       3.501  -2.234  16.279  1.00  0.00    -0.312 N 
ATOM     29  H52 UNL     1       2.866  -1.508  15.947  1.00  0.00     0.170 HD
ATOM     30  H51 UNL     1       3.816  -2.254  17.249  1.00  0.00     0.170 HD
ENDBRANCH  25  28
ENDBRANCH  23  25
ENDBRANCH   8  23
ENDBRANCH   7   8
ENDBRANCH   6   7
ENDBRANCH   5   6
ENDBRANCH   4   5
ENDBRANCH   1   4
BRANCH   2  31
HETATM   31  C15 UNL     1       3.502   1.701  12.753  1.00  0.00     0.113 C 
HETATM   32  C16 UNL     1       4.625   2.448  12.172  1.00  0.00     0.060 C 
HETATM   33  C17 UNL     1       4.388   3.803  11.486  1.00  0.00     0.136 C 
HETATM   34  C21 UNL     1       5.015   1.985  10.783  1.00  0.00     0.139 C 
HETATM   35  C18 UNL     1       5.585   3.461  10.613  1.00  0.00     0.005 C 
HETATM   36  C19 UNL     1       5.543   3.851   9.190  1.00  0.00     0.020 C 
HETATM   37  C20 UNL     1       6.908   3.535  11.302  1.00  0.00     0.020 C 
HETATM   38  O4  UNL     1       3.991   1.787  10.006  1.00  0.00    -0.378 OA
HETATM   39  C22 UNL     1       2.913   1.031  10.394  1.00  0.00     0.140 C 
HETATM   40  C29 UNL     1       2.467   1.185  11.741  1.00  0.00     0.004 C 
HETATM   41  C30 UNL     1       1.824  -0.121  12.376  1.00  0.00     0.018 C 
HETATM   42  C33 UNL     1       1.132   1.703  12.023  1.00  0.00     0.002 A 
HETATM   43  C31 UNL     1       0.520   0.435  11.855  1.00  0.00    -0.008 A 
HETATM   44  C32 UNL     1      -0.237   1.595  12.193  1.00  0.00     0.011 A 
BRANCH  33  45
HETATM   45  O3  UNL     1       4.491   4.918  12.250  1.00  0.00    -0.394 OA
ATOM     46  H3  UNL     1       4.068   5.707  11.932  1.00  0.00     0.210 HD
ENDBRANCH  33  45
BRANCH  39  47
HETATM   47  C23 UNL     1       1.972   1.229   9.207  1.00  0.00     0.135 C 
BRANCH  47  48
HETATM   48  C24 UNL     1       1.805   2.570   8.718  1.00  0.00     0.220 C 
HETATM   49  O5  UNL     1       1.086   3.409   9.114  1.00  0.00    -0.274 OA
HETATM   50  N3  UNL     1       2.654   3.016   7.543  1.00  0.00    -0.353 N 
ATOM     51  H3  UNL     1       3.337   2.388   7.119  1.00  0.00     0.163 HD
BRANCH  50  52
HETATM   52  C25 UNL     1       2.472   4.322   7.054  1.00  0.00     0.022 C 
HETATM   53  C26 UNL     1       3.592   4.646   6.030  1.00  0.00     0.037 C 
HETATM   54  C27 UNL     1       1.204   4.474   6.202  1.00  0.00     0.037 C 
HETATM   55  C28 UNL     1       2.476   5.458   8.038  1.00  0.00     0.037 C 
ENDBRANCH  50  52
ENDBRANCH  47  48
ENDBRANCH  39  47
ENDBRANCH   2  31
TORSDOF 17
ENDMDL
MODEL 2
REMARK VINA RESULT: -10.591652652      1.405      2.299
REMARK  17 active torsions:
REMARK  status: ('A' for Active; 'I' for Inactive)
REMARK    1  A    between atoms: C5_5  and  N1_6 
REMARK       I    between atoms: N1_6  and  C6_8 
REMARK    2  A    between atoms: C6_8  and  C7_10 
REMARK    3  A    between atoms: C7_10  and  C8_11 
REMARK    4  A    between atoms: C8_11  and  C9_12 
REMARK    5  A    between atoms: C9_12  and  C10_13 
REMARK    6  A    between atoms: C9_12  and  N4_45 
REMARK    7  A    between atoms: C10_13  and  C11_14 
REMARK    8  A    between atoms: C11_14  and  C12_15 
REMARK    9  A    between atoms: C12_15  and  C13_16 
REMARK   10  A    between atoms: C13_16  and  N2_17 
REMARK       I    between atoms: N2_17  and  C14_18 
REMARK   11  A    between atoms: C14_18  and  C15_20 
REMARK   12  A    between atoms: C17_22  and  O3_23 
REMARK   13  A    between atoms: C22_30  and  C23_31 
REMARK   14  A    between atoms: C23_31  and  C24_32 
REMARK       I    between atoms: C24_32  and  N3_34 
REMARK   15  A    between atoms: N3_34  and  C25_36 
REMARK   16  A    between atoms: N4_45  and  S1_47 
REMARK   17  A    between atoms: S1_47  and  N5_48 
ROOT
HETATM    1  N2  UNL     1       5.312  -0.410  12.983  1.00  0.00    -0.415 NA
HETATM    2  C14 UNL     1       4.553   0.541  13.747  1.00  0.00     0.292 C 
HETATM    3  O2  UNL     1       4.574   0.439  14.907  1.00  0.00    -0.257 OA
ENDROOT
BRANCH   1   4
HETATM    4  C13 UNL     1       6.060  -1.356  12.377  1.00  0.00     0.221 C 
BRANCH   4   5
HETATM    5  C12 UNL     1       7.574  -1.304  12.787  1.00  0.00     0.033 C 
BRANCH   5   6
HETATM    6  C11 UNL     1       8.042  -2.577  13.352  1.00  0.00     0.005 C 
BRANCH   6   7
HETATM    7  C10 UNL     1       8.320  -2.724  14.763  1.00  0.00     0.026 C 
BRANCH   7   8
HETATM    8  C9  UNL     1       7.277  -3.810  15.562  1.00  0.00     0.098 C 
BRANCH   8   9
HETATM    9  C8  UNL     1       6.446  -2.568  16.451  1.00  0.00     0.058 C 
BRANCH   9  10
HETATM   10  C7  UNL     1       5.060  -2.663  16.101  1.00  0.00     0.050 C 
BRANCH  10  11
HETATM   11  C6  UNL     1       4.079  -3.497  16.881  1.00  0.00     0.243 C 
HETATM   12  N1  UNL     1       4.605  -4.669  17.455  1.00  0.00    -0.310 N 
ATOM     13  H1  UNL     1       5.560  -4.623  17.810  1.00  0.00     0.170 HD
HETATM   14  O1  UNL     1       2.918  -3.131  16.972  1.00  0.00    -0.269 OA
BRANCH  12  15
HETATM   15  C5  UNL     1       3.969  -5.832  17.577  1.00  0.00     0.107 A 
HETATM   16  C4  UNL     1       4.222  -6.867  16.717  1.00  0.00     0.049 A 
HETATM   17  C3  UNL     1       3.576  -8.053  16.880  1.00  0.00     0.012 A 
HETATM   18  C2  UNL     1       2.665  -8.197  17.929  1.00  0.00    -0.046 A 
HETATM   19  C1  UNL     1       1.875  -9.477  18.065  1.00  0.00     0.049 C 
HETATM   20  C34 UNL     1       2.410  -7.190  18.785  1.00  0.00     0.096 A 
HETATM   21  N6  UNL     1       3.136  -5.943  18.542  1.00  0.00    -0.352 N 
ATOM     22  H6  UNL     1       2.975  -5.145  19.156  1.00  0.00     0.166 HD
ENDBRANCH  12  15
ENDBRANCH  10  11
ENDBRANCH   9  10
ENDBRANCH   8   9
BRANCH   8  23
HETATM   23  N4  UNL     1       8.164  -4.119  16.514  1.00  0.00    -0.298 N 
ATOM     24  H4  UNL     1       8.873  -3.399  16.644  1.00  0.00     0.174 HD
BRANCH  23  25
HETATM   25  S1  UNL     1       8.363  -5.399  17.518  1.00  0.00     0.313 S 
HETATM   26  O6  UNL     1       7.356  -5.602  18.645  1.00  0.00    -0.183 OA
HETATM   27  O7  UNL     1       9.629  -5.059  18.385  1.00  0.00    -0.183 OA
BRANCH  25  28
HETATM   28  N5  UNL     1       8.746  -6.921  16.875  1.00  0.00    -0.312 N 
ATOM     29  H52 UNL     1       9.142  -6.979  15.937  1.00  0.00     0.170 HD
ATOM     30  H51 UNL     1       8.578  -7.760  17.429  1.00  0.00     0.170 HD
ENDBRANCH  25  28
ENDBRANCH  23  25
ENDBRANCH   8  23
ENDBRANCH   7   8
ENDBRANCH   6   7
ENDBRANCH   5   6
ENDBRANCH   4   5
ENDBRANCH   1   4
BRANCH   2  31
HETATM   31  C15 UNL     1       3.809   1.612  12.979  1.00  0.00     0.113 C 
HETATM   32  C16 UNL     1       4.888   2.385  12.351  1.00  0.00     0.060 C 
HETATM   33  C17 UNL     1       4.576   3.679  11.584  1.00  0.00     0.136 C 
HETATM   34  C21 UNL     1       5.304   1.859  10.992  1.00  0.00     0.139 C 
HETATM   35  C18 UNL     1       5.790   3.352  10.730  1.00  0.00     0.005 C 
HETATM   36  C19 UNL     1       5.727   3.651   9.286  1.00  0.00     0.020 C 
HETATM   37  C20 UNL     1       7.107   3.542  11.409  1.00  0.00     0.020 C 
HETATM   38  O4  UNL     1       4.293   1.557  10.231  1.00  0.00    -0.378 OA
HETATM   39  C22 UNL     1       3.259   0.768  10.668  1.00  0.00     0.140 C 
HETATM   40  C29 UNL     1       2.804   0.979  12.004  1.00  0.00     0.004 C 
HETATM   41  C30 UNL     1       2.235  -0.320  12.720  1.00  0.00     0.018 C 
HETATM   42  C33 UNL     1       1.442   1.437  12.258  1.00  0.00     0.002 A 
HETATM   43  C31 UNL     1       0.902   0.129  12.169  1.00  0.00    -0.008 A 
HETATM   44  C32 UNL     1       0.082   1.263  12.439  1.00  0.00     0.011 A 
BRANCH  33  45
HETATM   45  O3  UNL     1       4.615   4.843  12.278  1.00  0.00    -0.394 OA
ATOM     46  H3  UNL     1       3.793   5.298  12.418  1.00  0.00     0.210 HD
ENDBRANCH  33  45
BRANCH  39  47
HETATM   47  C23 UNL     1       2.309   0.839   9.474  1.00  0.00     0.135 C 
BRANCH  47  48
HETATM   48  C24 UNL     1       1.970   2.146   8.982  1.00  0.00     0.220 C 
HETATM   49  O5  UNL     1       1.046   2.815   9.257  1.00  0.00    -0.274 OA
HETATM   50  N3  UNL     1       2.904   2.801   7.981  1.00  0.00    -0.353 N 
ATOM     51  H3  UNL     1       3.758   2.334   7.675  1.00  0.00     0.163 HD
BRANCH  50  52
HETATM   52  C25 UNL     1       2.558   4.070   7.486  1.00  0.00     0.022 C 
HETATM   53  C26 UNL     1       3.623   4.526   6.454  1.00  0.00     0.037 C 
HETATM   54  C27 UNL     1       1.276   4.058   6.641  1.00  0.00     0.037 C 
HETATM   55  C28 UNL     1       2.425   5.204   8.464  1.00  0.00     0.037 C 
ENDBRANCH  50  52
ENDBRANCH  47  48
ENDBRANCH  39  47
ENDBRANCH   2  31
TORSDOF 17
ENDMDL
MODEL 3
REMARK VINA RESULT: -10.496037848      1.676      2.005
REMARK  17 active torsions:
REMARK  status: ('A' for Active; 'I' for Inactive)
REMARK    1  A    between atoms: C5_5  and  N1_6 
REMARK       I    between atoms: N1_6  and  C6_8 
REMARK    2  A    between atoms: C6_8  and  C7_10 
REMARK    3  A    between atoms: C7_10  and  C8_11 
REMARK    4  A    between atoms: C8_11  and  C9_12 
REMARK    5  A    between atoms: C9_12  and  C10_13 
REMARK    6  A    between atoms: C9_12  and  N4_45 
REMARK    7  A    between atoms: C10_13  and  C11_14 
REMARK    8  A    between atoms: C11_14  and  C12_15 
REMARK    9  A    between atoms: C12_15  and  C13_16 
REMARK   10  A    between atoms: C13_16  and  N2_17 
REMARK       I    between atoms: N2_17  and  C14_18 
REMARK   11  A    between atoms: C14_18  and  C15_20 
REMARK   12  A    between atoms: C17_22  and  O3_23 
REMARK   13  A    between atoms: C22_30  and  C23_31 
REMARK   14  A    between atoms: C23_31  and  C24_32 
REMARK       I    between atoms: C24_32  and  N3_34 
REMARK   15  A    between atoms: N3_34  and  C25_36 
REMARK   16  A    between atoms: N4_45  and  S1_47 
REMARK   17  A    between atoms: S1_47  and  N5_48 
ROOT
HETATM    1  N2  UNL     1       5.008  -0.169  12.748  1.00  0.00    -0.415 NA
HETATM    2  C14 UNL     1       4.267   0.797  13.512  1.00  0.00     0.292 C 
HETATM    3  O2  UNL     1       4.276   0.687  14.672  1.00  0.00    -0.257 OA
ENDROOT
BRANCH   1   4
HETATM    4  C13 UNL     1       5.737  -1.130  12.142  1.00  0.00     0.221 C 
BRANCH   4   5
HETATM    5  C12 UNL     1       7.250  -0.747  11.978  1.00  0.00     0.033 C 
BRANCH   5   6
HETATM    6  C11 UNL     1       8.125  -1.556  12.838  1.00  0.00     0.005 C 
BRANCH   6   7
HETATM    7  C10 UNL     1       7.685  -2.814  13.398  1.00  0.00     0.026 C 
BRANCH   7   8
HETATM    8  C9  UNL     1       7.754  -2.872  15.100  1.00  0.00     0.098 C 
BRANCH   8   9
HETATM    9  C8  UNL     1       8.566  -4.409  15.149  1.00  0.00     0.058 C 
BRANCH   9  10
HETATM   10  C7  UNL     1       9.365  -4.420  16.338  1.00  0.00     0.050 C 
BRANCH  10  11
HETATM   11  C6  UNL     1       9.353  -5.565  17.315  1.00  0.00     0.243 C 
HETATM   12  N1  UNL     1       9.179  -6.841  16.749  1.00  0.00    -0.310 N 
ATOM     13  H1  UNL     1       9.614  -7.009  15.842  1.00  0.00     0.170 HD
HETATM   14  O1  UNL     1       9.489  -5.340  18.507  1.00  0.00    -0.269 OA
BRANCH  12  15
HETATM   15  C5  UNL     1       8.496  -7.849  17.288  1.00  0.00     0.107 A 
HETATM   16  C4  UNL     1       9.106  -9.041  17.573  1.00  0.00     0.049 A 
HETATM   17  C3  UNL     1       8.389 -10.045  18.146  1.00  0.00     0.012 A 
HETATM   18  C2  UNL     1       7.039  -9.841  18.439  1.00  0.00    -0.046 A 
HETATM   19  C1  UNL     1       6.212 -10.978  18.991  1.00  0.00     0.049 C 
HETATM   20  C34 UNL     1       6.427  -8.673  18.168  1.00  0.00     0.096 A 
HETATM   21  N6  UNL     1       7.259  -7.643  17.545  1.00  0.00    -0.352 N 
ATOM     22  H6  UNL     1       6.844  -6.742  17.311  1.00  0.00     0.166 HD
ENDBRANCH  12  15
ENDBRANCH  10  11
ENDBRANCH   9  10
ENDBRANCH   8   9
BRANCH   8  23
HETATM   23  N4  UNL     1       6.511  -3.346  15.235  1.00  0.00    -0.298 N 
ATOM     24  H4  UNL     1       6.358  -4.211  14.717  1.00  0.00     0.174 HD
BRANCH  23  25
HETATM   25  S1  UNL     1       5.180  -2.847  16.049  1.00  0.00     0.313 S 
HETATM   26  O6  UNL     1       4.422  -3.862  16.897  1.00  0.00    -0.183 OA
HETATM   27  O7  UNL     1       4.087  -2.590  14.949  1.00  0.00    -0.183 OA
BRANCH  25  28
HETATM   28  N5  UNL     1       5.213  -1.377  16.895  1.00  0.00    -0.312 N 
ATOM     29  H52 UNL     1       5.995  -1.181  17.520  1.00  0.00     0.170 HD
ATOM     30  H51 UNL     1       4.455  -0.705  16.772  1.00  0.00     0.170 HD
ENDBRANCH  25  28
ENDBRANCH  23  25
ENDBRANCH   8  23
ENDBRANCH   7   8
ENDBRANCH   6   7
ENDBRANCH   5   6
ENDBRANCH   4   5
ENDBRANCH   1   4
BRANCH   2  31
HETATM   31  C15 UNL     1       3.557   1.891  12.745  1.00  0.00     0.113 C 
HETATM   32  C16 UNL     1       4.662   2.664  12.165  1.00  0.00     0.060 C 
HETATM   33  C17 UNL     1       4.387   3.977  11.416  1.00  0.00     0.136 C 
HETATM   34  C21 UNL     1       5.112   2.161  10.808  1.00  0.00     0.139 C 
HETATM   35  C18 UNL     1       5.622   3.654  10.591  1.00  0.00     0.005 C 
HETATM   36  C19 UNL     1       5.605   3.983   9.152  1.00  0.00     0.020 C 
HETATM   37  C20 UNL     1       6.921   3.815  11.312  1.00  0.00     0.020 C 
HETATM   38  O4  UNL     1       4.121   1.886  10.012  1.00  0.00    -0.378 OA
HETATM   39  C22 UNL     1       3.066   1.100  10.402  1.00  0.00     0.140 C 
HETATM   40  C29 UNL     1       2.575   1.289  11.728  1.00  0.00     0.004 C 
HETATM   41  C30 UNL     1       1.971  -0.018  12.400  1.00  0.00     0.018 C 
HETATM   42  C33 UNL     1       1.210   1.757  11.952  1.00  0.00     0.002 A 
HETATM   43  C31 UNL     1       0.660   0.458  11.820  1.00  0.00    -0.008 A 
HETATM   44  C32 UNL     1      -0.156   1.595  12.089  1.00  0.00     0.011 A 
BRANCH  33  45
HETATM   45  O3  UNL     1       4.418   5.126  12.134  1.00  0.00    -0.394 OA
ATOM     46  H3  UNL     1       5.206   5.654  12.083  1.00  0.00     0.210 HD
ENDBRANCH  33  45
BRANCH  39  47
HETATM   47  C23 UNL     1       2.152   1.206   9.182  1.00  0.00     0.135 C 
BRANCH  47  48
HETATM   48  C24 UNL     1       1.916   2.521   8.653  1.00  0.00     0.220 C 
HETATM   49  O5  UNL     1       1.107   3.306   8.979  1.00  0.00    -0.274 OA
HETATM   50  N3  UNL     1       2.807   3.014   7.528  1.00  0.00    -0.353 N 
ATOM     51  H3  UNL     1       3.566   2.435   7.167  1.00  0.00     0.163 HD
BRANCH  50  52
HETATM   52  C25 UNL     1       2.558   4.292   6.999  1.00  0.00     0.022 C 
HETATM   53  C26 UNL     1       3.679   4.655   5.989  1.00  0.00     0.037 C 
HETATM   54  C27 UNL     1       1.302   4.343   6.117  1.00  0.00     0.037 C 
HETATM   55  C28 UNL     1       2.471   5.452   7.949  1.00  0.00     0.037 C 
ENDBRANCH  50  52
ENDBRANCH  47  48
ENDBRANCH  39  47
ENDBRANCH   2  31
TORSDOF 17
ENDMDL
MODEL 4
REMARK VINA RESULT: -10.269707908      2.512     11.294
REMARK  17 active torsions:
REMARK  status: ('A' for Active; 'I' for Inactive)
REMARK    1  A    between atoms: C5_5  and  N1_6 
REMARK       I    between atoms: N1_6  and  C6_8 
REMARK    2  A    between atoms: C6_8  and  C7_10 
REMARK    3  A    between atoms: C7_10  and  C8_11 
REMARK    4  A    between atoms: C8_11  and  C9_12 
REMARK    5  A    between atoms: C9_12  and  C10_13 
REMARK    6  A    between atoms: C9_12  and  N4_45 
REMARK    7  A    between atoms: C10_13  and  C11_14 
REMARK    8  A    between atoms: C11_14  and  C12_15 
REMARK    9  A    between atoms: C12_15  and  C13_16 
REMARK   10  A    between atoms: C13_16  and  N2_17 
REMARK       I    between atoms: N2_17  and  C14_18 
REMARK   11  A    between atoms: C14_18  and  C15_20 
REMARK   12  A    between atoms: C17_22  and  O3_23 
REMARK   13  A    between atoms: C22_30  and  C23_31 
REMARK   14  A    between atoms: C23_31  and  C24_32 
REMARK       I    between atoms: C24_32  and  N3_34 
REMARK   15  A    between atoms: N3_34  and  C25_36 
REMARK   16  A    between atoms: N4_45  and  S1_47 
REMARK   17  A    between atoms: S1_47  and  N5_48 
ROOT
HETATM    1  N2  UNL     1       7.869  -0.948  12.056  1.00  0.00    -0.415 NA
HETATM    2  C14 UNL     1       7.404  -2.062  12.835  1.00  0.00     0.292 C 
HETATM    3  O2  UNL     1       7.127  -3.040  12.265  1.00  0.00    -0.257 OA
ENDROOT
BRANCH   1   4
HETATM    4  C13 UNL     1       8.291   0.024  11.221  1.00  0.00     0.221 C 
BRANCH   4   5
HETATM    5  C12 UNL     1       8.215   1.459  11.853  1.00  0.00     0.033 C 
BRANCH   5   6
HETATM    6  C11 UNL     1       7.012   1.640  12.679  1.00  0.00     0.005 C 
BRANCH   6   7
HETATM    7  C10 UNL     1       5.690   1.362  12.163  1.00  0.00     0.026 C 
BRANCH   7   8
HETATM    8  C9  UNL     1       4.814   2.758  11.729  1.00  0.00     0.098 C 
BRANCH   8   9
HETATM    9  C8  UNL     1       3.337   1.896  11.413  1.00  0.00     0.058 C 
BRANCH   9  10
HETATM   10  C7  UNL     1       2.261   2.759  11.800  1.00  0.00     0.050 C 
BRANCH  10  11
HETATM   11  C6  UNL     1       1.419   3.507  10.801  1.00  0.00     0.243 C 
HETATM   12  N1  UNL     1       1.723   3.260   9.450  1.00  0.00    -0.310 N 
ATOM     13  H1  UNL     1       2.001   2.310   9.203  1.00  0.00     0.170 HD
HETATM   14  O1  UNL     1       0.548   4.265  11.196  1.00  0.00    -0.269 OA
BRANCH  12  15
HETATM   15  C5  UNL     1       1.681   4.153   8.463  1.00  0.00     0.107 A 
HETATM   16  C4  UNL     1       1.659   3.756   7.153  1.00  0.00     0.049 A 
HETATM   17  C3  UNL     1       1.592   4.690   6.166  1.00  0.00     0.012 A 
HETATM   18  C2  UNL     1       1.542   6.043   6.508  1.00  0.00    -0.046 A 
HETATM   19  C1  UNL     1       1.559   7.091   5.420  1.00  0.00     0.049 C 
HETATM   20  C34 UNL     1       1.558   6.448   7.791  1.00  0.00     0.096 A 
HETATM   21  N6  UNL     1       1.640   5.388   8.796  1.00  0.00    -0.352 N 
ATOM     22  H6  UNL     1       1.664   5.639   9.784  1.00  0.00     0.166 HD
ENDBRANCH  12  15
ENDBRANCH  10  11
ENDBRANCH   9  10
ENDBRANCH   8   9
BRANCH   8  23
HETATM   23  N4  UNL     1       5.261   2.769  10.469  1.00  0.00    -0.298 N 
ATOM     24  H4  UNL     1       5.469   1.837  10.113  1.00  0.00     0.174 HD
BRANCH  23  25
HETATM   25  S1  UNL     1       5.550   3.949   9.369  1.00  0.00     0.313 S 
HETATM   26  O6  UNL     1       6.841   4.752   9.486  1.00  0.00    -0.183 OA
HETATM   27  O7  UNL     1       4.525   5.094   9.703  1.00  0.00    -0.183 OA
BRANCH  25  28
HETATM   28  N5  UNL     1       5.262   3.655   7.724  1.00  0.00    -0.312 N 
ATOM     29  H52 UNL     1       5.888   3.034   7.213  1.00  0.00     0.170 HD
ATOM     30  H51 UNL     1       4.468   4.099   7.262  1.00  0.00     0.170 HD
ENDBRANCH  25  28
ENDBRANCH  23  25
ENDBRANCH   8  23
ENDBRANCH   7   8
ENDBRANCH   6   7
ENDBRANCH   5   6
ENDBRANCH   4   5
ENDBRANCH   1   4
BRANCH   2  31
HETATM   31  C15 UNL     1       7.336  -1.880  14.336  1.00  0.00     0.113 C 
HETATM   32  C16 UNL     1       5.902  -1.688  14.584  1.00  0.00     0.060 C 
HETATM   33  C17 UNL     1       5.396  -1.316  15.986  1.00  0.00     0.136 C 
HETATM   34  C21 UNL     1       5.145  -2.980  14.820  1.00  0.00     0.139 C 
HETATM   35  C18 UNL     1       4.122  -2.059  15.619  1.00  0.00     0.005 C 
HETATM   36  C19 UNL     1       3.451  -2.852  16.668  1.00  0.00     0.020 C 
HETATM   37  C20 UNL     1       3.248  -1.359  14.630  1.00  0.00     0.020 C 
HETATM   38  O4  UNL     1       5.765  -3.795  15.622  1.00  0.00    -0.378 OA
HETATM   39  C22 UNL     1       7.084  -4.129  15.450  1.00  0.00     0.140 C 
HETATM   40  C29 UNL     1       7.970  -3.081  15.056  1.00  0.00     0.004 C 
HETATM   41  C30 UNL     1       9.193  -3.554  14.159  1.00  0.00     0.018 C 
HETATM   42  C33 UNL     1       9.065  -2.671  15.929  1.00  0.00     0.002 A 
HETATM   43  C31 UNL     1       9.919  -3.706  15.474  1.00  0.00    -0.008 A 
HETATM   44  C32 UNL     1      10.340  -2.764  16.457  1.00  0.00     0.011 A 
BRANCH  33  45
HETATM   45  O3  UNL     1       5.270   0.002  16.277  1.00  0.00    -0.394 OA
ATOM     46  H3  UNL     1       5.885   0.601  15.869  1.00  0.00     0.210 HD
ENDBRANCH  33  45
BRANCH  39  47
HETATM   47  C23 UNL     1       7.341  -4.972  16.697  1.00  0.00     0.135 C 
BRANCH  47  48
HETATM   48  C24 UNL     1       6.205  -5.612  17.301  1.00  0.00     0.220 C 
HETATM   49  O5  UNL     1       5.809  -5.512  18.401  1.00  0.00    -0.274 OA
HETATM   50  N3  UNL     1       5.364  -6.541  16.445  1.00  0.00    -0.353 N 
ATOM     51  H3  UNL     1       5.589  -6.697  15.462  1.00  0.00     0.163 HD
BRANCH  50  52
HETATM   52  C25 UNL     1       4.267  -7.181  17.046  1.00  0.00     0.022 C 
HETATM   53  C26 UNL     1       3.835  -8.388  16.171  1.00  0.00     0.037 C 
HETATM   54  C27 UNL     1       4.621  -7.861  18.377  1.00  0.00     0.037 C 
HETATM   55  C28 UNL     1       3.017  -6.381  17.284  1.00  0.00     0.037 C 
ENDBRANCH  50  52
ENDBRANCH  47  48
ENDBRANCH  39  47
ENDBRANCH   2  31
TORSDOF 17
ENDMDL
MODEL 5
REMARK VINA RESULT: -10.237690014      3.454      5.343
REMARK  17 active torsions:
REMARK  status: ('A' for Active; 'I' for Inactive)
REMARK    1  A    between atoms: C5_5  and  N1_6 
REMARK       I    between atoms: N1_6  and  C6_8 
REMARK    2  A    between atoms: C6_8  and  C7_10 
REMARK    3  A    between atoms: C7_10  and  C8_11 
REMARK    4  A    between atoms: C8_11  and  C9_12 
REMARK    5  A    between atoms: C9_12  and  C10_13 
REMARK    6  A    between atoms: C9_12  and  N4_45 
REMARK    7  A    between atoms: C10_13  and  C11_14 
REMARK    8  A    between atoms: C11_14  and  C12_15 
REMARK    9  A    between atoms: C12_15  and  C13_16 
REMARK   10  A    between atoms: C13_16  and  N2_17 
REMARK       I    between atoms: N2_17  and  C14_18 
REMARK   11  A    between atoms: C14_18  and  C15_20 
REMARK   12  A    between atoms: C17_22  and  O3_23 
REMARK   13  A    between atoms: C22_30  and  C23_31 
REMARK   14  A    between atoms: C23_31  and  C24_32 
REMARK       I    between atoms: C24_32  and  N3_34 
REMARK   15  A    between atoms: N3_34  and  C25_36 
REMARK   16  A    between atoms: N4_45  and  S1_47 
REMARK   17  A    between atoms: S1_47  and  N5_48 
ROOT
HETATM    1  N2  UNL     1       1.654   2.009  11.267  1.00  0.00    -0.415 NA
HETATM    2  C14 UNL     1       2.901   2.208  10.580  1.00  0.00     0.292 C 
HETATM    3  O2  UNL     1       3.446   1.264  10.169  1.00  0.00    -0.257 OA
ENDROOT
BRANCH   1   4
HETATM    4  C13 UNL     1       0.498   1.698  11.888  1.00  0.00     0.221 C 
BRANCH   4   5
HETATM    5  C12 UNL     1       0.585   0.376  12.731  1.00  0.00     0.033 C 
BRANCH   5   6
HETATM    6  C11 UNL     1       1.870   0.247  13.432  1.00  0.00     0.005 C 
BRANCH   6   7
HETATM    7  C10 UNL     1       2.591  -1.006  13.470  1.00  0.00     0.026 C 
BRANCH   7   8
HETATM    8  C9  UNL     1       4.244  -0.839  13.849  1.00  0.00     0.098 C 
BRANCH   8   9
HETATM    9  C8  UNL     1       4.795  -1.517  12.346  1.00  0.00     0.058 C 
BRANCH   9  10
HETATM   10  C7  UNL     1       6.020  -0.851  12.014  1.00  0.00     0.050 C 
BRANCH  10  11
HETATM   11  C6  UNL     1       7.368  -1.368  12.439  1.00  0.00     0.243 C 
HETATM   12  N1  UNL     1       7.384  -2.688  12.923  1.00  0.00    -0.310 N 
ATOM     13  H1  UNL     1       6.751  -3.353  12.477  1.00  0.00     0.170 HD
HETATM   14  O1  UNL     1       8.345  -0.642  12.348  1.00  0.00    -0.269 OA
BRANCH  12  15
HETATM   15  C5  UNL     1       8.148  -3.150  13.911  1.00  0.00     0.107 A 
HETATM   16  C4  UNL     1       8.798  -4.349  13.798  1.00  0.00     0.049 A 
HETATM   17  C3  UNL     1       9.592  -4.784  14.814  1.00  0.00     0.012 A 
HETATM   18  C2  UNL     1       9.733  -3.995  15.957  1.00  0.00    -0.046 A 
HETATM   19  C1  UNL     1      10.539  -4.509  17.128  1.00  0.00     0.049 C 
HETATM   20  C34 UNL     1       9.104  -2.812  16.081  1.00  0.00     0.096 A 
HETATM   21  N6  UNL     1       8.262  -2.414  14.952  1.00  0.00    -0.352 N 
ATOM     22  H6  UNL     1       7.755  -1.530  14.996  1.00  0.00     0.166 HD
ENDBRANCH  12  15
ENDBRANCH  10  11
ENDBRANCH   9  10
ENDBRANCH   8   9
BRANCH   8  23
HETATM   23  N4  UNL     1       4.299  -1.969  14.562  1.00  0.00    -0.298 N 
ATOM     24  H4  UNL     1       3.954  -2.779  14.047  1.00  0.00     0.174 HD
BRANCH  23  25
HETATM   25  S1  UNL     1       4.797  -2.342  16.077  1.00  0.00     0.313 S 
HETATM   26  O6  UNL     1       5.702  -3.554  16.268  1.00  0.00    -0.183 OA
HETATM   27  O7  UNL     1       3.518  -2.878  16.820  1.00  0.00    -0.183 OA
BRANCH  25  28
HETATM   28  N5  UNL     1       5.342  -1.112  17.110  1.00  0.00    -0.312 N 
ATOM     29  H52 UNL     1       4.659  -0.523  17.586  1.00  0.00     0.170 HD
ATOM     30  H51 UNL     1       6.343  -0.973  17.246  1.00  0.00     0.170 HD
ENDBRANCH  25  28
ENDBRANCH  23  25
ENDBRANCH   8  23
ENDBRANCH   7   8
ENDBRANCH   6   7
ENDBRANCH   5   6
ENDBRANCH   4   5
ENDBRANCH   1   4
BRANCH   2  31
HETATM   31  C15 UNL     1       3.390   3.632  10.427  1.00  0.00     0.113 C 
HETATM   32  C16 UNL     1       4.738   3.586  11.006  1.00  0.00     0.060 C 
HETATM   33  C17 UNL     1       5.553   4.875  11.192  1.00  0.00     0.136 C 
HETATM   34  C21 UNL     1       5.820   3.227  10.008  1.00  0.00     0.139 C 
HETATM   35  C18 UNL     1       6.787   4.010  11.000  1.00  0.00     0.005 C 
HETATM   36  C19 UNL     1       7.924   4.574  10.247  1.00  0.00     0.020 C 
HETATM   37  C20 UNL     1       7.109   3.110  12.149  1.00  0.00     0.020 C 
HETATM   38  O4  UNL     1       5.700   3.858   8.877  1.00  0.00    -0.378 OA
HETATM   39  C22 UNL     1       4.516   3.903   8.187  1.00  0.00     0.140 C 
HETATM   40  C29 UNL     1       3.325   4.072   8.956  1.00  0.00     0.004 C 
HETATM   41  C30 UNL     1       2.035   3.383   8.334  1.00  0.00     0.018 C 
HETATM   42  C33 UNL     1       2.494   5.259   8.783  1.00  0.00     0.002 A 
HETATM   43  C31 UNL     1       1.818   4.718   7.661  1.00  0.00    -0.008 A 
HETATM   44  C32 UNL     1       1.512   6.014   8.168  1.00  0.00     0.011 A 
BRANCH  33  45
HETATM   45  O3  UNL     1       5.440   5.522  12.377  1.00  0.00    -0.394 OA
ATOM     46  H3  UNL     1       6.242   5.814  12.796  1.00  0.00     0.210 HD
ENDBRANCH  33  45
BRANCH  39  47
HETATM   47  C23 UNL     1       4.876   4.851   7.044  1.00  0.00     0.135 C 
BRANCH  47  48
HETATM   48  C24 UNL     1       6.012   4.502   6.237  1.00  0.00     0.220 C 
HETATM   49  O5  UNL     1       6.688   5.205   5.583  1.00  0.00    -0.274 OA
HETATM   50  N3  UNL     1       6.445   3.048   6.196  1.00  0.00    -0.353 N 
ATOM     51  H3  UNL     1       5.954   2.338   6.739  1.00  0.00     0.163 HD
BRANCH  50  52
HETATM   52  C25 UNL     1       7.544   2.709   5.388  1.00  0.00     0.022 C 
HETATM   53  C26 UNL     1       7.951   1.238   5.669  1.00  0.00     0.037 C 
HETATM   54  C27 UNL     1       7.200   2.666   3.892  1.00  0.00     0.037 C 
HETATM   55  C28 UNL     1       8.805   3.515   5.523  1.00  0.00     0.037 C 
ENDBRANCH  50  52
ENDBRANCH  47  48
ENDBRANCH  39  47
ENDBRANCH   2  31
TORSDOF 17
ENDMDL
