MODEL 1
REMARK VINA RESULT: -5.325990310      0.000      0.000
REMARK  4 active torsions:
REMARK  status: ('A' for Active; 'I' for Inactive)
REMARK    1  A    between atoms: N1_1  and  C1_4 
REMARK    2  A    between atoms: N5_17  and  C6_18 
REMARK    3  A    between atoms: C6_18  and  O3_19 
REMARK    4  A    between atoms: O3_19  and  O4_20 
ROOT
HETATM    1  C1  UNL     1      49.984  -6.556  22.302  1.00  0.00     0.133 A 
HETATM    2  N2  UNL     1      48.713  -6.993  22.369  1.00  0.00    -0.283 N 
ATOM      3  H2  UNL     1      48.424  -7.963  22.244  1.00  0.00     0.188 HD
HETATM    4  N3  UNL     1      47.894  -5.992  22.621  1.00  0.00    -0.283 N 
ATOM      5  H3  UNL     1      46.882  -6.078  22.717  1.00  0.00     0.188 HD
HETATM    6  C2  UNL     1      48.583  -4.840  22.732  1.00  0.00     0.147 A 
HETATM    7  C3  UNL     1      49.923  -5.197  22.528  1.00  0.00     0.122 A 
HETATM    8  C4  UNL     1      50.868  -4.188  22.587  1.00  0.00     0.267 A 
HETATM    9  O1  UNL     1      52.065  -4.535  22.401  1.00  0.00    -0.267 OA
HETATM   10  N4  UNL     1      50.510  -2.918  22.832  1.00  0.00    -0.274 N 
ATOM     11  H4  UNL     1      51.211  -2.179  22.875  1.00  0.00     0.173 HD
HETATM   12  C5  UNL     1      49.203  -2.640  23.020  1.00  0.00     0.332 A 
HETATM   13  O2  UNL     1      48.902  -1.451  23.245  1.00  0.00    -0.246 OA
HETATM   14  N5  UNL     1      48.246  -3.564  22.975  1.00  0.00    -0.258 N 
ENDROOT
BRANCH  14  15
HETATM   15  C6  UNL     1      46.878  -3.176  23.188  1.00  0.00     0.347 C 
BRANCH  15  16
HETATM   16  O3  UNL     1      46.011  -3.919  22.385  1.00  0.00    -0.223 OA
BRANCH  16  17
HETATM   17  O4  UNL     1      45.203  -4.591  23.167  1.00  0.00    -0.249 OA
ATOM     18  H4  UNL     1      45.716  -5.234  23.641  1.00  0.00     0.253 HD
ENDBRANCH  16  17
ENDBRANCH  15  16
ENDBRANCH  14  15
BRANCH   1  19
HETATM   19  N1  UNL     1      51.073  -7.215  22.076  1.00  0.00    -0.384 N 
ATOM     20  H12 UNL     1      51.145  -8.018  21.451  1.00  0.00     0.157 HD
ATOM     21  H11 UNL     1      52.009  -7.074  22.453  1.00  0.00     0.157 HD
ENDBRANCH   1  19
TORSDOF 4
ENDMDL
MODEL 2
REMARK VINA RESULT: -5.013057455      3.549      5.103
REMARK  4 active torsions:
REMARK  status: ('A' for Active; 'I' for Inactive)
REMARK    1  A    between atoms: N1_1  and  C1_4 
REMARK    2  A    between atoms: N5_17  and  C6_18 
REMARK    3  A    between atoms: C6_18  and  O3_19 
REMARK    4  A    between atoms: O3_19  and  O4_20 
ROOT
HETATM    1  C1  UNL     1      45.798  -1.256  19.371  1.00  0.00     0.133 A 
HETATM    2  N2  UNL     1      45.729  -2.572  19.100  1.00  0.00    -0.283 N 
ATOM      3  H2  UNL     1      45.471  -2.967  18.195  1.00  0.00     0.188 HD
HETATM    4  N3  UNL     1      46.040  -3.281  20.166  1.00  0.00    -0.283 N 
ATOM      5  H3  UNL     1      46.057  -4.300  20.205  1.00  0.00     0.188 HD
HETATM    6  C2  UNL     1      46.332  -2.466  21.200  1.00  0.00     0.147 A 
HETATM    7  C3  UNL     1      46.178  -1.168  20.694  1.00  0.00     0.122 A 
HETATM    8  C4  UNL     1      46.419  -0.115  21.558  1.00  0.00     0.267 A 
HETATM    9  O1  UNL     1      46.274   1.042  21.079  1.00  0.00    -0.267 OA
HETATM   10  N4  UNL     1      46.786  -0.333  22.830  1.00  0.00    -0.274 N 
ATOM     11  H4  UNL     1      46.963   0.447  23.462  1.00  0.00     0.173 HD
HETATM   12  C5  UNL     1      46.917  -1.607  23.255  1.00  0.00     0.332 A 
HETATM   13  O2  UNL     1      47.260  -1.777  24.442  1.00  0.00    -0.246 OA
HETATM   14  N5  UNL     1      46.700  -2.663  22.475  1.00  0.00    -0.258 N 
ENDROOT
BRANCH  14  15
HETATM   15  C6  UNL     1      46.864  -3.986  23.014  1.00  0.00     0.347 C 
BRANCH  15  16
HETATM   16  O3  UNL     1      45.670  -4.707  22.957  1.00  0.00    -0.223 OA
BRANCH  16  17
HETATM   17  O4  UNL     1      45.865  -5.764  22.208  1.00  0.00    -0.249 OA
ATOM     18  H4  UNL     1      45.090  -5.897  21.675  1.00  0.00     0.253 HD
ENDBRANCH  16  17
ENDBRANCH  15  16
ENDBRANCH  14  15
BRANCH   1  19
HETATM   19  N1  UNL     1      45.571  -0.242  18.603  1.00  0.00    -0.384 N 
ATOM     20  H12 UNL     1      46.175   0.050  17.834  1.00  0.00     0.157 HD
ATOM     21  H11 UNL     1      44.797   0.422  18.613  1.00  0.00     0.157 HD
ENDBRANCH   1  19
TORSDOF 4
ENDMDL
MODEL 3
REMARK VINA RESULT: -4.883463988      1.678      3.444
REMARK  4 active torsions:
REMARK  status: ('A' for Active; 'I' for Inactive)
REMARK    1  A    between atoms: N1_1  and  C1_4 
REMARK    2  A    between atoms: N5_17  and  C6_18 
REMARK    3  A    between atoms: C6_18  and  O3_19 
REMARK    4  A    between atoms: O3_19  and  O4_20 
ROOT
HETATM    1  C1  UNL     1      49.239  -1.523  23.033  1.00  0.00     0.133 A 
HETATM    2  N2  UNL     1      47.912  -1.381  23.206  1.00  0.00    -0.283 N 
ATOM      3  H2  UNL     1      47.438  -0.491  23.359  1.00  0.00     0.188 HD
HETATM    4  N3  UNL     1      47.312  -2.552  23.150  1.00  0.00    -0.283 N 
ATOM      5  H3  UNL     1      46.307  -2.698  23.253  1.00  0.00     0.188 HD
HETATM    6  C2  UNL     1      48.214  -3.531  22.936  1.00  0.00     0.147 A 
HETATM    7  C3  UNL     1      49.450  -2.875  22.861  1.00  0.00     0.122 A 
HETATM    8  C4  UNL     1      50.572  -3.654  22.643  1.00  0.00     0.267 A 
HETATM    9  O1  UNL     1      51.672  -3.041  22.580  1.00  0.00    -0.267 OA
HETATM   10  N4  UNL     1      50.475  -4.986  22.510  1.00  0.00    -0.274 N 
ATOM     11  H4  UNL     1      51.306  -5.555  22.349  1.00  0.00     0.173 HD
HETATM   12  C5  UNL     1      49.256  -5.556  22.592  1.00  0.00     0.332 A 
HETATM   13  O2  UNL     1      49.198  -6.796  22.464  1.00  0.00    -0.246 OA
HETATM   14  N5  UNL     1      48.138  -4.863  22.800  1.00  0.00    -0.258 N 
ENDROOT
BRANCH  14  15
HETATM   15  C6  UNL     1      46.880  -5.556  22.873  1.00  0.00     0.347 C 
BRANCH  15  16
HETATM   16  O3  UNL     1      45.860  -4.816  22.272  1.00  0.00    -0.223 OA
BRANCH  16  17
HETATM   17  O4  UNL     1      45.023  -4.439  23.207  1.00  0.00    -0.249 OA
ATOM     18  H4  UNL     1      44.521  -3.704  22.877  1.00  0.00     0.253 HD
ENDBRANCH  16  17
ENDBRANCH  15  16
ENDBRANCH  14  15
BRANCH   1  19
HETATM   19  N1  UNL     1      50.170  -0.627  23.020  1.00  0.00    -0.384 N 
ATOM     20  H12 UNL     1      50.104   0.271  22.541  1.00  0.00     0.157 HD
ATOM     21  H11 UNL     1      51.092  -0.639  23.456  1.00  0.00     0.157 HD
ENDBRANCH   1  19
TORSDOF 4
ENDMDL
MODEL 4
REMARK VINA RESULT: -4.857832905      1.617      3.026
REMARK  4 active torsions:
REMARK  status: ('A' for Active; 'I' for Inactive)
REMARK    1  A    between atoms: N1_1  and  C1_4 
REMARK    2  A    between atoms: N5_17  and  C6_18 
REMARK    3  A    between atoms: C6_18  and  O3_19 
REMARK    4  A    between atoms: O3_19  and  O4_20 
ROOT
HETATM    1  C1  UNL     1      51.012  -4.184  22.608  1.00  0.00     0.133 A 
HETATM    2  N2  UNL     1      50.779  -2.859  22.622  1.00  0.00    -0.283 N 
ATOM      3  H2  UNL     1      51.504  -2.142  22.634  1.00  0.00     0.188 HD
HETATM    4  N3  UNL     1      49.484  -2.618  22.619  1.00  0.00    -0.283 N 
ATOM      5  H3  UNL     1      49.064  -1.688  22.628  1.00  0.00     0.188 HD
HETATM    6  C2  UNL     1      48.793  -3.775  22.602  1.00  0.00     0.147 A 
HETATM    7  C3  UNL     1      49.768  -4.781  22.596  1.00  0.00     0.122 A 
HETATM    8  C4  UNL     1      49.331  -6.093  22.580  1.00  0.00     0.267 A 
HETATM    9  O1  UNL     1      50.228  -6.979  22.574  1.00  0.00    -0.267 OA
HETATM   10  N4  UNL     1      48.021  -6.386  22.570  1.00  0.00    -0.274 N 
ATOM     11  H4  UNL     1      47.705  -7.355  22.558  1.00  0.00     0.173 HD
HETATM   12  C5  UNL     1      47.132  -5.371  22.577  1.00  0.00     0.332 A 
HETATM   13  O2  UNL     1      45.923  -5.676  22.568  1.00  0.00    -0.246 OA
HETATM   14  N5  UNL     1      47.488  -4.089  22.593  1.00  0.00    -0.258 N 
ENDROOT
BRANCH  14  15
HETATM   15  C6  UNL     1      46.471  -3.072  22.599  1.00  0.00     0.347 C 
BRANCH  15  16
HETATM   16  O3  UNL     1      46.358  -2.462  21.349  1.00  0.00    -0.223 OA
BRANCH  16  17
HETATM   17  O4  UNL     1      45.900  -3.349  20.501  1.00  0.00    -0.249 OA
ATOM     18  H4  UNL     1      46.213  -4.205  20.769  1.00  0.00     0.253 HD
ENDBRANCH  16  17
ENDBRANCH  15  16
ENDBRANCH  14  15
BRANCH   1  19
HETATM   19  N1  UNL     1      52.134  -4.825  22.606  1.00  0.00    -0.384 N 
ATOM     20  H12 UNL     1      53.054  -4.384  22.604  1.00  0.00     0.157 HD
ATOM     21  H11 UNL     1      52.311  -5.829  22.606  1.00  0.00     0.157 HD
ENDBRANCH   1  19
TORSDOF 4
ENDMDL
MODEL 5
REMARK VINA RESULT: -4.824560939      3.187      3.745
REMARK  4 active torsions:
REMARK  status: ('A' for Active; 'I' for Inactive)
REMARK    1  A    between atoms: N1_1  and  C1_4 
REMARK    2  A    between atoms: N5_17  and  C6_18 
REMARK    3  A    between atoms: C6_18  and  O3_19 
REMARK    4  A    between atoms: O3_19  and  O4_20 
ROOT
HETATM    1  C1  UNL     1      47.011  -4.921  22.685  1.00  0.00     0.133 A 
HETATM    2  N2  UNL     1      46.434  -4.342  23.754  1.00  0.00    -0.283 N 
ATOM      3  H2  UNL     1      46.189  -4.828  24.617  1.00  0.00     0.188 HD
HETATM    4  N3  UNL     1      46.229  -3.060  23.531  1.00  0.00    -0.283 N 
ATOM      5  H3  UNL     1      45.804  -2.413  24.195  1.00  0.00     0.188 HD
HETATM    6  C2  UNL     1      46.662  -2.725  22.299  1.00  0.00     0.147 A 
HETATM    7  C3  UNL     1      47.163  -3.915  21.754  1.00  0.00     0.122 A 
HETATM    8  C4  UNL     1      47.681  -3.860  20.473  1.00  0.00     0.267 A 
HETATM    9  O1  UNL     1      48.126  -4.943  20.005  1.00  0.00    -0.267 OA
HETATM   10  N4  UNL     1      47.700  -2.710  19.782  1.00  0.00    -0.274 N 
ATOM     11  H4  UNL     1      48.083  -2.676  18.838  1.00  0.00     0.173 HD
HETATM   12  C5  UNL     1      47.203  -1.599  20.364  1.00  0.00     0.332 A 
HETATM   13  O2  UNL     1      47.235  -0.545  19.697  1.00  0.00    -0.246 OA
HETATM   14  N5  UNL     1      46.691  -1.585  21.592  1.00  0.00    -0.258 N 
ENDROOT
BRANCH  14  15
HETATM   15  C6  UNL     1      46.182  -0.353  22.133  1.00  0.00     0.347 C 
BRANCH  15  16
HETATM   16  O3  UNL     1      44.790  -0.380  22.228  1.00  0.00    -0.223 OA
BRANCH  16  17
HETATM   17  O4  UNL     1      44.293  -0.088  21.051  1.00  0.00    -0.249 OA
ATOM     18  H4  UNL     1      43.425   0.275  21.178  1.00  0.00     0.253 HD
ENDBRANCH  16  17
ENDBRANCH  15  16
ENDBRANCH  14  15
BRANCH   1  19
HETATM   19  N1  UNL     1      47.370  -6.149  22.505  1.00  0.00    -0.384 N 
ATOM     20  H12 UNL     1      48.219  -6.566  22.887  1.00  0.00     0.157 HD
ATOM     21  H11 UNL     1      46.909  -6.893  21.982  1.00  0.00     0.157 HD
ENDBRANCH   1  19
TORSDOF 4
ENDMDL
