MODEL 1
REMARK VINA RESULT: -5.332606658      0.000      0.000
REMARK  5 active torsions:
REMARK  status: ('A' for Active; 'I' for Inactive)
REMARK    1  A    between atoms: N1_1  and  C1_4 
REMARK    2  A    between atoms: C4_7  and  C5_8 
REMARK    3  A    between atoms: C5_8  and  N2_9 
REMARK    4  A    between atoms: N2_9  and  N3_11 
REMARK    5  A    between atoms: N3_11  and  C6_13 
ROOT
HETATM    1  N2  UNL     1      49.524  -6.217  21.441  1.00  0.00    -0.295 N 
ATOM      2  H2  UNL     1      49.620  -5.287  21.033  1.00  0.00     0.186 HD
ENDROOT
BRANCH   1   3
HETATM    3  C5  UNL     1      50.187  -7.192  20.920  1.00  0.00     0.138 C 
BRANCH   3   4
HETATM    4  C4  UNL     1      49.464  -8.371  20.465  1.00  0.00     0.065 A 
HETATM    5  C3  UNL     1      49.904  -9.625  20.829  1.00  0.00     0.036 A 
HETATM    6  C2  UNL     1      49.184 -10.707  20.371  1.00  0.00     0.051 A 
HETATM    7  C1  UNL     1      48.060 -10.532  19.577  1.00  0.00     0.113 A 
HETATM    8  N8  UNL     1      47.684  -9.297  19.258  1.00  0.00    -0.285 N 
HETATM    9  N7  UNL     1      48.372  -8.262  19.695  1.00  0.00    -0.298 N 
ATOM     10  H8  UNL     1      46.861  -9.151  18.674  1.00  0.00     0.188 HD
ATOM     11  H7  UNL     1      48.057  -7.328  19.432  1.00  0.00     0.187 HD
BRANCH   7  12
HETATM   12  N1  UNL     1      47.413 -11.576  19.169  1.00  0.00    -0.384 N 
ATOM     13  H12 UNL     1      47.797 -12.517  19.249  1.00  0.00     0.157 HD
ATOM     14  H11 UNL     1      46.490 -11.452  18.755  1.00  0.00     0.157 HD
ENDBRANCH   7  12
ENDBRANCH   3   4
ENDBRANCH   1   3
BRANCH   1  15
HETATM   15  N3  UNL     1      48.679  -6.386  22.542  1.00  0.00    -0.131 N 
ATOM     16  H3  UNL     1      48.847  -7.143  23.204  1.00  0.00     0.205 HD
BRANCH  15  17
HETATM   17  C6  UNL     1      47.688  -5.582  22.719  1.00  0.00     0.715 A 
HETATM   18  N4  UNL     1      46.392  -5.887  23.016  1.00  0.00    -0.127 N 
HETATM   19  N5  UNL     1      45.696  -4.770  23.114  1.00  0.00    -0.237 N 
ATOM     20  H4  UNL     1      46.020  -6.828  23.141  1.00  0.00     0.206 HD
HETATM   21  C7  UNL     1      46.516  -3.737  22.885  1.00  0.00     0.353 A 
ATOM     22  H5  UNL     1      44.701  -4.705  23.328  1.00  0.00     0.192 HD
HETATM   23  O1  UNL     1      46.229  -2.517  22.889  1.00  0.00    -0.245 OA
HETATM   24  N6  UNL     1      47.737  -4.237  22.644  1.00  0.00    -0.137 N 
ATOM     25  H6  UNL     1      48.570  -3.687  22.437  1.00  0.00     0.189 HD
ENDBRANCH  15  17
ENDBRANCH   1  15
TORSDOF 5
ENDMDL
MODEL 2
REMARK VINA RESULT: -5.320832066      2.777      5.928
REMARK  5 active torsions:
REMARK  status: ('A' for Active; 'I' for Inactive)
REMARK    1  A    between atoms: N1_1  and  C1_4 
REMARK    2  A    between atoms: C4_7  and  C5_8 
REMARK    3  A    between atoms: C5_8  and  N2_9 
REMARK    4  A    between atoms: N2_9  and  N3_11 
REMARK    5  A    between atoms: N3_11  and  C6_13 
ROOT
HETATM    1  N2  UNL     1      50.410  -7.550  22.056  1.00  0.00    -0.295 N 
ATOM      2  H2  UNL     1      50.369  -8.146  22.883  1.00  0.00     0.186 HD
ENDROOT
BRANCH   1   3
HETATM    3  C5  UNL     1      50.333  -6.273  22.210  1.00  0.00     0.138 C 
BRANCH   3   4
HETATM    4  C4  UNL     1      49.041  -5.678  22.515  1.00  0.00     0.065 A 
HETATM    5  C3  UNL     1      48.950  -4.322  22.747  1.00  0.00     0.036 A 
HETATM    6  C2  UNL     1      47.703  -3.810  23.032  1.00  0.00     0.051 A 
HETATM    7  C1  UNL     1      46.588  -4.633  23.082  1.00  0.00     0.113 A 
HETATM    8  N8  UNL     1      46.737  -5.933  22.850  1.00  0.00    -0.285 N 
HETATM    9  N7  UNL     1      47.929  -6.425  22.577  1.00  0.00    -0.298 N 
ATOM     10  H8  UNL     1      45.927  -6.552  22.882  1.00  0.00     0.188 HD
ATOM     11  H7  UNL     1      48.010  -7.427  22.404  1.00  0.00     0.187 HD
BRANCH   7  12
HETATM   12  N1  UNL     1      45.436  -4.110  23.353  1.00  0.00    -0.384 N 
ATOM     13  H12 UNL     1      44.768  -3.859  22.623  1.00  0.00     0.157 HD
ATOM     14  H11 UNL     1      45.187  -3.943  24.328  1.00  0.00     0.157 HD
ENDBRANCH   7  12
ENDBRANCH   3   4
ENDBRANCH   1   3
BRANCH   1  15
HETATM   15  N3  UNL     1      50.546  -8.151  20.801  1.00  0.00    -0.131 N 
ATOM     16  H3  UNL     1      51.418  -8.056  20.281  1.00  0.00     0.205 HD
BRANCH  15  17
HETATM   17  C6  UNL     1      49.567  -8.824  20.302  1.00  0.00     0.715 A 
HETATM   18  N4  UNL     1      48.422  -8.356  19.728  1.00  0.00    -0.127 N 
HETATM   19  N5  UNL     1      47.680  -9.379  19.345  1.00  0.00    -0.237 N 
ATOM     20  H4  UNL     1      48.177  -7.372  19.613  1.00  0.00     0.206 HD
HETATM   21  C7  UNL     1      48.322 -10.510  19.660  1.00  0.00     0.353 A 
ATOM     22  H5  UNL     1      46.771  -9.317  18.886  1.00  0.00     0.192 HD
HETATM   23  O1  UNL     1      47.941 -11.686  19.459  1.00  0.00    -0.245 OA
HETATM   24  N6  UNL     1      49.479 -10.168  20.246  1.00  0.00    -0.137 N 
ATOM     25  H6  UNL     1      50.180 -10.821  20.594  1.00  0.00     0.189 HD
ENDBRANCH  15  17
ENDBRANCH   1  15
TORSDOF 5
ENDMDL
MODEL 3
REMARK VINA RESULT: -5.243545091      3.371      5.530
REMARK  5 active torsions:
REMARK  status: ('A' for Active; 'I' for Inactive)
REMARK    1  A    between atoms: N1_1  and  C1_4 
REMARK    2  A    between atoms: C4_7  and  C5_8 
REMARK    3  A    between atoms: C5_8  and  N2_9 
REMARK    4  A    between atoms: N2_9  and  N3_11 
REMARK    5  A    between atoms: N3_11  and  C6_13 
ROOT
HETATM    1  N2  UNL     1      46.217  -1.494  22.879  1.00  0.00    -0.295 N 
ATOM      2  H2  UNL     1      45.252  -1.303  23.151  1.00  0.00     0.186 HD
ENDROOT
BRANCH   1   3
HETATM    3  C5  UNL     1      46.970  -2.154  23.691  1.00  0.00     0.138 C 
BRANCH   3   4
HETATM    4  C4  UNL     1      47.476  -3.455  23.281  1.00  0.00     0.065 A 
HETATM    5  C3  UNL     1      48.799  -3.589  22.916  1.00  0.00     0.036 A 
HETATM    6  C2  UNL     1      49.227  -4.842  22.535  1.00  0.00     0.051 A 
HETATM    7  C1  UNL     1      48.355  -5.921  22.523  1.00  0.00     0.113 A 
HETATM    8  N8  UNL     1      47.091  -5.730  22.885  1.00  0.00    -0.285 N 
HETATM    9  N7  UNL     1      46.679  -4.532  23.249  1.00  0.00    -0.298 N 
ATOM     10  H8  UNL     1      46.437  -6.513  22.881  1.00  0.00     0.188 HD
ATOM     11  H7  UNL     1      45.703  -4.420  23.521  1.00  0.00     0.187 HD
BRANCH   7  12
HETATM   12  N1  UNL     1      48.800  -7.080  22.158  1.00  0.00    -0.384 N 
ATOM     13  H12 UNL     1      49.795  -7.264  22.029  1.00  0.00     0.157 HD
ATOM     14  H11 UNL     1      48.134  -7.835  21.996  1.00  0.00     0.157 HD
ENDBRANCH   7  12
ENDBRANCH   3   4
ENDBRANCH   1   3
BRANCH   1  15
HETATM   15  N3  UNL     1      46.670  -1.032  21.640  1.00  0.00    -0.131 N 
ATOM     16  H3  UNL     1      47.410  -0.331  21.595  1.00  0.00     0.205 HD
BRANCH  15  17
HETATM   17  C6  UNL     1      46.152  -1.493  20.554  1.00  0.00     0.715 A 
HETATM   18  N4  UNL     1      45.196  -0.926  19.763  1.00  0.00    -0.127 N 
HETATM   19  N5  UNL     1      44.947  -1.727  18.744  1.00  0.00    -0.237 N 
ATOM     20  H4  UNL     1      44.745  -0.027  19.933  1.00  0.00     0.206 HD
HETATM   21  C7  UNL     1      45.725  -2.810  18.855  1.00  0.00     0.353 A 
ATOM     22  H5  UNL     1      44.275  -1.549  17.998  1.00  0.00     0.192 HD
HETATM   23  O1  UNL     1      45.778  -3.795  18.082  1.00  0.00    -0.245 OA
HETATM   24  N6  UNL     1      46.463  -2.665  19.964  1.00  0.00    -0.137 N 
ATOM     25  H6  UNL     1      47.151  -3.334  20.308  1.00  0.00     0.189 HD
ENDBRANCH  15  17
ENDBRANCH   1  15
TORSDOF 5
ENDMDL
MODEL 4
REMARK VINA RESULT: -5.220609294      2.385      5.457
REMARK  5 active torsions:
REMARK  status: ('A' for Active; 'I' for Inactive)
REMARK    1  A    between atoms: N1_1  and  C1_4 
REMARK    2  A    between atoms: C4_7  and  C5_8 
REMARK    3  A    between atoms: C5_8  and  N2_9 
REMARK    4  A    between atoms: N2_9  and  N3_11 
REMARK    5  A    between atoms: N3_11  and  C6_13 
ROOT
HETATM    1  N2  UNL     1      50.656  -7.509  22.233  1.00  0.00    -0.295 N 
ATOM      2  H2  UNL     1      50.673  -8.016  23.119  1.00  0.00     0.186 HD
ENDROOT
BRANCH   1   3
HETATM    3  C5  UNL     1      50.515  -6.228  22.256  1.00  0.00     0.138 C 
BRANCH   3   4
HETATM    4  C4  UNL     1      49.198  -5.671  22.527  1.00  0.00     0.065 A 
HETATM    5  C3  UNL     1      49.062  -4.318  22.753  1.00  0.00     0.036 A 
HETATM    6  C2  UNL     1      47.794  -3.843  23.006  1.00  0.00     0.051 A 
HETATM    7  C1  UNL     1      46.702  -4.698  23.030  1.00  0.00     0.113 A 
HETATM    8  N8  UNL     1      46.895  -5.993  22.805  1.00  0.00    -0.285 N 
HETATM    9  N7  UNL     1      48.108  -6.450  22.564  1.00  0.00    -0.298 N 
ATOM     10  H8  UNL     1      46.104  -6.636  22.820  1.00  0.00     0.188 HD
ATOM     11  H7  UNL     1      48.222  -7.450  22.395  1.00  0.00     0.187 HD
BRANCH   7  12
HETATM   12  N1  UNL     1      45.529  -4.208  23.272  1.00  0.00    -0.384 N 
ATOM     13  H12 UNL     1      45.346  -3.205  23.257  1.00  0.00     0.157 HD
ATOM     14  H11 UNL     1      44.762  -4.846  23.483  1.00  0.00     0.157 HD
ENDBRANCH   7  12
ENDBRANCH   3   4
ENDBRANCH   1   3
BRANCH   1  15
HETATM   15  N3  UNL     1      50.787  -8.232  21.043  1.00  0.00    -0.131 N 
ATOM     16  H3  UNL     1      51.680  -8.658  20.800  1.00  0.00     0.205 HD
BRANCH  15  17
HETATM   17  C6  UNL     1      49.776  -8.357  20.254  1.00  0.00     0.715 A 
HETATM   18  N4  UNL     1      48.784  -9.293  20.289  1.00  0.00    -0.127 N 
HETATM   19  N5  UNL     1      47.940  -9.066  19.300  1.00  0.00    -0.237 N 
ATOM     20  H4  UNL     1      48.708 -10.049  20.970  1.00  0.00     0.206 HD
HETATM   21  C7  UNL     1      48.363  -7.996  18.617  1.00  0.00     0.353 A 
ATOM     22  H5  UNL     1      47.105  -9.615  19.092  1.00  0.00     0.192 HD
HETATM   23  O1  UNL     1      47.830  -7.471  17.613  1.00  0.00    -0.245 OA
HETATM   24  N6  UNL     1      49.488  -7.562  19.204  1.00  0.00    -0.137 N 
ATOM     25  H6  UNL     1      50.039  -6.759  18.904  1.00  0.00     0.189 HD
ENDBRANCH  15  17
ENDBRANCH   1  15
TORSDOF 5
ENDMDL
MODEL 5
REMARK VINA RESULT: -5.205816165      2.996      6.305
REMARK  5 active torsions:
REMARK  status: ('A' for Active; 'I' for Inactive)
REMARK    1  A    between atoms: N1_1  and  C1_4 
REMARK    2  A    between atoms: C4_7  and  C5_8 
REMARK    3  A    between atoms: C5_8  and  N2_9 
REMARK    4  A    between atoms: N2_9  and  N3_11 
REMARK    5  A    between atoms: N3_11  and  C6_13 
ROOT
HETATM    1  N2  UNL     1      49.658  -8.133  21.817  1.00  0.00    -0.295 N 
ATOM      2  H2  UNL     1      49.564  -8.834  22.551  1.00  0.00     0.186 HD
ENDROOT
BRANCH   1   3
HETATM    3  C5  UNL     1      50.009  -6.937  22.145  1.00  0.00     0.138 C 
BRANCH   3   4
HETATM    4  C4  UNL     1      48.976  -5.971  22.488  1.00  0.00     0.065 A 
HETATM    5  C3  UNL     1      49.310  -4.643  22.649  1.00  0.00     0.036 A 
HETATM    6  C2  UNL     1      48.295  -3.770  22.975  1.00  0.00     0.051 A 
HETATM    7  C1  UNL     1      46.991  -4.217  23.131  1.00  0.00     0.113 A 
HETATM    8  N8  UNL     1      46.730  -5.510  22.964  1.00  0.00    -0.285 N 
HETATM    9  N7  UNL     1      47.700  -6.346  22.653  1.00  0.00    -0.298 N 
ATOM     10  H8  UNL     1      45.777  -5.855  23.076  1.00  0.00     0.188 HD
ATOM     11  H7  UNL     1      47.467  -7.332  22.531  1.00  0.00     0.187 HD
BRANCH   7  12
HETATM   12  N1  UNL     1      46.068  -3.363  23.437  1.00  0.00    -0.384 N 
ATOM     13  H12 UNL     1      45.456  -2.951  22.733  1.00  0.00     0.157 HD
ATOM     14  H11 UNL     1      45.950  -3.093  24.413  1.00  0.00     0.157 HD
ENDBRANCH   7  12
ENDBRANCH   3   4
ENDBRANCH   1   3
BRANCH   1  15
HETATM   15  N3  UNL     1      49.401  -8.506  20.494  1.00  0.00    -0.131 N 
ATOM     16  H3  UNL     1      49.721  -7.917  19.725  1.00  0.00     0.205 HD
BRANCH  15  17
HETATM   17  C6  UNL     1      48.758  -9.595  20.247  1.00  0.00     0.715 A 
HETATM   18  N4  UNL     1      47.832  -9.831  19.274  1.00  0.00    -0.127 N 
HETATM   19  N5  UNL     1      47.416 -11.081  19.366  1.00  0.00    -0.237 N 
ATOM     20  H4  UNL     1      47.512  -9.151  18.585  1.00  0.00     0.206 HD
HETATM   21  C7  UNL     1      48.056 -11.667  20.386  1.00  0.00     0.353 A 
ATOM     22  H5  UNL     1      46.725 -11.525  18.762  1.00  0.00     0.192 HD
HETATM   23  O1  UNL     1      47.932 -12.847  20.788  1.00  0.00    -0.245 OA
HETATM   24  N6  UNL     1      48.878 -10.755  20.924  1.00  0.00    -0.137 N 
ATOM     25  H6  UNL     1      49.496 -10.913  21.719  1.00  0.00     0.189 HD
ENDBRANCH  15  17
ENDBRANCH   1  15
TORSDOF 5
ENDMDL
