MODEL 1
REMARK VINA RESULT: -7.610531242      0.000      0.000
REMARK  15 active torsions:
REMARK  status: ('A' for Active; 'I' for Inactive)
REMARK    1  A    between atoms: N1_1  and  C1_5 
REMARK    2  A    between atoms: C3_7  and  N2_8 
REMARK    3  A    between atoms: C4_12  and  O1_13 
REMARK    4  A    between atoms: O1_13  and  C5_14 
REMARK    5  A    between atoms: C7_16  and  C8_17 
REMARK    6  A    between atoms: C8_17  and  O2_18 
REMARK    7  A    between atoms: C9_21  and  O4_22 
REMARK    8  A    between atoms: O4_22  and  C10_23 
REMARK    9  A    between atoms: C16_29  and  O5_30 
REMARK   10  A    between atoms: C17_32  and  O6_33 
REMARK   11  A    between atoms: C18_35  and  O7_36 
REMARK   12  A    between atoms: O7_36  and  C19_37 
REMARK   13  A    between atoms: C19_37  and  C20_38 
REMARK   14  A    between atoms: C21_39  and  C22_40 
REMARK   15  A    between atoms: C22_40  and  O8_41 
ROOT
HETATM    1  C1  UNL     1      -4.071  -4.979   7.412  1.00  0.00     0.217 C 
HETATM    2  C2  UNL     1      -5.255  -5.143   6.447  1.00  0.00     0.071 C 
HETATM    3  C3  UNL     1      -6.445  -4.615   7.218  1.00  0.00     0.217 C 
HETATM    4  C4  UNL     1      -6.312  -3.219   7.692  1.00  0.00     0.183 C 
HETATM    5  C17 UNL     1      -4.949  -2.632   7.727  1.00  0.00     0.180 C 
HETATM    6  C18 UNL     1      -3.793  -3.503   7.465  1.00  0.00     0.184 C 
ENDROOT
BRANCH   4   7
HETATM    7  O1  UNL     1      -6.882  -3.175   8.985  1.00  0.00    -0.373 OA
BRANCH   7   8
HETATM    8  C5  UNL     1      -6.048  -2.649   9.940  1.00  0.00     0.158 C 
HETATM    9  C6  UNL     1      -6.326  -1.166  10.037  1.00  0.00     0.069 C 
HETATM   10  C7  UNL     1      -5.801  -0.561  11.301  1.00  0.00     0.150 C 
HETATM   11  O3  UNL     1      -6.473  -1.182  12.350  1.00  0.00    -0.351 OA
HETATM   12  C9  UNL     1      -6.133  -2.524  12.466  1.00  0.00     0.291 C 
HETATM   13  C16 UNL     1      -6.302  -3.335  11.236  1.00  0.00     0.202 C 
BRANCH  10  14
HETATM   14  C8  UNL     1      -4.307  -0.677  11.430  1.00  0.00     0.196 C 
BRANCH  14  15
HETATM   15  O2  UNL     1      -3.844   0.535  11.960  1.00  0.00    -0.398 OA
ATOM     16  H2  UNL     1      -3.409   1.001  11.256  1.00  0.00     0.209 HD
ENDBRANCH  14  15
ENDBRANCH  10  14
BRANCH  12  17
HETATM   17  O4  UNL     1      -6.964  -3.053  13.458  1.00  0.00    -0.353 OA
BRANCH  17  18
HETATM   18  C10 UNL     1      -6.571  -2.702  14.740  1.00  0.00     0.124 C 
HETATM   19  C11 UNL     1      -5.917  -3.956  15.338  1.00  0.00     0.032 C 
HETATM   20  C12 UNL     1      -6.764  -5.119  14.832  1.00  0.00     0.002 C 
HETATM   21  C13 UNL     1      -8.201  -4.998  15.203  1.00  0.00     0.000 C 
HETATM   22  C14 UNL     1      -8.784  -3.636  15.081  1.00  0.00     0.002 C 
HETATM   23  C15 UNL     1      -7.866  -2.529  15.542  1.00  0.00     0.032 C 
ENDBRANCH  17  18
ENDBRANCH  12  17
BRANCH  13  24
HETATM   24  O5  UNL     1      -5.482  -4.479  11.359  1.00  0.00    -0.388 OA
ATOM     25  H5  UNL     1      -4.900  -4.394  12.106  1.00  0.00     0.210 HD
ENDBRANCH  13  24
ENDBRANCH   7   8
ENDBRANCH   4   7
BRANCH   3  26
HETATM   26  N2  UNL     1      -7.670  -4.770   6.434  1.00  0.00    -0.072 N 
ATOM     27  H23 UNL     1      -7.472  -5.011   5.462  1.00  0.00     0.274 HD
ATOM     28  H22 UNL     1      -8.185  -5.611   6.696  1.00  0.00     0.274 HD
ATOM     29  H21 UNL     1      -8.248  -3.932   6.506  1.00  0.00     0.274 HD
ENDBRANCH   3  26
BRANCH   5  30
HETATM   30  O6  UNL     1      -4.912  -1.584   6.771  1.00  0.00    -0.390 OA
ATOM     31  H6  UNL     1      -4.700  -1.972   5.931  1.00  0.00     0.210 HD
ENDBRANCH   5  30
BRANCH   6  32
HETATM   32  O7  UNL     1      -2.818  -3.298   8.442  1.00  0.00    -0.369 OA
BRANCH  32  33
HETATM   33  C19 UNL     1      -1.701  -2.647   7.971  1.00  0.00     0.262 C 
BRANCH  33  34
HETATM   34  C20 UNL     1      -1.818  -1.234   8.322  1.00  0.00    -0.078 C 
HETATM   35  C21 UNL     1      -1.901  -0.069   8.626  1.00  0.00    -0.079 C 
BRANCH  35  36
HETATM   36  C22 UNL     1      -2.005   1.339   9.012  1.00  0.00     0.257 C 
BRANCH  36  37
HETATM   37  O8  UNL     1      -1.638   1.547  10.347  1.00  0.00    -0.389 OA
ATOM     38  H8  UNL     1      -1.383   2.448  10.511  1.00  0.00     0.210 HD
ENDBRANCH  36  37
ENDBRANCH  35  36
ENDBRANCH  33  34
ENDBRANCH  32  33
ENDBRANCH   6  32
BRANCH   1  39
HETATM   39  N1  UNL     1      -4.402  -5.447   8.721  1.00  0.00    -0.072 N 
ATOM     40  H13 UNL     1      -5.264  -5.993   8.717  1.00  0.00     0.274 HD
ATOM     41  H12 UNL     1      -3.757  -6.173   9.034  1.00  0.00     0.274 HD
ATOM     42  H11 UNL     1      -4.450  -4.676   9.388  1.00  0.00     0.274 HD
ENDBRANCH   1  39
TORSDOF 15
ENDMDL
MODEL 2
REMARK VINA RESULT: -7.082368618      1.185      2.022
REMARK  15 active torsions:
REMARK  status: ('A' for Active; 'I' for Inactive)
REMARK    1  A    between atoms: N1_1  and  C1_5 
REMARK    2  A    between atoms: C3_7  and  N2_8 
REMARK    3  A    between atoms: C4_12  and  O1_13 
REMARK    4  A    between atoms: O1_13  and  C5_14 
REMARK    5  A    between atoms: C7_16  and  C8_17 
REMARK    6  A    between atoms: C8_17  and  O2_18 
REMARK    7  A    between atoms: C9_21  and  O4_22 
REMARK    8  A    between atoms: O4_22  and  C10_23 
REMARK    9  A    between atoms: C16_29  and  O5_30 
REMARK   10  A    between atoms: C17_32  and  O6_33 
REMARK   11  A    between atoms: C18_35  and  O7_36 
REMARK   12  A    between atoms: O7_36  and  C19_37 
REMARK   13  A    between atoms: C19_37  and  C20_38 
REMARK   14  A    between atoms: C21_39  and  C22_40 
REMARK   15  A    between atoms: C22_40  and  O8_41 
ROOT
HETATM    1  C1  UNL     1      -4.060  -4.900   7.457  1.00  0.00     0.217 C 
HETATM    2  C2  UNL     1      -5.233  -5.081   6.484  1.00  0.00     0.071 C 
HETATM    3  C3  UNL     1      -6.434  -4.555   7.238  1.00  0.00     0.217 C 
HETATM    4  C4  UNL     1      -6.315  -3.153   7.701  1.00  0.00     0.183 C 
HETATM    5  C17 UNL     1      -4.957  -2.557   7.743  1.00  0.00     0.180 C 
HETATM    6  C18 UNL     1      -3.793  -3.422   7.500  1.00  0.00     0.184 C 
ENDROOT
BRANCH   4   7
HETATM    7  O1  UNL     1      -6.897  -3.102   8.988  1.00  0.00    -0.373 OA
BRANCH   7   8
HETATM    8  C5  UNL     1      -6.062  -2.597   9.953  1.00  0.00     0.158 C 
HETATM    9  C6  UNL     1      -6.325  -1.113  10.068  1.00  0.00     0.069 C 
HETATM   10  C7  UNL     1      -5.799  -0.529  11.342  1.00  0.00     0.150 C 
HETATM   11  O3  UNL     1      -6.483  -1.156  12.380  1.00  0.00    -0.351 OA
HETATM   12  C9  UNL     1      -6.158  -2.503  12.480  1.00  0.00     0.291 C 
HETATM   13  C16 UNL     1      -6.329  -3.296  11.239  1.00  0.00     0.202 C 
BRANCH  10  14
HETATM   14  C8  UNL     1      -4.308  -0.663  11.476  1.00  0.00     0.196 C 
BRANCH  14  15
HETATM   15  O2  UNL     1      -3.831   0.546  12.002  1.00  0.00    -0.398 OA
ATOM     16  H2  UNL     1      -2.939   0.393  12.291  1.00  0.00     0.209 HD
ENDBRANCH  14  15
ENDBRANCH  10  14
BRANCH  12  17
HETATM   17  O4  UNL     1      -6.999  -3.035  13.462  1.00  0.00    -0.353 OA
BRANCH  17  18
HETATM   18  C10 UNL     1      -6.626  -2.680  14.748  1.00  0.00     0.124 C 
HETATM   19  C11 UNL     1      -5.927  -3.912  15.341  1.00  0.00     0.032 C 
HETATM   20  C12 UNL     1      -6.726  -5.103  14.822  1.00  0.00     0.002 C 
HETATM   21  C13 UNL     1      -8.169  -5.040  15.186  1.00  0.00     0.000 C 
HETATM   22  C14 UNL     1      -8.803  -3.701  15.071  1.00  0.00     0.002 C 
HETATM   23  C15 UNL     1      -7.931  -2.562  15.545  1.00  0.00     0.032 C 
ENDBRANCH  17  18
ENDBRANCH  12  17
BRANCH  13  24
HETATM   24  O5  UNL     1      -5.523  -4.451  11.352  1.00  0.00    -0.388 OA
ATOM     25  H5  UNL     1      -5.449  -4.719  12.261  1.00  0.00     0.210 HD
ENDBRANCH  13  24
ENDBRANCH   7   8
ENDBRANCH   4   7
BRANCH   3  26
HETATM   26  N2  UNL     1      -7.651  -4.726   6.444  1.00  0.00    -0.072 N 
ATOM     27  H23 UNL     1      -7.452  -4.748   5.444  1.00  0.00     0.274 HD
ATOM     28  H22 UNL     1      -8.039  -5.664   6.542  1.00  0.00     0.274 HD
ATOM     29  H21 UNL     1      -8.334  -4.006   6.680  1.00  0.00     0.274 HD
ENDBRANCH   3  26
BRANCH   5  30
HETATM   30  O6  UNL     1      -4.919  -1.517   6.778  1.00  0.00    -0.390 OA
ATOM     31  H6  UNL     1      -5.353  -1.838   5.996  1.00  0.00     0.210 HD
ENDBRANCH   5  30
BRANCH   6  32
HETATM   32  O7  UNL     1      -2.828  -3.200   8.483  1.00  0.00    -0.369 OA
BRANCH  32  33
HETATM   33  C19 UNL     1      -2.003  -2.134   8.210  1.00  0.00     0.262 C 
BRANCH  33  34
HETATM   34  C20 UNL     1      -0.742  -2.657   7.692  1.00  0.00    -0.078 C 
HETATM   35  C21 UNL     1       0.298  -3.105   7.275  1.00  0.00    -0.079 C 
BRANCH  35  36
HETATM   36  C22 UNL     1       1.565  -3.650   6.787  1.00  0.00     0.257 C 
BRANCH  36  37
HETATM   37  O8  UNL     1       1.389  -4.859   6.101  1.00  0.00    -0.389 OA
ATOM     38  H8  UNL     1       1.218  -4.722   5.176  1.00  0.00     0.210 HD
ENDBRANCH  36  37
ENDBRANCH  35  36
ENDBRANCH  33  34
ENDBRANCH  32  33
ENDBRANCH   6  32
BRANCH   1  39
HETATM   39  N1  UNL     1      -4.399  -5.358   8.768  1.00  0.00    -0.072 N 
ATOM     40  H13 UNL     1      -5.187  -4.837   9.155  1.00  0.00     0.274 HD
ATOM     41  H12 UNL     1      -4.822  -6.286   8.743  1.00  0.00     0.274 HD
ATOM     42  H11 UNL     1      -3.591  -5.331   9.389  1.00  0.00     0.274 HD
ENDBRANCH   1  39
TORSDOF 15
ENDMDL
MODEL 3
REMARK VINA RESULT: -6.695588202      1.953      6.388
REMARK  15 active torsions:
REMARK  status: ('A' for Active; 'I' for Inactive)
REMARK    1  A    between atoms: N1_1  and  C1_5 
REMARK    2  A    between atoms: C3_7  and  N2_8 
REMARK    3  A    between atoms: C4_12  and  O1_13 
REMARK    4  A    between atoms: O1_13  and  C5_14 
REMARK    5  A    between atoms: C7_16  and  C8_17 
REMARK    6  A    between atoms: C8_17  and  O2_18 
REMARK    7  A    between atoms: C9_21  and  O4_22 
REMARK    8  A    between atoms: O4_22  and  C10_23 
REMARK    9  A    between atoms: C16_29  and  O5_30 
REMARK   10  A    between atoms: C17_32  and  O6_33 
REMARK   11  A    between atoms: C18_35  and  O7_36 
REMARK   12  A    between atoms: O7_36  and  C19_37 
REMARK   13  A    between atoms: C19_37  and  C20_38 
REMARK   14  A    between atoms: C21_39  and  C22_40 
REMARK   15  A    between atoms: C22_40  and  O8_41 
ROOT
HETATM    1  C1  UNL     1      -7.255  -3.952   6.979  1.00  0.00     0.217 C 
HETATM    2  C2  UNL     1      -6.629  -5.026   6.078  1.00  0.00     0.071 C 
HETATM    3  C3  UNL     1      -5.254  -4.487   5.748  1.00  0.00     0.217 C 
HETATM    4  C4  UNL     1      -4.402  -4.189   6.922  1.00  0.00     0.183 C 
HETATM    5  C17 UNL     1      -5.070  -4.063   8.241  1.00  0.00     0.180 C 
HETATM    6  C18 UNL     1      -6.540  -4.060   8.296  1.00  0.00     0.184 C 
ENDROOT
BRANCH   4   7
HETATM    7  O1  UNL     1      -3.707  -2.995   6.624  1.00  0.00    -0.373 OA
BRANCH   7   8
HETATM    8  C5  UNL     1      -2.429  -2.960   7.122  1.00  0.00     0.158 C 
HETATM    9  C6  UNL     1      -1.496  -2.595   5.991  1.00  0.00     0.069 C 
HETATM   10  C7  UNL     1      -0.161  -2.120   6.472  1.00  0.00     0.150 C 
HETATM   11  O3  UNL     1      -0.392  -0.964   7.213  1.00  0.00    -0.351 OA
HETATM   12  C9  UNL     1      -1.087  -1.227   8.387  1.00  0.00     0.291 C 
HETATM   13  C16 UNL     1      -2.366  -1.960   8.222  1.00  0.00     0.202 C 
BRANCH  10  14
HETATM   14  C8  UNL     1       0.584  -3.164   7.258  1.00  0.00     0.196 C 
BRANCH  14  15
HETATM   15  O2  UNL     1       0.893  -4.205   6.371  1.00  0.00    -0.398 OA
ATOM     16  H2  UNL     1       1.840  -4.278   6.344  1.00  0.00     0.209 HD
ENDBRANCH  14  15
ENDBRANCH  10  14
BRANCH  12  17
HETATM   17  O4  UNL     1      -1.364   0.017   8.962  1.00  0.00    -0.353 OA
BRANCH  17  18
HETATM   18  C10 UNL     1      -2.668   0.436   8.747  1.00  0.00     0.124 C 
HETATM   19  C11 UNL     1      -2.572   1.900   8.294  1.00  0.00     0.032 C 
HETATM   20  C12 UNL     1      -1.453   2.499   9.140  1.00  0.00     0.002 C 
HETATM   21  C13 UNL     1      -1.697   2.374  10.603  1.00  0.00     0.000 C 
HETATM   22  C14 UNL     1      -2.260   1.073  11.052  1.00  0.00     0.002 C 
HETATM   23  C15 UNL     1      -3.318   0.509  10.134  1.00  0.00     0.032 C 
ENDBRANCH  17  18
ENDBRANCH  12  17
BRANCH  13  24
HETATM   24  O5  UNL     1      -2.677  -2.565   9.461  1.00  0.00    -0.388 OA
ATOM     25  H5  UNL     1      -3.554  -2.326   9.737  1.00  0.00     0.210 HD
ENDBRANCH  13  24
ENDBRANCH   7   8
ENDBRANCH   4   7
BRANCH   3  26
HETATM   26  N2  UNL     1      -4.558  -5.390   4.831  1.00  0.00    -0.072 N 
ATOM     27  H23 UNL     1      -4.957  -6.329   4.848  1.00  0.00     0.274 HD
ATOM     28  H22 UNL     1      -4.749  -5.162   3.856  1.00  0.00     0.274 HD
ATOM     29  H21 UNL     1      -3.558  -5.399   5.031  1.00  0.00     0.274 HD
ENDBRANCH   3  26
BRANCH   5  30
HETATM   30  O6  UNL     1      -4.619  -5.137   9.051  1.00  0.00    -0.390 OA
ATOM     31  H6  UNL     1      -5.373  -5.681   9.249  1.00  0.00     0.210 HD
ENDBRANCH   5  30
BRANCH   6  32
HETATM   32  O7  UNL     1      -6.980  -3.006   9.097  1.00  0.00    -0.369 OA
BRANCH  32  33
HETATM   33  C19 UNL     1      -5.957  -2.326   9.717  1.00  0.00     0.262 C 
BRANCH  33  34
HETATM   34  C20 UNL     1      -6.134  -2.456  11.160  1.00  0.00    -0.078 C 
HETATM   35  C21 UNL     1      -6.296  -2.550  12.353  1.00  0.00    -0.079 C 
BRANCH  35  36
HETATM   36  C22 UNL     1      -6.489  -2.646  13.800  1.00  0.00     0.257 C 
BRANCH  36  37
HETATM   37  O8  UNL     1      -5.418  -3.290  14.433  1.00  0.00    -0.389 OA
ATOM     38  H8  UNL     1      -5.391  -3.105  15.364  1.00  0.00     0.210 HD
ENDBRANCH  36  37
ENDBRANCH  35  36
ENDBRANCH  33  34
ENDBRANCH  32  33
ENDBRANCH   6  32
BRANCH   1  39
HETATM   39  N1  UNL     1      -7.057  -2.644   6.439  1.00  0.00    -0.072 N 
ATOM     40  H13 UNL     1      -6.918  -1.952   7.175  1.00  0.00     0.274 HD
ATOM     41  H12 UNL     1      -6.153  -2.563   5.973  1.00  0.00     0.274 HD
ATOM     42  H11 UNL     1      -7.823  -2.382   5.818  1.00  0.00     0.274 HD
ENDBRANCH   1  39
TORSDOF 15
ENDMDL
MODEL 4
REMARK VINA RESULT: -6.629507582      2.428      4.291
REMARK  15 active torsions:
REMARK  status: ('A' for Active; 'I' for Inactive)
REMARK    1  A    between atoms: N1_1  and  C1_5 
REMARK    2  A    between atoms: C3_7  and  N2_8 
REMARK    3  A    between atoms: C4_12  and  O1_13 
REMARK    4  A    between atoms: O1_13  and  C5_14 
REMARK    5  A    between atoms: C7_16  and  C8_17 
REMARK    6  A    between atoms: C8_17  and  O2_18 
REMARK    7  A    between atoms: C9_21  and  O4_22 
REMARK    8  A    between atoms: O4_22  and  C10_23 
REMARK    9  A    between atoms: C16_29  and  O5_30 
REMARK   10  A    between atoms: C17_32  and  O6_33 
REMARK   11  A    between atoms: C18_35  and  O7_36 
REMARK   12  A    between atoms: O7_36  and  C19_37 
REMARK   13  A    between atoms: C19_37  and  C20_38 
REMARK   14  A    between atoms: C21_39  and  C22_40 
REMARK   15  A    between atoms: C22_40  and  O8_41 
ROOT
HETATM    1  C1  UNL     1      -6.004  -6.324   6.827  1.00  0.00     0.217 C 
HETATM    2  C2  UNL     1      -5.947  -5.041   5.985  1.00  0.00     0.071 C 
HETATM    3  C3  UNL     1      -6.306  -3.937   6.954  1.00  0.00     0.217 C 
HETATM    4  C4  UNL     1      -5.438  -3.849   8.150  1.00  0.00     0.183 C 
HETATM    5  C17 UNL     1      -4.600  -5.030   8.479  1.00  0.00     0.180 C 
HETATM    6  C18 UNL     1      -4.800  -6.275   7.723  1.00  0.00     0.184 C 
ENDROOT
BRANCH   4   7
HETATM    7  O1  UNL     1      -6.283  -3.546   9.242  1.00  0.00    -0.373 OA
BRANCH   7   8
HETATM    8  C5  UNL     1      -5.667  -2.823  10.234  1.00  0.00     0.158 C 
HETATM    9  C6  UNL     1      -6.092  -1.380  10.092  1.00  0.00     0.069 C 
HETATM   10  C7  UNL     1      -5.837  -0.577  11.329  1.00  0.00     0.150 C 
HETATM   11  O3  UNL     1      -6.612  -1.144  12.338  1.00  0.00    -0.351 OA
HETATM   12  C9  UNL     1      -6.174  -2.417  12.680  1.00  0.00     0.291 C 
HETATM   13  C16 UNL     1      -6.065  -3.378  11.555  1.00  0.00     0.202 C 
BRANCH  10  14
HETATM   14  C8  UNL     1      -4.380  -0.511  11.695  1.00  0.00     0.196 C 
BRANCH  14  15
HETATM   15  O2  UNL     1      -3.682  -0.129  10.540  1.00  0.00    -0.398 OA
ATOM     16  H2  UNL     1      -3.164  -0.877  10.267  1.00  0.00     0.209 HD
ENDBRANCH  14  15
ENDBRANCH  10  14
BRANCH  12  17
HETATM   17  O4  UNL     1      -7.104  -2.917  13.596  1.00  0.00    -0.353 OA
BRANCH  17  18
HETATM   18  C10 UNL     1      -6.769  -2.642  14.913  1.00  0.00     0.124 C 
HETATM   19  C11 UNL     1      -6.056  -3.896  15.438  1.00  0.00     0.032 C 
HETATM   20  C12 UNL     1      -6.814  -5.066  14.819  1.00  0.00     0.002 C 
HETATM   21  C13 UNL     1      -8.266  -5.060  15.150  1.00  0.00     0.000 C 
HETATM   22  C14 UNL     1      -8.929  -3.730  15.111  1.00  0.00     0.002 C 
HETATM   23  C15 UNL     1      -8.095  -2.608  15.683  1.00  0.00     0.032 C 
ENDBRANCH  17  18
ENDBRANCH  12  17
BRANCH  13  24
HETATM   24  O5  UNL     1      -5.175  -4.403  11.950  1.00  0.00    -0.388 OA
ATOM     25  H5  UNL     1      -5.293  -4.610  12.871  1.00  0.00     0.210 HD
ENDBRANCH  13  24
ENDBRANCH   7   8
ENDBRANCH   4   7
BRANCH   3  26
HETATM   26  N2  UNL     1      -6.354  -2.648   6.265  1.00  0.00    -0.072 N 
ATOM     27  H23 UNL     1      -6.724  -2.737   5.318  1.00  0.00     0.274 HD
ATOM     28  H22 UNL     1      -7.072  -2.036   6.652  1.00  0.00     0.274 HD
ATOM     29  H21 UNL     1      -5.434  -2.206   6.272  1.00  0.00     0.274 HD
ENDBRANCH   3  26
BRANCH   5  30
HETATM   30  O6  UNL     1      -3.244  -4.648   8.314  1.00  0.00    -0.390 OA
ATOM     31  H6  UNL     1      -2.706  -5.378   8.599  1.00  0.00     0.210 HD
ENDBRANCH   5  30
BRANCH   6  32
HETATM   32  O7  UNL     1      -4.892  -7.352   8.606  1.00  0.00    -0.369 OA
BRANCH  32  33
HETATM   33  C19 UNL     1      -4.820  -6.983   9.929  1.00  0.00     0.262 C 
BRANCH  33  34
HETATM   34  C20 UNL     1      -4.647  -8.193  10.729  1.00  0.00    -0.078 C 
HETATM   35  C21 UNL     1      -4.497  -9.202  11.374  1.00  0.00    -0.079 C 
BRANCH  35  36
HETATM   36  C22 UNL     1      -4.326 -10.434  12.143  1.00  0.00     0.257 C 
BRANCH  36  37
HETATM   37  O8  UNL     1      -5.052 -10.411  13.342  1.00  0.00    -0.389 OA
ATOM     38  H8  UNL     1      -4.961 -11.221  13.829  1.00  0.00     0.210 HD
ENDBRANCH  36  37
ENDBRANCH  35  36
ENDBRANCH  33  34
ENDBRANCH  32  33
ENDBRANCH   6  32
BRANCH   1  39
HETATM   39  N1  UNL     1      -7.188  -6.365   7.626  1.00  0.00    -0.072 N 
ATOM     40  H13 UNL     1      -7.195  -5.622   8.325  1.00  0.00     0.274 HD
ATOM     41  H12 UNL     1      -8.012  -6.086   7.092  1.00  0.00     0.274 HD
ATOM     42  H11 UNL     1      -7.313  -7.283   8.055  1.00  0.00     0.274 HD
ENDBRANCH   1  39
TORSDOF 15
ENDMDL
MODEL 5
REMARK VINA RESULT: -6.472547146      2.258      3.774
REMARK  15 active torsions:
REMARK  status: ('A' for Active; 'I' for Inactive)
REMARK    1  A    between atoms: N1_1  and  C1_5 
REMARK    2  A    between atoms: C3_7  and  N2_8 
REMARK    3  A    between atoms: C4_12  and  O1_13 
REMARK    4  A    between atoms: O1_13  and  C5_14 
REMARK    5  A    between atoms: C7_16  and  C8_17 
REMARK    6  A    between atoms: C8_17  and  O2_18 
REMARK    7  A    between atoms: C9_21  and  O4_22 
REMARK    8  A    between atoms: O4_22  and  C10_23 
REMARK    9  A    between atoms: C16_29  and  O5_30 
REMARK   10  A    between atoms: C17_32  and  O6_33 
REMARK   11  A    between atoms: C18_35  and  O7_36 
REMARK   12  A    between atoms: O7_36  and  C19_37 
REMARK   13  A    between atoms: C19_37  and  C20_38 
REMARK   14  A    between atoms: C21_39  and  C22_40 
REMARK   15  A    between atoms: C22_40  and  O8_41 
ROOT
HETATM    1  C1  UNL     1      -1.846  -2.719   6.731  1.00  0.00     0.217 C 
HETATM    2  C2  UNL     1      -2.761  -3.550   5.820  1.00  0.00     0.071 C 
HETATM    3  C3  UNL     1      -3.373  -4.583   6.741  1.00  0.00     0.217 C 
HETATM    4  C4  UNL     1      -4.108  -4.028   7.900  1.00  0.00     0.183 C 
HETATM    5  C17 UNL     1      -3.851  -2.612   8.262  1.00  0.00     0.180 C 
HETATM    6  C18 UNL     1      -2.766  -1.890   7.581  1.00  0.00     0.184 C 
ENDROOT
BRANCH   4   7
HETATM    7  O1  UNL     1      -3.815  -4.863   9.002  1.00  0.00    -0.373 OA
BRANCH   7   8
HETATM    8  C5  UNL     1      -4.913  -5.509   9.514  1.00  0.00     0.158 C 
HETATM    9  C6  UNL     1      -4.476  -6.881   9.971  1.00  0.00     0.069 C 
HETATM   10  C7  UNL     1      -5.453  -7.516  10.910  1.00  0.00     0.150 C 
HETATM   11  O3  UNL     1      -5.512  -6.700  12.036  1.00  0.00    -0.351 OA
HETATM   12  C9  UNL     1      -6.085  -5.465  11.757  1.00  0.00     0.291 C 
HETATM   13  C16 UNL     1      -5.461  -4.709  10.643  1.00  0.00     0.202 C 
BRANCH  10  14
HETATM   14  C8  UNL     1      -6.806  -7.734  10.290  1.00  0.00     0.196 C 
BRANCH  14  15
HETATM   15  O2  UNL     1      -7.527  -8.568  11.156  1.00  0.00    -0.398 OA
ATOM     16  H2  UNL     1      -7.881  -8.017  11.845  1.00  0.00     0.209 HD
ENDBRANCH  14  15
ENDBRANCH  10  14
BRANCH  12  17
HETATM   17  O4  UNL     1      -5.964  -4.706  12.925  1.00  0.00    -0.353 OA
BRANCH  17  18
HETATM   18  C10 UNL     1      -6.890  -3.678  13.001  1.00  0.00     0.124 C 
HETATM   19  C11 UNL     1      -6.342  -2.694  14.045  1.00  0.00     0.032 C 
HETATM   20  C12 UNL     1      -5.729  -3.574  15.130  1.00  0.00     0.002 C 
HETATM   21  C13 UNL     1      -6.699  -4.538  15.716  1.00  0.00     0.000 C 
HETATM   22  C14 UNL     1      -7.614  -5.199  14.747  1.00  0.00     0.002 C 
HETATM   23  C15 UNL     1      -8.133  -4.283  13.665  1.00  0.00     0.032 C 
ENDBRANCH  17  18
ENDBRANCH  12  17
BRANCH  13  24
HETATM   24  O5  UNL     1      -6.411  -3.775  10.173  1.00  0.00    -0.388 OA
ATOM     25  H5  UNL     1      -6.816  -4.085   9.371  1.00  0.00     0.210 HD
ENDBRANCH  13  24
ENDBRANCH   7   8
ENDBRANCH   4   7
BRANCH   3  26
HETATM   26  N2  UNL     1      -4.230  -5.496   5.985  1.00  0.00    -0.072 N 
ATOM     27  H23 UNL     1      -5.160  -5.572   6.396  1.00  0.00     0.274 HD
ATOM     28  H22 UNL     1      -4.496  -5.108   5.080  1.00  0.00     0.274 HD
ATOM     29  H21 UNL     1      -3.782  -6.408   5.891  1.00  0.00     0.274 HD
ENDBRANCH   3  26
BRANCH   5  30
HETATM   30  O6  UNL     1      -5.050  -1.889   8.031  1.00  0.00    -0.390 OA
ATOM     31  H6  UNL     1      -5.666  -2.132   8.712  1.00  0.00     0.210 HD
ENDBRANCH   5  30
BRANCH   6  32
HETATM   32  O7  UNL     1      -1.979  -1.226   8.523  1.00  0.00    -0.369 OA
BRANCH  32  33
HETATM   33  C19 UNL     1      -2.215   0.128   8.577  1.00  0.00     0.262 C 
BRANCH  33  34
HETATM   34  C20 UNL     1      -2.467   0.490   9.969  1.00  0.00    -0.078 C 
HETATM   35  C21 UNL     1      -2.695   0.791  11.115  1.00  0.00    -0.079 C 
BRANCH  35  36
HETATM   36  C22 UNL     1      -2.979   1.172  12.499  1.00  0.00     0.257 C 
BRANCH  36  37
HETATM   37  O8  UNL     1      -1.881   0.951  13.341  1.00  0.00    -0.389 OA
ATOM     38  H8  UNL     1      -1.060   1.187  12.927  1.00  0.00     0.210 HD
ENDBRANCH  36  37
ENDBRANCH  35  36
ENDBRANCH  33  34
ENDBRANCH  32  33
ENDBRANCH   6  32
BRANCH   1  39
HETATM   39  N1  UNL     1      -1.052  -3.559   7.572  1.00  0.00    -0.072 N 
ATOM     40  H13 UNL     1      -0.259  -3.053   7.965  1.00  0.00     0.274 HD
ATOM     41  H12 UNL     1      -1.538  -3.788   8.440  1.00  0.00     0.274 HD
ATOM     42  H11 UNL     1      -0.752  -4.399   7.077  1.00  0.00     0.274 HD
ENDBRANCH   1  39
TORSDOF 15
ENDMDL
