MODEL 1
REMARK VINA RESULT: -6.872081967      0.000      0.000
REMARK  11 active torsions:
REMARK  status: ('A' for Active; 'I' for Inactive)
REMARK    1  A    between atoms: C4_4  and  C5_5 
REMARK    2  A    between atoms: C5_5  and  S1_8 
REMARK    3  A    between atoms: S1_8  and  N1_11 
REMARK    4  A    between atoms: N1_11  and  C6_13 
REMARK    5  A    between atoms: C6_13  and  C7_14 
REMARK    6  A    between atoms: C7_14  and  N2_15 
REMARK    7  A    between atoms: C10_18  and  C11_19 
REMARK    8  A    between atoms: C11_19  and  C12_20 
REMARK    9  A    between atoms: C12_20  and  C13_21 
REMARK   10  A    between atoms: C13_21  and  C14_22 
REMARK   11  A    between atoms: C14_22  and  C15_23 
ROOT
HETATM    1  N1  UNL     1      43.507  20.219  35.479  1.00  0.00    -0.309 N 
ATOM      2  H1  UNL     1      43.597  19.216  35.314  1.00  0.00     0.172 HD
ENDROOT
BRANCH   1   3
HETATM    3  S1  UNL     1      44.671  21.426  34.989  1.00  0.00     0.300 S 
HETATM    4  O1  UNL     1      43.908  22.745  34.954  1.00  0.00    -0.199 OA
HETATM    5  O2  UNL     1      45.693  21.592  36.088  1.00  0.00    -0.199 OA
BRANCH   3   6
HETATM    6  C5  UNL     1      45.426  21.102  33.437  1.00  0.00     0.388 C 
HETATM    7  F1  UNL     1      45.017  19.904  32.931  1.00  0.00    -0.181 F 
HETATM    8  F2  UNL     1      46.834  21.092  33.630  1.00  0.00    -0.181 F 
BRANCH   6   9
HETATM    9  C4  UNL     1      45.123  22.143  32.402  1.00  0.00     0.032 A 
HETATM   10  C3  UNL     1      45.994  23.206  32.248  1.00  0.00     0.021 A 
HETATM   11  C2  UNL     1      45.791  24.209  31.335  1.00  0.00    -0.054 A 
HETATM   12  C1  UNL     1      46.712  25.323  31.185  1.00  0.00     0.049 C 
HETATM   13  C20 UNL     1      44.667  24.129  30.555  1.00  0.00    -0.039 A 
HETATM   14  C19 UNL     1      43.771  23.082  30.682  1.00  0.00     0.018 A 
HETATM   15  C21 UNL     1      44.402  25.172  29.563  1.00  0.00     0.050 C 
HETATM   16  C18 UNL     1      44.011  22.069  31.632  1.00  0.00     0.034 A 
HETATM   17 BR1  UNL     1      42.238  22.966  29.595  1.00  0.00    -0.051 Br
ENDBRANCH   6   9
ENDBRANCH   3   6
ENDBRANCH   1   3
BRANCH   1  18
HETATM   18  C6  UNL     1      42.421  20.841  36.138  1.00  0.00     0.176 C 
BRANCH  18  19
HETATM   19  C7  UNL     1      41.150  20.138  36.337  1.00  0.00     0.078 C 
BRANCH  19  20
HETATM   20  N2  UNL     1      40.896  19.271  37.365  1.00  0.00    -0.392 N 
HETATM   21  C8  UNL     1      41.459  19.560  38.667  1.00  0.00     0.122 C 
HETATM   22  C9  UNL     1      41.900  18.160  39.183  1.00  0.00     0.024 C 
HETATM   23  C10 UNL     1      40.707  17.243  39.311  1.00  0.00    -0.012 C 
HETATM   24  C16 UNL     1      39.646  17.446  38.289  1.00  0.00     0.024 C 
HETATM   25  C17 UNL     1      39.580  18.771  37.597  1.00  0.00     0.122 C 
BRANCH  23  26
HETATM   26  C11 UNL     1      41.256  15.811  39.139  1.00  0.00     0.005 C 
BRANCH  26  27
HETATM   27  C12 UNL     1      42.608  15.720  39.801  1.00  0.00     0.001 C 
BRANCH  27  28
HETATM   28  C13 UNL     1      43.533  14.832  39.012  1.00  0.00     0.007 C 
BRANCH  28  29
HETATM   29  C14 UNL     1      43.325  15.036  37.549  1.00  0.00     0.072 C 
BRANCH  29  30
HETATM   30  C15 UNL     1      44.412  15.970  37.080  1.00  0.00     0.086 C 
HETATM   31  N3  UNL     1      45.646  15.641  37.191  1.00  0.00    -0.391 N 
ATOM     32  H32 UNL     1      45.943  14.748  37.585  1.00  0.00     0.157 HD
ATOM     33  H31 UNL     1      46.381  16.272  36.874  1.00  0.00     0.157 HD
HETATM   34  N4  UNL     1      44.001  17.207  36.535  1.00  0.00    -0.088 NA
ENDBRANCH  29  30
ENDBRANCH  28  29
ENDBRANCH  27  28
ENDBRANCH  26  27
ENDBRANCH  23  26
ENDBRANCH  19  20
ENDBRANCH  18  19
ENDBRANCH   1  18
TORSDOF 11
ENDMDL
MODEL 2
REMARK VINA RESULT: -6.794994822      6.644      9.889
REMARK  11 active torsions:
REMARK  status: ('A' for Active; 'I' for Inactive)
REMARK    1  A    between atoms: C4_4  and  C5_5 
REMARK    2  A    between atoms: C5_5  and  S1_8 
REMARK    3  A    between atoms: S1_8  and  N1_11 
REMARK    4  A    between atoms: N1_11  and  C6_13 
REMARK    5  A    between atoms: C6_13  and  C7_14 
REMARK    6  A    between atoms: C7_14  and  N2_15 
REMARK    7  A    between atoms: C10_18  and  C11_19 
REMARK    8  A    between atoms: C11_19  and  C12_20 
REMARK    9  A    between atoms: C12_20  and  C13_21 
REMARK   10  A    between atoms: C13_21  and  C14_22 
REMARK   11  A    between atoms: C14_22  and  C15_23 
ROOT
HETATM    1  N1  UNL     1      38.755  17.748  36.283  1.00  0.00    -0.309 N 
ATOM      2  H1  UNL     1      39.192  16.894  35.938  1.00  0.00     0.172 HD
ENDROOT
BRANCH   1   3
HETATM    3  S1  UNL     1      37.230  17.823  37.134  1.00  0.00     0.300 S 
HETATM    4  O1  UNL     1      36.307  18.656  36.253  1.00  0.00    -0.199 OA
HETATM    5  O2  UNL     1      36.616  16.444  37.155  1.00  0.00    -0.199 OA
BRANCH   3   6
HETATM    6  C5  UNL     1      37.345  18.513  38.744  1.00  0.00     0.388 C 
HETATM    7  F1  UNL     1      37.420  19.873  38.693  1.00  0.00    -0.181 F 
HETATM    8  F2  UNL     1      38.510  17.985  39.364  1.00  0.00    -0.181 F 
BRANCH   6   9
HETATM    9  C4  UNL     1      36.177  18.170  39.620  1.00  0.00     0.032 A 
HETATM   10  C3  UNL     1      36.413  17.589  40.852  1.00  0.00     0.021 A 
HETATM   11  C2  UNL     1      35.407  17.232  41.713  1.00  0.00    -0.054 A 
HETATM   12  C1  UNL     1      35.668  16.619  43.004  1.00  0.00     0.049 C 
HETATM   13  C20 UNL     1      34.120  17.474  41.307  1.00  0.00    -0.039 A 
HETATM   14  C19 UNL     1      33.844  18.051  40.080  1.00  0.00     0.018 A 
HETATM   15  C21 UNL     1      33.007  17.114  42.188  1.00  0.00     0.050 C 
HETATM   16  C18 UNL     1      34.904  18.404  39.221  1.00  0.00     0.034 A 
HETATM   17 BR1  UNL     1      32.076  18.398  39.535  1.00  0.00    -0.051 Br
ENDBRANCH   6   9
ENDBRANCH   3   6
ENDBRANCH   1   3
BRANCH   1  18
HETATM   18  C6  UNL     1      39.290  19.049  36.145  1.00  0.00     0.176 C 
BRANCH  18  19
HETATM   19  C7  UNL     1      40.481  19.463  36.895  1.00  0.00     0.078 C 
BRANCH  19  20
HETATM   20  N2  UNL     1      41.255  18.621  37.646  1.00  0.00    -0.392 N 
HETATM   21  C8  UNL     1      42.439  18.047  37.043  1.00  0.00     0.122 C 
HETATM   22  C9  UNL     1      42.439  16.586  37.577  1.00  0.00     0.024 C 
HETATM   23  C10 UNL     1      42.551  16.572  39.083  1.00  0.00    -0.012 C 
HETATM   24  C16 UNL     1      41.871  17.701  39.773  1.00  0.00     0.024 C 
HETATM   25  C17 UNL     1      41.606  18.948  38.990  1.00  0.00     0.122 C 
BRANCH  23  26
HETATM   26  C11 UNL     1      41.874  15.265  39.544  1.00  0.00     0.005 C 
BRANCH  26  27
HETATM   27  C12 UNL     1      40.758  14.925  38.588  1.00  0.00     0.001 C 
BRANCH  27  28
HETATM   28  C13 UNL     1      39.440  14.842  39.310  1.00  0.00     0.007 C 
BRANCH  28  29
HETATM   29  C14 UNL     1      38.645  13.683  38.807  1.00  0.00     0.072 C 
BRANCH  29  30
HETATM   30  C15 UNL     1      38.793  12.579  39.826  1.00  0.00     0.086 C 
HETATM   31  N3  UNL     1      38.509  11.368  39.518  1.00  0.00    -0.391 N 
ATOM     32  H32 UNL     1      38.186  11.098  38.589  1.00  0.00     0.157 HD
ATOM     33  H31 UNL     1      38.610  10.622  40.206  1.00  0.00     0.157 HD
HETATM   34  N4  UNL     1      39.240  12.953  41.113  1.00  0.00    -0.088 NA
ENDBRANCH  29  30
ENDBRANCH  28  29
ENDBRANCH  27  28
ENDBRANCH  26  27
ENDBRANCH  23  26
ENDBRANCH  19  20
ENDBRANCH  18  19
ENDBRANCH   1  18
TORSDOF 11
ENDMDL
MODEL 3
REMARK VINA RESULT: -6.768212295      4.891      7.254
REMARK  11 active torsions:
REMARK  status: ('A' for Active; 'I' for Inactive)
REMARK    1  A    between atoms: C4_4  and  C5_5 
REMARK    2  A    between atoms: C5_5  and  S1_8 
REMARK    3  A    between atoms: S1_8  and  N1_11 
REMARK    4  A    between atoms: N1_11  and  C6_13 
REMARK    5  A    between atoms: C6_13  and  C7_14 
REMARK    6  A    between atoms: C7_14  and  N2_15 
REMARK    7  A    between atoms: C10_18  and  C11_19 
REMARK    8  A    between atoms: C11_19  and  C12_20 
REMARK    9  A    between atoms: C12_20  and  C13_21 
REMARK   10  A    between atoms: C13_21  and  C14_22 
REMARK   11  A    between atoms: C14_22  and  C15_23 
ROOT
HETATM    1  N1  UNL     1      41.625  20.302  35.813  1.00  0.00    -0.309 N 
ATOM      2  H1  UNL     1      40.920  19.979  35.151  1.00  0.00     0.172 HD
ENDROOT
BRANCH   1   3
HETATM    3  S1  UNL     1      41.551  21.801  36.708  1.00  0.00     0.300 S 
HETATM    4  O1  UNL     1      42.276  21.533  38.022  1.00  0.00    -0.199 OA
HETATM    5  O2  UNL     1      42.392  22.834  35.998  1.00  0.00    -0.199 OA
BRANCH   3   6
HETATM    6  C5  UNL     1      39.919  22.376  37.004  1.00  0.00     0.388 C 
HETATM    7  F1  UNL     1      39.556  23.320  36.090  1.00  0.00    -0.181 F 
HETATM    8  F2  UNL     1      39.880  22.927  38.314  1.00  0.00    -0.181 F 
BRANCH   6   9
HETATM    9  C4  UNL     1      38.889  21.288  36.946  1.00  0.00     0.032 A 
HETATM   10  C3  UNL     1      38.115  21.160  35.807  1.00  0.00     0.021 A 
HETATM   11  C2  UNL     1      37.143  20.203  35.670  1.00  0.00    -0.054 A 
HETATM   12  C1  UNL     1      36.333  20.080  34.469  1.00  0.00     0.049 C 
HETATM   13  C20 UNL     1      36.952  19.349  36.725  1.00  0.00    -0.039 A 
HETATM   14  C19 UNL     1      37.704  19.447  37.882  1.00  0.00     0.018 A 
HETATM   15  C21 UNL     1      35.927  18.306  36.631  1.00  0.00     0.050 C 
HETATM   16  C18 UNL     1      38.694  20.444  37.987  1.00  0.00     0.034 A 
HETATM   17 BR1  UNL     1      37.451  18.260  39.321  1.00  0.00    -0.051 Br
ENDBRANCH   6   9
ENDBRANCH   3   6
ENDBRANCH   1   3
BRANCH   1  18
HETATM   18  C6  UNL     1      42.810  19.605  36.146  1.00  0.00     0.176 C 
BRANCH  18  19
HETATM   19  C7  UNL     1      42.828  18.142  36.242  1.00  0.00     0.078 C 
BRANCH  19  20
HETATM   20  N2  UNL     1      42.392  17.431  37.327  1.00  0.00    -0.392 N 
HETATM   21  C8  UNL     1      43.105  16.227  37.696  1.00  0.00     0.122 C 
HETATM   22  C9  UNL     1      41.966  15.248  38.101  1.00  0.00     0.024 C 
HETATM   23  C10 UNL     1      41.196  15.792  39.281  1.00  0.00    -0.012 C 
HETATM   24  C16 UNL     1      41.060  17.272  39.314  1.00  0.00     0.024 C 
HETATM   25  C17 UNL     1      42.053  18.088  38.548  1.00  0.00     0.122 C 
BRANCH  23  26
HETATM   26  C11 UNL     1      39.779  15.192  39.172  1.00  0.00     0.005 C 
BRANCH  26  27
HETATM   27  C12 UNL     1      39.886  13.691  39.082  1.00  0.00     0.001 C 
BRANCH  27  28
HETATM   28  C13 UNL     1      39.310  13.037  40.310  1.00  0.00     0.007 C 
BRANCH  28  29
HETATM   29  C14 UNL     1      37.985  13.636  40.643  1.00  0.00     0.072 C 
BRANCH  29  30
HETATM   30  C15 UNL     1      37.369  12.765  41.711  1.00  0.00     0.086 C 
HETATM   31  N3  UNL     1      37.081  11.541  41.465  1.00  0.00    -0.391 N 
ATOM     32  H32 UNL     1      37.259  11.105  40.560  1.00  0.00     0.157 HD
ATOM     33  H31 UNL     1      36.666  10.952  42.187  1.00  0.00     0.157 HD
HETATM   34  N4  UNL     1      37.123  13.369  42.964  1.00  0.00    -0.088 NA
ENDBRANCH  29  30
ENDBRANCH  28  29
ENDBRANCH  27  28
ENDBRANCH  26  27
ENDBRANCH  23  26
ENDBRANCH  19  20
ENDBRANCH  18  19
ENDBRANCH   1  18
TORSDOF 11
ENDMDL
MODEL 4
REMARK VINA RESULT: -6.699310222      7.358     11.639
REMARK  11 active torsions:
REMARK  status: ('A' for Active; 'I' for Inactive)
REMARK    1  A    between atoms: C4_4  and  C5_5 
REMARK    2  A    between atoms: C5_5  and  S1_8 
REMARK    3  A    between atoms: S1_8  and  N1_11 
REMARK    4  A    between atoms: N1_11  and  C6_13 
REMARK    5  A    between atoms: C6_13  and  C7_14 
REMARK    6  A    between atoms: C7_14  and  N2_15 
REMARK    7  A    between atoms: C10_18  and  C11_19 
REMARK    8  A    between atoms: C11_19  and  C12_20 
REMARK    9  A    between atoms: C12_20  and  C13_21 
REMARK   10  A    between atoms: C13_21  and  C14_22 
REMARK   11  A    between atoms: C14_22  and  C15_23 
ROOT
HETATM    1  N1  UNL     1      35.527  19.024  37.794  1.00  0.00    -0.309 N 
ATOM      2  H1  UNL     1      35.689  20.029  37.860  1.00  0.00     0.172 HD
ENDROOT
BRANCH   1   3
HETATM    3  S1  UNL     1      34.549  18.089  38.899  1.00  0.00     0.300 S 
HETATM    4  O1  UNL     1      33.160  18.715  38.852  1.00  0.00    -0.199 OA
HETATM    5  O2  UNL     1      34.372  16.698  38.336  1.00  0.00    -0.199 OA
BRANCH   3   6
HETATM    6  C5  UNL     1      35.162  18.056  40.544  1.00  0.00     0.388 C 
HETATM    7  F1  UNL     1      34.665  19.092  41.276  1.00  0.00    -0.181 F 
HETATM    8  F2  UNL     1      36.580  18.140  40.483  1.00  0.00    -0.181 F 
BRANCH   6   9
HETATM    9  C4  UNL     1      34.820  16.794  41.278  1.00  0.00     0.032 A 
HETATM   10  C3  UNL     1      33.519  16.600  41.703  1.00  0.00     0.021 A 
HETATM   11  C2  UNL     1      33.118  15.483  42.390  1.00  0.00    -0.054 A 
HETATM   12  C1  UNL     1      31.747  15.292  42.835  1.00  0.00     0.049 C 
HETATM   13  C20 UNL     1      34.071  14.534  42.653  1.00  0.00    -0.039 A 
HETATM   14  C19 UNL     1      35.384  14.693  42.245  1.00  0.00     0.018 A 
HETATM   15  C21 UNL     1      33.697  13.320  43.382  1.00  0.00     0.050 C 
HETATM   16  C18 UNL     1      35.760  15.855  41.542  1.00  0.00     0.034 A 
HETATM   17 BR1  UNL     1      36.685  13.378  42.592  1.00  0.00    -0.051 Br
ENDBRANCH   6   9
ENDBRANCH   3   6
ENDBRANCH   1   3
BRANCH   1  18
HETATM   18  C6  UNL     1      36.060  18.178  36.794  1.00  0.00     0.176 C 
BRANCH  18  19
HETATM   19  C7  UNL     1      37.492  18.185  36.479  1.00  0.00     0.078 C 
BRANCH  19  20
HETATM   20  N2  UNL     1      38.412  17.339  37.038  1.00  0.00    -0.392 N 
HETATM   21  C8  UNL     1      37.973  16.428  38.072  1.00  0.00     0.122 C 
HETATM   22  C9  UNL     1      39.150  16.450  39.090  1.00  0.00     0.024 C 
HETATM   23  C10 UNL     1      40.418  15.948  38.443  1.00  0.00    -0.012 C 
HETATM   24  C16 UNL     1      40.568  16.292  37.003  1.00  0.00     0.024 C 
HETATM   25  C17 UNL     1      39.332  16.612  36.224  1.00  0.00     0.122 C 
BRANCH  23  26
HETATM   26  C11 UNL     1      41.577  16.621  39.208  1.00  0.00     0.005 C 
BRANCH  26  27
HETATM   27  C12 UNL     1      41.175  18.028  39.570  1.00  0.00     0.001 C 
BRANCH  27  28
HETATM   28  C13 UNL     1      41.794  19.023  38.625  1.00  0.00     0.007 C 
BRANCH  28  29
HETATM   29  C14 UNL     1      40.791  20.054  38.227  1.00  0.00     0.072 C 
BRANCH  29  30
HETATM   30  C15 UNL     1      41.566  21.294  37.856  1.00  0.00     0.086 C 
HETATM   31  N3  UNL     1      41.249  22.433  38.352  1.00  0.00    -0.391 N 
ATOM     32  H32 UNL     1      40.482  22.549  39.013  1.00  0.00     0.157 HD
ATOM     33  H31 UNL     1      41.774  23.271  38.102  1.00  0.00     0.157 HD
HETATM   34  N4  UNL     1      42.630  21.132  36.940  1.00  0.00    -0.088 NA
ENDBRANCH  29  30
ENDBRANCH  28  29
ENDBRANCH  27  28
ENDBRANCH  26  27
ENDBRANCH  23  26
ENDBRANCH  19  20
ENDBRANCH  18  19
ENDBRANCH   1  18
TORSDOF 11
ENDMDL
MODEL 5
REMARK VINA RESULT: -6.595946458      6.265      9.170
REMARK  11 active torsions:
REMARK  status: ('A' for Active; 'I' for Inactive)
REMARK    1  A    between atoms: C4_4  and  C5_5 
REMARK    2  A    between atoms: C5_5  and  S1_8 
REMARK    3  A    between atoms: S1_8  and  N1_11 
REMARK    4  A    between atoms: N1_11  and  C6_13 
REMARK    5  A    between atoms: C6_13  and  C7_14 
REMARK    6  A    between atoms: C7_14  and  N2_15 
REMARK    7  A    between atoms: C10_18  and  C11_19 
REMARK    8  A    between atoms: C11_19  and  C12_20 
REMARK    9  A    between atoms: C12_20  and  C13_21 
REMARK   10  A    between atoms: C13_21  and  C14_22 
REMARK   11  A    between atoms: C14_22  and  C15_23 
ROOT
HETATM    1  N1  UNL     1      41.042  14.075  39.841  1.00  0.00    -0.309 N 
ATOM      2  H1  UNL     1      41.508  13.859  40.722  1.00  0.00     0.172 HD
ENDROOT
BRANCH   1   3
HETATM    3  S1  UNL     1      41.777  14.909  38.493  1.00  0.00     0.300 S 
HETATM    4  O1  UNL     1      42.877  13.984  37.987  1.00  0.00    -0.199 OA
HETATM    5  O2  UNL     1      40.777  14.986  37.364  1.00  0.00    -0.199 OA
BRANCH   3   6
HETATM    6  C5  UNL     1      42.429  16.488  38.900  1.00  0.00     0.388 C 
HETATM    7  F1  UNL     1      43.554  16.757  38.178  1.00  0.00    -0.181 F 
HETATM    8  F2  UNL     1      42.731  16.491  40.289  1.00  0.00    -0.181 F 
BRANCH   6   9
HETATM    9  C4  UNL     1      41.466  17.608  38.648  1.00  0.00     0.032 A 
HETATM   10  C3  UNL     1      40.151  17.463  39.051  1.00  0.00     0.021 A 
HETATM   11  C2  UNL     1      39.199  18.430  38.853  1.00  0.00    -0.054 A 
HETATM   12  C1  UNL     1      37.819  18.264  39.279  1.00  0.00     0.049 C 
HETATM   13  C20 UNL     1      39.597  19.581  38.224  1.00  0.00    -0.039 A 
HETATM   14  C19 UNL     1      40.903  19.762  37.803  1.00  0.00     0.018 A 
HETATM   15  C21 UNL     1      38.622  20.647  37.988  1.00  0.00     0.050 C 
HETATM   16  C18 UNL     1      41.854  18.746  38.024  1.00  0.00     0.034 A 
HETATM   17 BR1  UNL     1      41.449  21.352  36.956  1.00  0.00    -0.051 Br
ENDBRANCH   6   9
ENDBRANCH   3   6
ENDBRANCH   1   3
BRANCH   1  18
HETATM   18  C6  UNL     1      39.703  13.745  39.526  1.00  0.00     0.176 C 
BRANCH  18  19
HETATM   19  C7  UNL     1      38.876  12.966  40.453  1.00  0.00     0.078 C 
BRANCH  19  20
HETATM   20  N2  UNL     1      37.676  13.386  40.960  1.00  0.00    -0.392 N 
HETATM   21  C8  UNL     1      36.606  13.695  40.036  1.00  0.00     0.122 C 
HETATM   22  C9  UNL     1      35.951  14.962  40.659  1.00  0.00     0.024 C 
HETATM   23  C10 UNL     1      35.396  14.651  42.029  1.00  0.00    -0.012 C 
HETATM   24  C16 UNL     1      36.178  13.657  42.812  1.00  0.00     0.024 C 
HETATM   25  C17 UNL     1      37.071  12.717  42.066  1.00  0.00     0.122 C 
BRANCH  23  26
HETATM   26  C11 UNL     1      35.419  15.984  42.806  1.00  0.00     0.005 C 
BRANCH  26  27
HETATM   27  C12 UNL     1      35.591  17.119  41.828  1.00  0.00     0.001 C 
BRANCH  27  28
HETATM   28  C13 UNL     1      34.316  17.908  41.692  1.00  0.00     0.007 C 
BRANCH  28  29
HETATM   29  C14 UNL     1      34.321  18.687  40.420  1.00  0.00     0.072 C 
BRANCH  29  30
HETATM   30  C15 UNL     1      33.244  18.096  39.544  1.00  0.00     0.086 C 
HETATM   31  N3  UNL     1      32.033  18.505  39.636  1.00  0.00    -0.391 N 
ATOM     32  H32 UNL     1      31.748  19.238  40.285  1.00  0.00     0.157 HD
ATOM     33  H31 UNL     1      31.305  18.106  39.043  1.00  0.00     0.157 HD
HETATM   34  N4  UNL     1      33.638  17.080  38.644  1.00  0.00    -0.088 NA
ENDBRANCH  29  30
ENDBRANCH  28  29
ENDBRANCH  27  28
ENDBRANCH  26  27
ENDBRANCH  23  26
ENDBRANCH  19  20
ENDBRANCH  18  19
ENDBRANCH   1  18
TORSDOF 11
ENDMDL
