MODEL 1
REMARK VINA RESULT: -6.026003129      0.000      0.000
REMARK  12 active torsions:
REMARK  status: ('A' for Active; 'I' for Inactive)
REMARK       I    between atoms: C1_4  and  N2_5 
REMARK       I    between atoms: C1_4  and  N5_24 
REMARK    1  A    between atoms: N2_5  and  C2_7 
REMARK    2  A    between atoms: C2_7  and  C3_8 
REMARK    3  A    between atoms: C3_8  and  C4_9 
REMARK    4  A    between atoms: C4_9  and  C5_10 
REMARK    5  A    between atoms: C5_10  and  N3_11 
REMARK    6  A    between atoms: N3_11  and  C6_12 
REMARK    7  A    between atoms: N5_24  and  C15_25 
REMARK    8  A    between atoms: N5_24  and  C17_28 
REMARK    9  A    between atoms: C15_25  and  C16_26 
REMARK   10  A    between atoms: C17_28  and  C18_29 
REMARK   11  A    between atoms: C18_29  and  C19_30 
REMARK   12  A    between atoms: C19_30  and  N6_31 
ROOT
HETATM    1  N1  UNL     1      35.736  18.951  37.821  1.00  0.00    -0.235 N 
ATOM      2  H11 UNL     1      35.135  18.148  37.638  1.00  0.00     0.174 HD
ATOM      3  H12 UNL     1      35.306  19.872  37.917  1.00  0.00     0.174 HD
HETATM    4  C1  UNL     1      37.001  18.842  37.929  1.00  0.00     0.669 C 
HETATM    5  N2  UNL     1      37.825  19.944  38.180  1.00  0.00    -0.227 N 
ATOM      6  H2  UNL     1      38.191  20.101  39.120  1.00  0.00     0.177 HD
HETATM    7  N5  UNL     1      37.600  17.562  37.795  1.00  0.00    -0.217 N 
ENDROOT
BRANCH   5   8
HETATM    8  C2  UNL     1      38.160  20.858  37.118  1.00  0.00     0.138 C 
BRANCH   8   9
HETATM    9  C3  UNL     1      39.276  21.787  37.565  1.00  0.00     0.026 C 
BRANCH   9  10
HETATM   10  C4  UNL     1      39.969  22.414  36.389  1.00  0.00     0.061 C 
BRANCH  10  11
HETATM   11  C5  UNL     1      41.490  22.241  36.652  1.00  0.00     0.155 C 
BRANCH  11  12
HETATM   12  N3  UNL     1      41.928  20.987  36.653  1.00  0.00    -0.421 NA
BRANCH  12  13
HETATM   13  C6  UNL     1      42.409  19.893  36.573  1.00  0.00     0.119 A 
HETATM   14  C7  UNL     1      43.195  19.445  35.497  1.00  0.00     0.062 A 
HETATM   15  C8  UNL     1      43.726  18.198  35.413  1.00  0.00     0.092 A 
HETATM   16  N4  UNL     1      43.494  17.338  36.412  1.00  0.00    -0.364 N 
HETATM   17  C9  UNL     1      42.758  17.702  37.460  1.00  0.00     0.067 A 
ATOM     18  H4  UNL     1      43.884  16.397  36.370  1.00  0.00     0.165 HD
HETATM   19  C10 UNL     1      42.571  16.739  38.449  1.00  0.00     0.061 A 
HETATM   20  C14 UNL     1      42.202  18.947  37.588  1.00  0.00     0.033 A 
HETATM   21 CL1  UNL     1      43.256  15.134  38.325  1.00  0.00    -0.082 Cl
HETATM   22  C11 UNL     1      41.811  17.076  39.560  1.00  0.00     0.026 A 
HETATM   23  C12 UNL     1      41.246  18.316  39.707  1.00  0.00     0.003 A 
HETATM   24  C13 UNL     1      41.450  19.240  38.714  1.00  0.00     0.017 A 
ENDBRANCH  12  13
ENDBRANCH  11  12
ENDBRANCH  10  11
ENDBRANCH   9  10
ENDBRANCH   8   9
ENDBRANCH   5   8
BRANCH   7  25
HETATM   25  C15 UNL     1      37.969  16.996  36.537  1.00  0.00     0.156 C 
BRANCH  25  26
HETATM   26  C16 UNL     1      39.415  17.163  36.169  1.00  0.00     0.135 C 
HETATM   27 CL2  UNL     1      39.547  18.455  34.955  1.00  0.00    -0.129 Cl
ENDBRANCH  25  26
ENDBRANCH   7  25
BRANCH   7  28
HETATM   28  C17 UNL     1      37.824  16.830  39.039  1.00  0.00     0.143 C 
BRANCH  28  29
HETATM   29  C18 UNL     1      37.273  15.418  38.782  1.00  0.00     0.050 C 
BRANCH  29  30
HETATM   30  C19 UNL     1      36.432  15.044  39.956  1.00  0.00     0.274 C 
BRANCH  30  31
HETATM   31  N6  UNL     1      35.660  16.155  40.415  1.00  0.00     0.089 N 
HETATM   32  C20 UNL     1      35.588  16.197  41.868  1.00  0.00     0.272 C 
HETATM   33  C21 UNL     1      34.727  17.341  42.301  1.00  0.00     0.032 C 
HETATM   34  C22 UNL     1      34.402  18.188  41.105  1.00  0.00     0.024 C 
HETATM   35  C23 UNL     1      33.600  17.389  40.126  1.00  0.00     0.110 C 
HETATM   36 CL3  UNL     1      31.995  17.021  40.800  1.00  0.00    -0.123 Cl
HETATM   37  C24 UNL     1      34.335  16.092  39.827  1.00  0.00     0.292 C 
ENDBRANCH  30  31
ENDBRANCH  29  30
ENDBRANCH  28  29
ENDBRANCH   7  28
TORSDOF 12
ENDMDL
MODEL 2
REMARK VINA RESULT: -5.985895916      3.609      7.640
REMARK  12 active torsions:
REMARK  status: ('A' for Active; 'I' for Inactive)
REMARK       I    between atoms: C1_4  and  N2_5 
REMARK       I    between atoms: C1_4  and  N5_24 
REMARK    1  A    between atoms: N2_5  and  C2_7 
REMARK    2  A    between atoms: C2_7  and  C3_8 
REMARK    3  A    between atoms: C3_8  and  C4_9 
REMARK    4  A    between atoms: C4_9  and  C5_10 
REMARK    5  A    between atoms: C5_10  and  N3_11 
REMARK    6  A    between atoms: N3_11  and  C6_12 
REMARK    7  A    between atoms: N5_24  and  C15_25 
REMARK    8  A    between atoms: N5_24  and  C17_28 
REMARK    9  A    between atoms: C15_25  and  C16_26 
REMARK   10  A    between atoms: C17_28  and  C18_29 
REMARK   11  A    between atoms: C18_29  and  C19_30 
REMARK   12  A    between atoms: C19_30  and  N6_31 
ROOT
HETATM    1  N1  UNL     1      38.121  20.792  38.209  1.00  0.00    -0.235 N 
ATOM      2  H11 UNL     1      37.452  21.552  38.088  1.00  0.00     0.174 HD
ATOM      3  H12 UNL     1      37.975  20.128  38.970  1.00  0.00     0.174 HD
HETATM    4  C1  UNL     1      39.131  20.647  37.445  1.00  0.00     0.669 C 
HETATM    5  N2  UNL     1      40.048  19.605  37.611  1.00  0.00    -0.227 N 
ATOM      6  H2  UNL     1      40.008  18.791  36.997  1.00  0.00     0.177 HD
HETATM    7  N5  UNL     1      39.335  21.570  36.385  1.00  0.00    -0.217 N 
ENDROOT
BRANCH   5   8
HETATM    8  C2  UNL     1      41.048  19.675  38.646  1.00  0.00     0.138 C 
BRANCH   8   9
HETATM    9  C3  UNL     1      41.097  18.363  39.411  1.00  0.00     0.026 C 
BRANCH   9  10
HETATM   10  C4  UNL     1      40.892  17.188  38.498  1.00  0.00     0.061 C 
BRANCH  10  11
HETATM   11  C5  UNL     1      39.753  16.348  39.136  1.00  0.00     0.155 C 
BRANCH  11  12
HETATM   12  N3  UNL     1      38.522  16.789  38.905  1.00  0.00    -0.421 NA
BRANCH  12  13
HETATM   13  C6  UNL     1      37.452  17.226  38.589  1.00  0.00     0.119 A 
HETATM   14  C7  UNL     1      37.088  17.561  37.273  1.00  0.00     0.062 A 
HETATM   15  C8  UNL     1      35.875  18.066  36.927  1.00  0.00     0.092 A 
HETATM   16  N4  UNL     1      34.967  18.256  37.891  1.00  0.00    -0.364 N 
HETATM   17  C9  UNL     1      35.250  17.957  39.157  1.00  0.00     0.067 A 
ATOM     18  H4  UNL     1      34.049  18.633  37.653  1.00  0.00     0.165 HD
HETATM   19  C10 UNL     1      34.242  18.190  40.089  1.00  0.00     0.061 A 
HETATM   20  C14 UNL     1      36.458  17.448  39.552  1.00  0.00     0.033 A 
HETATM   21 CL1  UNL     1      32.686  18.847  39.630  1.00  0.00    -0.082 Cl
HETATM   22  C11 UNL     1      34.494  17.892  41.419  1.00  0.00     0.026 A 
HETATM   23  C12 UNL     1      35.695  17.381  41.836  1.00  0.00     0.003 A 
HETATM   24  C13 UNL     1      36.667  17.164  40.892  1.00  0.00     0.017 A 
ENDBRANCH  12  13
ENDBRANCH  11  12
ENDBRANCH  10  11
ENDBRANCH   9  10
ENDBRANCH   8   9
ENDBRANCH   5   8
BRANCH   7  25
HETATM   25  C15 UNL     1      40.024  22.810  36.547  1.00  0.00     0.156 C 
BRANCH  25  26
HETATM   26  C16 UNL     1      40.400  23.145  37.960  1.00  0.00     0.135 C 
HETATM   27 CL2  UNL     1      40.351  24.912  38.158  1.00  0.00    -0.129 Cl
ENDBRANCH  25  26
ENDBRANCH   7  25
BRANCH   7  28
HETATM   28  C17 UNL     1      38.790  21.180  35.088  1.00  0.00     0.143 C 
BRANCH  28  29
HETATM   29  C18 UNL     1      37.348  21.713  35.078  1.00  0.00     0.050 C 
BRANCH  29  30
HETATM   30  C19 UNL     1      36.631  21.045  33.953  1.00  0.00     0.274 C 
BRANCH  30  31
HETATM   31  N6  UNL     1      36.161  21.999  32.999  1.00  0.00     0.089 N 
HETATM   32  C20 UNL     1      35.498  23.124  33.644  1.00  0.00     0.272 C 
HETATM   33  C21 UNL     1      34.976  24.068  32.607  1.00  0.00     0.032 C 
HETATM   34  C22 UNL     1      35.494  23.651  31.262  1.00  0.00     0.024 C 
HETATM   35  C23 UNL     1      34.966  22.294  30.917  1.00  0.00     0.110 C 
HETATM   36 CL3  UNL     1      33.206  22.364  30.661  1.00  0.00    -0.123 Cl
HETATM   37  C24 UNL     1      35.275  21.338  32.059  1.00  0.00     0.292 C 
ENDBRANCH  30  31
ENDBRANCH  29  30
ENDBRANCH  28  29
ENDBRANCH   7  28
TORSDOF 12
ENDMDL
MODEL 3
REMARK VINA RESULT: -5.735325036      1.536      1.761
REMARK  12 active torsions:
REMARK  status: ('A' for Active; 'I' for Inactive)
REMARK       I    between atoms: C1_4  and  N2_5 
REMARK       I    between atoms: C1_4  and  N5_24 
REMARK    1  A    between atoms: N2_5  and  C2_7 
REMARK    2  A    between atoms: C2_7  and  C3_8 
REMARK    3  A    between atoms: C3_8  and  C4_9 
REMARK    4  A    between atoms: C4_9  and  C5_10 
REMARK    5  A    between atoms: C5_10  and  N3_11 
REMARK    6  A    between atoms: N3_11  and  C6_12 
REMARK    7  A    between atoms: N5_24  and  C15_25 
REMARK    8  A    between atoms: N5_24  and  C17_28 
REMARK    9  A    between atoms: C15_25  and  C16_26 
REMARK   10  A    between atoms: C17_28  and  C18_29 
REMARK   11  A    between atoms: C18_29  and  C19_30 
REMARK   12  A    between atoms: C19_30  and  N6_31 
ROOT
HETATM    1  N1  UNL     1      36.207  20.009  36.898  1.00  0.00    -0.235 N 
ATOM      2  H11 UNL     1      35.494  19.279  36.860  1.00  0.00     0.174 HD
ATOM      3  H12 UNL     1      35.914  20.983  36.819  1.00  0.00     0.174 HD
HETATM    4  C1  UNL     1      37.445  19.742  37.039  1.00  0.00     0.669 C 
HETATM    5  N2  UNL     1      38.421  20.741  37.092  1.00  0.00    -0.227 N 
ATOM      6  H2  UNL     1      38.821  21.015  37.990  1.00  0.00     0.177 HD
HETATM    7  N5  UNL     1      37.853  18.386  37.149  1.00  0.00    -0.217 N 
ENDROOT
BRANCH   5   8
HETATM    8  C2  UNL     1      38.867  21.387  35.884  1.00  0.00     0.138 C 
BRANCH   8   9
HETATM    9  C3  UNL     1      39.749  22.576  36.224  1.00  0.00     0.026 C 
BRANCH   9  10
HETATM   10  C4  UNL     1      39.919  22.723  37.710  1.00  0.00     0.061 C 
BRANCH  10  11
HETATM   11  C5  UNL     1      41.412  22.411  37.998  1.00  0.00     0.155 C 
BRANCH  11  12
HETATM   12  N3  UNL     1      41.834  21.219  37.592  1.00  0.00    -0.421 NA
BRANCH  12  13
HETATM   13  C6  UNL     1      42.249  20.198  37.121  1.00  0.00     0.119 A 
HETATM   14  C7  UNL     1      42.847  20.092  35.853  1.00  0.00     0.062 A 
HETATM   15  C8  UNL     1      43.303  18.927  35.325  1.00  0.00     0.092 A 
HETATM   16  N4  UNL     1      43.182  17.809  36.051  1.00  0.00    -0.364 N 
HETATM   17  C9  UNL     1      42.626  17.843  37.259  1.00  0.00     0.067 A 
ATOM     18  H4  UNL     1      43.520  16.923  35.674  1.00  0.00     0.165 HD
HETATM   19  C10 UNL     1      42.543  16.630  37.938  1.00  0.00     0.061 A 
HETATM   20  C14 UNL     1      42.151  18.993  37.832  1.00  0.00     0.033 A 
HETATM   21 CL1  UNL     1      43.130  15.135  37.243  1.00  0.00    -0.082 Cl
HETATM   22  C11 UNL     1      41.971  16.620  39.202  1.00  0.00     0.026 A 
HETATM   23  C12 UNL     1      41.490  17.759  39.792  1.00  0.00     0.003 A 
HETATM   24  C13 UNL     1      41.587  18.938  39.096  1.00  0.00     0.017 A 
ENDBRANCH  12  13
ENDBRANCH  11  12
ENDBRANCH  10  11
ENDBRANCH   9  10
ENDBRANCH   8   9
ENDBRANCH   5   8
BRANCH   7  25
HETATM   25  C15 UNL     1      38.118  17.552  36.021  1.00  0.00     0.156 C 
BRANCH  25  26
HETATM   26  C16 UNL     1      39.510  17.657  35.471  1.00  0.00     0.135 C 
HETATM   27 CL2  UNL     1      40.174  16.018  35.285  1.00  0.00    -0.129 Cl
ENDBRANCH  25  26
ENDBRANCH   7  25
BRANCH   7  28
HETATM   28  C17 UNL     1      37.990  17.871  38.509  1.00  0.00     0.143 C 
BRANCH  28  29
HETATM   29  C18 UNL     1      37.054  16.653  38.576  1.00  0.00     0.050 C 
BRANCH  29  30
HETATM   30  C19 UNL     1      35.718  17.138  39.031  1.00  0.00     0.274 C 
BRANCH  30  31
HETATM   31  N6  UNL     1      35.356  16.557  40.284  1.00  0.00     0.089 N 
HETATM   32  C20 UNL     1      35.769  17.391  41.404  1.00  0.00     0.272 C 
HETATM   33  C21 UNL     1      35.419  16.719  42.694  1.00  0.00     0.032 C 
HETATM   34  C22 UNL     1      34.571  15.516  42.403  1.00  0.00     0.024 C 
HETATM   35  C23 UNL     1      35.357  14.527  41.601  1.00  0.00     0.110 C 
HETATM   36 CL3  UNL     1      36.682  13.854  42.579  1.00  0.00    -0.123 Cl
HETATM   37  C24 UNL     1      35.934  15.229  40.380  1.00  0.00     0.292 C 
ENDBRANCH  30  31
ENDBRANCH  29  30
ENDBRANCH  28  29
ENDBRANCH   7  28
TORSDOF 12
ENDMDL
MODEL 4
REMARK VINA RESULT: -5.689983380      2.091      3.036
REMARK  12 active torsions:
REMARK  status: ('A' for Active; 'I' for Inactive)
REMARK       I    between atoms: C1_4  and  N2_5 
REMARK       I    between atoms: C1_4  and  N5_24 
REMARK    1  A    between atoms: N2_5  and  C2_7 
REMARK    2  A    between atoms: C2_7  and  C3_8 
REMARK    3  A    between atoms: C3_8  and  C4_9 
REMARK    4  A    between atoms: C4_9  and  C5_10 
REMARK    5  A    between atoms: C5_10  and  N3_11 
REMARK    6  A    between atoms: N3_11  and  C6_12 
REMARK    7  A    between atoms: N5_24  and  C15_25 
REMARK    8  A    between atoms: N5_24  and  C17_28 
REMARK    9  A    between atoms: C15_25  and  C16_26 
REMARK   10  A    between atoms: C17_28  and  C18_29 
REMARK   11  A    between atoms: C18_29  and  C19_30 
REMARK   12  A    between atoms: C19_30  and  N6_31 
ROOT
HETATM    1  N1  UNL     1      35.943  22.053  34.386  1.00  0.00    -0.235 N 
ATOM      2  H11 UNL     1      35.523  22.082  33.456  1.00  0.00     0.174 HD
ATOM      3  H12 UNL     1      35.752  22.819  35.033  1.00  0.00     0.174 HD
HETATM    4  C1  UNL     1      36.696  21.096  34.761  1.00  0.00     0.669 C 
HETATM    5  N2  UNL     1      37.271  21.056  36.035  1.00  0.00    -0.227 N 
ATOM      6  H2  UNL     1      36.872  20.451  36.753  1.00  0.00     0.177 HD
HETATM    7  N5  UNL     1      36.962  20.031  33.861  1.00  0.00    -0.217 N 
ENDROOT
BRANCH   5   8
HETATM    8  C2  UNL     1      38.424  21.864  36.338  1.00  0.00     0.138 C 
BRANCH   8   9
HETATM    9  C3  UNL     1      39.111  21.342  37.588  1.00  0.00     0.026 C 
BRANCH   9  10
HETATM   10  C4  UNL     1      40.326  22.158  37.926  1.00  0.00     0.061 C 
BRANCH  10  11
HETATM   11  C5  UNL     1      41.340  21.903  36.778  1.00  0.00     0.155 C 
BRANCH  11  12
HETATM   12  N3  UNL     1      41.855  20.678  36.734  1.00  0.00    -0.421 NA
BRANCH  12  13
HETATM   13  C6  UNL     1      42.322  19.587  36.572  1.00  0.00     0.119 A 
HETATM   14  C7  UNL     1      42.924  19.149  35.380  1.00  0.00     0.062 A 
HETATM   15  C8  UNL     1      43.440  17.904  35.205  1.00  0.00     0.092 A 
HETATM   16  N4  UNL     1      43.377  17.040  36.224  1.00  0.00    -0.364 N 
HETATM   17  C9  UNL     1      42.820  17.394  37.379  1.00  0.00     0.067 A 
ATOM     18  H4  UNL     1      43.759  16.100  36.114  1.00  0.00     0.165 HD
HETATM   19  C10 UNL     1      42.800  16.427  38.381  1.00  0.00     0.061 A 
HETATM   20  C14 UNL     1      42.286  18.636  37.602  1.00  0.00     0.033 A 
HETATM   21 CL1  UNL     1      43.463  14.825  38.139  1.00  0.00    -0.082 Cl
HETATM   22  C11 UNL     1      42.229  16.755  39.602  1.00  0.00     0.026 A 
HETATM   23  C12 UNL     1      41.690  17.991  39.845  1.00  0.00     0.003 A 
HETATM   24  C13 UNL     1      41.726  18.921  38.837  1.00  0.00     0.017 A 
ENDBRANCH  12  13
ENDBRANCH  11  12
ENDBRANCH  10  11
ENDBRANCH   9  10
ENDBRANCH   8   9
ENDBRANCH   5   8
BRANCH   7  25
HETATM   25  C15 UNL     1      38.010  20.065  32.891  1.00  0.00     0.156 C 
BRANCH  25  26
HETATM   26  C16 UNL     1      39.398  20.069  33.461  1.00  0.00     0.135 C 
HETATM   27 CL2  UNL     1      40.110  18.455  33.236  1.00  0.00    -0.129 Cl
ENDBRANCH  25  26
ENDBRANCH   7  25
BRANCH   7  28
HETATM   28  C17 UNL     1      36.088  18.867  33.976  1.00  0.00     0.143 C 
BRANCH  28  29
HETATM   29  C18 UNL     1      36.880  17.848  34.811  1.00  0.00     0.050 C 
BRANCH  29  30
HETATM   30  C19 UNL     1      36.051  17.502  36.002  1.00  0.00     0.274 C 
BRANCH  30  31
HETATM   31  N6  UNL     1      36.788  17.673  37.213  1.00  0.00     0.089 N 
HETATM   32  C20 UNL     1      37.500  16.459  37.586  1.00  0.00     0.272 C 
HETATM   33  C21 UNL     1      38.212  16.666  38.886  1.00  0.00     0.032 C 
HETATM   34  C22 UNL     1      38.130  18.117  39.261  1.00  0.00     0.024 C 
HETATM   35  C23 UNL     1      36.700  18.499  39.486  1.00  0.00     0.110 C 
HETATM   36 CL3  UNL     1      36.062  17.677  40.929  1.00  0.00    -0.123 Cl
HETATM   37  C24 UNL     1      35.884  18.093  38.268  1.00  0.00     0.292 C 
ENDBRANCH  30  31
ENDBRANCH  29  30
ENDBRANCH  28  29
ENDBRANCH   7  28
TORSDOF 12
ENDMDL
MODEL 5
REMARK VINA RESULT: -5.689601709      1.183      1.411
REMARK  12 active torsions:
REMARK  status: ('A' for Active; 'I' for Inactive)
REMARK       I    between atoms: C1_4  and  N2_5 
REMARK       I    between atoms: C1_4  and  N5_24 
REMARK    1  A    between atoms: N2_5  and  C2_7 
REMARK    2  A    between atoms: C2_7  and  C3_8 
REMARK    3  A    between atoms: C3_8  and  C4_9 
REMARK    4  A    between atoms: C4_9  and  C5_10 
REMARK    5  A    between atoms: C5_10  and  N3_11 
REMARK    6  A    between atoms: N3_11  and  C6_12 
REMARK    7  A    between atoms: N5_24  and  C15_25 
REMARK    8  A    between atoms: N5_24  and  C17_28 
REMARK    9  A    between atoms: C15_25  and  C16_26 
REMARK   10  A    between atoms: C17_28  and  C18_29 
REMARK   11  A    between atoms: C18_29  and  C19_30 
REMARK   12  A    between atoms: C19_30  and  N6_31 
ROOT
HETATM    1  N1  UNL     1      35.809  19.353  37.535  1.00  0.00    -0.235 N 
ATOM      2  H11 UNL     1      35.150  18.584  37.658  1.00  0.00     0.174 HD
ATOM      3  H12 UNL     1      35.448  20.270  37.273  1.00  0.00     0.174 HD
HETATM    4  C1  UNL     1      37.065  19.202  37.694  1.00  0.00     0.669 C 
HETATM    5  N2  UNL     1      37.969  20.255  37.524  1.00  0.00    -0.227 N 
ATOM      6  H2  UNL     1      38.358  20.727  38.341  1.00  0.00     0.177 HD
HETATM    7  N5  UNL     1      37.568  17.926  38.058  1.00  0.00    -0.217 N 
ENDROOT
BRANCH   5   8
HETATM    8  C2  UNL     1      38.353  20.678  36.202  1.00  0.00     0.138 C 
BRANCH   8   9
HETATM    9  C3  UNL     1      39.230  21.915  36.286  1.00  0.00     0.026 C 
BRANCH   9  10
HETATM   10  C4  UNL     1      39.678  22.174  37.696  1.00  0.00     0.061 C 
BRANCH  10  11
HETATM   11  C5  UNL     1      41.226  22.274  37.637  1.00  0.00     0.155 C 
BRANCH  11  12
HETATM   12  N3  UNL     1      41.860  21.144  37.342  1.00  0.00    -0.421 NA
BRANCH  12  13
HETATM   13  C6  UNL     1      42.350  20.111  36.984  1.00  0.00     0.119 A 
HETATM   14  C7  UNL     1      43.061  19.942  35.783  1.00  0.00     0.062 A 
HETATM   15  C8  UNL     1      43.603  18.763  35.383  1.00  0.00     0.092 A 
HETATM   16  N4  UNL     1      43.457  17.694  36.174  1.00  0.00    -0.364 N 
HETATM   17  C9  UNL     1      42.795  17.789  37.325  1.00  0.00     0.067 A 
ATOM     18  H4  UNL     1      43.857  16.798  35.894  1.00  0.00     0.165 HD
HETATM   19  C10 UNL     1      42.695  16.623  38.081  1.00  0.00     0.061 A 
HETATM   20  C14 UNL     1      42.231  18.955  37.769  1.00  0.00     0.033 A 
HETATM   21 CL1  UNL     1      43.393  15.109  37.549  1.00  0.00    -0.082 Cl
HETATM   22  C11 UNL     1      42.013  16.678  39.287  1.00  0.00     0.026 A 
HETATM   23  C12 UNL     1      41.442  17.834  39.749  1.00  0.00     0.003 A 
HETATM   24  C13 UNL     1      41.559  18.964  38.981  1.00  0.00     0.017 A 
ENDBRANCH  12  13
ENDBRANCH  11  12
ENDBRANCH  10  11
ENDBRANCH   9  10
ENDBRANCH   8   9
ENDBRANCH   5   8
BRANCH   7  25
HETATM   25  C15 UNL     1      37.879  16.904  37.109  1.00  0.00     0.156 C 
BRANCH  25  26
HETATM   26  C16 UNL     1      39.260  16.981  36.528  1.00  0.00     0.135 C 
HETATM   27 CL2  UNL     1      39.904  15.330  36.373  1.00  0.00    -0.129 Cl
ENDBRANCH  25  26
ENDBRANCH   7  25
BRANCH   7  28
HETATM   28  C17 UNL     1      37.757  17.700  39.489  1.00  0.00     0.143 C 
BRANCH  28  29
HETATM   29  C18 UNL     1      36.578  16.811  39.916  1.00  0.00     0.050 C 
BRANCH  29  30
HETATM   30  C19 UNL     1      35.830  17.540  40.982  1.00  0.00     0.274 C 
BRANCH  30  31
HETATM   31  N6  UNL     1      34.430  17.573  40.702  1.00  0.00     0.089 N 
HETATM   32  C20 UNL     1      33.643  17.102  41.833  1.00  0.00     0.272 C 
HETATM   33  C21 UNL     1      32.190  17.102  41.475  1.00  0.00     0.032 C 
HETATM   34  C22 UNL     1      32.013  17.786  40.151  1.00  0.00     0.024 C 
HETATM   35  C23 UNL     1      32.720  17.010  39.085  1.00  0.00     0.110 C 
HETATM   36 CL3  UNL     1      31.922  15.440  38.832  1.00  0.00    -0.123 Cl
HETATM   37  C24 UNL     1      34.162  16.783  39.514  1.00  0.00     0.292 C 
ENDBRANCH  30  31
ENDBRANCH  29  30
ENDBRANCH  28  29
ENDBRANCH   7  28
TORSDOF 12
ENDMDL
