MODEL 1
REMARK VINA RESULT: -6.534352072      0.000      0.000
REMARK  9 active torsions:
REMARK  status: ('A' for Active; 'I' for Inactive)
REMARK    1  A    between atoms: S1_2  and  O2_4 
REMARK    2  A    between atoms: O2_4  and  C2_5 
REMARK    3  A    between atoms: C3_6  and  N1_7 
REMARK       I    between atoms: N1_7  and  C4_9 
REMARK    4  A    between atoms: C4_9  and  C5_11 
REMARK    5  A    between atoms: C5_11  and  N2_12 
REMARK    6  A    between atoms: C9_16  and  N3_17 
REMARK    7  A    between atoms: N3_17  and  N4_19 
REMARK    8  A    between atoms: N4_19  and  N5_20 
REMARK    9  A    between atoms: C10_23  and  O4_24 
ROOT
HETATM    1  C2  UNL     1      -4.906   3.241  14.268  1.00  0.00     0.400 C 
HETATM    2  C3  UNL     1      -4.372   3.584  12.894  1.00  0.00     0.172 C 
HETATM    3  C9  UNL     1      -3.158   4.445  13.075  1.00  0.00     0.172 C 
HETATM    4  C10 UNL     1      -3.416   5.638  13.923  1.00  0.00     0.179 C 
HETATM    5  C11 UNL     1      -4.240   5.393  15.136  1.00  0.00     0.257 C 
HETATM    6  C12 UNL     1      -5.004   6.657  15.527  1.00  0.00     0.040 C 
HETATM    7  C13 UNL     1      -6.471   6.338  15.360  1.00  0.00     0.033 C 
HETATM    8  C14 UNL     1      -6.457   5.072  14.530  1.00  0.00     0.276 C 
HETATM    9  N6  UNL     1      -5.264   4.420  15.001  1.00  0.00     0.128 N 
ENDROOT
BRANCH   2  10
HETATM   10  N1  UNL     1      -4.002   2.402  12.188  1.00  0.00    -0.348 N 
HETATM   11  C4  UNL     1      -4.901   1.638  11.397  1.00  0.00     0.244 C 
HETATM   12  O3  UNL     1      -6.117   2.013  11.298  1.00  0.00    -0.272 OA
ATOM     13  H1  UNL     1      -3.034   2.087  12.255  1.00  0.00     0.163 HD
BRANCH  11  14
HETATM   14  C5  UNL     1      -4.513   0.420  10.670  1.00  0.00     0.338 C 
BRANCH  14  15
HETATM   15  N2  UNL     1      -3.659  -0.446  11.443  1.00  0.00    -0.070 N 
HETATM   16  C6  UNL     1      -4.070  -0.385  12.828  1.00  0.00     0.272 C 
HETATM   17  C7  UNL     1      -2.290   0.085  11.389  1.00  0.00     0.272 C 
HETATM   18  C8  UNL     1      -3.596  -1.792  10.951  1.00  0.00     0.272 C 
ENDBRANCH  14  15
ENDBRANCH  11  14
ENDBRANCH   2  10
BRANCH   1  19
HETATM   19  O2  UNL     1      -3.870   2.621  14.956  1.00  0.00    -0.257 OA
BRANCH  19  20
HETATM   20  S1  UNL     1      -4.810   1.701  16.138  1.00  0.00     0.150 S 
HETATM   21  C1  UNL     1      -5.978   1.345  16.438  1.00  0.00     0.160 C 
HETATM   22  O1  UNL     1      -3.302   1.596  16.586  1.00  0.00    -0.229 OA
ENDBRANCH  19  20
ENDBRANCH   1  19
BRANCH   3  23
HETATM   23  N3  UNL     1      -1.997   3.674  13.514  1.00  0.00    -0.243 N 
ATOM     24  H3  UNL     1      -1.981   3.274  14.452  1.00  0.00     0.197 HD
BRANCH  23  25
HETATM   25  N4  UNL     1      -1.027   3.500  12.755  1.00  0.00    -0.248 NA
BRANCH  25  26
HETATM   26  N5  UNL     1      -0.013   3.483  12.049  1.00  0.00    -0.261 N 
ATOM     27  H52 UNL     1       0.327   2.762  12.685  1.00  0.00     0.193 HD
ATOM     28  H51 UNL     1       0.760   3.568  11.389  1.00  0.00     0.193 HD
ENDBRANCH  25  26
ENDBRANCH  23  25
ENDBRANCH   3  23
BRANCH   4  29
HETATM   29  O4  UNL     1      -2.164   6.133  14.352  1.00  0.00    -0.391 OA
ATOM     30  H4  UNL     1      -2.191   6.192  15.300  1.00  0.00     0.210 HD
ENDBRANCH   4  29
TORSDOF 9
ENDMDL
MODEL 2
REMARK VINA RESULT: -6.483276893      2.207      5.323
REMARK  9 active torsions:
REMARK  status: ('A' for Active; 'I' for Inactive)
REMARK    1  A    between atoms: S1_2  and  O2_4 
REMARK    2  A    between atoms: O2_4  and  C2_5 
REMARK    3  A    between atoms: C3_6  and  N1_7 
REMARK       I    between atoms: N1_7  and  C4_9 
REMARK    4  A    between atoms: C4_9  and  C5_11 
REMARK    5  A    between atoms: C5_11  and  N2_12 
REMARK    6  A    between atoms: C9_16  and  N3_17 
REMARK    7  A    between atoms: N3_17  and  N4_19 
REMARK    8  A    between atoms: N4_19  and  N5_20 
REMARK    9  A    between atoms: C10_23  and  O4_24 
ROOT
HETATM    1  C2  UNL     1      -3.292   2.397  12.450  1.00  0.00     0.400 C 
HETATM    2  C3  UNL     1      -3.531   2.918  13.850  1.00  0.00     0.172 C 
HETATM    3  C9  UNL     1      -4.037   4.325  13.736  1.00  0.00     0.172 C 
HETATM    4  C10 UNL     1      -3.146   5.196  12.926  1.00  0.00     0.179 C 
HETATM    5  C11 UNL     1      -2.612   4.582  11.682  1.00  0.00     0.257 C 
HETATM    6  C12 UNL     1      -1.264   5.200  11.316  1.00  0.00     0.040 C 
HETATM    7  C13 UNL     1      -0.241   4.095  11.429  1.00  0.00     0.033 C 
HETATM    8  C14 UNL     1      -0.974   3.025  12.212  1.00  0.00     0.276 C 
HETATM    9  N6  UNL     1      -2.327   3.193  11.752  1.00  0.00     0.128 N 
ENDROOT
BRANCH   2  10
HETATM   10  N1  UNL     1      -4.509   2.128  14.522  1.00  0.00    -0.348 N 
HETATM   11  C4  UNL     1      -4.374   1.672  15.861  1.00  0.00     0.244 C 
HETATM   12  O3  UNL     1      -3.324   1.977  16.520  1.00  0.00    -0.272 OA
ATOM     13  H1  UNL     1      -5.355   1.874  14.011  1.00  0.00     0.163 HD
BRANCH  11  14
HETATM   14  C5  UNL     1      -5.386   0.857  16.550  1.00  0.00     0.338 C 
BRANCH  14  15
HETATM   15  N2  UNL     1      -6.408   1.650  17.185  1.00  0.00    -0.070 N 
HETATM   16  C6  UNL     1      -6.141   1.696  18.606  1.00  0.00     0.272 C 
HETATM   17  C7  UNL     1      -7.696   0.963  17.023  1.00  0.00     0.272 C 
HETATM   18  C8  UNL     1      -6.567   2.958  16.618  1.00  0.00     0.272 C 
ENDBRANCH  14  15
ENDBRANCH  11  14
ENDBRANCH   2  10
BRANCH   1  19
HETATM   19  O2  UNL     1      -4.498   2.510  11.769  1.00  0.00    -0.257 OA
BRANCH  19  20
HETATM   20  S1  UNL     1      -4.641   0.862  11.144  1.00  0.00     0.150 S 
HETATM   21  C1  UNL     1      -4.001  -0.204  10.962  1.00  0.00     0.160 C 
HETATM   22  O1  UNL     1      -6.054   1.537  10.955  1.00  0.00    -0.229 OA
ENDBRANCH  19  20
ENDBRANCH   1  19
BRANCH   3  23
HETATM   23  N3  UNL     1      -5.432   4.376  13.302  1.00  0.00    -0.243 N 
ATOM     24  H3  UNL     1      -5.785   3.670  12.656  1.00  0.00     0.197 HD
BRANCH  23  25
HETATM   25  N4  UNL     1      -6.192   5.270  13.712  1.00  0.00    -0.248 NA
BRANCH  25  26
HETATM   26  N5  UNL     1      -6.882   6.255  13.996  1.00  0.00    -0.261 N 
ATOM     27  H52 UNL     1      -6.026   6.647  14.390  1.00  0.00     0.193 HD
ATOM     28  H51 UNL     1      -7.558   6.998  14.171  1.00  0.00     0.193 HD
ENDBRANCH  25  26
ENDBRANCH  23  25
ENDBRANCH   3  23
BRANCH   4  29
HETATM   29  O4  UNL     1      -3.892   6.335  12.551  1.00  0.00    -0.391 OA
ATOM     30  H4  UNL     1      -3.409   7.100  12.841  1.00  0.00     0.210 HD
ENDBRANCH   4  29
TORSDOF 9
ENDMDL
MODEL 3
REMARK VINA RESULT: -6.033627010      2.714      5.103
REMARK  9 active torsions:
REMARK  status: ('A' for Active; 'I' for Inactive)
REMARK    1  A    between atoms: S1_2  and  O2_4 
REMARK    2  A    between atoms: O2_4  and  C2_5 
REMARK    3  A    between atoms: C3_6  and  N1_7 
REMARK       I    between atoms: N1_7  and  C4_9 
REMARK    4  A    between atoms: C4_9  and  C5_11 
REMARK    5  A    between atoms: C5_11  and  N2_12 
REMARK    6  A    between atoms: C9_16  and  N3_17 
REMARK    7  A    between atoms: N3_17  and  N4_19 
REMARK    8  A    between atoms: N4_19  and  N5_20 
REMARK    9  A    between atoms: C10_23  and  O4_24 
ROOT
HETATM    1  C2  UNL     1      -3.650   4.323  13.004  1.00  0.00     0.400 C 
HETATM    2  C3  UNL     1      -4.882   3.503  13.321  1.00  0.00     0.172 C 
HETATM    3  C9  UNL     1      -4.941   2.366  12.345  1.00  0.00     0.172 C 
HETATM    4  C10 UNL     1      -4.879   2.816  10.930  1.00  0.00     0.179 C 
HETATM    5  C11 UNL     1      -3.886   3.884  10.642  1.00  0.00     0.257 C 
HETATM    6  C12 UNL     1      -4.338   4.727   9.451  1.00  0.00     0.040 C 
HETATM    7  C13 UNL     1      -4.589   6.118   9.982  1.00  0.00     0.033 C 
HETATM    8  C14 UNL     1      -4.644   5.910  11.481  1.00  0.00     0.276 C 
HETATM    9  N6  UNL     1      -3.697   4.845  11.670  1.00  0.00     0.128 N 
ENDROOT
BRANCH   2  10
HETATM   10  N1  UNL     1      -4.809   2.976  14.643  1.00  0.00    -0.348 N 
HETATM   11  C4  UNL     1      -5.741   3.283  15.671  1.00  0.00     0.244 C 
HETATM   12  O3  UNL     1      -6.709   4.077  15.417  1.00  0.00    -0.272 OA
ATOM     13  H1  UNL     1      -4.043   2.340  14.865  1.00  0.00     0.163 HD
BRANCH  11  14
HETATM   14  C5  UNL     1      -5.662   2.736  17.033  1.00  0.00     0.338 C 
BRANCH  14  15
HETATM   15  N2  UNL     1      -6.060   1.353  17.105  1.00  0.00    -0.070 N 
HETATM   16  C6  UNL     1      -7.465   1.258  16.774  1.00  0.00     0.272 C 
HETATM   17  C7  UNL     1      -5.926   0.904  18.498  1.00  0.00     0.272 C 
HETATM   18  C8  UNL     1      -5.252   0.472  16.312  1.00  0.00     0.272 C 
ENDBRANCH  14  15
ENDBRANCH  11  14
ENDBRANCH   2  10
BRANCH   1  19
HETATM   19  O2  UNL     1      -2.565   3.459  13.077  1.00  0.00    -0.257 OA
BRANCH  19  20
HETATM   20  S1  UNL     1      -1.252   4.640  13.172  1.00  0.00     0.150 S 
HETATM   21  C1  UNL     1      -0.351   5.199  12.498  1.00  0.00     0.160 C 
HETATM   22  O1  UNL     1      -1.896   4.568  14.610  1.00  0.00    -0.229 OA
ENDBRANCH  19  20
ENDBRANCH   1  19
BRANCH   3  23
HETATM   23  N3  UNL     1      -3.966   1.323  12.655  1.00  0.00    -0.243 N 
ATOM     24  H3  UNL     1      -3.084   1.573  13.103  1.00  0.00     0.197 HD
BRANCH  23  25
HETATM   25  N4  UNL     1      -4.199   0.133  12.379  1.00  0.00    -0.248 NA
BRANCH  25  26
HETATM   26  N5  UNL     1      -4.353  -1.017  11.957  1.00  0.00    -0.261 N 
ATOM     27  H52 UNL     1      -5.217  -0.669  11.540  1.00  0.00     0.193 HD
ATOM     28  H51 UNL     1      -4.359  -1.997  11.672  1.00  0.00     0.193 HD
ENDBRANCH  25  26
ENDBRANCH  23  25
ENDBRANCH   3  23
BRANCH   4  29
HETATM   29  O4  UNL     1      -4.536   1.693  10.143  1.00  0.00    -0.391 OA
ATOM     30  H4  UNL     1      -4.602   1.954   9.232  1.00  0.00     0.210 HD
ENDBRANCH   4  29
TORSDOF 9
ENDMDL
MODEL 4
REMARK VINA RESULT: -5.960535704      3.253      4.486
REMARK  9 active torsions:
REMARK  status: ('A' for Active; 'I' for Inactive)
REMARK    1  A    between atoms: S1_2  and  O2_4 
REMARK    2  A    between atoms: O2_4  and  C2_5 
REMARK    3  A    between atoms: C3_6  and  N1_7 
REMARK       I    between atoms: N1_7  and  C4_9 
REMARK    4  A    between atoms: C4_9  and  C5_11 
REMARK    5  A    between atoms: C5_11  and  N2_12 
REMARK    6  A    between atoms: C9_16  and  N3_17 
REMARK    7  A    between atoms: N3_17  and  N4_19 
REMARK    8  A    between atoms: N4_19  and  N5_20 
REMARK    9  A    between atoms: C10_23  and  O4_24 
ROOT
HETATM    1  C2  UNL     1      -4.462   2.846  12.066  1.00  0.00     0.400 C 
HETATM    2  C3  UNL     1      -4.078   4.266  11.713  1.00  0.00     0.172 C 
HETATM    3  C9  UNL     1      -2.857   4.622  12.507  1.00  0.00     0.172 C 
HETATM    4  C10 UNL     1      -3.033   4.404  13.966  1.00  0.00     0.179 C 
HETATM    5  C11 UNL     1      -3.723   3.143  14.345  1.00  0.00     0.257 C 
HETATM    6  C12 UNL     1      -4.451   3.311  15.678  1.00  0.00     0.040 C 
HETATM    7  C13 UNL     1      -5.924   3.169  15.381  1.00  0.00     0.033 C 
HETATM    8  C14 UNL     1      -5.989   3.315  13.875  1.00  0.00     0.276 C 
HETATM    9  N6  UNL     1      -4.749   2.712  13.464  1.00  0.00     0.128 N 
ENDROOT
BRANCH   2  10
HETATM   10  N1  UNL     1      -3.776   4.375  10.324  1.00  0.00    -0.348 N 
HETATM   11  C4  UNL     1      -4.428   5.276   9.440  1.00  0.00     0.244 C 
HETATM   12  O3  UNL     1      -5.342   6.043   9.896  1.00  0.00    -0.272 OA
ATOM     13  H1  UNL     1      -3.048   3.770   9.942  1.00  0.00     0.163 HD
BRANCH  11  14
HETATM   14  C5  UNL     1      -4.112   5.385   8.009  1.00  0.00     0.338 C 
BRANCH  14  15
HETATM   15  N2  UNL     1      -2.857   6.048   7.760  1.00  0.00    -0.070 N 
HETATM   16  C6  UNL     1      -2.987   6.851   6.563  1.00  0.00     0.272 C 
HETATM   17  C7  UNL     1      -1.842   5.026   7.470  1.00  0.00     0.272 C 
HETATM   18  C8  UNL     1      -2.368   6.807   8.875  1.00  0.00     0.272 C 
ENDBRANCH  14  15
ENDBRANCH  11  14
ENDBRANCH   2  10
BRANCH   1  19
HETATM   19  O2  UNL     1      -3.356   2.051  11.790  1.00  0.00    -0.257 OA
BRANCH  19  20
HETATM   20  S1  UNL     1      -4.167   0.508  11.493  1.00  0.00     0.150 S 
HETATM   21  C1  UNL     1      -4.330  -0.649  11.958  1.00  0.00     0.160 C 
HETATM   22  O1  UNL     1      -4.561   1.458  10.297  1.00  0.00    -0.229 OA
ENDBRANCH  19  20
ENDBRANCH   1  19
BRANCH   3  23
HETATM   23  N3  UNL     1      -1.651   3.990  11.977  1.00  0.00    -0.243 N 
ATOM     24  H3  UNL     1      -1.719   3.086  11.509  1.00  0.00     0.197 HD
BRANCH  23  25
HETATM   25  N4  UNL     1      -0.542   4.542  12.089  1.00  0.00    -0.248 NA
BRANCH  25  26
HETATM   26  N5  UNL     1       0.540   5.068  12.369  1.00  0.00    -0.261 N 
ATOM     27  H52 UNL     1       0.160   5.176  13.310  1.00  0.00     0.193 HD
ATOM     28  H51 UNL     1       1.469   5.478  12.466  1.00  0.00     0.193 HD
ENDBRANCH  25  26
ENDBRANCH  23  25
ENDBRANCH   3  23
BRANCH   4  29
HETATM   29  O4  UNL     1      -1.746   4.376  14.549  1.00  0.00    -0.391 OA
ATOM     30  H4  UNL     1      -1.565   3.477  14.797  1.00  0.00     0.210 HD
ENDBRANCH   4  29
TORSDOF 9
ENDMDL
MODEL 5
REMARK VINA RESULT: -5.943966484      3.220      4.317
REMARK  9 active torsions:
REMARK  status: ('A' for Active; 'I' for Inactive)
REMARK    1  A    between atoms: S1_2  and  O2_4 
REMARK    2  A    between atoms: O2_4  and  C2_5 
REMARK    3  A    between atoms: C3_6  and  N1_7 
REMARK       I    between atoms: N1_7  and  C4_9 
REMARK    4  A    between atoms: C4_9  and  C5_11 
REMARK    5  A    between atoms: C5_11  and  N2_12 
REMARK    6  A    between atoms: C9_16  and  N3_17 
REMARK    7  A    between atoms: N3_17  and  N4_19 
REMARK    8  A    between atoms: N4_19  and  N5_20 
REMARK    9  A    between atoms: C10_23  and  O4_24 
ROOT
HETATM    1  C2  UNL     1      -4.044   2.717  12.275  1.00  0.00     0.400 C 
HETATM    2  C3  UNL     1      -3.439   4.031  11.831  1.00  0.00     0.172 C 
HETATM    3  C9  UNL     1      -2.383   4.409  12.826  1.00  0.00     0.172 C 
HETATM    4  C10 UNL     1      -2.887   4.433  14.224  1.00  0.00     0.179 C 
HETATM    5  C11 UNL     1      -3.777   3.303  14.601  1.00  0.00     0.257 C 
HETATM    6  C12 UNL     1      -4.747   3.731  15.700  1.00  0.00     0.040 C 
HETATM    7  C13 UNL     1      -6.131   3.661  15.100  1.00  0.00     0.033 C 
HETATM    8  C14 UNL     1      -5.859   3.577  13.613  1.00  0.00     0.276 C 
HETATM    9  N6  UNL     1      -4.634   2.823  13.576  1.00  0.00     0.128 N 
ENDROOT
BRANCH   2  10
HETATM   10  N1  UNL     1      -2.839   3.901  10.545  1.00  0.00    -0.348 N 
HETATM   11  C4  UNL     1      -2.908   4.897   9.534  1.00  0.00     0.244 C 
HETATM   12  O3  UNL     1      -3.540   5.981   9.771  1.00  0.00    -0.272 OA
ATOM     13  H1  UNL     1      -2.330   3.041  10.337  1.00  0.00     0.163 HD
BRANCH  11  14
HETATM   14  C5  UNL     1      -2.287   4.758   8.209  1.00  0.00     0.338 C 
BRANCH  14  15
HETATM   15  N2  UNL     1      -0.883   5.082   8.211  1.00  0.00    -0.070 N 
HETATM   16  C6  UNL     1      -0.470   5.359   6.853  1.00  0.00     0.272 C 
HETATM   17  C7  UNL     1      -0.133   3.893   8.642  1.00  0.00     0.272 C 
HETATM   18  C8  UNL     1      -0.530   6.138   9.115  1.00  0.00     0.272 C 
ENDBRANCH  14  15
ENDBRANCH  11  14
ENDBRANCH   2  10
BRANCH   1  19
HETATM   19  O2  UNL     1      -2.999   1.805  12.364  1.00  0.00    -0.257 OA
BRANCH  19  20
HETATM   20  S1  UNL     1      -3.542   0.615  11.174  1.00  0.00     0.150 S 
HETATM   21  C1  UNL     1      -4.535  -0.067  10.815  1.00  0.00     0.160 C 
HETATM   22  O1  UNL     1      -2.033   0.926  10.839  1.00  0.00    -0.229 OA
ENDBRANCH  19  20
ENDBRANCH   1  19
BRANCH   3  23
HETATM   23  N3  UNL     1      -1.169   3.610  12.671  1.00  0.00    -0.243 N 
ATOM     24  H3  UNL     1      -1.195   2.610  12.867  1.00  0.00     0.197 HD
BRANCH  23  25
HETATM   25  N4  UNL     1      -0.104   4.138  12.303  1.00  0.00    -0.248 NA
BRANCH  25  26
HETATM   26  N5  UNL     1       0.998   4.657  12.102  1.00  0.00    -0.261 N 
ATOM     27  H52 UNL     1       0.600   5.492  12.530  1.00  0.00     0.193 HD
ATOM     28  H51 UNL     1       1.946   4.961  11.880  1.00  0.00     0.193 HD
ENDBRANCH  25  26
ENDBRANCH  23  25
ENDBRANCH   3  23
BRANCH   4  29
HETATM   29  O4  UNL     1      -1.765   4.394  15.081  1.00  0.00    -0.391 OA
ATOM     30  H4  UNL     1      -1.295   3.589  14.899  1.00  0.00     0.210 HD
ENDBRANCH   4  29
TORSDOF 9
ENDMDL
