MODEL 1
REMARK VINA RESULT: -6.806157077      0.000      0.000
REMARK  6 active torsions:
REMARK  status: ('A' for Active; 'I' for Inactive)
REMARK       I    between atoms: C2_2  and  N1_4 
REMARK    1  A    between atoms: N1_4  and  C3_6 
REMARK    2  A    between atoms: C3_6  and  C4_7 
REMARK    3  A    between atoms: C4_7  and  N2_8 
REMARK    4  A    between atoms: C5_9  and  N3_10 
REMARK    5  A    between atoms: N3_10  and  C6_12 
REMARK    6  A    between atoms: C8_22  and  N9_23 
ROOT
HETATM    1  N2  UNL     1      13.937  49.889 -50.803  1.00  0.00    -0.164 N 
HETATM    2  C5  UNL     1      13.291  49.588 -51.941  1.00  0.00     0.701 A 
HETATM    3  N8  UNL     1      12.528  50.650 -52.334  1.00  0.00    -0.183 N 
ATOM      4  H8  UNL     1      11.935  50.694 -53.162  1.00  0.00     0.184 HD
HETATM    5  C7  UNL     1      12.701  51.627 -51.426  1.00  0.00     0.137 A 
HETATM    6  C8  UNL     1      12.191  52.892 -51.314  1.00  0.00     0.131 A 
HETATM    7  N10 UNL     1      12.553  53.662 -50.272  1.00  0.00    -0.337 N 
ATOM      8  H10 UNL     1      12.171  54.604 -50.189  1.00  0.00     0.168 HD
HETATM    9  C9  UNL     1      13.412  53.212 -49.331  1.00  0.00     0.183 A 
HETATM   10  N11 UNL     1      13.908  51.961 -49.453  1.00  0.00    -0.336 N 
ATOM     11  H11 UNL     1      14.556  51.622 -48.742  1.00  0.00     0.168 HD
HETATM   12  C10 UNL     1      13.586  51.142 -50.470  1.00  0.00     0.155 A 
ENDROOT
BRANCH   2  13
HETATM   13  N3  UNL     1      13.396  48.339 -52.631  1.00  0.00    -0.020 N 
ATOM     14  H3  UNL     1      13.023  47.492 -52.202  1.00  0.00     0.203 HD
BRANCH  13  15
HETATM   15  C6  UNL     1      13.955  48.273 -53.788  1.00  0.00     0.722 A 
HETATM   16  N4  UNL     1      13.378  48.314 -55.014  1.00  0.00    -0.116 N 
HETATM   17  N5  UNL     1      14.361  48.212 -55.894  1.00  0.00     0.006 NA
ATOM     18  H4  UNL     1      12.383  48.405 -55.217  1.00  0.00     0.202 HD
HETATM   19  N6  UNL     1      15.527  48.110 -55.276  1.00  0.00     0.006 NA
HETATM   20  N7  UNL     1      15.274  48.148 -53.971  1.00  0.00    -0.116 N 
ATOM     21  H7  UNL     1      15.972  48.091 -53.229  1.00  0.00     0.202 HD
ENDBRANCH  13  15
ENDBRANCH   2  13
BRANCH   1  22
HETATM   22  C4  UNL     1      14.831  49.057 -50.069  1.00  0.00     0.169 C 
BRANCH  22  23
HETATM   23  C3  UNL     1      14.187  48.517 -48.827  1.00  0.00     0.143 C 
BRANCH  23  24
HETATM   24  N1  UNL     1      15.015  48.573 -47.664  1.00  0.00    -0.360 N 
HETATM   25  C2  UNL     1      14.977  49.561 -46.677  1.00  0.00     0.213 C 
HETATM   26  C1  UNL     1      15.880  49.525 -45.505  1.00  0.00     0.117 C 
HETATM   27  O1  UNL     1      14.165  50.510 -46.773  1.00  0.00    -0.274 OA
ATOM     28  H1  UNL     1      15.694  47.822 -47.542  1.00  0.00     0.162 HD
ENDBRANCH  23  24
ENDBRANCH  22  23
ENDBRANCH   1  22
BRANCH   6  29
HETATM   29  N9  UNL     1      11.375  53.311 -52.214  1.00  0.00    -0.383 N 
ATOM     30  H92 UNL     1      10.989  52.686 -52.921  1.00  0.00     0.157 HD
ATOM     31  H91 UNL     1      11.111  54.297 -52.214  1.00  0.00     0.157 HD
ENDBRANCH   6  29
TORSDOF 6
ENDMDL
MODEL 2
REMARK VINA RESULT: -6.700130719      2.228      2.828
REMARK  6 active torsions:
REMARK  status: ('A' for Active; 'I' for Inactive)
REMARK       I    between atoms: C2_2  and  N1_4 
REMARK    1  A    between atoms: N1_4  and  C3_6 
REMARK    2  A    between atoms: C3_6  and  C4_7 
REMARK    3  A    between atoms: C4_7  and  N2_8 
REMARK    4  A    between atoms: C5_9  and  N3_10 
REMARK    5  A    between atoms: N3_10  and  C6_12 
REMARK    6  A    between atoms: C8_22  and  N9_23 
ROOT
HETATM    1  N2  UNL     1      14.646  50.393 -50.114  1.00  0.00    -0.164 N 
HETATM    2  C5  UNL     1      13.649  50.590 -50.991  1.00  0.00     0.701 A 
HETATM    3  N8  UNL     1      12.486  50.841 -50.320  1.00  0.00    -0.183 N 
ATOM      4  H8  UNL     1      11.575  51.026 -50.739  1.00  0.00     0.184 HD
HETATM    5  C7  UNL     1      12.764  50.799 -49.006  1.00  0.00     0.137 A 
HETATM    6  C8  UNL     1      11.995  50.974 -47.888  1.00  0.00     0.131 A 
HETATM    7  N10 UNL     1      12.560  50.870 -46.671  1.00  0.00    -0.337 N 
ATOM      8  H10 UNL     1      11.984  51.000 -45.839  1.00  0.00     0.168 HD
HETATM    9  C9  UNL     1      13.876  50.598 -46.529  1.00  0.00     0.183 A 
HETATM   10  N11 UNL     1      14.624  50.428 -47.641  1.00  0.00    -0.336 N 
ATOM     11  H11 UNL     1      15.618  50.222 -47.533  1.00  0.00     0.168 HD
HETATM   12  C10 UNL     1      14.121  50.518 -48.885  1.00  0.00     0.155 A 
ENDROOT
BRANCH   2  13
HETATM   13  N3  UNL     1      13.795  50.543 -52.414  1.00  0.00    -0.020 N 
ATOM     14  H3  UNL     1      13.910  51.410 -52.939  1.00  0.00     0.203 HD
BRANCH  13  15
HETATM   15  C6  UNL     1      13.781  49.417 -53.038  1.00  0.00     0.722 A 
HETATM   16  N4  UNL     1      13.004  48.331 -52.812  1.00  0.00    -0.116 N 
HETATM   17  N5  UNL     1      13.357  47.424 -53.709  1.00  0.00     0.006 NA
ATOM     18  H4  UNL     1      12.288  48.231 -52.093  1.00  0.00     0.202 HD
HETATM   19  N6  UNL     1      14.319  47.894 -54.487  1.00  0.00     0.006 NA
HETATM   20  N7  UNL     1      14.582  49.130 -54.070  1.00  0.00    -0.116 N 
ATOM     21  H7  UNL     1      15.280  49.756 -54.472  1.00  0.00     0.202 HD
ENDBRANCH  13  15
ENDBRANCH   2  13
BRANCH   1  22
HETATM   22  C4  UNL     1      16.011  50.105 -50.405  1.00  0.00     0.169 C 
BRANCH  22  23
HETATM   23  C3  UNL     1      16.252  48.629 -50.513  1.00  0.00     0.143 C 
BRANCH  23  24
HETATM   24  N1  UNL     1      17.310  48.143 -49.684  1.00  0.00    -0.360 N 
HETATM   25  C2  UNL     1      17.193  47.761 -48.346  1.00  0.00     0.213 C 
HETATM   26  C1  UNL     1      18.355  47.268 -47.574  1.00  0.00     0.117 C 
HETATM   27  O1  UNL     1      16.083  47.832 -47.769  1.00  0.00    -0.274 OA
ATOM     28  H1  UNL     1      18.234  48.069 -50.109  1.00  0.00     0.162 HD
ENDBRANCH  23  24
ENDBRANCH  22  23
ENDBRANCH   1  22
BRANCH   6  29
HETATM   29  N9  UNL     1      10.744  51.233 -48.033  1.00  0.00    -0.383 N 
ATOM     30  H92 UNL     1      10.415  51.946 -48.683  1.00  0.00     0.157 HD
ATOM     31  H91 UNL     1      10.068  50.706 -47.479  1.00  0.00     0.157 HD
ENDBRANCH   6  29
TORSDOF 6
ENDMDL
MODEL 3
REMARK VINA RESULT: -6.696837710      2.577      4.697
REMARK  6 active torsions:
REMARK  status: ('A' for Active; 'I' for Inactive)
REMARK       I    between atoms: C2_2  and  N1_4 
REMARK    1  A    between atoms: N1_4  and  C3_6 
REMARK    2  A    between atoms: C3_6  and  C4_7 
REMARK    3  A    between atoms: C4_7  and  N2_8 
REMARK    4  A    between atoms: C5_9  and  N3_10 
REMARK    5  A    between atoms: N3_10  and  C6_12 
REMARK    6  A    between atoms: C8_22  and  N9_23 
ROOT
HETATM    1  N2  UNL     1      13.834  50.246 -49.189  1.00  0.00    -0.164 N 
HETATM    2  C5  UNL     1      14.209  49.659 -50.336  1.00  0.00     0.701 A 
HETATM    3  N8  UNL     1      15.276  48.837 -50.108  1.00  0.00    -0.183 N 
ATOM      4  H8  UNL     1      15.761  48.270 -50.802  1.00  0.00     0.184 HD
HETATM    5  C7  UNL     1      15.569  48.915 -48.798  1.00  0.00     0.137 A 
HETATM    6  C8  UNL     1      16.526  48.317 -48.023  1.00  0.00     0.131 A 
HETATM    7  N10 UNL     1      16.580  48.593 -46.707  1.00  0.00    -0.337 N 
ATOM      8  H10 UNL     1      17.295  48.146 -46.132  1.00  0.00     0.168 HD
HETATM    9  C9  UNL     1      15.707  49.449 -46.132  1.00  0.00     0.183 A 
HETATM   10  N11 UNL     1      14.768  50.033 -46.909  1.00  0.00    -0.336 N 
ATOM     11  H11 UNL     1      14.110  50.680 -46.473  1.00  0.00     0.168 HD
HETATM   12  C10 UNL     1      14.660  49.800 -48.229  1.00  0.00     0.155 A 
ENDROOT
BRANCH   2  13
HETATM   13  N3  UNL     1      13.578  49.869 -51.603  1.00  0.00    -0.020 N 
ATOM     14  H3  UNL     1      12.986  50.688 -51.743  1.00  0.00     0.203 HD
BRANCH  13  15
HETATM   15  C6  UNL     1      13.750  49.035 -52.568  1.00  0.00     0.722 A 
HETATM   16  N4  UNL     1      14.559  49.143 -53.650  1.00  0.00    -0.116 N 
HETATM   17  N5  UNL     1      14.392  48.037 -54.356  1.00  0.00     0.006 NA
ATOM     18  H4  UNL     1      15.175  49.924 -53.876  1.00  0.00     0.202 HD
HETATM   19  N6  UNL     1      13.516  47.240 -53.765  1.00  0.00     0.006 NA
HETATM   20  N7  UNL     1      13.118  47.860 -52.657  1.00  0.00    -0.116 N 
ATOM     21  H7  UNL     1      12.442  47.498 -51.985  1.00  0.00     0.202 HD
ENDBRANCH  13  15
ENDBRANCH   2  13
BRANCH   1  22
HETATM   22  C4  UNL     1      12.766  51.170 -48.998  1.00  0.00     0.169 C 
BRANCH  22  23
HETATM   23  C3  UNL     1      11.867  50.749 -47.874  1.00  0.00     0.143 C 
BRANCH  23  24
HETATM   24  N1  UNL     1      10.592  51.393 -47.868  1.00  0.00    -0.360 N 
HETATM   25  C2  UNL     1       9.350  50.754 -47.830  1.00  0.00     0.213 C 
HETATM   26  C1  UNL     1       8.083  51.517 -47.825  1.00  0.00     0.117 C 
HETATM   27  O1  UNL     1       9.291  49.503 -47.800  1.00  0.00    -0.274 OA
ATOM     28  H1  UNL     1      10.588  52.413 -47.893  1.00  0.00     0.162 HD
ENDBRANCH  23  24
ENDBRANCH  22  23
ENDBRANCH   1  22
BRANCH   6  29
HETATM   29  N9  UNL     1      17.351  47.504 -48.579  1.00  0.00    -0.383 N 
ATOM     30  H92 UNL     1      17.470  47.467 -49.591  1.00  0.00     0.157 HD
ATOM     31  H91 UNL     1      17.899  46.880 -47.985  1.00  0.00     0.157 HD
ENDBRANCH   6  29
TORSDOF 6
ENDMDL
MODEL 4
REMARK VINA RESULT: -6.689565775      3.823      6.727
REMARK  6 active torsions:
REMARK  status: ('A' for Active; 'I' for Inactive)
REMARK       I    between atoms: C2_2  and  N1_4 
REMARK    1  A    between atoms: N1_4  and  C3_6 
REMARK    2  A    between atoms: C3_6  and  C4_7 
REMARK    3  A    between atoms: C4_7  and  N2_8 
REMARK    4  A    between atoms: C5_9  and  N3_10 
REMARK    5  A    between atoms: N3_10  and  C6_12 
REMARK    6  A    between atoms: C8_22  and  N9_23 
ROOT
HETATM    1  N2  UNL     1      14.330  51.479 -48.452  1.00  0.00    -0.164 N 
HETATM    2  C5  UNL     1      13.771  50.651 -47.556  1.00  0.00     0.701 A 
HETATM    3  N8  UNL     1      14.479  49.485 -47.499  1.00  0.00    -0.183 N 
ATOM      4  H8  UNL     1      14.274  48.683 -46.903  1.00  0.00     0.184 HD
HETATM    5  C7  UNL     1      15.493  49.588 -48.374  1.00  0.00     0.137 A 
HETATM    6  C8  UNL     1      16.503  48.736 -48.730  1.00  0.00     0.131 A 
HETATM    7  N10 UNL     1      17.397  49.120 -49.659  1.00  0.00    -0.337 N 
ATOM      8  H10 UNL     1      18.149  48.482 -49.924  1.00  0.00     0.168 HD
HETATM    9  C9  UNL     1      17.321  50.333 -50.250  1.00  0.00     0.183 A 
HETATM   10  N11 UNL     1      16.319  51.165 -49.889  1.00  0.00    -0.336 N 
ATOM     11  H11 UNL     1      16.261  52.081 -50.336  1.00  0.00     0.168 HD
HETATM   12  C10 UNL     1      15.394  50.842 -48.968  1.00  0.00     0.155 A 
ENDROOT
BRANCH   2  13
HETATM   13  N3  UNL     1      12.607  50.957 -46.780  1.00  0.00    -0.020 N 
ATOM     14  H3  UNL     1      12.675  51.620 -46.007  1.00  0.00     0.203 HD
BRANCH  13  15
HETATM   15  C6  UNL     1      11.476  50.404 -47.047  1.00  0.00     0.722 A 
HETATM   16  N4  UNL     1      11.004  49.199 -46.645  1.00  0.00    -0.116 N 
HETATM   17  N5  UNL     1       9.798  49.074 -47.175  1.00  0.00     0.006 NA
ATOM     18  H4  UNL     1      11.484  48.523 -46.051  1.00  0.00     0.202 HD
HETATM   19  N6  UNL     1       9.494  50.145 -47.890  1.00  0.00     0.006 NA
HETATM   20  N7  UNL     1      10.534  50.969 -47.810  1.00  0.00    -0.116 N 
ATOM     21  H7  UNL     1      10.604  51.883 -48.258  1.00  0.00     0.202 HD
ENDBRANCH  13  15
ENDBRANCH   2  13
BRANCH   1  22
HETATM   22  C4  UNL     1      13.898  52.789 -48.809  1.00  0.00     0.169 C 
BRANCH  22  23
HETATM   23  C3  UNL     1      12.966  52.763 -49.983  1.00  0.00     0.143 C 
BRANCH  23  24
HETATM   24  N1  UNL     1      13.008  53.938 -50.794  1.00  0.00    -0.360 N 
HETATM   25  C2  UNL     1      12.245  54.170 -51.941  1.00  0.00     0.213 C 
HETATM   26  C1  UNL     1      12.363  55.427 -52.713  1.00  0.00     0.117 C 
HETATM   27  O1  UNL     1      11.435  53.302 -52.339  1.00  0.00    -0.274 OA
ATOM     28  H1  UNL     1      13.655  54.674 -50.511  1.00  0.00     0.162 HD
ENDBRANCH  23  24
ENDBRANCH  22  23
ENDBRANCH   1  22
BRANCH   6  29
HETATM   29  N9  UNL     1      16.568  47.585 -48.164  1.00  0.00    -0.383 N 
ATOM     30  H92 UNL     1      16.713  47.488 -47.158  1.00  0.00     0.157 HD
ATOM     31  H91 UNL     1      16.472  46.748 -48.741  1.00  0.00     0.157 HD
ENDBRANCH   6  29
TORSDOF 6
ENDMDL
MODEL 5
REMARK VINA RESULT: -6.647399470      3.309      4.775
REMARK  6 active torsions:
REMARK  status: ('A' for Active; 'I' for Inactive)
REMARK       I    between atoms: C2_2  and  N1_4 
REMARK    1  A    between atoms: N1_4  and  C3_6 
REMARK    2  A    between atoms: C3_6  and  C4_7 
REMARK    3  A    between atoms: C4_7  and  N2_8 
REMARK    4  A    between atoms: C5_9  and  N3_10 
REMARK    5  A    between atoms: N3_10  and  C6_12 
REMARK    6  A    between atoms: C8_22  and  N9_23 
ROOT
HETATM    1  N2  UNL     1      13.274  52.069 -49.102  1.00  0.00    -0.164 N 
HETATM    2  C5  UNL     1      12.631  53.067 -49.728  1.00  0.00     0.701 A 
HETATM    3  N8  UNL     1      11.305  53.040 -49.402  1.00  0.00    -0.183 N 
ATOM      4  H8  UNL     1      10.587  53.683 -49.735  1.00  0.00     0.184 HD
HETATM    5  C7  UNL     1      11.120  52.009 -48.560  1.00  0.00     0.137 A 
HETATM    6  C8  UNL     1      10.014  51.516 -47.923  1.00  0.00     0.131 A 
HETATM    7  N10 UNL     1      10.134  50.443 -47.119  1.00  0.00    -0.337 N 
ATOM      8  H10 UNL     1       9.307  50.077 -46.646  1.00  0.00     0.168 HD
HETATM    9  C9  UNL     1      11.328  49.841 -46.926  1.00  0.00     0.183 A 
HETATM   10  N11 UNL     1      12.413  50.337 -47.561  1.00  0.00    -0.336 N 
ATOM     11  H11 UNL     1      13.314  49.881 -47.415  1.00  0.00     0.168 HD
HETATM   12  C10 UNL     1      12.360  51.405 -48.377  1.00  0.00     0.155 A 
ENDROOT
BRANCH   2  13
HETATM   13  N3  UNL     1      13.252  54.014 -50.604  1.00  0.00    -0.020 N 
ATOM     14  H3  UNL     1      14.145  54.432 -50.344  1.00  0.00     0.203 HD
BRANCH  13  15
HETATM   15  C6  UNL     1      12.694  54.343 -51.717  1.00  0.00     0.722 A 
HETATM   16  N4  UNL     1      12.146  53.540 -52.661  1.00  0.00    -0.116 N 
HETATM   17  N5  UNL     1      11.702  54.338 -53.619  1.00  0.00     0.006 NA
ATOM     18  H4  UNL     1      12.088  52.522 -52.639  1.00  0.00     0.202 HD
HETATM   19  N6  UNL     1      11.945  55.603 -53.316  1.00  0.00     0.006 NA
HETATM   20  N7  UNL     1      12.561  55.605 -52.137  1.00  0.00    -0.116 N 
ATOM     21  H7  UNL     1      12.880  56.434 -51.635  1.00  0.00     0.202 HD
ENDBRANCH  13  15
ENDBRANCH   2  13
BRANCH   1  22
HETATM   22  C4  UNL     1      14.661  51.752 -49.175  1.00  0.00     0.169 C 
BRANCH  22  23
HETATM   23  C3  UNL     1      14.906  50.539 -50.021  1.00  0.00     0.143 C 
BRANCH  23  24
HETATM   24  N1  UNL     1      15.894  49.648 -49.501  1.00  0.00    -0.360 N 
HETATM   25  C2  UNL     1      15.661  48.591 -48.617  1.00  0.00     0.213 C 
HETATM   26  C1  UNL     1      16.759  47.723 -48.137  1.00  0.00     0.117 C 
HETATM   27  O1  UNL     1      14.500  48.360 -48.210  1.00  0.00    -0.274 OA
ATOM     28  H1  UNL     1      16.857  49.797 -49.802  1.00  0.00     0.162 HD
ENDBRANCH  23  24
ENDBRANCH  22  23
ENDBRANCH   1  22
BRANCH   6  29
HETATM   29  N9  UNL     1       8.883  52.096 -48.112  1.00  0.00    -0.383 N 
ATOM     30  H92 UNL     1       8.567  52.366 -49.044  1.00  0.00     0.157 HD
ATOM     31  H91 UNL     1       8.289  52.287 -47.305  1.00  0.00     0.157 HD
ENDBRANCH   6  29
TORSDOF 6
ENDMDL
