MODEL 1
REMARK VINA RESULT: -6.694507007      0.000      0.000
REMARK  8 active torsions:
REMARK  status: ('A' for Active; 'I' for Inactive)
REMARK    1  A    between atoms: C2_2  and  O1_4 
REMARK    2  A    between atoms: C2_2  and  C4_6 
REMARK    3  A    between atoms: C6_8  and  C7_9 
REMARK    4  A    between atoms: C7_9  and  O2_10 
REMARK    5  A    between atoms: C9_15  and  C10_16 
REMARK    6  A    between atoms: C10_16  and  O4_17 
REMARK    7  A    between atoms: C11_20  and  C12_21 
REMARK    8  A    between atoms: C12_21  and  O5_22 
ROOT
HETATM    1  C4  UNL     1       4.280   7.354  12.101  1.00  0.00    -0.008 A 
HETATM    2  C5  UNL     1       3.993   7.357  13.418  1.00  0.00     0.031 A 
HETATM    3  C6  UNL     1       4.984   6.991  14.289  1.00  0.00     0.046 A 
HETATM    4  S2  UNL     1       6.290   6.654  13.244  1.00  0.00    -0.091 SA
HETATM    5  C11 UNL     1       5.544   6.984  11.735  1.00  0.00     0.016 A 
ENDROOT
BRANCH   3   6
HETATM    6  C7  UNL     1       4.989   6.882  15.745  1.00  0.00     0.213 C 
HETATM    7  O3  UNL     1       5.648   5.734  16.157  1.00  0.00    -0.340 OA
HETATM    8  C8  UNL     1       5.927   5.913  17.534  1.00  0.00     0.246 C 
HETATM    9  S1  UNL     1       4.257   6.432  18.111  1.00  0.00    -0.130 SA
HETATM   10  C9  UNL     1       3.651   6.913  16.427  1.00  0.00     0.141 C 
BRANCH   6  11
HETATM   11  O2  UNL     1       5.736   7.944  16.328  1.00  0.00    -0.360 OA
ATOM     12  H2  UNL     1       5.287   8.293  17.089  1.00  0.00     0.213 HD
ENDBRANCH   6  11
BRANCH  10  13
HETATM   13  C10 UNL     1       2.670   5.889  16.012  1.00  0.00     0.185 C 
BRANCH  13  14
HETATM   14  O4  UNL     1       1.384   6.349  16.037  1.00  0.00    -0.400 OA
ATOM     15  H4  UNL     1       0.742   5.650  15.990  1.00  0.00     0.209 HD
ENDBRANCH  13  14
ENDBRANCH  10  13
ENDBRANCH   3   6
BRANCH   1  16
HETATM   16  C2  UNL     1       3.276   7.745  11.034  1.00  0.00     0.079 C 
HETATM   17  C1  UNL     1       3.423   6.888   9.820  1.00  0.00     0.051 C 
HETATM   18  C3  UNL     1       1.877   7.697  11.630  1.00  0.00     0.051 C 
BRANCH  16  19
HETATM   19  O1  UNL     1       3.504   9.060  10.634  1.00  0.00    -0.386 OA
ATOM     20  H1  UNL     1       2.702   9.543  10.795  1.00  0.00     0.211 HD
ENDBRANCH  16  19
ENDBRANCH   1  16
BRANCH   5  21
HETATM   21  C12 UNL     1       6.167   6.871  10.384  1.00  0.00     0.211 C 
BRANCH  21  22
HETATM   22  O5  UNL     1       6.899   5.688  10.363  1.00  0.00    -0.396 OA
ATOM     23  H5  UNL     1       7.585   5.791   9.714  1.00  0.00     0.209 HD
ENDBRANCH  21  22
ENDBRANCH   5  21
TORSDOF 8
ENDMDL
MODEL 2
REMARK VINA RESULT: -6.646585997      8.746     11.087
REMARK  8 active torsions:
REMARK  status: ('A' for Active; 'I' for Inactive)
REMARK    1  A    between atoms: C2_2  and  O1_4 
REMARK    2  A    between atoms: C2_2  and  C4_6 
REMARK    3  A    between atoms: C6_8  and  C7_9 
REMARK    4  A    between atoms: C7_9  and  O2_10 
REMARK    5  A    between atoms: C9_15  and  C10_16 
REMARK    6  A    between atoms: C10_16  and  O4_17 
REMARK    7  A    between atoms: C11_20  and  C12_21 
REMARK    8  A    between atoms: C12_21  and  O5_22 
ROOT
HETATM    1  C4  UNL     1      -0.242   3.917   6.549  1.00  0.00    -0.008 A 
HETATM    2  C5  UNL     1       0.661   4.435   5.693  1.00  0.00     0.031 A 
HETATM    3  C6  UNL     1       0.232   5.392   4.813  1.00  0.00     0.046 A 
HETATM    4  S2  UNL     1      -1.421   5.541   5.206  1.00  0.00    -0.091 SA
HETATM    5  C11 UNL     1      -1.522   4.388   6.472  1.00  0.00     0.016 A 
ENDROOT
BRANCH   3   6
HETATM    6  C7  UNL     1       0.945   6.126   3.771  1.00  0.00     0.213 C 
HETATM    7  O3  UNL     1       1.927   5.338   3.189  1.00  0.00    -0.340 OA
HETATM    8  C8  UNL     1       2.282   5.981   1.978  1.00  0.00     0.246 C 
HETATM    9  S1  UNL     1       2.546   7.689   2.617  1.00  0.00    -0.130 SA
HETATM   10  C9  UNL     1       1.582   7.424   4.177  1.00  0.00     0.141 C 
BRANCH   6  11
HETATM   11  O2  UNL     1       0.073   6.451   2.695  1.00  0.00    -0.360 OA
ATOM     12  H2  UNL     1       0.504   7.026   2.074  1.00  0.00     0.213 HD
ENDBRANCH   6  11
BRANCH  10  13
HETATM   13  C10 UNL     1       2.558   7.368   5.284  1.00  0.00     0.185 C 
BRANCH  13  14
HETATM   14  O4  UNL     1       3.541   6.442   5.075  1.00  0.00    -0.400 OA
ATOM     15  H4  UNL     1       4.177   6.416   5.781  1.00  0.00     0.209 HD
ENDBRANCH  13  14
ENDBRANCH  10  13
ENDBRANCH   3   6
BRANCH   1  16
HETATM   16  C2  UNL     1       0.106   2.859   7.578  1.00  0.00     0.079 C 
HETATM   17  C1  UNL     1       1.516   2.395   7.414  1.00  0.00     0.051 C 
HETATM   18  C3  UNL     1      -0.182   3.407   8.968  1.00  0.00     0.051 C 
BRANCH  16  19
HETATM   19  O1  UNL     1      -0.713   1.745   7.401  1.00  0.00    -0.386 OA
ATOM     20  H1  UNL     1      -1.566   2.067   7.134  1.00  0.00     0.211 HD
ENDBRANCH  16  19
ENDBRANCH   1  16
BRANCH   5  21
HETATM   21  C12 UNL     1      -2.737   4.025   7.257  1.00  0.00     0.211 C 
BRANCH  21  22
HETATM   22  O5  UNL     1      -3.289   2.892   6.666  1.00  0.00    -0.396 OA
ATOM     23  H5  UNL     1      -4.233   2.972   6.727  1.00  0.00     0.209 HD
ENDBRANCH  21  22
ENDBRANCH   5  21
TORSDOF 8
ENDMDL
MODEL 3
REMARK VINA RESULT: -6.640465334      7.909      9.305
REMARK  8 active torsions:
REMARK  status: ('A' for Active; 'I' for Inactive)
REMARK    1  A    between atoms: C2_2  and  O1_4 
REMARK    2  A    between atoms: C2_2  and  C4_6 
REMARK    3  A    between atoms: C6_8  and  C7_9 
REMARK    4  A    between atoms: C7_9  and  O2_10 
REMARK    5  A    between atoms: C9_15  and  C10_16 
REMARK    6  A    between atoms: C10_16  and  O4_17 
REMARK    7  A    between atoms: C11_20  and  C12_21 
REMARK    8  A    between atoms: C12_21  and  O5_22 
ROOT
HETATM    1  C4  UNL     1      -1.486   6.055   7.540  1.00  0.00    -0.008 A 
HETATM    2  C5  UNL     1      -0.978   5.020   8.239  1.00  0.00     0.031 A 
HETATM    3  C6  UNL     1      -0.552   3.924   7.538  1.00  0.00     0.046 A 
HETATM    4  S2  UNL     1      -0.872   4.369   5.923  1.00  0.00    -0.091 SA
HETATM    5  C11 UNL     1      -1.537   5.930   6.180  1.00  0.00     0.016 A 
ENDROOT
BRANCH   3   6
HETATM    6  C7  UNL     1       0.023   2.661   7.991  1.00  0.00     0.213 C 
HETATM    7  O3  UNL     1       0.156   2.640   9.372  1.00  0.00    -0.340 OA
HETATM    8  C8  UNL     1       0.349   1.283   9.729  1.00  0.00     0.246 C 
HETATM    9  S1  UNL     1       1.685   0.849   8.536  1.00  0.00    -0.130 SA
HETATM   10  C9  UNL     1       1.347   2.272   7.398  1.00  0.00     0.141 C 
BRANCH   6  11
HETATM   11  O2  UNL     1      -0.852   1.576   7.707  1.00  0.00    -0.360 OA
ATOM     12  H2  UNL     1      -0.633   0.818   8.236  1.00  0.00     0.213 HD
ENDBRANCH   6  11
BRANCH  10  13
HETATM   13  C10 UNL     1       2.458   3.232   7.565  1.00  0.00     0.185 C 
BRANCH  13  14
HETATM   14  O4  UNL     1       2.745   3.912   6.416  1.00  0.00    -0.400 OA
ATOM     15  H4  UNL     1       2.887   4.840   6.563  1.00  0.00     0.209 HD
ENDBRANCH  13  14
ENDBRANCH  10  13
ENDBRANCH   3   6
BRANCH   1  16
HETATM   16  C2  UNL     1      -1.984   7.330   8.194  1.00  0.00     0.079 C 
HETATM   17  C1  UNL     1      -2.142   7.150   9.667  1.00  0.00     0.051 C 
HETATM   18  C3  UNL     1      -1.045   8.471   7.831  1.00  0.00     0.051 C 
BRANCH  16  19
HETATM   19  O1  UNL     1      -3.240   7.658   7.686  1.00  0.00    -0.386 OA
ATOM     20  H1  UNL     1      -3.103   8.307   7.005  1.00  0.00     0.211 HD
ENDBRANCH  16  19
ENDBRANCH   1  16
BRANCH   5  21
HETATM   21  C12 UNL     1      -2.039   6.872   5.138  1.00  0.00     0.211 C 
BRANCH  21  22
HETATM   22  O5  UNL     1      -3.295   6.423   4.743  1.00  0.00    -0.396 OA
ATOM     23  H5  UNL     1      -3.606   7.012   4.066  1.00  0.00     0.209 HD
ENDBRANCH  21  22
ENDBRANCH   5  21
TORSDOF 8
ENDMDL
MODEL 4
REMARK VINA RESULT: -6.530537432      8.717     10.889
REMARK  8 active torsions:
REMARK  status: ('A' for Active; 'I' for Inactive)
REMARK    1  A    between atoms: C2_2  and  O1_4 
REMARK    2  A    between atoms: C2_2  and  C4_6 
REMARK    3  A    between atoms: C6_8  and  C7_9 
REMARK    4  A    between atoms: C7_9  and  O2_10 
REMARK    5  A    between atoms: C9_15  and  C10_16 
REMARK    6  A    between atoms: C10_16  and  O4_17 
REMARK    7  A    between atoms: C11_20  and  C12_21 
REMARK    8  A    between atoms: C12_21  and  O5_22 
ROOT
HETATM    1  C4  UNL     1       0.202   3.715   6.872  1.00  0.00    -0.008 A 
HETATM    2  C5  UNL     1       1.230   4.253   6.186  1.00  0.00     0.031 A 
HETATM    3  C6  UNL     1       0.974   5.345   5.401  1.00  0.00     0.046 A 
HETATM    4  S2  UNL     1      -0.696   5.591   5.644  1.00  0.00    -0.091 SA
HETATM    5  C11 UNL     1      -1.023   4.305   6.731  1.00  0.00     0.016 A 
ENDROOT
BRANCH   3   6
HETATM    6  C7  UNL     1       1.851   6.135   4.541  1.00  0.00     0.213 C 
HETATM    7  O3  UNL     1       1.540   7.484   4.617  1.00  0.00    -0.340 OA
HETATM    8  C8  UNL     1       2.651   8.176   4.075  1.00  0.00     0.246 C 
HETATM    9  S1  UNL     1       2.854   7.229   2.508  1.00  0.00    -0.130 SA
HETATM   10  C9  UNL     1       1.893   5.755   3.089  1.00  0.00     0.141 C 
BRANCH   6  11
HETATM   11  O2  UNL     1       3.199   6.060   4.991  1.00  0.00    -0.360 OA
ATOM     12  H2  UNL     1       3.265   5.515   5.766  1.00  0.00     0.213 HD
ENDBRANCH   6  11
BRANCH  10  13
HETATM   13  C10 UNL     1       0.606   5.764   2.363  1.00  0.00     0.185 C 
BRANCH  13  14
HETATM   14  O4  UNL     1       0.219   7.020   1.990  1.00  0.00    -0.400 OA
ATOM     15  H4  UNL     1      -0.037   7.070   1.076  1.00  0.00     0.209 HD
ENDBRANCH  13  14
ENDBRANCH  10  13
ENDBRANCH   3   6
BRANCH   1  16
HETATM   16  C2  UNL     1       0.353   2.512   7.782  1.00  0.00     0.079 C 
HETATM   17  C1  UNL     1       1.710   1.904   7.645  1.00  0.00     0.051 C 
HETATM   18  C3  UNL     1       0.029   2.927   9.209  1.00  0.00     0.051 C 
BRANCH  16  19
HETATM   19  O1  UNL     1      -0.571   1.532   7.422  1.00  0.00    -0.386 OA
ATOM     20  H1  UNL     1      -1.434   1.891   7.589  1.00  0.00     0.211 HD
ENDBRANCH  16  19
ENDBRANCH   1  16
BRANCH   5  21
HETATM   21  C12 UNL     1      -2.341   3.956   7.336  1.00  0.00     0.211 C 
BRANCH  21  22
HETATM   22  O5  UNL     1      -2.895   2.939   6.565  1.00  0.00    -0.396 OA
ATOM     23  H5  UNL     1      -3.456   2.426   7.135  1.00  0.00     0.209 HD
ENDBRANCH  21  22
ENDBRANCH   5  21
TORSDOF 8
ENDMDL
MODEL 5
REMARK VINA RESULT: -6.327793844      0.994      2.614
REMARK  8 active torsions:
REMARK  status: ('A' for Active; 'I' for Inactive)
REMARK    1  A    between atoms: C2_2  and  O1_4 
REMARK    2  A    between atoms: C2_2  and  C4_6 
REMARK    3  A    between atoms: C6_8  and  C7_9 
REMARK    4  A    between atoms: C7_9  and  O2_10 
REMARK    5  A    between atoms: C9_15  and  C10_16 
REMARK    6  A    between atoms: C10_16  and  O4_17 
REMARK    7  A    between atoms: C11_20  and  C12_21 
REMARK    8  A    between atoms: C12_21  and  O5_22 
ROOT
HETATM    1  C4  UNL     1       5.748   7.041  12.060  1.00  0.00    -0.008 A 
HETATM    2  C5  UNL     1       6.042   6.919  13.369  1.00  0.00     0.031 A 
HETATM    3  C6  UNL     1       5.007   6.978  14.264  1.00  0.00     0.046 A 
HETATM    4  S2  UNL     1       3.654   7.202  13.251  1.00  0.00    -0.091 SA
HETATM    5  C11 UNL     1       4.435   7.216  11.724  1.00  0.00     0.016 A 
ENDROOT
BRANCH   3   6
HETATM    6  C7  UNL     1       4.995   6.893  15.722  1.00  0.00     0.213 C 
HETATM    7  O3  UNL     1       5.663   5.759  16.161  1.00  0.00    -0.340 OA
HETATM    8  C8  UNL     1       5.923   5.964  17.538  1.00  0.00     0.246 C 
HETATM    9  S1  UNL     1       4.239   6.472  18.086  1.00  0.00    -0.130 SA
HETATM   10  C9  UNL     1       3.649   6.918  16.387  1.00  0.00     0.141 C 
BRANCH   6  11
HETATM   11  O2  UNL     1       5.722   7.972  16.297  1.00  0.00    -0.360 OA
ATOM     12  H2  UNL     1       5.608   7.991  17.240  1.00  0.00     0.213 HD
ENDBRANCH   6  11
BRANCH  10  13
HETATM   13  C10 UNL     1       2.685   5.876  15.977  1.00  0.00     0.185 C 
BRANCH  13  14
HETATM   14  O4  UNL     1       1.390   6.307  16.023  1.00  0.00    -0.400 OA
ATOM     15  H4  UNL     1       1.298   7.222  15.785  1.00  0.00     0.209 HD
ENDBRANCH  13  14
ENDBRANCH  10  13
ENDBRANCH   3   6
BRANCH   1  16
HETATM   16  C2  UNL     1       6.799   6.986  10.967  1.00  0.00     0.079 C 
HETATM   17  C1  UNL     1       6.538   8.018   9.920  1.00  0.00     0.051 C 
HETATM   18  C3  UNL     1       8.177   7.114  11.599  1.00  0.00     0.051 C 
BRANCH  16  19
HETATM   19  O1  UNL     1       6.753   5.744  10.336  1.00  0.00    -0.386 OA
ATOM     20  H1  UNL     1       6.986   5.886   9.425  1.00  0.00     0.211 HD
ENDBRANCH  16  19
ENDBRANCH   1  16
BRANCH   5  21
HETATM   21  C12 UNL     1       3.790   7.387  10.390  1.00  0.00     0.211 C 
BRANCH  21  22
HETATM   22  O5  UNL     1       3.068   8.576  10.428  1.00  0.00    -0.396 OA
ATOM     23  H5  UNL     1       3.630   9.237  10.814  1.00  0.00     0.209 HD
ENDBRANCH  21  22
ENDBRANCH   5  21
TORSDOF 8
ENDMDL
