MODEL 1
REMARK VINA RESULT: -4.768173825      0.000      0.000
REMARK  1 active torsions:
REMARK  status: ('A' for Active; 'I' for Inactive)
REMARK    1  A    between atoms: N2_4  and  C1_6 
ROOT
HETATM    1  C1  UNL     1      28.809  14.127  18.684  1.00  0.00     0.103 C 
HETATM    2  C2  UNL     1      28.624  13.276  17.442  1.00  0.00     0.027 C 
HETATM    3  C3  UNL     1      29.418  14.058  16.420  1.00  0.00     0.007 C 
HETATM    4  C4  UNL     1      29.184  15.493  16.714  1.00  0.00    -0.008 A 
HETATM    5  C5  UNL     1      27.926  16.023  17.264  1.00  0.00     0.012 A 
HETATM    6  C6  UNL     1      28.942  15.553  18.211  1.00  0.00     0.014 A 
ENDROOT
BRANCH   1   7
HETATM    7  N2  UNL     1      27.615  14.019  19.454  1.00  0.00    -0.338 N 
HETATM    8  N1  UNL     1      27.157  12.922  19.818  1.00  0.00    -0.349 N 
ATOM      9  H12 UNL     1      27.665  12.080  19.547  1.00  0.00     0.176 HD
ATOM     10  H11 UNL     1      26.302  12.844  20.368  1.00  0.00     0.176 HD
ATOM     11  H2  UNL     1      27.119  14.871  19.715  1.00  0.00     0.180 HD
ENDBRANCH   1   7
TORSDOF 1
ENDMDL
MODEL 2
REMARK VINA RESULT: -4.728757521      2.505      3.470
REMARK  1 active torsions:
REMARK  status: ('A' for Active; 'I' for Inactive)
REMARK    1  A    between atoms: N2_4  and  C1_6 
ROOT
HETATM    1  C1  UNL     1      28.946  15.826  17.298  1.00  0.00     0.103 C 
HETATM    2  C2  UNL     1      27.622  15.699  18.028  1.00  0.00     0.027 C 
HETATM    3  C3  UNL     1      27.959  14.674  19.087  1.00  0.00     0.007 C 
HETATM    4  C4  UNL     1      28.866  13.691  18.448  1.00  0.00    -0.008 A 
HETATM    5  C5  UNL     1      28.800  13.317  17.025  1.00  0.00     0.012 A 
HETATM    6  C6  UNL     1      29.618  14.478  17.389  1.00  0.00     0.014 A 
ENDROOT
BRANCH   1   7
HETATM    7  N2  UNL     1      28.653  16.089  15.929  1.00  0.00    -0.338 N 
HETATM    8  N1  UNL     1      29.528  16.442  15.119  1.00  0.00    -0.349 N 
ATOM      9  H12 UNL     1      30.483  16.543  15.463  1.00  0.00     0.176 HD
ATOM     10  H11 UNL     1      29.318  16.631  14.139  1.00  0.00     0.176 HD
ATOM     11  H2  UNL     1      27.693  15.984  15.602  1.00  0.00     0.180 HD
ENDBRANCH   1   7
TORSDOF 1
ENDMDL
MODEL 3
REMARK VINA RESULT: -4.509032441      2.654      3.248
REMARK  1 active torsions:
REMARK  status: ('A' for Active; 'I' for Inactive)
REMARK    1  A    between atoms: N2_4  and  C1_6 
ROOT
HETATM    1  C1  UNL     1      28.796  14.923  16.230  1.00  0.00     0.103 C 
HETATM    2  C2  UNL     1      29.333  13.647  16.850  1.00  0.00     0.027 C 
HETATM    3  C3  UNL     1      28.345  13.418  17.972  1.00  0.00     0.007 C 
HETATM    4  C4  UNL     1      28.016  14.756  18.522  1.00  0.00    -0.008 A 
HETATM    5  C5  UNL     1      28.963  15.882  18.563  1.00  0.00     0.012 A 
HETATM    6  C6  UNL     1      28.159  15.710  17.349  1.00  0.00     0.014 A 
ENDROOT
BRANCH   1   7
HETATM    7  N2  UNL     1      29.912  15.661  15.742  1.00  0.00    -0.338 N 
HETATM    8  N1  UNL     1      30.720  15.181  14.928  1.00  0.00    -0.349 N 
ATOM      9  H12 UNL     1      30.563  14.225  14.608  1.00  0.00     0.176 HD
ATOM     10  H11 UNL     1      31.520  15.709  14.579  1.00  0.00     0.176 HD
ATOM     11  H2  UNL     1      30.054  16.615  16.072  1.00  0.00     0.180 HD
ENDBRANCH   1   7
TORSDOF 1
ENDMDL
MODEL 4
REMARK VINA RESULT: -4.107059607      2.324      2.942
REMARK  1 active torsions:
REMARK  status: ('A' for Active; 'I' for Inactive)
REMARK    1  A    between atoms: N2_4  and  C1_6 
ROOT
HETATM    1  C1  UNL     1      28.528  16.032  17.246  1.00  0.00     0.103 C 
HETATM    2  C2  UNL     1      28.440  14.561  17.610  1.00  0.00     0.027 C 
HETATM    3  C3  UNL     1      29.794  14.059  17.162  1.00  0.00     0.007 C 
HETATM    4  C4  UNL     1      30.114  14.777  15.905  1.00  0.00    -0.008 A 
HETATM    5  C5  UNL     1      29.103  15.209  14.926  1.00  0.00     0.012 A 
HETATM    6  C6  UNL     1      29.417  16.120  16.031  1.00  0.00     0.014 A 
ENDROOT
BRANCH   1   7
HETATM    7  N2  UNL     1      27.219  16.456  16.876  1.00  0.00    -0.338 N 
HETATM    8  N1  UNL     1      26.999  17.576  16.383  1.00  0.00    -0.349 N 
ATOM      9  H12 UNL     1      27.794  18.201  16.247  1.00  0.00     0.176 HD
ATOM     10  H11 UNL     1      26.063  17.881  16.118  1.00  0.00     0.176 HD
ATOM     11  H2  UNL     1      26.436  15.819  17.019  1.00  0.00     0.180 HD
ENDBRANCH   1   7
TORSDOF 1
ENDMDL
MODEL 5
REMARK VINA RESULT: -4.001294672      2.340      2.951
REMARK  1 active torsions:
REMARK  status: ('A' for Active; 'I' for Inactive)
REMARK    1  A    between atoms: N2_4  and  C1_6 
ROOT
HETATM    1  C1  UNL     1      28.072  15.413  16.788  1.00  0.00     0.103 C 
HETATM    2  C2  UNL     1      29.552  15.238  16.500  1.00  0.00     0.027 C 
HETATM    3  C3  UNL     1      29.856  13.961  17.248  1.00  0.00     0.007 C 
HETATM    4  C4  UNL     1      29.062  14.007  18.500  1.00  0.00    -0.008 A 
HETATM    5  C5  UNL     1      28.739  15.249  19.221  1.00  0.00     0.012 A 
HETATM    6  C6  UNL     1      27.829  14.821  18.154  1.00  0.00     0.014 A 
ENDROOT
BRANCH   1   7
HETATM    7  N2  UNL     1      27.814  16.812  16.853  1.00  0.00    -0.338 N 
HETATM    8  N1  UNL     1      26.735  17.306  16.481  1.00  0.00    -0.349 N 
ATOM      9  H12 UNL     1      26.022  16.674  16.120  1.00  0.00     0.176 HD
ATOM     10  H11 UNL     1      26.551  18.308  16.527  1.00  0.00     0.176 HD
ATOM     11  H2  UNL     1      28.539  17.430  17.217  1.00  0.00     0.180 HD
ENDBRANCH   1   7
TORSDOF 1
ENDMDL
