MODEL 1
REMARK VINA RESULT: -8.616659244      0.000      0.000
REMARK  15 active torsions:
REMARK  status: ('A' for Active; 'I' for Inactive)
REMARK    1  A    between atoms: C2_2  and  C3_3 
REMARK    2  A    between atoms: C3_3  and  C4_4 
REMARK    3  A    between atoms: C4_4  and  C5_5 
REMARK    4  A    between atoms: C5_5  and  C6_6 
REMARK    5  A    between atoms: C6_6  and  C7_7 
REMARK    6  A    between atoms: C8_8  and  C9_9 
REMARK    7  A    between atoms: C9_9  and  N1_10 
REMARK       I    between atoms: N1_10  and  C10_12 
REMARK    8  A    between atoms: C10_12  and  C11_14 
REMARK    9  A    between atoms: C11_14  and  O2_15 
REMARK   10  A    between atoms: C19_24  and  O3_25 
REMARK   11  A    between atoms: C26_35  and  O5_36 
REMARK   12  A    between atoms: O5_36  and  C27_37 
REMARK   13  A    between atoms: C30_41  and  O7_42 
REMARK   14  A    between atoms: C31_44  and  O8_45 
REMARK   15  A    between atoms: C32_47  and  O9_48 
ROOT
HETATM    1  C11 UNL     1      23.138  12.803  27.613  1.00  0.00     0.148 C 
HETATM    2  C12 UNL     1      22.955  13.575  28.916  1.00  0.00     0.049 C 
HETATM    3  C13 UNL     1      24.403  13.839  29.352  1.00  0.00     0.015 C 
HETATM    4  C14 UNL     1      25.108  14.012  27.992  1.00  0.00     0.046 C 
HETATM    5  C15 UNL     1      26.520  14.344  28.192  1.00  0.00    -0.002 C 
HETATM    6  C16 UNL     1      27.098  14.175  29.552  1.00  0.00     0.054 C 
HETATM    7  C17 UNL     1      28.497  13.586  29.605  1.00  0.00     0.015 C 
HETATM    8  C18 UNL     1      29.245  14.290  28.580  1.00  0.00     0.043 C 
HETATM    9  C19 UNL     1      30.710  14.240  28.557  1.00  0.00     0.124 C 
HETATM   10  C20 UNL     1      30.955  14.939  27.219  1.00  0.00     0.034 C 
HETATM   11  C21 UNL     1      29.728  14.590  26.361  1.00  0.00     0.034 C 
HETATM   12  C22 UNL     1      28.838  13.749  27.225  1.00  0.00     0.042 C 
HETATM   13  C23 UNL     1      29.213  12.318  27.001  1.00  0.00     0.039 C 
HETATM   14  N2  UNL     1      27.430  13.998  27.099  1.00  0.00    -0.315 N 
HETATM   15  C24 UNL     1      26.998  13.876  25.753  1.00  0.00     0.227 C 
HETATM   16  O4  UNL     1      27.835  13.854  24.856  1.00  0.00    -0.273 OA
HETATM   17  C25 UNL     1      25.595  13.765  25.242  1.00  0.00     0.136 C 
HETATM   18  C26 UNL     1      25.016  12.534  25.945  1.00  0.00     0.145 C 
HETATM   19  C33 UNL     1      24.618  12.785  27.342  1.00  0.00     0.031 C 
HETATM   20  C34 UNL     1      25.147  11.597  28.172  1.00  0.00     0.022 C 
ENDROOT
BRANCH   1  21
HETATM   21  C10 UNL     1      22.260  13.472  26.666  1.00  0.00     0.253 C 
HETATM   22  N1  UNL     1      21.346  12.609  25.939  1.00  0.00    -0.355 N 
ATOM     23  H1  UNL     1      21.361  11.605  26.116  1.00  0.00     0.162 HD
HETATM   24  O1  UNL     1      22.174  14.661  26.386  1.00  0.00    -0.270 OA
BRANCH  22  25
HETATM   25  C9  UNL     1      20.426  13.137  24.981  1.00  0.00     0.149 C 
BRANCH  25  26
HETATM   26  C8  UNL     1      19.521  12.212  24.312  1.00  0.00    -0.011 C 
HETATM   27  C7  UNL     1      19.349  10.952  24.569  1.00  0.00    -0.029 C 
BRANCH  27  28
HETATM   28  C6  UNL     1      18.436  10.021  23.887  1.00  0.00     0.027 C 
BRANCH  28  29
HETATM   29  C5  UNL     1      18.061   8.774  24.580  1.00  0.00     0.004 C 
BRANCH  29  30
HETATM   30  C4  UNL     1      18.302   8.814  26.061  1.00  0.00     0.000 C 
BRANCH  30  31
HETATM   31  C3  UNL     1      16.986   9.173  26.734  1.00  0.00    -0.000 C 
BRANCH  31  32
HETATM   32  C2  UNL     1      17.209  10.356  27.629  1.00  0.00    -0.005 C 
HETATM   33  C1  UNL     1      16.702  11.602  26.934  1.00  0.00     0.005 C 
ENDBRANCH  31  32
ENDBRANCH  30  31
ENDBRANCH  29  30
ENDBRANCH  28  29
ENDBRANCH  27  28
ENDBRANCH  25  26
ENDBRANCH  22  25
ENDBRANCH   1  21
BRANCH   1  34
HETATM   34  O2  UNL     1      22.675  11.499  27.940  1.00  0.00    -0.379 OA
ATOM     35  H2  UNL     1      23.378  10.937  28.246  1.00  0.00     0.211 HD
ENDBRANCH   1  34
BRANCH  18  36
HETATM   36  O5  UNL     1      24.061  11.916  25.219  1.00  0.00    -0.352 OA
BRANCH  36  37
HETATM   37  C27 UNL     1      24.348  11.561  23.935  1.00  0.00     0.291 C 
HETATM   38  O6  UNL     1      23.850  10.358  23.493  1.00  0.00    -0.351 OA
HETATM   39  C28 UNL     1      22.556  10.466  22.981  1.00  0.00     0.152 C 
HETATM   40  C29 UNL     1      21.913   9.143  22.739  1.00  0.00     0.042 C 
HETATM   41  C30 UNL     1      22.597  11.212  21.637  1.00  0.00     0.178 C 
HETATM   42  C31 UNL     1      23.953  11.920  21.554  1.00  0.00     0.183 C 
HETATM   43  C32 UNL     1      24.100  12.610  22.896  1.00  0.00     0.204 C 
BRANCH  41  44
HETATM   44  O7  UNL     1      22.425  10.315  20.616  1.00  0.00    -0.390 OA
ATOM     45  H7  UNL     1      21.496  10.199  20.454  1.00  0.00     0.210 HD
ENDBRANCH  41  44
BRANCH  42  46
HETATM   46  O8  UNL     1      23.801  12.926  20.600  1.00  0.00    -0.390 OA
ATOM     47  H8  UNL     1      24.678  13.234  20.406  1.00  0.00     0.210 HD
ENDBRANCH  42  46
BRANCH  43  48
HETATM   48  O9  UNL     1      22.885  13.281  23.090  1.00  0.00    -0.388 OA
ATOM     49  H9  UNL     1      22.503  13.586  22.274  1.00  0.00     0.210 HD
ENDBRANCH  43  48
ENDBRANCH  36  37
ENDBRANCH  18  36
BRANCH   9  50
HETATM   50  O3  UNL     1      31.284  13.006  28.623  1.00  0.00    -0.395 OA
ATOM     51  H3  UNL     1      32.222  12.962  28.483  1.00  0.00     0.210 HD
ENDBRANCH   9  50
TORSDOF 15
ENDMDL
MODEL 2
REMARK VINA RESULT: -8.506522134      0.938      1.601
REMARK  15 active torsions:
REMARK  status: ('A' for Active; 'I' for Inactive)
REMARK    1  A    between atoms: C2_2  and  C3_3 
REMARK    2  A    between atoms: C3_3  and  C4_4 
REMARK    3  A    between atoms: C4_4  and  C5_5 
REMARK    4  A    between atoms: C5_5  and  C6_6 
REMARK    5  A    between atoms: C6_6  and  C7_7 
REMARK    6  A    between atoms: C8_8  and  C9_9 
REMARK    7  A    between atoms: C9_9  and  N1_10 
REMARK       I    between atoms: N1_10  and  C10_12 
REMARK    8  A    between atoms: C10_12  and  C11_14 
REMARK    9  A    between atoms: C11_14  and  O2_15 
REMARK   10  A    between atoms: C19_24  and  O3_25 
REMARK   11  A    between atoms: C26_35  and  O5_36 
REMARK   12  A    between atoms: O5_36  and  C27_37 
REMARK   13  A    between atoms: C30_41  and  O7_42 
REMARK   14  A    between atoms: C31_44  and  O8_45 
REMARK   15  A    between atoms: C32_47  and  O9_48 
ROOT
HETATM    1  C11 UNL     1      23.132  12.794  27.633  1.00  0.00     0.148 C 
HETATM    2  C12 UNL     1      22.953  13.562  28.939  1.00  0.00     0.049 C 
HETATM    3  C13 UNL     1      24.403  13.828  29.369  1.00  0.00     0.015 C 
HETATM    4  C14 UNL     1      25.101  14.006  28.006  1.00  0.00     0.046 C 
HETATM    5  C15 UNL     1      26.513  14.340  28.201  1.00  0.00    -0.002 C 
HETATM    6  C16 UNL     1      27.098  14.169  29.557  1.00  0.00     0.054 C 
HETATM    7  C17 UNL     1      28.499  13.583  29.602  1.00  0.00     0.015 C 
HETATM    8  C18 UNL     1      29.240  14.291  28.576  1.00  0.00     0.043 C 
HETATM    9  C19 UNL     1      30.705  14.243  28.546  1.00  0.00     0.124 C 
HETATM   10  C20 UNL     1      30.943  14.946  27.208  1.00  0.00     0.034 C 
HETATM   11  C21 UNL     1      29.712  14.597  26.356  1.00  0.00     0.034 C 
HETATM   12  C22 UNL     1      28.828  13.752  27.222  1.00  0.00     0.042 C 
HETATM   13  C23 UNL     1      29.205  12.322  26.992  1.00  0.00     0.039 C 
HETATM   14  N2  UNL     1      27.419  13.999  27.103  1.00  0.00    -0.315 N 
HETATM   15  C24 UNL     1      26.981  13.880  25.758  1.00  0.00     0.227 C 
HETATM   16  O4  UNL     1      27.814  13.861  24.858  1.00  0.00    -0.273 OA
HETATM   17  C25 UNL     1      25.576  13.767  25.254  1.00  0.00     0.136 C 
HETATM   18  C26 UNL     1      25.002  12.533  25.956  1.00  0.00     0.145 C 
HETATM   19  C33 UNL     1      24.610  12.780  27.355  1.00  0.00     0.031 C 
HETATM   20  C34 UNL     1      25.145  11.591  28.180  1.00  0.00     0.022 C 
ENDROOT
BRANCH   1  21
HETATM   21  C10 UNL     1      22.248  13.464  26.692  1.00  0.00     0.253 C 
HETATM   22  N1  UNL     1      21.312  12.605  25.989  1.00  0.00    -0.355 N 
ATOM     23  H1  UNL     1      21.316  11.603  26.177  1.00  0.00     0.162 HD
HETATM   24  O1  UNL     1      22.173  14.651  26.399  1.00  0.00    -0.270 OA
BRANCH  22  25
HETATM   25  C9  UNL     1      20.384  13.134  25.039  1.00  0.00     0.149 C 
BRANCH  25  26
HETATM   26  C8  UNL     1      19.540  12.200  24.306  1.00  0.00    -0.011 C 
HETATM   27  C7  UNL     1      19.269  10.970  24.618  1.00  0.00    -0.029 C 
BRANCH  27  28
HETATM   28  C6  UNL     1      18.419  10.030  23.872  1.00  0.00     0.027 C 
BRANCH  28  29
HETATM   29  C5  UNL     1      18.316   8.641  24.357  1.00  0.00     0.004 C 
BRANCH  29  30
HETATM   30  C4  UNL     1      18.423   7.614  23.268  1.00  0.00     0.000 C 
BRANCH  30  31
HETATM   31  C3  UNL     1      17.553   8.078  22.109  1.00  0.00    -0.000 C 
BRANCH  31  32
HETATM   32  C2  UNL     1      16.152   7.590  22.333  1.00  0.00    -0.005 C 
HETATM   33  C1  UNL     1      15.255   8.158  21.255  1.00  0.00     0.005 C 
ENDBRANCH  31  32
ENDBRANCH  30  31
ENDBRANCH  29  30
ENDBRANCH  28  29
ENDBRANCH  27  28
ENDBRANCH  25  26
ENDBRANCH  22  25
ENDBRANCH   1  21
BRANCH   1  34
HETATM   34  O2  UNL     1      22.673  11.488  27.960  1.00  0.00    -0.379 OA
ATOM     35  H2  UNL     1      21.891  11.509  28.499  1.00  0.00     0.211 HD
ENDBRANCH   1  34
BRANCH  18  36
HETATM   36  O5  UNL     1      24.046  11.915  25.233  1.00  0.00    -0.352 OA
BRANCH  36  37
HETATM   37  C27 UNL     1      24.330  11.557  23.949  1.00  0.00     0.291 C 
HETATM   38  O6  UNL     1      23.829  10.354  23.510  1.00  0.00    -0.351 OA
HETATM   39  C28 UNL     1      22.535  10.462  23.000  1.00  0.00     0.152 C 
HETATM   40  C29 UNL     1      21.889   9.140  22.763  1.00  0.00     0.042 C 
HETATM   41  C30 UNL     1      22.574  11.206  21.655  1.00  0.00     0.178 C 
HETATM   42  C31 UNL     1      23.931  11.912  21.568  1.00  0.00     0.183 C 
HETATM   43  C32 UNL     1      24.081  12.605  22.908  1.00  0.00     0.204 C 
BRANCH  41  44
HETATM   44  O7  UNL     1      22.399  10.307  20.636  1.00  0.00    -0.390 OA
ATOM     45  H7  UNL     1      22.634  10.718  19.812  1.00  0.00     0.210 HD
ENDBRANCH  41  44
BRANCH  42  46
HETATM   46  O8  UNL     1      23.778  12.916  20.613  1.00  0.00    -0.390 OA
ATOM     47  H8  UNL     1      24.407  13.589  20.841  1.00  0.00     0.210 HD
ENDBRANCH  42  46
BRANCH  43  48
HETATM   48  O9  UNL     1      22.867  13.277  23.103  1.00  0.00    -0.388 OA
ATOM     49  H9  UNL     1      22.219  13.057  22.444  1.00  0.00     0.210 HD
ENDBRANCH  43  48
ENDBRANCH  36  37
ENDBRANCH  18  36
BRANCH   9  50
HETATM   50  O3  UNL     1      31.282  13.010  28.606  1.00  0.00    -0.395 OA
ATOM     51  H3  UNL     1      32.229  12.977  28.550  1.00  0.00     0.210 HD
ENDBRANCH   9  50
TORSDOF 15
ENDMDL
MODEL 3
REMARK VINA RESULT: -8.257428470      6.742     13.448
REMARK  15 active torsions:
REMARK  status: ('A' for Active; 'I' for Inactive)
REMARK    1  A    between atoms: C2_2  and  C3_3 
REMARK    2  A    between atoms: C3_3  and  C4_4 
REMARK    3  A    between atoms: C4_4  and  C5_5 
REMARK    4  A    between atoms: C5_5  and  C6_6 
REMARK    5  A    between atoms: C6_6  and  C7_7 
REMARK    6  A    between atoms: C8_8  and  C9_9 
REMARK    7  A    between atoms: C9_9  and  N1_10 
REMARK       I    between atoms: N1_10  and  C10_12 
REMARK    8  A    between atoms: C10_12  and  C11_14 
REMARK    9  A    between atoms: C11_14  and  O2_15 
REMARK   10  A    between atoms: C19_24  and  O3_25 
REMARK   11  A    between atoms: C26_35  and  O5_36 
REMARK   12  A    between atoms: O5_36  and  C27_37 
REMARK   13  A    between atoms: C30_41  and  O7_42 
REMARK   14  A    between atoms: C31_44  and  O8_45 
REMARK   15  A    between atoms: C32_47  and  O9_48 
ROOT
HETATM    1  C11 UNL     1      16.715   7.058  21.220  1.00  0.00     0.148 C 
HETATM    2  C12 UNL     1      15.447   7.441  21.976  1.00  0.00     0.049 C 
HETATM    3  C13 UNL     1      14.577   6.185  21.824  1.00  0.00     0.015 C 
HETATM    4  C14 UNL     1      15.641   5.070  21.837  1.00  0.00     0.046 C 
HETATM    5  C15 UNL     1      14.998   3.756  21.766  1.00  0.00    -0.002 C 
HETATM    6  C16 UNL     1      13.556   3.694  21.410  1.00  0.00     0.054 C 
HETATM    7  C17 UNL     1      13.158   2.576  20.461  1.00  0.00     0.015 C 
HETATM    8  C18 UNL     1      13.833   1.395  20.963  1.00  0.00     0.043 C 
HETATM    9  C19 UNL     1      13.429   0.058  20.517  1.00  0.00     0.124 C 
HETATM   10  C20 UNL     1      14.550  -0.761  21.160  1.00  0.00     0.034 C 
HETATM   11  C21 UNL     1      15.764   0.182  21.181  1.00  0.00     0.034 C 
HETATM   12  C22 UNL     1      15.299   1.478  20.590  1.00  0.00     0.042 C 
HETATM   13  C23 UNL     1      15.559   1.422  19.117  1.00  0.00     0.039 C 
HETATM   14  N2  UNL     1      15.806   2.666  21.216  1.00  0.00    -0.315 N 
HETATM   15  C24 UNL     1      17.225   2.670  21.253  1.00  0.00     0.227 C 
HETATM   16  O4  UNL     1      17.831   1.628  21.029  1.00  0.00    -0.273 OA
HETATM   17  C25 UNL     1      18.135   3.823  21.542  1.00  0.00     0.136 C 
HETATM   18  C26 UNL     1      17.774   4.882  20.496  1.00  0.00     0.145 C 
HETATM   19  C33 UNL     1      16.538   5.622  20.807  1.00  0.00     0.031 C 
HETATM   20  C34 UNL     1      15.725   5.694  19.498  1.00  0.00     0.022 C 
ENDROOT
BRANCH   1  21
HETATM   21  C10 UNL     1      17.798   7.398  22.128  1.00  0.00     0.253 C 
HETATM   22  N1  UNL     1      18.858   8.214  21.563  1.00  0.00    -0.355 N 
ATOM     23  H1  UNL     1      18.800   8.502  20.587  1.00  0.00     0.162 HD
HETATM   24  O1  UNL     1      17.955   7.098  23.305  1.00  0.00    -0.270 OA
BRANCH  22  25
HETATM   25  C9  UNL     1      19.981   8.624  22.347  1.00  0.00     0.149 C 
BRANCH  25  26
HETATM   26  C8  UNL     1      21.304   8.561  21.742  1.00  0.00    -0.011 C 
HETATM   27  C7  UNL     1      22.303   9.364  21.945  1.00  0.00    -0.029 C 
BRANCH  27  28
HETATM   28  C6  UNL     1      23.637   9.298  21.328  1.00  0.00     0.027 C 
BRANCH  28  29
HETATM   29  C5  UNL     1      24.042  10.385  20.417  1.00  0.00     0.004 C 
BRANCH  29  30
HETATM   30  C4  UNL     1      23.305  11.672  20.652  1.00  0.00     0.000 C 
BRANCH  30  31
HETATM   31  C3  UNL     1      24.181  12.552  21.530  1.00  0.00    -0.000 C 
BRANCH  31  32
HETATM   32  C2  UNL     1      23.471  12.796  22.828  1.00  0.00    -0.005 C 
HETATM   33  C1  UNL     1      24.142  11.987  23.917  1.00  0.00     0.005 C 
ENDBRANCH  31  32
ENDBRANCH  30  31
ENDBRANCH  29  30
ENDBRANCH  28  29
ENDBRANCH  27  28
ENDBRANCH  25  26
ENDBRANCH  22  25
ENDBRANCH   1  21
BRANCH   1  34
HETATM   34  O2  UNL     1      16.684   7.910  20.082  1.00  0.00    -0.379 OA
ATOM     35  H2  UNL     1      16.776   8.826  20.319  1.00  0.00     0.211 HD
ENDBRANCH   1  34
BRANCH  18  36
HETATM   36  O5  UNL     1      18.812   5.683  20.180  1.00  0.00    -0.352 OA
BRANCH  36  37
HETATM   37  C27 UNL     1      19.185   5.782  18.873  1.00  0.00     0.291 C 
HETATM   38  O6  UNL     1      20.169   6.694  18.571  1.00  0.00    -0.351 OA
HETATM   39  C28 UNL     1      21.454   6.166  18.708  1.00  0.00     0.152 C 
HETATM   40  C29 UNL     1      22.521   7.204  18.635  1.00  0.00     0.042 C 
HETATM   41  C30 UNL     1      21.715   5.155  17.579  1.00  0.00     0.178 C 
HETATM   42  C31 UNL     1      20.355   4.788  16.976  1.00  0.00     0.183 C 
HETATM   43  C32 UNL     1      19.479   4.490  18.178  1.00  0.00     0.204 C 
BRANCH  41  44
HETATM   44  O7  UNL     1      22.550   5.718  16.651  1.00  0.00    -0.390 OA
ATOM     45  H7  UNL     1      22.253   6.599  16.456  1.00  0.00     0.210 HD
ENDBRANCH  41  44
BRANCH  42  46
HETATM   46  O8  UNL     1      20.546   3.579  16.309  1.00  0.00    -0.390 OA
ATOM     47  H8  UNL     1      19.691   3.169  16.264  1.00  0.00     0.210 HD
ENDBRANCH  42  46
BRANCH  43  48
HETATM   48  O9  UNL     1      20.239   3.616  18.967  1.00  0.00    -0.388 OA
ATOM     49  H9  UNL     1      20.161   2.711  18.688  1.00  0.00     0.210 HD
ENDBRANCH  43  48
ENDBRANCH  36  37
ENDBRANCH  18  36
BRANCH   9  50
HETATM   50  O3  UNL     1      13.333  -0.139  19.172  1.00  0.00    -0.395 OA
ATOM     51  H3  UNL     1      14.139  -0.335  18.709  1.00  0.00     0.210 HD
ENDBRANCH   9  50
TORSDOF 15
ENDMDL
MODEL 4
REMARK VINA RESULT: -8.175270926      8.285     13.343
REMARK  15 active torsions:
REMARK  status: ('A' for Active; 'I' for Inactive)
REMARK    1  A    between atoms: C2_2  and  C3_3 
REMARK    2  A    between atoms: C3_3  and  C4_4 
REMARK    3  A    between atoms: C4_4  and  C5_5 
REMARK    4  A    between atoms: C5_5  and  C6_6 
REMARK    5  A    between atoms: C6_6  and  C7_7 
REMARK    6  A    between atoms: C8_8  and  C9_9 
REMARK    7  A    between atoms: C9_9  and  N1_10 
REMARK       I    between atoms: N1_10  and  C10_12 
REMARK    8  A    between atoms: C10_12  and  C11_14 
REMARK    9  A    between atoms: C11_14  and  O2_15 
REMARK   10  A    between atoms: C19_24  and  O3_25 
REMARK   11  A    between atoms: C26_35  and  O5_36 
REMARK   12  A    between atoms: O5_36  and  C27_37 
REMARK   13  A    between atoms: C30_41  and  O7_42 
REMARK   14  A    between atoms: C31_44  and  O8_45 
REMARK   15  A    between atoms: C32_47  and  O9_48 
ROOT
HETATM    1  C11 UNL     1      16.534   6.904  20.601  1.00  0.00     0.148 C 
HETATM    2  C12 UNL     1      15.711   8.189  20.600  1.00  0.00     0.049 C 
HETATM    3  C13 UNL     1      14.623   7.888  21.640  1.00  0.00     0.015 C 
HETATM    4  C14 UNL     1      15.392   7.005  22.643  1.00  0.00     0.046 C 
HETATM    5  C15 UNL     1      14.530   6.654  23.774  1.00  0.00    -0.002 C 
HETATM    6  C16 UNL     1      13.070   6.915  23.655  1.00  0.00     0.054 C 
HETATM    7  C17 UNL     1      12.160   5.833  24.210  1.00  0.00     0.015 C 
HETATM    8  C18 UNL     1      12.732   5.477  25.494  1.00  0.00     0.043 C 
HETATM    9  C19 UNL     1      11.951   4.715  26.474  1.00  0.00     0.124 C 
HETATM   10  C20 UNL     1      13.050   4.448  27.504  1.00  0.00     0.034 C 
HETATM   11  C21 UNL     1      14.348   4.375  26.684  1.00  0.00     0.034 C 
HETATM   12  C22 UNL     1      13.959   4.622  25.259  1.00  0.00     0.042 C 
HETATM   13  C23 UNL     1      13.668   3.294  24.633  1.00  0.00     0.039 C 
HETATM   14  N2  UNL     1      14.869   5.426  24.495  1.00  0.00    -0.315 N 
HETATM   15  C24 UNL     1      16.183   4.891  24.517  1.00  0.00     0.227 C 
HETATM   16  O4  UNL     1      16.463   4.029  25.343  1.00  0.00    -0.273 OA
HETATM   17  C25 UNL     1      17.337   5.245  23.631  1.00  0.00     0.136 C 
HETATM   18  C26 UNL     1      16.838   4.980  22.208  1.00  0.00     0.145 C 
HETATM   19  C33 UNL     1      15.955   6.038  21.686  1.00  0.00     0.031 C 
HETATM   20  C34 UNL     1      14.763   5.326  21.015  1.00  0.00     0.022 C 
ENDROOT
BRANCH   1  21
HETATM   21  C10 UNL     1      17.912   7.354  20.723  1.00  0.00     0.253 C 
HETATM   22  N1  UNL     1      18.811   6.918  19.670  1.00  0.00    -0.355 N 
ATOM     23  H1  UNL     1      18.450   6.333  18.917  1.00  0.00     0.162 HD
HETATM   24  O1  UNL     1      18.434   8.049  21.586  1.00  0.00    -0.270 OA
BRANCH  22  25
HETATM   25  C9  UNL     1      20.191   7.291  19.665  1.00  0.00     0.149 C 
BRANCH  25  26
HETATM   26  C8  UNL     1      21.005   6.907  18.521  1.00  0.00    -0.011 C 
HETATM   27  C7  UNL     1      22.144   6.284  18.537  1.00  0.00    -0.029 C 
BRANCH  27  28
HETATM   28  C6  UNL     1      22.965   5.902  17.378  1.00  0.00     0.027 C 
BRANCH  28  29
HETATM   29  C5  UNL     1      24.417   5.727  17.574  1.00  0.00     0.004 C 
BRANCH  29  30
HETATM   30  C4  UNL     1      25.169   7.022  17.673  1.00  0.00     0.000 C 
BRANCH  30  31
HETATM   31  C3  UNL     1      25.394   7.315  19.149  1.00  0.00    -0.000 C 
BRANCH  31  32
HETATM   32  C2  UNL     1      24.879   8.691  19.451  1.00  0.00    -0.005 C 
HETATM   33  C1  UNL     1      23.891   8.607  20.595  1.00  0.00     0.005 C 
ENDBRANCH  31  32
ENDBRANCH  30  31
ENDBRANCH  29  30
ENDBRANCH  28  29
ENDBRANCH  27  28
ENDBRANCH  25  26
ENDBRANCH  22  25
ENDBRANCH   1  21
BRANCH   1  34
HETATM   34  O2  UNL     1      16.266   6.346  19.321  1.00  0.00    -0.379 OA
ATOM     35  H2  UNL     1      15.651   6.873  18.824  1.00  0.00     0.211 HD
ENDBRANCH   1  34
BRANCH  18  36
HETATM   36  O5  UNL     1      17.831   4.643  21.358  1.00  0.00    -0.352 OA
BRANCH  36  37
HETATM   37  C27 UNL     1      17.663   3.549  20.563  1.00  0.00     0.291 C 
HETATM   38  O6  UNL     1      17.926   3.705  19.222  1.00  0.00    -0.351 OA
HETATM   39  C28 UNL     1      19.271   3.500  18.909  1.00  0.00     0.152 C 
HETATM   40  C29 UNL     1      19.615   3.914  17.519  1.00  0.00     0.042 C 
HETATM   41  C30 UNL     1      19.606   2.005  19.043  1.00  0.00     0.178 C 
HETATM   42  C31 UNL     1      18.481   1.360  19.859  1.00  0.00     0.183 C 
HETATM   43  C32 UNL     1      18.302   2.284  21.047  1.00  0.00     0.204 C 
BRANCH  41  44
HETATM   44  O7  UNL     1      19.713   1.452  17.794  1.00  0.00    -0.390 OA
ATOM     45  H7  UNL     1      18.859   1.149  17.511  1.00  0.00     0.210 HD
ENDBRANCH  41  44
BRANCH  42  46
HETATM   46  O8  UNL     1      19.005   0.167  20.354  1.00  0.00    -0.390 OA
ATOM     47  H8  UNL     1      19.366   0.376  21.207  1.00  0.00     0.210 HD
ENDBRANCH  42  46
BRANCH  43  48
HETATM   48  O9  UNL     1      19.597   2.491  21.540  1.00  0.00    -0.388 OA
ATOM     49  H9  UNL     1      19.694   2.208  22.442  1.00  0.00     0.210 HD
ENDBRANCH  43  48
ENDBRANCH  36  37
ENDBRANCH  18  36
BRANCH   9  50
HETATM   50  O3  UNL     1      11.352   3.575  26.030  1.00  0.00    -0.395 OA
ATOM     51  H3  UNL     1      10.403   3.574  25.999  1.00  0.00     0.210 HD
ENDBRANCH   9  50
TORSDOF 15
ENDMDL
MODEL 5
REMARK VINA RESULT: -8.139616918      8.568     13.297
REMARK  15 active torsions:
REMARK  status: ('A' for Active; 'I' for Inactive)
REMARK    1  A    between atoms: C2_2  and  C3_3 
REMARK    2  A    between atoms: C3_3  and  C4_4 
REMARK    3  A    between atoms: C4_4  and  C5_5 
REMARK    4  A    between atoms: C5_5  and  C6_6 
REMARK    5  A    between atoms: C6_6  and  C7_7 
REMARK    6  A    between atoms: C8_8  and  C9_9 
REMARK    7  A    between atoms: C9_9  and  N1_10 
REMARK       I    between atoms: N1_10  and  C10_12 
REMARK    8  A    between atoms: C10_12  and  C11_14 
REMARK    9  A    between atoms: C11_14  and  O2_15 
REMARK   10  A    between atoms: C19_24  and  O3_25 
REMARK   11  A    between atoms: C26_35  and  O5_36 
REMARK   12  A    between atoms: O5_36  and  C27_37 
REMARK   13  A    between atoms: C30_41  and  O7_42 
REMARK   14  A    between atoms: C31_44  and  O8_45 
REMARK   15  A    between atoms: C32_47  and  O9_48 
ROOT
HETATM    1  C11 UNL     1      17.549   7.057  20.747  1.00  0.00     0.148 C 
HETATM    2  C12 UNL     1      18.400   8.067  21.512  1.00  0.00     0.049 C 
HETATM    3  C13 UNL     1      17.669   8.165  22.858  1.00  0.00     0.015 C 
HETATM    4  C14 UNL     1      17.144   6.726  23.030  1.00  0.00     0.046 C 
HETATM    5  C15 UNL     1      16.456   6.588  24.315  1.00  0.00    -0.002 C 
HETATM    6  C16 UNL     1      16.117   7.824  25.070  1.00  0.00     0.054 C 
HETATM    7  C17 UNL     1      14.750   7.837  25.733  1.00  0.00     0.015 C 
HETATM    8  C18 UNL     1      14.625   6.540  26.370  1.00  0.00     0.043 C 
HETATM    9  C19 UNL     1      13.595   6.303  27.386  1.00  0.00     0.124 C 
HETATM   10  C20 UNL     1      13.766   4.793  27.558  1.00  0.00     0.034 C 
HETATM   11  C21 UNL     1      14.233   4.291  26.182  1.00  0.00     0.034 C 
HETATM   12  C22 UNL     1      14.334   5.503  25.306  1.00  0.00     0.042 C 
HETATM   13  C23 UNL     1      13.013   5.680  24.625  1.00  0.00     0.039 C 
HETATM   14  N2  UNL     1      15.450   5.528  24.404  1.00  0.00    -0.315 N 
HETATM   15  C24 UNL     1      15.482   4.372  23.581  1.00  0.00     0.227 C 
HETATM   16  O4  UNL     1      14.785   3.408  23.879  1.00  0.00    -0.273 OA
HETATM   17  C25 UNL     1      16.284   4.150  22.337  1.00  0.00     0.136 C 
HETATM   18  C26 UNL     1      15.872   5.283  21.392  1.00  0.00     0.145 C 
HETATM   19  C33 UNL     1      16.502   6.576  21.714  1.00  0.00     0.031 C 
HETATM   20  C34 UNL     1      15.388   7.641  21.635  1.00  0.00     0.022 C 
ENDROOT
BRANCH   1  21
HETATM   21  C10 UNL     1      18.507   6.099  20.218  1.00  0.00     0.253 C 
HETATM   22  N1  UNL     1      18.689   6.123  18.777  1.00  0.00    -0.355 N 
ATOM     23  H1  UNL     1      18.153   6.786  18.218  1.00  0.00     0.162 HD
HETATM   24  O1  UNL     1      19.189   5.269  20.807  1.00  0.00    -0.270 OA
BRANCH  22  25
HETATM   25  C9  UNL     1      19.603   5.238  18.127  1.00  0.00     0.149 C 
BRANCH  25  26
HETATM   26  C8  UNL     1      20.754   5.813  17.446  1.00  0.00    -0.011 C 
HETATM   27  C7  UNL     1      21.998   5.755  17.813  1.00  0.00    -0.029 C 
BRANCH  27  28
HETATM   28  C6  UNL     1      23.157   6.342  17.123  1.00  0.00     0.027 C 
BRANCH  28  29
HETATM   29  C5  UNL     1      24.508   5.960  17.574  1.00  0.00     0.004 C 
BRANCH  29  30
HETATM   30  C4  UNL     1      25.244   7.067  18.272  1.00  0.00     0.000 C 
BRANCH  30  31
HETATM   31  C3  UNL     1      25.048   6.879  19.770  1.00  0.00    -0.000 C 
BRANCH  31  32
HETATM   32  C2  UNL     1      24.164   7.978  20.281  1.00  0.00    -0.005 C 
HETATM   33  C1  UNL     1      24.559   9.278  19.614  1.00  0.00     0.005 C 
ENDBRANCH  31  32
ENDBRANCH  30  31
ENDBRANCH  29  30
ENDBRANCH  28  29
ENDBRANCH  27  28
ENDBRANCH  25  26
ENDBRANCH  22  25
ENDBRANCH   1  21
BRANCH   1  34
HETATM   34  O2  UNL     1      16.958   7.843  19.721  1.00  0.00    -0.379 OA
ATOM     35  H2  UNL     1      17.607   8.201  19.126  1.00  0.00     0.211 HD
ENDBRANCH   1  34
BRANCH  18  36
HETATM   36  O5  UNL     1      15.975   4.945  20.091  1.00  0.00    -0.352 OA
BRANCH  36  37
HETATM   37  C27 UNL     1      15.350   3.813  19.660  1.00  0.00     0.291 C 
HETATM   38  O6  UNL     1      14.081   3.957  19.150  1.00  0.00    -0.351 OA
HETATM   39  C28 UNL     1      14.078   4.257  17.787  1.00  0.00     0.152 C 
HETATM   40  C29 UNL     1      12.736   4.665  17.283  1.00  0.00     0.042 C 
HETATM   41  C30 UNL     1      14.515   3.018  16.988  1.00  0.00     0.178 C 
HETATM   42  C31 UNL     1      15.185   2.056  17.975  1.00  0.00     0.183 C 
HETATM   43  C32 UNL     1      16.149   2.929  18.755  1.00  0.00     0.204 C 
BRANCH  41  44
HETATM   44  O7  UNL     1      13.419   2.455  16.390  1.00  0.00    -0.390 OA
ATOM     45  H7  UNL     1      13.555   1.519  16.302  1.00  0.00     0.210 HD
ENDBRANCH  41  44
BRANCH  42  46
HETATM   46  O8  UNL     1      15.960   1.194  17.201  1.00  0.00    -0.390 OA
ATOM     47  H8  UNL     1      15.367   0.521  16.890  1.00  0.00     0.210 HD
ENDBRANCH  42  46
BRANCH  43  48
HETATM   48  O9  UNL     1      16.849   3.651  17.779  1.00  0.00    -0.388 OA
ATOM     49  H9  UNL     1      16.365   3.727  16.965  1.00  0.00     0.210 HD
ENDBRANCH  43  48
ENDBRANCH  36  37
ENDBRANCH  18  36
BRANCH   9  50
HETATM   50  O3  UNL     1      12.320   6.659  27.064  1.00  0.00    -0.395 OA
ATOM     51  H3  UNL     1      12.179   7.564  26.812  1.00  0.00     0.210 HD
ENDBRANCH   9  50
TORSDOF 15
ENDMDL
