MODEL 1
REMARK VINA RESULT: -5.859216794      0.000      0.000
REMARK  4 active torsions:
REMARK  status: ('A' for Active; 'I' for Inactive)
REMARK    1  A    between atoms: C3_5  and  N2_6 
REMARK    2  A    between atoms: C4_9  and  N3_10 
REMARK    3  A    between atoms: N3_10  and  C5_12 
REMARK    4  A    between atoms: C5_12  and  C6_13 
ROOT
HETATM    1  C1  UNL     1      47.668  17.103   4.984  1.00  0.00     0.089 C 
HETATM    2  C2  UNL     1      46.693  16.353   4.129  1.00  0.00     0.079 A 
HETATM    3  N1  UNL     1      45.676  17.016   3.550  1.00  0.00    -0.331 N 
ATOM      4  H1  UNL     1      45.567  18.021   3.691  1.00  0.00     0.168 HD
HETATM    5  C3  UNL     1      44.788  16.325   2.769  1.00  0.00     0.130 A 
HETATM    6  C4  UNL     1      44.940  14.972   2.584  1.00  0.00     0.111 A 
HETATM    7  C9  UNL     1      45.996  14.346   3.199  1.00  0.00     0.135 A 
HETATM    8 CL1  UNL     1      46.221  12.645   2.990  1.00  0.00    -0.062 Cl
HETATM    9  N6  UNL     1      46.878  15.040   3.975  1.00  0.00    -0.335 N 
ATOM     10  H6  UNL     1      47.660  14.567   4.428  1.00  0.00     0.168 HD
ENDROOT
BRANCH   6  11
HETATM   11  N3  UNL     1      44.024  14.267   1.780  1.00  0.00    -0.377 N 
ATOM     12  H3  UNL     1      43.252  13.742   2.194  1.00  0.00     0.160 HD
BRANCH  11  13
HETATM   13  C5  UNL     1      44.215  14.312   0.334  1.00  0.00     0.196 C 
BRANCH  13  14
HETATM   14  C6  UNL     1      44.065  12.990  -0.287  1.00  0.00     0.100 A 
HETATM   15  N4  UNL     1      44.231  11.790   0.267  1.00  0.00    -0.338 N 
HETATM   16  C7  UNL     1      44.006  10.808  -0.618  1.00  0.00     0.096 A 
ATOM     17  H4  UNL     1      44.495  11.637   1.240  1.00  0.00     0.168 HD
HETATM   18 BR1  UNL     1      44.092   8.922  -0.393  1.00  0.00    -0.030 Br
HETATM   19  C8  UNL     1      43.681  11.428  -1.797  1.00  0.00     0.127 A 
HETATM   20  N5  UNL     1      43.723  12.764  -1.571  1.00  0.00    -0.352 N 
ATOM     21  H5  UNL     1      43.526  13.486  -2.265  1.00  0.00     0.166 HD
ENDBRANCH  13  14
ENDBRANCH  11  13
ENDBRANCH   6  11
BRANCH   5  22
HETATM   22  N2  UNL     1      43.810  16.934   2.206  1.00  0.00    -0.384 N 
ATOM     23  H22 UNL     1      43.494  17.829   2.577  1.00  0.00     0.157 HD
ATOM     24  H21 UNL     1      43.349  16.526   1.392  1.00  0.00     0.157 HD
ENDBRANCH   5  22
TORSDOF 4
ENDMDL
MODEL 2
REMARK VINA RESULT: -5.804242969      1.406      2.058
REMARK  4 active torsions:
REMARK  status: ('A' for Active; 'I' for Inactive)
REMARK    1  A    between atoms: C3_5  and  N2_6 
REMARK    2  A    between atoms: C4_9  and  N3_10 
REMARK    3  A    between atoms: N3_10  and  C5_12 
REMARK    4  A    between atoms: C5_12  and  C6_13 
ROOT
HETATM    1  C1  UNL     1      47.731  17.101   4.935  1.00  0.00     0.089 C 
HETATM    2  C2  UNL     1      46.763  16.315   4.103  1.00  0.00     0.079 A 
HETATM    3  N1  UNL     1      46.898  14.979   4.020  1.00  0.00    -0.331 N 
ATOM      4  H1  UNL     1      47.651  14.503   4.517  1.00  0.00     0.168 HD
HETATM    5  C3  UNL     1      46.011  14.266   3.259  1.00  0.00     0.130 A 
HETATM    6  C4  UNL     1      44.999  14.912   2.591  1.00  0.00     0.111 A 
HETATM    7  C9  UNL     1      44.908  16.277   2.711  1.00  0.00     0.135 A 
HETATM    8 CL1  UNL     1      43.649  17.127   1.887  1.00  0.00    -0.062 Cl
HETATM    9  N6  UNL     1      45.795  16.983   3.472  1.00  0.00    -0.335 N 
ATOM     10  H6  UNL     1      45.720  17.996   3.556  1.00  0.00     0.168 HD
ENDROOT
BRANCH   6  11
HETATM   11  N3  UNL     1      44.090  14.173   1.810  1.00  0.00    -0.377 N 
ATOM     12  H3  UNL     1      43.355  13.613   2.243  1.00  0.00     0.160 HD
BRANCH  11  13
HETATM   13  C5  UNL     1      44.234  14.236   0.359  1.00  0.00     0.196 C 
BRANCH  13  14
HETATM   14  C6  UNL     1      44.083  12.919  -0.271  1.00  0.00     0.100 A 
HETATM   15  N4  UNL     1      44.244  11.714   0.275  1.00  0.00    -0.338 N 
HETATM   16  C7  UNL     1      44.018  10.739  -0.617  1.00  0.00     0.096 A 
ATOM     17  H4  UNL     1      44.506  11.554   1.248  1.00  0.00     0.168 HD
HETATM   18 BR1  UNL     1      44.099   8.851  -0.404  1.00  0.00    -0.030 Br
HETATM   19  C8  UNL     1      43.698  11.368  -1.792  1.00  0.00     0.127 A 
HETATM   20  N5  UNL     1      43.743  12.703  -1.557  1.00  0.00    -0.352 N 
ATOM     21  H5  UNL     1      43.550  13.430  -2.247  1.00  0.00     0.166 HD
ENDBRANCH  13  14
ENDBRANCH  11  13
ENDBRANCH   6  11
BRANCH   5  22
HETATM   22  N2  UNL     1      46.117  12.991   3.163  1.00  0.00    -0.384 N 
ATOM     23  H22 UNL     1      45.504  12.483   2.526  1.00  0.00     0.157 HD
ATOM     24  H21 UNL     1      46.807  12.488   3.721  1.00  0.00     0.157 HD
ENDBRANCH   5  22
TORSDOF 4
ENDMDL
MODEL 3
REMARK VINA RESULT: -5.697006114      1.579      2.347
REMARK  4 active torsions:
REMARK  status: ('A' for Active; 'I' for Inactive)
REMARK    1  A    between atoms: C3_5  and  N2_6 
REMARK    2  A    between atoms: C4_9  and  N3_10 
REMARK    3  A    between atoms: N3_10  and  C5_12 
REMARK    4  A    between atoms: C5_12  and  C6_13 
ROOT
HETATM    1  C1  UNL     1      47.751  17.277   4.910  1.00  0.00     0.089 C 
HETATM    2  C2  UNL     1      46.792  16.438   4.122  1.00  0.00     0.079 A 
HETATM    3  N1  UNL     1      46.953  15.103   4.091  1.00  0.00    -0.331 N 
ATOM      4  H1  UNL     1      47.721  14.664   4.599  1.00  0.00     0.168 HD
HETATM    5  C3  UNL     1      46.074  14.342   3.369  1.00  0.00     0.130 A 
HETATM    6  C4  UNL     1      45.041  14.940   2.688  1.00  0.00     0.111 A 
HETATM    7  C9  UNL     1      44.924  16.307   2.753  1.00  0.00     0.135 A 
HETATM    8 CL1  UNL     1      43.638  17.097   1.910  1.00  0.00    -0.062 Cl
HETATM    9  N6  UNL     1      45.804  17.060   3.475  1.00  0.00    -0.335 N 
ATOM     10  H6  UNL     1      45.708  18.075   3.519  1.00  0.00     0.168 HD
ENDROOT
BRANCH   6  11
HETATM   11  N3  UNL     1      44.139  14.152   1.947  1.00  0.00    -0.377 N 
ATOM     12  H3  UNL     1      43.366  13.666   2.402  1.00  0.00     0.160 HD
BRANCH  11  13
HETATM   13  C5  UNL     1      44.348  14.055   0.505  1.00  0.00     0.196 C 
BRANCH  13  14
HETATM   14  C6  UNL     1      44.186  12.681   0.013  1.00  0.00     0.100 A 
HETATM   15  N4  UNL     1      43.761  12.273  -1.182  1.00  0.00    -0.338 N 
HETATM   16  C7  UNL     1      43.746  10.935  -1.265  1.00  0.00     0.096 A 
ATOM     17  H4  UNL     1      43.482  12.899  -1.938  1.00  0.00     0.168 HD
HETATM   18 BR1  UNL     1      43.238   9.809  -2.711  1.00  0.00    -0.030 Br
HETATM   19  C8  UNL     1      44.186  10.476  -0.051  1.00  0.00     0.127 A 
HETATM   20  N5  UNL     1      44.451  11.563   0.716  1.00  0.00    -0.352 N 
ATOM     21  H5  UNL     1      44.796  11.538   1.676  1.00  0.00     0.166 HD
ENDBRANCH  13  14
ENDBRANCH  11  13
ENDBRANCH   6  11
BRANCH   5  22
HETATM   22  N2  UNL     1      46.205  13.067   3.324  1.00  0.00    -0.384 N 
ATOM     23  H22 UNL     1      45.982  12.569   2.462  1.00  0.00     0.157 HD
ATOM     24  H21 UNL     1      46.528  12.552   4.143  1.00  0.00     0.157 HD
ENDBRANCH   5  22
TORSDOF 4
ENDMDL
MODEL 4
REMARK VINA RESULT: -5.622329557      1.020      1.342
REMARK  4 active torsions:
REMARK  status: ('A' for Active; 'I' for Inactive)
REMARK    1  A    between atoms: C3_5  and  N2_6 
REMARK    2  A    between atoms: C4_9  and  N3_10 
REMARK    3  A    between atoms: N3_10  and  C5_12 
REMARK    4  A    between atoms: C5_12  and  C6_13 
ROOT
HETATM    1  C1  UNL     1      47.008  17.059   4.791  1.00  0.00     0.089 C 
HETATM    2  C2  UNL     1      46.199  16.173   3.894  1.00  0.00     0.079 A 
HETATM    3  N1  UNL     1      45.133  16.681   3.250  1.00  0.00    -0.331 N 
ATOM      4  H1  UNL     1      44.876  17.662   3.371  1.00  0.00     0.168 HD
HETATM    5  C3  UNL     1      44.397  15.867   2.432  1.00  0.00     0.130 A 
HETATM    6  C4  UNL     1      44.748  14.548   2.275  1.00  0.00     0.111 A 
HETATM    7  C9  UNL     1      45.846  14.081   2.955  1.00  0.00     0.135 A 
HETATM    8 CL1  UNL     1      46.321  12.428   2.783  1.00  0.00    -0.062 Cl
HETATM    9  N6  UNL     1      46.576  14.899   3.769  1.00  0.00    -0.335 N 
ATOM     10  H6  UNL     1      47.390  14.544   4.271  1.00  0.00     0.168 HD
ENDROOT
BRANCH   6  11
HETATM   11  N3  UNL     1      43.988  13.715   1.431  1.00  0.00    -0.377 N 
ATOM     12  H3  UNL     1      43.144  13.250   1.769  1.00  0.00     0.160 HD
BRANCH  11  13
HETATM   13  C5  UNL     1      44.447  13.540   0.057  1.00  0.00     0.196 C 
BRANCH  13  14
HETATM   14  C6  UNL     1      44.145  12.200  -0.462  1.00  0.00     0.100 A 
HETATM   15  N4  UNL     1      43.619  11.865  -1.640  1.00  0.00    -0.338 N 
HETATM   16  C7  UNL     1      43.490  10.536  -1.757  1.00  0.00     0.096 A 
ATOM     17  H4  UNL     1      43.349  12.535  -2.360  1.00  0.00     0.168 HD
HETATM   18 BR1  UNL     1      42.809   9.501  -3.200  1.00  0.00    -0.030 Br
HETATM   19  C8  UNL     1      43.962  10.005  -0.585  1.00  0.00     0.127 A 
HETATM   20  N5  UNL     1      44.358  11.042   0.194  1.00  0.00    -0.352 N 
ATOM     21  H5  UNL     1      44.755  10.959   1.130  1.00  0.00     0.166 HD
ENDBRANCH  13  14
ENDBRANCH  11  13
ENDBRANCH   6  11
BRANCH   5  22
HETATM   22  N2  UNL     1      43.376  16.327   1.807  1.00  0.00    -0.384 N 
ATOM     23  H22 UNL     1      42.877  15.728   1.151  1.00  0.00     0.157 HD
ATOM     24  H21 UNL     1      43.066  17.287   1.961  1.00  0.00     0.157 HD
ENDBRANCH   5  22
TORSDOF 4
ENDMDL
MODEL 5
REMARK VINA RESULT: -5.513826138      1.255      1.367
REMARK  4 active torsions:
REMARK  status: ('A' for Active; 'I' for Inactive)
REMARK    1  A    between atoms: C3_5  and  N2_6 
REMARK    2  A    between atoms: C4_9  and  N3_10 
REMARK    3  A    between atoms: N3_10  and  C5_12 
REMARK    4  A    between atoms: C5_12  and  C6_13 
ROOT
HETATM    1  C1  UNL     1      46.752  16.161   4.819  1.00  0.00     0.089 C 
HETATM    2  C2  UNL     1      46.001  15.384   3.780  1.00  0.00     0.079 A 
HETATM    3  N1  UNL     1      45.006  15.980   3.101  1.00  0.00    -0.331 N 
ATOM      4  H1  UNL     1      44.761  16.953   3.289  1.00  0.00     0.168 HD
HETATM    5  C3  UNL     1      44.324  15.266   2.153  1.00  0.00     0.130 A 
HETATM    6  C4  UNL     1      44.658  13.956   1.904  1.00  0.00     0.111 A 
HETATM    7  C9  UNL     1      45.682  13.397   2.626  1.00  0.00     0.135 A 
HETATM    8 CL1  UNL     1      46.133  11.752   2.342  1.00  0.00    -0.062 Cl
HETATM    9  N6  UNL     1      46.359  14.115   3.570  1.00  0.00    -0.335 N 
ATOM     10  H6  UNL     1      47.119  13.692   4.102  1.00  0.00     0.168 HD
ENDROOT
BRANCH   6  11
HETATM   11  N3  UNL     1      43.953  13.226   0.927  1.00  0.00    -0.377 N 
ATOM     12  H3  UNL     1      43.078  12.751   1.152  1.00  0.00     0.160 HD
BRANCH  11  13
HETATM   13  C5  UNL     1      44.517  13.171  -0.418  1.00  0.00     0.196 C 
BRANCH  13  14
HETATM   14  C6  UNL     1      43.975  12.054  -1.202  1.00  0.00     0.100 A 
HETATM   15  N4  UNL     1      43.845  10.777  -0.845  1.00  0.00    -0.338 N 
HETATM   16  C7  UNL     1      43.305  10.047  -1.832  1.00  0.00     0.096 A 
ATOM     17  H4  UNL     1      44.120  10.402   0.063  1.00  0.00     0.168 HD
HETATM   18 BR1  UNL     1      42.892   8.191  -1.888  1.00  0.00    -0.030 Br
HETATM   19  C8  UNL     1      43.085  10.916  -2.869  1.00  0.00     0.127 A 
HETATM   20  N5  UNL     1      43.502  12.140  -2.461  1.00  0.00    -0.352 N 
ATOM     21  H5  UNL     1      43.464  12.992  -3.019  1.00  0.00     0.166 HD
ENDBRANCH  13  14
ENDBRANCH  11  13
ENDBRANCH   6  11
BRANCH   5  22
HETATM   22  N2  UNL     1      43.371  15.811   1.490  1.00  0.00    -0.384 N 
ATOM     23  H22 UNL     1      43.508  16.035   0.505  1.00  0.00     0.157 HD
ATOM     24  H21 UNL     1      42.481  16.021   1.944  1.00  0.00     0.157 HD
ENDBRANCH   5  22
TORSDOF 4
ENDMDL
