MODEL 1
REMARK VINA RESULT: -5.947654664      0.000      0.000
REMARK  4 active torsions:
REMARK  status: ('A' for Active; 'I' for Inactive)
REMARK    1  A    between atoms: C2_2  and  N1_3 
REMARK    2  A    between atoms: N1_3  and  C3_4 
REMARK    3  A    between atoms: N1_3  and  C5_6 
REMARK    4  A    between atoms: C9_16  and  N4_17 
ROOT
HETATM    1  C5  UNL     1      44.719  13.484   0.871  1.00  0.00     0.086 A 
HETATM    2  C6  UNL     1      43.863  14.131  -0.066  1.00  0.00     0.132 A 
HETATM    3 CL1  UNL     1      43.358  13.268  -1.531  1.00  0.00    -0.062 Cl
HETATM    4  N2  UNL     1      43.442  15.378   0.132  1.00  0.00    -0.334 N 
ATOM      5  H2  UNL     1      42.831  15.793  -0.572  1.00  0.00     0.168 HD
HETATM    6  C7  UNL     1      43.766  16.116   1.185  1.00  0.00     0.133 A 
HETATM    7 CL2  UNL     1      43.231  17.750   1.466  1.00  0.00    -0.062 Cl
HETATM    8  C8  UNL     1      44.598  15.532   2.136  1.00  0.00     0.104 A 
HETATM    9  N3  UNL     1      44.953  16.231   3.226  1.00  0.00    -0.188 N 
ATOM     10  H3  UNL     1      44.610  17.185   3.338  1.00  0.00     0.184 HD
HETATM   11  C9  UNL     1      45.749  15.705   4.174  1.00  0.00     0.678 A 
HETATM   12  N5  UNL     1      46.212  14.473   4.060  1.00  0.00    -0.176 N 
ATOM     13  H5  UNL     1      46.816  14.082   4.782  1.00  0.00     0.186 HD
HETATM   14  C10 UNL     1      45.872  13.723   2.957  1.00  0.00     0.129 A 
HETATM   15  N6  UNL     1      46.303  12.605   2.926  1.00  0.00    -0.384 N 
ATOM     16  H61 UNL     1      46.052  12.049   2.109  1.00  0.00     0.157 HD
ATOM     17  H62 UNL     1      46.905  12.231   3.660  1.00  0.00     0.157 HD
HETATM   18  C11 UNL     1      45.054  14.232   1.958  1.00  0.00     0.068 A 
ENDROOT
BRANCH   1  19
HETATM   19  N1  UNL     1      45.120  12.204   0.516  1.00  0.00    -0.378 N 
BRANCH  19  20
HETATM   20  C2  UNL     1      44.515  10.940   0.831  1.00  0.00     0.118 C 
HETATM   21  C1  UNL     1      44.115  10.052  -0.283  1.00  0.00     0.026 C 
ENDBRANCH  19  20
BRANCH  19  22
HETATM   22  C3  UNL     1      46.200  12.115  -0.464  1.00  0.00     0.118 C 
HETATM   23  C4  UNL     1      47.428  11.390  -0.132  1.00  0.00     0.026 C 
ENDBRANCH  19  22
ENDBRANCH   1  19
BRANCH  11  24
HETATM   24  N4  UNL     1      46.083  16.400   5.229  1.00  0.00    -0.234 N 
ATOM     25  H42 UNL     1      46.867  17.048   5.155  1.00  0.00     0.174 HD
ATOM     26  H41 UNL     1      45.571  16.298   6.105  1.00  0.00     0.174 HD
ENDBRANCH  11  24
TORSDOF 4
ENDMDL
MODEL 2
REMARK VINA RESULT: -5.938449755      2.202      3.683
REMARK  4 active torsions:
REMARK  status: ('A' for Active; 'I' for Inactive)
REMARK    1  A    between atoms: C2_2  and  N1_3 
REMARK    2  A    between atoms: N1_3  and  C3_4 
REMARK    3  A    between atoms: N1_3  and  C5_6 
REMARK    4  A    between atoms: C9_16  and  N4_17 
ROOT
HETATM    1  C5  UNL     1      45.325  12.277   0.883  1.00  0.00     0.086 A 
HETATM    2  C6  UNL     1      46.164  11.815   1.938  1.00  0.00     0.132 A 
HETATM    3 CL1  UNL     1      46.868  10.190   1.849  1.00  0.00    -0.062 Cl
HETATM    4  N2  UNL     1      46.421  12.578   2.998  1.00  0.00    -0.334 N 
ATOM      5  H2  UNL     1      47.027  12.197   3.725  1.00  0.00     0.168 HD
HETATM    6  C7  UNL     1      45.940  13.802   3.170  1.00  0.00     0.133 A 
HETATM    7 CL2  UNL     1      46.259  14.819   4.548  1.00  0.00    -0.062 Cl
HETATM    8  C8  UNL     1      45.117  14.306   2.167  1.00  0.00     0.104 A 
HETATM    9  N3  UNL     1      44.608  15.542   2.285  1.00  0.00    -0.188 N 
ATOM     10  H3  UNL     1      44.828  16.093   3.116  1.00  0.00     0.184 HD
HETATM   11  C9  UNL     1      43.815  16.073   1.338  1.00  0.00     0.678 A 
HETATM   12  N5  UNL     1      43.507  15.387   0.252  1.00  0.00    -0.176 N 
ATOM     13  H5  UNL     1      42.904  15.796  -0.462  1.00  0.00     0.186 HD
HETATM   14  C10 UNL     1      44.009  14.115   0.092  1.00  0.00     0.129 A 
HETATM   15  N6  UNL     1      43.715  13.556  -0.927  1.00  0.00    -0.384 N 
ATOM     16  H61 UNL     1      44.086  12.613  -1.045  1.00  0.00     0.157 HD
ATOM     17  H62 UNL     1      43.111  13.983  -1.629  1.00  0.00     0.157 HD
HETATM   18  C11 UNL     1      44.830  13.534   1.049  1.00  0.00     0.068 A 
ENDROOT
BRANCH   1  19
HETATM   19  N1  UNL     1      45.103  11.361  -0.136  1.00  0.00    -0.378 N 
BRANCH  19  20
HETATM   20  C2  UNL     1      45.883  11.102  -1.313  1.00  0.00     0.118 C 
HETATM   21  C1  UNL     1      46.962  12.052  -1.667  1.00  0.00     0.026 C 
ENDBRANCH  19  20
BRANCH  19  22
HETATM   22  C3  UNL     1      44.032  10.393   0.090  1.00  0.00     0.118 C 
HETATM   23  C4  UNL     1      44.185   9.014  -0.377  1.00  0.00     0.026 C 
ENDBRANCH  19  22
ENDBRANCH   1  19
BRANCH  11  24
HETATM   24  N4  UNL     1      43.328  17.279   1.471  1.00  0.00    -0.234 N 
ATOM     25  H42 UNL     1      42.701  17.466   2.252  1.00  0.00     0.174 HD
ATOM     26  H41 UNL     1      43.571  18.015   0.808  1.00  0.00     0.174 HD
ENDBRANCH  11  24
TORSDOF 4
ENDMDL
MODEL 3
REMARK VINA RESULT: -5.925819453      0.324      1.407
REMARK  4 active torsions:
REMARK  status: ('A' for Active; 'I' for Inactive)
REMARK    1  A    between atoms: C2_2  and  N1_3 
REMARK    2  A    between atoms: N1_3  and  C3_4 
REMARK    3  A    between atoms: N1_3  and  C5_6 
REMARK    4  A    between atoms: C9_16  and  N4_17 
ROOT
HETATM    1  C5  UNL     1      44.804  13.432   0.883  1.00  0.00     0.086 A 
HETATM    2  C6  UNL     1      43.938  14.078  -0.047  1.00  0.00     0.132 A 
HETATM    3 CL1  UNL     1      43.467  13.235  -1.534  1.00  0.00    -0.062 Cl
HETATM    4  N2  UNL     1      43.484  15.309   0.176  1.00  0.00    -0.334 N 
ATOM      5  H2  UNL     1      42.867  15.723  -0.523  1.00  0.00     0.168 HD
HETATM    6  C7  UNL     1      43.780  16.030   1.248  1.00  0.00     0.133 A 
HETATM    7 CL2  UNL     1      43.200  17.643   1.562  1.00  0.00    -0.062 Cl
HETATM    8  C8  UNL     1      44.620  15.447   2.193  1.00  0.00     0.104 A 
HETATM    9  N3  UNL     1      44.949  16.130   3.301  1.00  0.00    -0.188 N 
ATOM     10  H3  UNL     1      44.580  17.072   3.431  1.00  0.00     0.184 HD
HETATM   11  C9  UNL     1      45.751  15.603   4.243  1.00  0.00     0.678 A 
HETATM   12  N5  UNL     1      46.247  14.387   4.105  1.00  0.00    -0.176 N 
ATOM     13  H5  UNL     1      46.856  13.995   4.823  1.00  0.00     0.186 HD
HETATM   14  C10 UNL     1      45.935  13.654   2.982  1.00  0.00     0.129 A 
HETATM   15  N6  UNL     1      46.396  12.548   2.930  1.00  0.00    -0.384 N 
ATOM     16  H61 UNL     1      46.165  12.004   2.098  1.00  0.00     0.157 HD
ATOM     17  H62 UNL     1      47.001  12.173   3.659  1.00  0.00     0.157 HD
HETATM   18  C11 UNL     1      45.111  14.164   1.988  1.00  0.00     0.068 A 
ENDROOT
BRANCH   1  19
HETATM   19  N1  UNL     1      45.241  12.171   0.501  1.00  0.00    -0.378 N 
BRANCH  19  20
HETATM   20  C2  UNL     1      46.509  11.773  -0.043  1.00  0.00     0.118 C 
HETATM   21  C1  UNL     1      46.809  12.114  -1.451  1.00  0.00     0.026 C 
ENDBRANCH  19  20
BRANCH  19  22
HETATM   22  C3  UNL     1      44.373  11.052   0.862  1.00  0.00     0.118 C 
HETATM   23  C4  UNL     1      44.123   9.982  -0.106  1.00  0.00     0.026 C 
ENDBRANCH  19  22
ENDBRANCH   1  19
BRANCH  11  24
HETATM   24  N4  UNL     1      46.059  16.283   5.316  1.00  0.00    -0.234 N 
ATOM     25  H42 UNL     1      46.752  15.894   5.954  1.00  0.00     0.174 HD
ATOM     26  H41 UNL     1      45.617  17.181   5.510  1.00  0.00     0.174 HD
ENDBRANCH  11  24
TORSDOF 4
ENDMDL
MODEL 4
REMARK VINA RESULT: -5.637730016      2.191      3.407
REMARK  4 active torsions:
REMARK  status: ('A' for Active; 'I' for Inactive)
REMARK    1  A    between atoms: C2_2  and  N1_3 
REMARK    2  A    between atoms: N1_3  and  C3_4 
REMARK    3  A    between atoms: N1_3  and  C5_6 
REMARK    4  A    between atoms: C9_16  and  N4_17 
ROOT
HETATM    1  C5  UNL     1      45.280  12.215   0.906  1.00  0.00     0.086 A 
HETATM    2  C6  UNL     1      46.127  11.767   1.960  1.00  0.00     0.132 A 
HETATM    3 CL1  UNL     1      46.808  10.131   1.900  1.00  0.00    -0.062 Cl
HETATM    4  N2  UNL     1      46.410  12.553   2.997  1.00  0.00    -0.334 N 
ATOM      5  H2  UNL     1      47.021  12.181   3.724  1.00  0.00     0.168 HD
HETATM    6  C7  UNL     1      45.948  13.786   3.146  1.00  0.00     0.133 A 
HETATM    7 CL2  UNL     1      46.301  14.832   4.494  1.00  0.00    -0.062 Cl
HETATM    8  C8  UNL     1      45.117  14.278   2.143  1.00  0.00     0.104 A 
HETATM    9  N3  UNL     1      44.626  15.523   2.238  1.00  0.00    -0.188 N 
ATOM     10  H3  UNL     1      44.866  16.091   3.051  1.00  0.00     0.184 HD
HETATM   11  C9  UNL     1      43.826  16.041   1.290  1.00  0.00     0.678 A 
HETATM   12  N5  UNL     1      43.494  15.333   0.225  1.00  0.00    -0.176 N 
ATOM     13  H5  UNL     1      42.886  15.733  -0.490  1.00  0.00     0.186 HD
HETATM   14  C10 UNL     1      43.976  14.051   0.089  1.00  0.00     0.129 A 
HETATM   15  N6  UNL     1      43.660  13.472  -0.911  1.00  0.00    -0.384 N 
ATOM     16  H61 UNL     1      44.017  12.522  -1.012  1.00  0.00     0.157 HD
ATOM     17  H62 UNL     1      43.052  13.889  -1.615  1.00  0.00     0.157 HD
HETATM   18  C11 UNL     1      44.803  13.482   1.048  1.00  0.00     0.068 A 
ENDROOT
BRANCH   1  19
HETATM   19  N1  UNL     1      45.030  11.278  -0.087  1.00  0.00    -0.378 N 
BRANCH  19  20
HETATM   20  C2  UNL     1      43.985  10.297  -0.171  1.00  0.00     0.118 C 
HETATM   21  C1  UNL     1      44.361   8.885  -0.411  1.00  0.00     0.026 C 
ENDBRANCH  19  20
BRANCH  19  22
HETATM   22  C3  UNL     1      45.821  11.408  -1.309  1.00  0.00     0.118 C 
HETATM   23  C4  UNL     1      47.249  11.718  -1.224  1.00  0.00     0.026 C 
ENDBRANCH  19  22
ENDBRANCH   1  19
BRANCH  11  24
HETATM   24  N4  UNL     1      43.358  17.257   1.399  1.00  0.00    -0.234 N 
ATOM     25  H42 UNL     1      43.750  17.865   2.118  1.00  0.00     0.174 HD
ATOM     26  H41 UNL     1      42.619  17.590   0.781  1.00  0.00     0.174 HD
ENDBRANCH  11  24
TORSDOF 4
ENDMDL
MODEL 5
REMARK VINA RESULT: -5.586291052      2.788      4.396
REMARK  4 active torsions:
REMARK  status: ('A' for Active; 'I' for Inactive)
REMARK    1  A    between atoms: C2_2  and  N1_3 
REMARK    2  A    between atoms: N1_3  and  C3_4 
REMARK    3  A    between atoms: N1_3  and  C5_6 
REMARK    4  A    between atoms: C9_16  and  N4_17 
ROOT
HETATM    1  C5  UNL     1      45.406  10.852   0.300  1.00  0.00     0.086 A 
HETATM    2  C6  UNL     1      46.278  10.474   1.362  1.00  0.00     0.132 A 
HETATM    3 CL1  UNL     1      46.985   8.848   1.378  1.00  0.00    -0.062 Cl
HETATM    4  N2  UNL     1      46.565  11.319   2.350  1.00  0.00    -0.334 N 
ATOM      5  H2  UNL     1      47.195  10.996   3.085  1.00  0.00     0.168 HD
HETATM    6  C7  UNL     1      46.085  12.551   2.441  1.00  0.00     0.133 A 
HETATM    7 CL2  UNL     1      46.443  13.673   3.725  1.00  0.00    -0.062 Cl
HETATM    8  C8  UNL     1      45.230  12.975   1.428  1.00  0.00     0.104 A 
HETATM    9  N3  UNL     1      44.720  14.216   1.465  1.00  0.00    -0.188 N 
ATOM     10  H3  UNL     1      44.964  14.830   2.242  1.00  0.00     0.184 HD
HETATM   11  C9  UNL     1      43.896  14.670   0.505  1.00  0.00     0.678 A 
HETATM   12  N5  UNL     1      43.558  13.901  -0.515  1.00  0.00    -0.176 N 
ATOM     13  H5  UNL     1      42.931  14.251  -1.239  1.00  0.00     0.186 HD
HETATM   14  C10 UNL     1      44.059  12.620  -0.590  1.00  0.00     0.129 A 
HETATM   15  N6  UNL     1      43.735  11.983  -1.553  1.00  0.00    -0.384 N 
ATOM     16  H61 UNL     1      44.107  11.035  -1.609  1.00  0.00     0.157 HD
ATOM     17  H62 UNL     1      43.109  12.353  -2.267  1.00  0.00     0.157 HD
HETATM   18  C11 UNL     1      44.911  12.117   0.383  1.00  0.00     0.068 A 
ENDROOT
BRANCH   1  19
HETATM   19  N1  UNL     1      45.156   9.858  -0.636  1.00  0.00    -0.378 N 
BRANCH  19  20
HETATM   20  C2  UNL     1      45.898   9.511  -1.815  1.00  0.00     0.118 C 
HETATM   21  C1  UNL     1      46.961  10.433  -2.276  1.00  0.00     0.026 C 
ENDBRANCH  19  20
BRANCH  19  22
HETATM   22  C3  UNL     1      44.098   8.908  -0.301  1.00  0.00     0.118 C 
HETATM   23  C4  UNL     1      43.210   8.404  -1.350  1.00  0.00     0.026 C 
ENDBRANCH  19  22
ENDBRANCH   1  19
BRANCH  11  24
HETATM   24  N4  UNL     1      43.409  15.882   0.557  1.00  0.00    -0.234 N 
ATOM     25  H42 UNL     1      42.424  16.020   0.333  1.00  0.00     0.174 HD
ATOM     26  H41 UNL     1      44.001  16.671   0.818  1.00  0.00     0.174 HD
ENDBRANCH  11  24
TORSDOF 4
ENDMDL
