MODEL 1
REMARK VINA RESULT: -6.526152300      0.000      0.000
REMARK  6 active torsions:
REMARK  status: ('A' for Active; 'I' for Inactive)
REMARK       I    between atoms: N2_6  and  C4_8 
REMARK       I    between atoms: N5_13  and  C5_14 
REMARK    1  A    between atoms: C5_14  and  C6_16 
REMARK    2  A    between atoms: C6_16  and  C7_17 
REMARK    3  A    between atoms: C8_22  and  C9_23 
REMARK    4  A    between atoms: C10_24  and  C11_25 
REMARK    5  A    between atoms: C12_26  and  C13_27 
REMARK    6  A    between atoms: C13_27  and  N8_28 
ROOT
HETATM    1  C1  UNL     1      20.572 -14.357  19.625  1.00  0.00     0.036 C 
HETATM    2  C2  UNL     1      19.347 -14.033  20.410  1.00  0.00     0.131 C 
HETATM    3  N1  UNL     1      19.283 -14.692  21.698  1.00  0.00    -0.218 N 
ATOM      4  H1  UNL     1      20.060 -15.003  22.280  1.00  0.00     0.178 HD
HETATM    5  C3  UNL     1      17.865 -14.808  21.971  1.00  0.00     0.687 C 
HETATM    6  N2  UNL     1      17.351 -15.187  23.088  1.00  0.00    -0.164 N 
ATOM      7  H2  UNL     1      16.335 -15.231  23.165  1.00  0.00     0.187 HD
HETATM    8  C4  UNL     1      18.118 -15.543  24.206  1.00  0.00     0.200 C 
HETATM    9  N3  UNL     1      18.155 -14.776  25.231  1.00  0.00    -0.373 N 
ATOM     10  H31 UNL     1      18.713 -15.035  26.045  1.00  0.00     0.158 HD
ATOM     11  H32 UNL     1      17.623 -13.906  25.229  1.00  0.00     0.158 HD
HETATM   12  N4  UNL     1      18.859 -16.755  24.209  1.00  0.00    -0.063 NA
HETATM   13  N5  UNL     1      17.131 -14.438  20.801  1.00  0.00    -0.133 N 
HETATM   14  C5  UNL     1      15.795 -14.028  20.767  1.00  0.00     0.246 C 
HETATM   15  O1  UNL     1      15.320 -13.745  19.608  1.00  0.00    -0.272 OA
HETATM   16  C8  UNL     1      18.079 -14.592  19.740  1.00  0.00     0.214 C 
ENDROOT
BRANCH  16  17
HETATM   17  C9  UNL     1      17.738 -13.861  18.563  1.00  0.00    -0.064 C 
HETATM   18  C10 UNL     1      17.459 -13.253  17.532  1.00  0.00    -0.013 C 
BRANCH  18  19
HETATM   19  C11 UNL     1      17.119 -12.569  16.339  1.00  0.00    -0.013 C 
HETATM   20  C12 UNL     1      16.829 -12.002  15.311  1.00  0.00    -0.065 C 
BRANCH  20  21
HETATM   21  C13 UNL     1      16.496 -11.330  14.052  1.00  0.00     0.330 C 
BRANCH  21  22
HETATM   22  N8  UNL     1      16.349 -12.330  13.046  1.00  0.00    -0.069 N 
HETATM   23  C14 UNL     1      17.061 -13.544  13.290  1.00  0.00     0.272 C 
HETATM   24  C15 UNL     1      16.868 -11.763  11.796  1.00  0.00     0.272 C 
HETATM   25  C16 UNL     1      14.922 -12.579  12.789  1.00  0.00     0.272 C 
ENDBRANCH  21  22
ENDBRANCH  20  21
ENDBRANCH  18  19
ENDBRANCH  16  17
BRANCH  14  26
HETATM   26  C6  UNL     1      14.856 -13.874  21.872  1.00  0.00     0.176 C 
BRANCH  26  27
HETATM   27  C7  UNL     1      14.285 -12.481  21.893  1.00  0.00     0.095 C 
HETATM   28  N6  UNL     1      14.856 -11.522  21.252  1.00  0.00    -0.391 N 
ATOM     29  H62 UNL     1      15.705 -11.750  20.734  1.00  0.00     0.157 HD
ATOM     30  H61 UNL     1      14.469 -10.578  21.266  1.00  0.00     0.157 HD
HETATM   31  N7  UNL     1      13.101 -12.164  22.614  1.00  0.00    -0.088 NA
ENDBRANCH  26  27
ENDBRANCH  14  26
TORSDOF 6
ENDMDL
MODEL 2
REMARK VINA RESULT: -6.514924657      2.624      8.291
REMARK  6 active torsions:
REMARK  status: ('A' for Active; 'I' for Inactive)
REMARK       I    between atoms: N2_6  and  C4_8 
REMARK       I    between atoms: N5_13  and  C5_14 
REMARK    1  A    between atoms: C5_14  and  C6_16 
REMARK    2  A    between atoms: C6_16  and  C7_17 
REMARK    3  A    between atoms: C8_22  and  C9_23 
REMARK    4  A    between atoms: C10_24  and  C11_25 
REMARK    5  A    between atoms: C12_26  and  C13_27 
REMARK    6  A    between atoms: C13_27  and  N8_28 
ROOT
HETATM    1  C1  UNL     1      20.900 -13.351  18.966  1.00  0.00     0.036 C 
HETATM    2  C2  UNL     1      19.500 -13.857  18.897  1.00  0.00     0.131 C 
HETATM    3  N1  UNL     1      18.775 -13.422  17.721  1.00  0.00    -0.218 N 
ATOM      4  H1  UNL     1      19.156 -13.173  16.808  1.00  0.00     0.178 HD
HETATM    5  C3  UNL     1      17.388 -13.420  18.136  1.00  0.00     0.687 C 
HETATM    6  N2  UNL     1      16.378 -13.253  17.356  1.00  0.00    -0.164 N 
ATOM      7  H2  UNL     1      15.443 -13.271  17.762  1.00  0.00     0.187 HD
HETATM    8  C4  UNL     1      16.499 -13.048  15.975  1.00  0.00     0.200 C 
HETATM    9  N3  UNL     1      16.153 -13.970  15.155  1.00  0.00    -0.373 N 
ATOM     10  H31 UNL     1      16.241 -13.821  14.150  1.00  0.00     0.158 HD
ATOM     11  H32 UNL     1      15.788 -14.852  15.514  1.00  0.00     0.158 HD
HETATM   12  N4  UNL     1      17.007 -11.819  15.475  1.00  0.00    -0.063 NA
HETATM   13  N5  UNL     1      17.321 -13.628  19.549  1.00  0.00    -0.133 N 
HETATM   14  C5  UNL     1      16.208 -14.090  20.258  1.00  0.00     0.246 C 
HETATM   15  O1  UNL     1      16.354 -14.201  21.529  1.00  0.00    -0.272 OA
HETATM   16  C8  UNL     1      18.624 -13.257  20.011  1.00  0.00     0.214 C 
ENDROOT
BRANCH  16  17
HETATM   17  C9  UNL     1      18.949 -13.802  21.290  1.00  0.00    -0.064 C 
HETATM   18  C10 UNL     1      19.260 -14.272  22.382  1.00  0.00    -0.013 C 
BRANCH  18  19
HETATM   19  C11 UNL     1      19.626 -14.791  23.647  1.00  0.00    -0.013 C 
HETATM   20  C12 UNL     1      19.957 -15.226  24.727  1.00  0.00    -0.065 C 
BRANCH  20  21
HETATM   21  C13 UNL     1      20.382 -15.760  26.023  1.00  0.00     0.330 C 
BRANCH  21  22
HETATM   22  N8  UNL     1      21.528 -15.024  26.447  1.00  0.00    -0.069 N 
HETATM   23  C14 UNL     1      22.477 -14.736  25.419  1.00  0.00     0.272 C 
HETATM   24  C15 UNL     1      22.213 -15.838  27.458  1.00  0.00     0.272 C 
HETATM   25  C16 UNL     1      21.109 -13.805  27.157  1.00  0.00     0.272 C 
ENDBRANCH  21  22
ENDBRANCH  20  21
ENDBRANCH  18  19
ENDBRANCH  16  17
BRANCH  14  26
HETATM   26  C6  UNL     1      14.893 -14.467  19.754  1.00  0.00     0.176 C 
BRANCH  26  27
HETATM   27  C7  UNL     1      13.906 -13.350  19.958  1.00  0.00     0.095 C 
HETATM   28  N6  UNL     1      12.868 -13.511  20.704  1.00  0.00    -0.391 N 
ATOM     29  H62 UNL     1      12.751 -14.423  21.145  1.00  0.00     0.157 HD
ATOM     30  H61 UNL     1      12.199 -12.754  20.842  1.00  0.00     0.157 HD
HETATM   31  N7  UNL     1      14.070 -12.079  19.343  1.00  0.00    -0.088 NA
ENDBRANCH  26  27
ENDBRANCH  14  26
TORSDOF 6
ENDMDL
MODEL 3
REMARK VINA RESULT: -6.473934247      6.192      9.595
REMARK  6 active torsions:
REMARK  status: ('A' for Active; 'I' for Inactive)
REMARK       I    between atoms: N2_6  and  C4_8 
REMARK       I    between atoms: N5_13  and  C5_14 
REMARK    1  A    between atoms: C5_14  and  C6_16 
REMARK    2  A    between atoms: C6_16  and  C7_17 
REMARK    3  A    between atoms: C8_22  and  C9_23 
REMARK    4  A    between atoms: C10_24  and  C11_25 
REMARK    5  A    between atoms: C12_26  and  C13_27 
REMARK    6  A    between atoms: C13_27  and  N8_28 
ROOT
HETATM    1  C1  UNL     1      14.581 -13.958   8.583  1.00  0.00     0.036 C 
HETATM    2  C2  UNL     1      14.590 -13.988  10.073  1.00  0.00     0.131 C 
HETATM    3  N1  UNL     1      13.306 -13.691  10.674  1.00  0.00    -0.218 N 
ATOM      4  H1  UNL     1      12.379 -13.843  10.277  1.00  0.00     0.178 HD
HETATM    5  C3  UNL     1      13.637 -13.129  11.968  1.00  0.00     0.687 C 
HETATM    6  N2  UNL     1      12.795 -12.874  12.906  1.00  0.00    -0.164 N 
ATOM      7  H2  UNL     1      13.145 -12.477  13.778  1.00  0.00     0.187 HD
HETATM    8  C4  UNL     1      11.419 -13.114  12.790  1.00  0.00     0.200 C 
HETATM    9  N3  UNL     1      10.874 -14.067  13.451  1.00  0.00    -0.373 N 
ATOM     10  H31 UNL     1       9.873 -14.241  13.366  1.00  0.00     0.158 HD
ATOM     11  H32 UNL     1      11.448 -14.648  14.061  1.00  0.00     0.158 HD
HETATM   12  N4  UNL     1      10.620 -12.304  11.940  1.00  0.00    -0.063 NA
HETATM   13  N5  UNL     1      15.047 -12.900  12.032  1.00  0.00    -0.133 N 
HETATM   14  C5  UNL     1      15.804 -12.764  13.199  1.00  0.00     0.246 C 
HETATM   15  O1  UNL     1      17.060 -12.556  13.038  1.00  0.00    -0.272 OA
HETATM   16  C8  UNL     1      15.449 -12.852  10.658  1.00  0.00     0.214 C 
ENDROOT
BRANCH  16  17
HETATM   17  C9  UNL     1      16.842 -13.091  10.465  1.00  0.00    -0.064 C 
HETATM   18  C10 UNL     1      18.037 -13.300  10.268  1.00  0.00    -0.013 C 
BRANCH  18  19
HETATM   19  C11 UNL     1      19.416 -13.517  10.032  1.00  0.00    -0.013 C 
HETATM   20  C12 UNL     1      20.592 -13.702   9.811  1.00  0.00    -0.065 C 
BRANCH  20  21
HETATM   21  C13 UNL     1      22.008 -13.942   9.524  1.00  0.00     0.330 C 
BRANCH  21  22
HETATM   22  N8  UNL     1      22.116 -15.204   8.869  1.00  0.00    -0.069 N 
HETATM   23  C14 UNL     1      21.621 -16.318   9.615  1.00  0.00     0.272 C 
HETATM   24  C15 UNL     1      23.543 -15.442   8.624  1.00  0.00     0.272 C 
HETATM   25  C16 UNL     1      21.505 -15.131   7.533  1.00  0.00     0.272 C 
ENDBRANCH  21  22
ENDBRANCH  20  21
ENDBRANCH  18  19
ENDBRANCH  16  17
BRANCH  14  26
HETATM   26  C6  UNL     1      15.364 -12.826  14.588  1.00  0.00     0.176 C 
BRANCH  26  27
HETATM   27  C7  UNL     1      15.360 -11.454  15.206  1.00  0.00     0.095 C 
HETATM   28  N6  UNL     1      14.770 -10.468  14.625  1.00  0.00    -0.391 N 
ATOM     29  H62 UNL     1      14.310 -10.661  13.735  1.00  0.00     0.157 HD
ATOM     30  H61 UNL     1      14.768  -9.538  15.043  1.00  0.00     0.157 HD
HETATM   31  N7  UNL     1      16.001 -11.185  16.446  1.00  0.00    -0.088 NA
ENDBRANCH  26  27
ENDBRANCH  14  26
TORSDOF 6
ENDMDL
MODEL 4
REMARK VINA RESULT: -6.404248607      2.428      8.291
REMARK  6 active torsions:
REMARK  status: ('A' for Active; 'I' for Inactive)
REMARK       I    between atoms: N2_6  and  C4_8 
REMARK       I    between atoms: N5_13  and  C5_14 
REMARK    1  A    between atoms: C5_14  and  C6_16 
REMARK    2  A    between atoms: C6_16  and  C7_17 
REMARK    3  A    between atoms: C8_22  and  C9_23 
REMARK    4  A    between atoms: C10_24  and  C11_25 
REMARK    5  A    between atoms: C12_26  and  C13_27 
REMARK    6  A    between atoms: C13_27  and  N8_28 
ROOT
HETATM    1  C1  UNL     1      20.983 -13.859  20.351  1.00  0.00     0.036 C 
HETATM    2  C2  UNL     1      19.600 -14.207  19.920  1.00  0.00     0.131 C 
HETATM    3  N1  UNL     1      19.210 -13.611  18.659  1.00  0.00    -0.218 N 
ATOM      4  H1  UNL     1      19.814 -13.337  17.884  1.00  0.00     0.178 HD
HETATM    5  C3  UNL     1      17.769 -13.493  18.748  1.00  0.00     0.687 C 
HETATM    6  N2  UNL     1      16.988 -13.162  17.780  1.00  0.00    -0.164 N 
ATOM      7  H2  UNL     1      15.986 -13.111  17.961  1.00  0.00     0.187 HD
HETATM    8  C4  UNL     1      17.447 -12.870  16.489  1.00  0.00     0.200 C 
HETATM    9  N3  UNL     1      17.223 -13.686  15.526  1.00  0.00    -0.373 N 
ATOM     10  H31 UNL     1      17.557 -13.473  14.586  1.00  0.00     0.158 HD
ATOM     11  H32 UNL     1      16.711 -14.549  15.707  1.00  0.00     0.158 HD
HETATM   12  N4  UNL     1      18.161 -11.668  16.237  1.00  0.00    -0.063 NA
HETATM   13  N5  UNL     1      17.356 -13.797  20.083  1.00  0.00    -0.133 N 
HETATM   14  C5  UNL     1      16.073 -14.189  20.475  1.00  0.00     0.246 C 
HETATM   15  O1  UNL     1      15.908 -14.410  21.729  1.00  0.00    -0.272 OA
HETATM   16  C8  UNL     1      18.542 -13.601  20.860  1.00  0.00     0.214 C 
ENDROOT
BRANCH  16  17
HETATM   17  C9  UNL     1      18.511 -14.271  22.121  1.00  0.00    -0.064 C 
HETATM   18  C10 UNL     1      18.462 -14.865  23.195  1.00  0.00    -0.013 C 
BRANCH  18  19
HETATM   19  C11 UNL     1      18.418 -15.570  24.422  1.00  0.00    -0.013 C 
HETATM   20  C12 UNL     1      18.377 -16.188  25.462  1.00  0.00    -0.065 C 
BRANCH  20  21
HETATM   21  C13 UNL     1      18.307 -16.951  26.710  1.00  0.00     0.330 C 
BRANCH  21  22
HETATM   22  N8  UNL     1      18.103 -18.323  26.376  1.00  0.00    -0.069 N 
HETATM   23  C14 UNL     1      16.881 -18.603  25.690  1.00  0.00     0.272 C 
HETATM   24  C15 UNL     1      18.078 -19.074  27.636  1.00  0.00     0.272 C 
HETATM   25  C16 UNL     1      19.269 -18.841  25.644  1.00  0.00     0.272 C 
ENDBRANCH  21  22
ENDBRANCH  20  21
ENDBRANCH  18  19
ENDBRANCH  16  17
BRANCH  14  26
HETATM   26  C6  UNL     1      14.885 -14.387  19.653  1.00  0.00     0.176 C 
BRANCH  26  27
HETATM   27  C7  UNL     1      13.965 -13.200  19.756  1.00  0.00     0.095 C 
HETATM   28  N6  UNL     1      13.023 -13.167  20.634  1.00  0.00    -0.391 N 
ATOM     29  H62 UNL     1      12.933 -13.976  21.249  1.00  0.00     0.157 HD
ATOM     30  H61 UNL     1      12.399 -12.364  20.704  1.00  0.00     0.157 HD
HETATM   31  N7  UNL     1      14.090 -12.073  18.899  1.00  0.00    -0.088 NA
ENDBRANCH  26  27
ENDBRANCH  14  26
TORSDOF 6
ENDMDL
MODEL 5
REMARK VINA RESULT: -6.360637579      4.343      6.066
REMARK  6 active torsions:
REMARK  status: ('A' for Active; 'I' for Inactive)
REMARK       I    between atoms: N2_6  and  C4_8 
REMARK       I    between atoms: N5_13  and  C5_14 
REMARK    1  A    between atoms: C5_14  and  C6_16 
REMARK    2  A    between atoms: C6_16  and  C7_17 
REMARK    3  A    between atoms: C8_22  and  C9_23 
REMARK    4  A    between atoms: C10_24  and  C11_25 
REMARK    5  A    between atoms: C12_26  and  C13_27 
REMARK    6  A    between atoms: C13_27  and  N8_28 
ROOT
HETATM    1  C1  UNL     1      20.775 -13.853  20.000  1.00  0.00     0.036 C 
HETATM    2  C2  UNL     1      20.512 -14.014  21.458  1.00  0.00     0.131 C 
HETATM    3  N1  UNL     1      21.556 -14.724  22.168  1.00  0.00    -0.218 N 
ATOM      4  H1  UNL     1      22.547 -14.780  21.932  1.00  0.00     0.178 HD
HETATM    5  C3  UNL     1      20.874 -15.335  23.290  1.00  0.00     0.687 C 
HETATM    6  N2  UNL     1      21.449 -15.929  24.277  1.00  0.00    -0.164 N 
ATOM      7  H2  UNL     1      20.864 -16.324  25.013  1.00  0.00     0.187 HD
HETATM    8  C4  UNL     1      22.840 -16.059  24.390  1.00  0.00     0.200 C 
HETATM    9  N3  UNL     1      23.480 -15.383  25.271  1.00  0.00    -0.373 N 
ATOM     10  H31 UNL     1      24.492 -15.478  25.354  1.00  0.00     0.158 HD
ATOM     11  H32 UNL     1      22.970 -14.751  25.888  1.00  0.00     0.158 HD
HETATM   12  N4  UNL     1      23.549 -16.940  23.531  1.00  0.00    -0.063 NA
HETATM   13  N5  UNL     1      19.463 -15.178  23.123  1.00  0.00    -0.133 N 
HETATM   14  C5  UNL     1      18.504 -15.252  24.137  1.00  0.00     0.246 C 
HETATM   15  O1  UNL     1      17.283 -15.088  23.774  1.00  0.00    -0.272 OA
HETATM   16  C8  UNL     1      19.310 -14.938  21.720  1.00  0.00     0.214 C 
ENDROOT
BRANCH  16  17
HETATM   17  C9  UNL     1      18.075 -14.307  21.383  1.00  0.00    -0.064 C 
HETATM   18  C10 UNL     1      16.998 -13.791  21.093  1.00  0.00    -0.013 C 
BRANCH  18  19
HETATM   19  C11 UNL     1      15.750 -13.200  20.783  1.00  0.00    -0.013 C 
HETATM   20  C12 UNL     1      14.674 -12.703  20.533  1.00  0.00    -0.065 C 
BRANCH  20  21
HETATM   21  C13 UNL     1      13.361 -12.126  20.236  1.00  0.00     0.330 C 
BRANCH  21  22
HETATM   22  N8  UNL     1      12.886 -11.483  21.417  1.00  0.00    -0.069 N 
HETATM   23  C14 UNL     1      11.987 -12.260  22.210  1.00  0.00     0.272 C 
HETATM   24  C15 UNL     1      12.164 -10.279  20.991  1.00  0.00     0.272 C 
HETATM   25  C16 UNL     1      14.021 -10.987  22.211  1.00  0.00     0.272 C 
ENDBRANCH  21  22
ENDBRANCH  20  21
ENDBRANCH  18  19
ENDBRANCH  16  17
BRANCH  14  26
HETATM   26  C6  UNL     1      18.695 -15.491  25.563  1.00  0.00     0.176 C 
BRANCH  26  27
HETATM   27  C7  UNL     1      18.448 -16.938  25.897  1.00  0.00     0.095 C 
HETATM   28  N6  UNL     1      17.252 -17.414  25.932  1.00  0.00    -0.391 N 
ATOM     29  H62 UNL     1      16.489 -16.769  25.724  1.00  0.00     0.157 HD
ATOM     30  H61 UNL     1      17.084 -18.394  26.158  1.00  0.00     0.157 HD
HETATM   31  N7  UNL     1      19.511 -17.836  26.186  1.00  0.00    -0.088 NA
ENDBRANCH  26  27
ENDBRANCH  14  26
TORSDOF 6
ENDMDL
