MODEL 1
REMARK VINA RESULT: -7.094030627      0.000      0.000
REMARK  1 active torsions:
REMARK  status: ('A' for Active; 'I' for Inactive)
REMARK       I    between atoms: N2_3  and  C2_5 
REMARK       I    between atoms: C2_5  and  N4_9 
REMARK       I    between atoms: N5_14  and  C7_15 
REMARK    1  A    between atoms: C10_20  and  O2_21 
ROOT
HETATM    1  N1  UNL     1       8.466 -25.354  -2.226  1.00  0.00    -0.171 NA
HETATM    2  C1  UNL     1       9.079 -24.613  -1.552  1.00  0.00     0.196 C 
HETATM    3  N2  UNL     1       9.823 -23.725  -0.767  1.00  0.00    -0.124 N 
ATOM      4  H2  UNL     1      10.763 -23.463  -1.065  1.00  0.00     0.197 HD
HETATM    5  C2  UNL     1       9.299 -23.178   0.435  1.00  0.00     0.715 C 
HETATM    6  N3  UNL     1       8.449 -23.841   1.144  1.00  0.00    -0.053 N 
ATOM      7  H3  UNL     1       8.086 -23.429   2.003  1.00  0.00     0.218 HD
HETATM    8  F1  UNL     1       8.029 -25.066   0.773  1.00  0.00    -0.086 F 
HETATM    9  N4  UNL     1       9.700 -21.906   0.870  1.00  0.00    -0.187 N 
HETATM   10  C3  UNL     1      10.715 -21.431   1.772  1.00  0.00     0.158 C 
HETATM   11  C4  UNL     1      10.064 -20.085   1.837  1.00  0.00     0.024 C 
HETATM   12  C5  UNL     1      10.972 -18.934   1.517  1.00  0.00     0.035 C 
HETATM   13  C6  UNL     1      10.950 -17.921   2.626  1.00  0.00     0.128 C 
HETATM   14  N5  UNL     1      11.136 -18.619   3.891  1.00  0.00    -0.336 N 
HETATM   15  C7  UNL     1      12.215 -18.283   4.748  1.00  0.00     0.330 C 
HETATM   16  N6  UNL     1      13.127 -17.263   4.385  1.00  0.00    -0.040 NA
HETATM   17  O1  UNL     1      12.351 -18.892   5.819  1.00  0.00    -0.251 OA
HETATM   18  C8  UNL     1      10.192 -19.658   4.242  1.00  0.00     0.128 C 
HETATM   19  C9  UNL     1       9.236 -19.816   3.069  1.00  0.00     0.035 C 
HETATM   20  C10 UNL     1       9.311 -20.546   0.633  1.00  0.00     0.248 C 
ENDROOT
BRANCH  20  21
HETATM   21  O2  UNL     1       7.939 -20.301   0.679  1.00  0.00    -0.375 OA
ATOM     22  H2  UNL     1       7.389 -21.073   0.731  1.00  0.00     0.212 HD
ENDBRANCH  20  21
TORSDOF 1
ENDMDL
MODEL 2
REMARK VINA RESULT: -6.507819961      2.078      2.251
REMARK  1 active torsions:
REMARK  status: ('A' for Active; 'I' for Inactive)
REMARK       I    between atoms: N2_3  and  C2_5 
REMARK       I    between atoms: C2_5  and  N4_9 
REMARK       I    between atoms: N5_14  and  C7_15 
REMARK    1  A    between atoms: C10_20  and  O2_21 
ROOT
HETATM    1  N1  UNL     1      10.388 -22.125  -4.350  1.00  0.00    -0.171 NA
HETATM    2  C1  UNL     1      10.655 -21.833  -3.245  1.00  0.00     0.196 C 
HETATM    3  N2  UNL     1      10.989 -21.470  -1.935  1.00  0.00    -0.124 N 
ATOM      4  H2  UNL     1      11.898 -21.046  -1.752  1.00  0.00     0.197 HD
HETATM    5  C2  UNL     1      10.090 -21.679  -0.854  1.00  0.00     0.715 C 
HETATM    6  N3  UNL     1       9.250 -22.658  -0.877  1.00  0.00    -0.053 N 
ATOM      7  H3  UNL     1       8.615 -22.789  -0.090  1.00  0.00     0.218 HD
HETATM    8  F1  UNL     1       9.193 -23.511  -1.917  1.00  0.00    -0.086 F 
HETATM    9  N4  UNL     1      10.105 -20.821   0.256  1.00  0.00    -0.187 N 
HETATM   10  C3  UNL     1      10.753 -20.857   1.539  1.00  0.00     0.158 C 
HETATM   11  C4  UNL     1       9.842 -19.788   2.058  1.00  0.00     0.024 C 
HETATM   12  C5  UNL     1      10.544 -18.604   2.656  1.00  0.00     0.035 C 
HETATM   13  C6  UNL     1      10.048 -18.346   4.050  1.00  0.00     0.128 C 
HETATM   14  N5  UNL     1      10.064 -19.604   4.785  1.00  0.00    -0.336 N 
HETATM   15  C7  UNL     1      10.812 -19.730   5.983  1.00  0.00     0.330 C 
HETATM   16  N6  UNL     1      11.555 -18.633   6.482  1.00  0.00    -0.040 NA
HETATM   17  O1  UNL     1      10.810 -20.811   6.589  1.00  0.00    -0.251 OA
HETATM   18  C8  UNL     1       9.298 -20.712   4.257  1.00  0.00     0.128 C 
HETATM   19  C9  UNL     1       8.706 -20.260   2.930  1.00  0.00     0.035 C 
HETATM   20  C10 UNL     1       9.512 -19.566   0.619  1.00  0.00     0.248 C 
ENDROOT
BRANCH  20  21
HETATM   21  O2  UNL     1       8.149 -19.449   0.349  1.00  0.00    -0.375 OA
ATOM     22  H2  UNL     1       7.932 -19.125  -0.517  1.00  0.00     0.212 HD
ENDBRANCH  20  21
TORSDOF 1
ENDMDL
MODEL 3
REMARK VINA RESULT: -6.314380397      2.123      2.462
REMARK  1 active torsions:
REMARK  status: ('A' for Active; 'I' for Inactive)
REMARK       I    between atoms: N2_3  and  C2_5 
REMARK       I    between atoms: C2_5  and  N4_9 
REMARK       I    between atoms: N5_14  and  C7_15 
REMARK    1  A    between atoms: C10_20  and  O2_21 
ROOT
HETATM    1  N1  UNL     1       8.772 -26.698  -2.751  1.00  0.00    -0.171 NA
HETATM    2  C1  UNL     1       8.876 -25.961  -1.843  1.00  0.00     0.196 C 
HETATM    3  N2  UNL     1       9.015 -25.096  -0.751  1.00  0.00    -0.124 N 
ATOM      4  H2  UNL     1       9.427 -25.448   0.114  1.00  0.00     0.197 HD
HETATM    5  C2  UNL     1       8.598 -23.740  -0.820  1.00  0.00     0.715 C 
HETATM    6  N3  UNL     1       7.615 -23.391  -1.580  1.00  0.00    -0.053 N 
ATOM      7  H3  UNL     1       7.332 -22.412  -1.613  1.00  0.00     0.218 HD
HETATM    8  F1  UNL     1       6.953 -24.293  -2.331  1.00  0.00    -0.086 F 
HETATM    9  N4  UNL     1       9.250 -22.758  -0.060  1.00  0.00    -0.187 N 
HETATM   10  C3  UNL     1       9.010 -22.167   1.229  1.00  0.00     0.158 C 
HETATM   11  C4  UNL     1       9.948 -21.042   0.918  1.00  0.00     0.024 C 
HETATM   12  C5  UNL     1      11.030 -20.829   1.935  1.00  0.00     0.035 C 
HETATM   13  C6  UNL     1      11.028 -19.405   2.415  1.00  0.00     0.128 C 
HETATM   14  N5  UNL     1       9.663 -19.039   2.768  1.00  0.00    -0.336 N 
HETATM   15  C7  UNL     1       9.352 -18.590   4.077  1.00  0.00     0.330 C 
HETATM   16  N6  UNL     1      10.367 -18.492   5.060  1.00  0.00    -0.040 NA
HETATM   17  O1  UNL     1       8.183 -18.285   4.351  1.00  0.00    -0.251 OA
HETATM   18  C8  UNL     1       8.643 -19.148   1.748  1.00  0.00     0.128 C 
HETATM   19  C9  UNL     1       9.301 -19.742   0.511  1.00  0.00     0.035 C 
HETATM   20  C10 UNL     1      10.407 -21.920  -0.200  1.00  0.00     0.248 C 
ENDROOT
BRANCH  20  21
HETATM   21  O2  UNL     1      10.531 -21.275  -1.429  1.00  0.00    -0.375 OA
ATOM     22  H2  UNL     1      11.220 -20.622  -1.478  1.00  0.00     0.212 HD
ENDBRANCH  20  21
TORSDOF 1
ENDMDL
MODEL 4
REMARK VINA RESULT: -6.222612449      8.123     11.521
REMARK  1 active torsions:
REMARK  status: ('A' for Active; 'I' for Inactive)
REMARK       I    between atoms: N2_3  and  C2_5 
REMARK       I    between atoms: C2_5  and  N4_9 
REMARK       I    between atoms: N5_14  and  C7_15 
REMARK    1  A    between atoms: C10_20  and  O2_21 
ROOT
HETATM    1  N1  UNL     1      12.964 -17.201  -3.590  1.00  0.00    -0.171 NA
HETATM    2  C1  UNL     1      12.274 -18.032  -4.050  1.00  0.00     0.196 C 
HETATM    3  N2  UNL     1      11.435 -19.019  -4.582  1.00  0.00    -0.124 N 
ATOM      4  H2  UNL     1      10.751 -19.470  -3.975  1.00  0.00     0.197 HD
HETATM    5  C2  UNL     1      11.516 -19.405  -5.947  1.00  0.00     0.715 C 
HETATM    6  N3  UNL     1      12.635 -19.338  -6.585  1.00  0.00    -0.053 N 
ATOM      7  H3  UNL     1      12.669 -19.622  -7.564  1.00  0.00     0.218 HD
HETATM    8  F1  UNL     1      13.760 -18.902  -5.986  1.00  0.00    -0.086 F 
HETATM    9  N4  UNL     1      10.376 -19.867  -6.621  1.00  0.00    -0.187 N 
HETATM   10  C3  UNL     1       9.826 -21.171  -6.879  1.00  0.00     0.158 C 
HETATM   11  C4  UNL     1       8.927 -20.611  -7.938  1.00  0.00     0.024 C 
HETATM   12  C5  UNL     1       7.473 -20.937  -7.761  1.00  0.00     0.035 C 
HETATM   13  C6  UNL     1       6.923 -21.578  -9.003  1.00  0.00     0.128 C 
HETATM   14  N5  UNL     1       7.827 -22.645  -9.411  1.00  0.00    -0.336 N 
HETATM   15  C7  UNL     1       7.360 -23.978  -9.536  1.00  0.00     0.330 C 
HETATM   16  N6  UNL     1       6.006 -24.290  -9.265  1.00  0.00    -0.040 NA
HETATM   17  O1  UNL     1       8.150 -24.867  -9.885  1.00  0.00    -0.251 OA
HETATM   18  C8  UNL     1       9.207 -22.303  -9.682  1.00  0.00     0.128 C 
HETATM   19  C9  UNL     1       9.377 -20.825  -9.361  1.00  0.00     0.035 C 
HETATM   20  C10 UNL     1       9.274 -19.290  -7.336  1.00  0.00     0.248 C 
ENDROOT
BRANCH  20  21
HETATM   21  O2  UNL     1       9.614 -18.303  -8.261  1.00  0.00    -0.375 OA
ATOM     22  H2  UNL     1       9.562 -18.565  -9.172  1.00  0.00     0.212 HD
ENDBRANCH  20  21
TORSDOF 1
ENDMDL
MODEL 5
REMARK VINA RESULT: -5.823571116      9.338     11.837
REMARK  1 active torsions:
REMARK  status: ('A' for Active; 'I' for Inactive)
REMARK       I    between atoms: N2_3  and  C2_5 
REMARK       I    between atoms: C2_5  and  N4_9 
REMARK       I    between atoms: N5_14  and  C7_15 
REMARK    1  A    between atoms: C10_20  and  O2_21 
ROOT
HETATM    1  N1  UNL     1      13.267 -15.848  -5.961  1.00  0.00    -0.171 NA
HETATM    2  C1  UNL     1      12.350 -16.489  -6.316  1.00  0.00     0.196 C 
HETATM    3  N2  UNL     1      11.250 -17.236  -6.755  1.00  0.00    -0.124 N 
ATOM      4  H2  UNL     1      10.460 -16.756  -7.184  1.00  0.00     0.197 HD
HETATM    5  C2  UNL     1      11.211 -18.650  -6.615  1.00  0.00     0.715 C 
HETATM    6  N3  UNL     1      11.824 -19.233  -5.641  1.00  0.00    -0.053 N 
ATOM      7  H3  UNL     1      11.781 -20.249  -5.560  1.00  0.00     0.218 HD
HETATM    8  F1  UNL     1      12.520 -18.529  -4.727  1.00  0.00    -0.086 F 
HETATM    9  N4  UNL     1      10.501 -19.434  -7.537  1.00  0.00    -0.187 N 
HETATM   10  C3  UNL     1       9.168 -19.974  -7.573  1.00  0.00     0.158 C 
HETATM   11  C4  UNL     1       9.550 -20.911  -8.676  1.00  0.00     0.024 C 
HETATM   12  C5  UNL     1       8.671 -20.843  -9.890  1.00  0.00     0.035 C 
HETATM   13  C6  UNL     1       8.138 -22.204 -10.232  1.00  0.00     0.128 C 
HETATM   14  N5  UNL     1       7.599 -22.806  -9.021  1.00  0.00    -0.336 N 
HETATM   15  C7  UNL     1       6.244 -23.221  -8.962  1.00  0.00     0.330 C 
HETATM   16  N6  UNL     1       5.396 -23.054 -10.083  1.00  0.00    -0.040 NA
HETATM   17  O1  UNL     1       5.811 -23.730  -7.919  1.00  0.00    -0.251 OA
HETATM   18  C8  UNL     1       8.484 -22.966  -7.887  1.00  0.00     0.128 C 
HETATM   19  C9  UNL     1       9.818 -22.337  -8.262  1.00  0.00     0.035 C 
HETATM   20  C10 UNL     1      10.752 -20.036  -8.814  1.00  0.00     0.248 C 
ENDROOT
BRANCH  20  21
HETATM   21  O2  UNL     1      11.960 -20.724  -8.922  1.00  0.00    -0.375 OA
ATOM     22  H2  UNL     1      12.540 -20.648  -8.175  1.00  0.00     0.212 HD
ENDBRANCH  20  21
TORSDOF 1
ENDMDL
