MODEL 1
REMARK VINA RESULT: -3.865826061      0.000      0.000
REMARK  1 active torsions:
REMARK  status: ('A' for Active; 'I' for Inactive)
REMARK    1  A    between atoms: C2_2  and  N1_3 
ROOT
HETATM    1  N1  UNL     1      45.185  20.483  52.375  1.00  0.00    -0.032 N 
HETATM    2  C3  UNL     1      44.221  21.081  51.500  1.00  0.00     0.267 C 
HETATM    3  C4  UNL     1      44.999  22.098  50.712  1.00  0.00     0.262 C 
HETATM    4  N2  UNL     1      46.174  22.407  51.520  1.00  0.00    -0.042 N 
ATOM      5  H21 UNL     1      46.146  23.343  51.921  1.00  0.00     0.279 HD
ATOM      6  H22 UNL     1      47.020  22.526  50.962  1.00  0.00     0.279 HD
HETATM    7  C5  UNL     1      46.298  21.381  52.505  1.00  0.00     0.413 A 
HETATM    8  C6  UNL     1      45.386  21.175  53.610  1.00  0.00     0.303 A 
ENDROOT
BRANCH   1   9
HETATM    9  C2  UNL     1      45.523  19.097  52.292  1.00  0.00     0.236 C 
HETATM   10  C1  UNL     1      45.455  18.373  53.597  1.00  0.00     0.035 C 
ENDBRANCH   1   9
TORSDOF 1
ENDMDL
MODEL 2
REMARK VINA RESULT: -3.791476477      0.965      2.050
REMARK  1 active torsions:
REMARK  status: ('A' for Active; 'I' for Inactive)
REMARK    1  A    between atoms: C2_2  and  N1_3 
ROOT
HETATM    1  N1  UNL     1      45.337  20.468  51.795  1.00  0.00    -0.032 N 
HETATM    2  C3  UNL     1      46.328  21.081  52.628  1.00  0.00     0.267 C 
HETATM    3  C4  UNL     1      45.565  22.074  53.462  1.00  0.00     0.262 C 
HETATM    4  N2  UNL     1      44.346  22.361  52.714  1.00  0.00    -0.042 N 
ATOM      5  H21 UNL     1      44.333  23.301  52.319  1.00  0.00     0.279 HD
ATOM      6  H22 UNL     1      43.525  22.456  53.312  1.00  0.00     0.279 HD
HETATM    7  C5  UNL     1      44.199  21.340  51.726  1.00  0.00     0.413 A 
HETATM    8  C6  UNL     1      45.061  21.164  50.577  1.00  0.00     0.303 A 
ENDROOT
BRANCH   1   9
HETATM    9  C2  UNL     1      45.036  19.073  51.882  1.00  0.00     0.236 C 
HETATM   10  C1  UNL     1      45.370  18.459  53.203  1.00  0.00     0.035 C 
ENDBRANCH   1   9
TORSDOF 1
ENDMDL
MODEL 3
REMARK VINA RESULT: -3.770548657      1.327      2.999
REMARK  1 active torsions:
REMARK  status: ('A' for Active; 'I' for Inactive)
REMARK    1  A    between atoms: C2_2  and  N1_3 
ROOT
HETATM    1  N1  UNL     1      45.075  21.268  52.089  1.00  0.00    -0.032 N 
HETATM    2  C3  UNL     1      44.812  20.458  50.937  1.00  0.00     0.267 C 
HETATM    3  C4  UNL     1      44.570  19.080  51.486  1.00  0.00     0.262 C 
HETATM    4  N2  UNL     1      45.222  19.056  52.791  1.00  0.00    -0.042 N 
ATOM      5  H21 UNL     1      46.057  18.470  52.808  1.00  0.00     0.279 HD
ATOM      6  H22 UNL     1      44.687  18.545  53.494  1.00  0.00     0.279 HD
HETATM    7  C5  UNL     1      45.483  20.409  53.164  1.00  0.00     0.413 A 
HETATM    8  C6  UNL     1      46.439  21.281  52.516  1.00  0.00     0.303 A 
ENDROOT
BRANCH   1   9
HETATM    9  C2  UNL     1      44.220  22.351  52.461  1.00  0.00     0.236 C 
HETATM   10  C1  UNL     1      43.413  22.907  51.332  1.00  0.00     0.035 C 
ENDBRANCH   1   9
TORSDOF 1
ENDMDL
MODEL 4
REMARK VINA RESULT: -3.761006888      1.281      2.073
REMARK  1 active torsions:
REMARK  status: ('A' for Active; 'I' for Inactive)
REMARK    1  A    between atoms: C2_2  and  N1_3 
ROOT
HETATM    1  N1  UNL     1      45.297  20.135  51.923  1.00  0.00    -0.032 N 
HETATM    2  C3  UNL     1      45.799  21.376  51.414  1.00  0.00     0.267 C 
HETATM    3  C4  UNL     1      44.593  22.073  50.849  1.00  0.00     0.262 C 
HETATM    4  N2  UNL     1      43.622  21.019  50.573  1.00  0.00    -0.042 N 
ATOM      5  H21 UNL     1      43.486  20.856  49.576  1.00  0.00     0.279 HD
ATOM      6  H22 UNL     1      42.665  21.292  50.796  1.00  0.00     0.279 HD
HETATM    7  C5  UNL     1      44.047  19.851  51.277  1.00  0.00     0.413 A 
HETATM    8  C6  UNL     1      45.229  19.076  50.965  1.00  0.00     0.303 A 
ENDROOT
BRANCH   1   9
HETATM    9  C2  UNL     1      45.355  19.811  53.314  1.00  0.00     0.236 C 
HETATM   10  C1  UNL     1      45.432  18.346  53.596  1.00  0.00     0.035 C 
ENDBRANCH   1   9
TORSDOF 1
ENDMDL
MODEL 5
REMARK VINA RESULT: -3.744565926      1.300      2.766
REMARK  1 active torsions:
REMARK  status: ('A' for Active; 'I' for Inactive)
REMARK    1  A    between atoms: C2_2  and  N1_3 
ROOT
HETATM    1  N1  UNL     1      45.220  21.053  51.959  1.00  0.00    -0.032 N 
HETATM    2  C3  UNL     1      44.893  19.697  52.285  1.00  0.00     0.267 C 
HETATM    3  C4  UNL     1      44.979  18.957  50.979  1.00  0.00     0.262 C 
HETATM    4  N2  UNL     1      44.809  19.970  49.942  1.00  0.00    -0.042 N 
ATOM      5  H21 UNL     1      43.916  19.894  49.455  1.00  0.00     0.279 HD
ATOM      6  H22 UNL     1      45.414  19.818  49.134  1.00  0.00     0.279 HD
HETATM    7  C5  UNL     1      45.005  21.246  50.553  1.00  0.00     0.413 A 
HETATM    8  C6  UNL     1      44.116  21.849  51.522  1.00  0.00     0.303 A 
ENDROOT
BRANCH   1   9
HETATM    9  C2  UNL     1      46.375  21.701  52.497  1.00  0.00     0.236 C 
HETATM   10  C1  UNL     1      46.091  22.568  53.680  1.00  0.00     0.035 C 
ENDBRANCH   1   9
TORSDOF 1
ENDMDL
