MODEL 1
REMARK VINA RESULT: -4.956736395      0.000      0.000
REMARK  3 active torsions:
REMARK  status: ('A' for Active; 'I' for Inactive)
REMARK    1  A    between atoms: N1_2  and  C2_3 
REMARK    2  A    between atoms: C5_6  and  O1_7 
REMARK    3  A    between atoms: C9_12  and  C10_13 
ROOT
HETATM    1  C2  UNL     1      41.857  -2.173  29.871  1.00  0.00     0.197 C 
HETATM    2  C3  UNL     1      42.117  -3.289  28.862  1.00  0.00     0.041 C 
HETATM    3  C4  UNL     1      43.601  -3.158  28.538  1.00  0.00     0.021 C 
HETATM    4  C5  UNL     1      43.724  -2.641  27.142  1.00  0.00     0.122 C 
HETATM    5  C6  UNL     1      43.650  -1.143  27.247  1.00  0.00     0.032 C 
HETATM    6  C7  UNL     1      44.064  -0.796  28.666  1.00  0.00     0.008 C 
HETATM    7  C8  UNL     1      44.144  -2.064  29.438  1.00  0.00    -0.001 C 
HETATM    8  C9  UNL     1      43.133  -2.142  30.592  1.00  0.00     0.031 C 
ENDROOT
BRANCH   1   9
HETATM    9  N1  UNL     1      40.674  -2.469  30.566  1.00  0.00    -0.041 N 
HETATM   10  C1  UNL     1      40.781  -3.620  31.467  1.00  0.00     0.275 C 
HETATM   11  C11 UNL     1      39.674  -2.891  29.563  1.00  0.00     0.267 C 
HETATM   12  C12 UNL     1      38.353  -2.372  30.092  1.00  0.00     0.262 C 
HETATM   13  N2  UNL     1      38.763  -1.107  30.619  1.00  0.00    -0.049 N 
HETATM   14  C13 UNL     1      40.019  -1.421  31.245  1.00  0.00     0.467 C 
ATOM     15  H22 UNL     1      38.802  -0.351  29.936  1.00  0.00     0.279 HD
ATOM     16  H21 UNL     1      38.081  -0.655  31.228  1.00  0.00     0.279 HD
ENDBRANCH   1   9
BRANCH   8  17
HETATM   17  C10 UNL     1      43.416  -1.008  31.493  1.00  0.00     0.092 C 
HETATM   18 BR1  UNL     1      43.370  -1.683  33.327  1.00  0.00    -0.096 Br
ENDBRANCH   8  17
BRANCH   4  19
HETATM   19  O1  UNL     1      44.921  -3.035  26.527  1.00  0.00    -0.395 OA
ATOM     20  H1  UNL     1      45.617  -2.398  26.641  1.00  0.00     0.210 HD
ENDBRANCH   4  19
TORSDOF 3
ENDMDL
MODEL 2
REMARK VINA RESULT: -4.748273931      2.386      3.569
REMARK  3 active torsions:
REMARK  status: ('A' for Active; 'I' for Inactive)
REMARK    1  A    between atoms: N1_2  and  C2_3 
REMARK    2  A    between atoms: C5_6  and  O1_7 
REMARK    3  A    between atoms: C9_12  and  C10_13 
ROOT
HETATM    1  C2  UNL     1      42.830  -2.200  31.239  1.00  0.00     0.197 C 
HETATM    2  C3  UNL     1      43.576  -1.246  30.311  1.00  0.00     0.041 C 
HETATM    3  C4  UNL     1      42.977  -1.521  28.936  1.00  0.00     0.021 C 
HETATM    4  C5  UNL     1      44.008  -2.222  28.115  1.00  0.00     0.122 C 
HETATM    5  C6  UNL     1      43.866  -3.685  28.432  1.00  0.00     0.032 C 
HETATM    6  C7  UNL     1      42.449  -3.873  28.942  1.00  0.00     0.008 C 
HETATM    7  C8  UNL     1      41.858  -2.523  29.146  1.00  0.00    -0.001 C 
HETATM    8  C9  UNL     1      41.505  -2.226  30.611  1.00  0.00     0.031 C 
ENDROOT
BRANCH   1   9
HETATM    9  N1  UNL     1      42.965  -1.735  32.557  1.00  0.00    -0.041 N 
HETATM   10  C1  UNL     1      42.918  -2.790  33.572  1.00  0.00     0.275 C 
HETATM   11  C11 UNL     1      41.779  -0.904  32.848  1.00  0.00     0.267 C 
HETATM   12  C12 UNL     1      42.290   0.195  33.757  1.00  0.00     0.262 C 
HETATM   13  N2  UNL     1      43.565   0.453  33.160  1.00  0.00    -0.049 N 
HETATM   14  C13 UNL     1      44.038  -0.869  32.852  1.00  0.00     0.467 C 
ATOM     15  H22 UNL     1      43.545   1.097  32.369  1.00  0.00     0.279 HD
ATOM     16  H21 UNL     1      44.198   1.014  33.730  1.00  0.00     0.279 HD
ENDBRANCH   1   9
BRANCH   8  17
HETATM   17  C10 UNL     1      40.532  -3.250  31.040  1.00  0.00     0.092 C 
HETATM   18 BR1  UNL     1      38.811  -2.810  30.225  1.00  0.00    -0.096 Br
ENDBRANCH   8  17
BRANCH   4  19
HETATM   19  O1  UNL     1      43.846  -1.995  26.741  1.00  0.00    -0.395 OA
ATOM     20  H1  UNL     1      43.790  -2.803  26.243  1.00  0.00     0.210 HD
ENDBRANCH   4  19
TORSDOF 3
ENDMDL
MODEL 3
REMARK VINA RESULT: -4.734152454      3.167      4.502
REMARK  3 active torsions:
REMARK  status: ('A' for Active; 'I' for Inactive)
REMARK    1  A    between atoms: N1_2  and  C2_3 
REMARK    2  A    between atoms: C5_6  and  O1_7 
REMARK    3  A    between atoms: C9_12  and  C10_13 
ROOT
HETATM    1  C2  UNL     1      41.939  -3.688  30.848  1.00  0.00     0.197 C 
HETATM    2  C3  UNL     1      40.583  -2.996  30.953  1.00  0.00     0.041 C 
HETATM    3  C4  UNL     1      40.741  -1.740  30.103  1.00  0.00     0.021 C 
HETATM    4  C5  UNL     1      40.777  -0.563  31.021  1.00  0.00     0.122 C 
HETATM    5  C6  UNL     1      42.211  -0.413  31.447  1.00  0.00     0.032 C 
HETATM    6  C7  UNL     1      43.045  -1.086  30.372  1.00  0.00     0.008 C 
HETATM    7  C8  UNL     1      42.117  -1.818  29.470  1.00  0.00    -0.001 C 
HETATM    8  C9  UNL     1      42.329  -3.339  29.478  1.00  0.00     0.031 C 
ENDROOT
BRANCH   1   9
HETATM    9  N1  UNL     1      41.778  -5.037  31.202  1.00  0.00    -0.041 N 
HETATM   10  C1  UNL     1      40.602  -5.301  32.035  1.00  0.00     0.275 C 
HETATM   11  C11 UNL     1      42.919  -5.400  32.066  1.00  0.00     0.267 C 
HETATM   12  C12 UNL     1      43.222  -6.844  31.723  1.00  0.00     0.262 C 
HETATM   13  N2  UNL     1      43.011  -6.824  30.308  1.00  0.00    -0.049 N 
HETATM   14  C13 UNL     1      41.835  -6.007  30.179  1.00  0.00     0.467 C 
ATOM     15  H22 UNL     1      43.812  -6.511  29.760  1.00  0.00     0.279 HD
ATOM     16  H21 UNL     1      42.945  -7.743  29.872  1.00  0.00     0.279 HD
ENDBRANCH   1   9
BRANCH   8  17
HETATM   17  C10 UNL     1      43.718  -3.587  29.046  1.00  0.00     0.092 C 
HETATM   18 BR1  UNL     1      43.744  -3.562  27.092  1.00  0.00    -0.096 Br
ENDBRANCH   8  17
BRANCH   4  19
HETATM   19  O1  UNL     1      40.318   0.612  30.408  1.00  0.00    -0.395 OA
ATOM     20  H1  UNL     1      40.591   1.395  30.871  1.00  0.00     0.210 HD
ENDBRANCH   4  19
TORSDOF 3
ENDMDL
MODEL 4
REMARK VINA RESULT: -4.681309907      1.315      1.818
REMARK  3 active torsions:
REMARK  status: ('A' for Active; 'I' for Inactive)
REMARK    1  A    between atoms: N1_2  and  C2_3 
REMARK    2  A    between atoms: C5_6  and  O1_7 
REMARK    3  A    between atoms: C9_12  and  C10_13 
ROOT
HETATM    1  C2  UNL     1      41.340  -1.511  30.406  1.00  0.00     0.197 C 
HETATM    2  C3  UNL     1      41.197  -2.746  29.520  1.00  0.00     0.041 C 
HETATM    3  C4  UNL     1      42.620  -3.276  29.389  1.00  0.00     0.021 C 
HETATM    4  C5  UNL     1      43.079  -3.025  27.990  1.00  0.00     0.122 C 
HETATM    5  C6  UNL     1      43.635  -1.629  27.981  1.00  0.00     0.032 C 
HETATM    6  C7  UNL     1      44.024  -1.317  29.415  1.00  0.00     0.008 C 
HETATM    7  C8  UNL     1      43.488  -2.405  30.276  1.00  0.00    -0.001 C 
HETATM    8  C9  UNL     1      42.437  -1.923  31.287  1.00  0.00     0.031 C 
ENDROOT
BRANCH   1   9
HETATM    9  N1  UNL     1      40.084  -1.210  30.955  1.00  0.00    -0.041 N 
HETATM   10  C1  UNL     1      38.961  -1.861  30.274  1.00  0.00     0.275 C 
HETATM   11  C11 UNL     1      39.848   0.231  30.736  1.00  0.00     0.267 C 
HETATM   12  C12 UNL     1      39.076   0.687  31.957  1.00  0.00     0.262 C 
HETATM   13  N2  UNL     1      39.733  -0.072  32.977  1.00  0.00    -0.049 N 
HETATM   14  C13 UNL     1      39.913  -1.352  32.347  1.00  0.00     0.467 C 
ATOM     15  H22 UNL     1      40.586   0.350  33.342  1.00  0.00     0.279 HD
ATOM     16  H21 UNL     1      39.244  -0.099  33.872  1.00  0.00     0.279 HD
ENDBRANCH   1   9
BRANCH   8  17
HETATM   17  C10 UNL     1      43.087  -0.908  32.139  1.00  0.00     0.092 C 
HETATM   18 BR1  UNL     1      43.423  -1.724  33.883  1.00  0.00    -0.096 Br
ENDBRANCH   8  17
BRANCH   4  19
HETATM   19  O1  UNL     1      44.049  -3.946  27.569  1.00  0.00    -0.395 OA
ATOM     20  H1  UNL     1      44.846  -3.897  28.084  1.00  0.00     0.210 HD
ENDBRANCH   4  19
TORSDOF 3
ENDMDL
MODEL 5
REMARK VINA RESULT: -4.606671656      2.676      3.525
REMARK  3 active torsions:
REMARK  status: ('A' for Active; 'I' for Inactive)
REMARK    1  A    between atoms: N1_2  and  C2_3 
REMARK    2  A    between atoms: C5_6  and  O1_7 
REMARK    3  A    between atoms: C9_12  and  C10_13 
ROOT
HETATM    1  C2  UNL     1      41.688  -3.093  30.949  1.00  0.00     0.197 C 
HETATM    2  C3  UNL     1      42.274  -3.896  32.107  1.00  0.00     0.041 C 
HETATM    3  C4  UNL     1      43.437  -4.657  31.480  1.00  0.00     0.021 C 
HETATM    4  C5  UNL     1      43.062  -6.101  31.413  1.00  0.00     0.122 C 
HETATM    5  C6  UNL     1      42.301  -6.273  30.128  1.00  0.00     0.032 C 
HETATM    6  C7  UNL     1      42.732  -5.131  29.224  1.00  0.00     0.008 C 
HETATM    7  C8  UNL     1      43.536  -4.184  30.042  1.00  0.00    -0.001 C 
HETATM    8  C9  UNL     1      42.896  -2.794  30.173  1.00  0.00     0.031 C 
ENDROOT
BRANCH   1   9
HETATM    9  N1  UNL     1      40.925  -2.041  31.480  1.00  0.00    -0.041 N 
HETATM   10  C1  UNL     1      40.422  -2.289  32.833  1.00  0.00     0.275 C 
HETATM   11  C11 UNL     1      39.704  -1.931  30.657  1.00  0.00     0.267 C 
HETATM   12  C12 UNL     1      39.393  -0.449  30.621  1.00  0.00     0.262 C 
HETATM   13  N2  UNL     1      40.714   0.091  30.519  1.00  0.00    -0.049 N 
HETATM   14  C13 UNL     1      41.460  -0.737  31.428  1.00  0.00     0.467 C 
ATOM     15  H22 UNL     1      41.088   0.132  29.571  1.00  0.00     0.279 HD
ATOM     16  H21 UNL     1      40.782   1.093  30.696  1.00  0.00     0.279 HD
ENDBRANCH   1   9
BRANCH   8  17
HETATM   17  C10 UNL     1      42.751  -2.252  28.808  1.00  0.00     0.092 C 
HETATM   18 BR1  UNL     1      44.221  -0.999  28.509  1.00  0.00    -0.096 Br
ENDBRANCH   8  17
BRANCH   4  19
HETATM   19  O1  UNL     1      44.178  -6.948  31.444  1.00  0.00    -0.395 OA
ATOM     20  H1  UNL     1      44.948  -6.524  31.806  1.00  0.00     0.210 HD
ENDBRANCH   4  19
TORSDOF 3
ENDMDL
