MODEL 1
REMARK VINA RESULT: -5.253949805      0.000      0.000
REMARK  3 active torsions:
REMARK  status: ('A' for Active; 'I' for Inactive)
REMARK    1  A    between atoms: N1_2  and  C2_4 
REMARK    2  A    between atoms: C2_4  and  N2_6 
REMARK       I    between atoms: N3_9  and  C5_10 
REMARK       I    between atoms: C5_10  and  N4_12 
REMARK    3  A    between atoms: N4_12  and  N5_14 
ROOT
HETATM    1  N2  UNL     1      43.726  -2.139  27.723  1.00  0.00    -0.338 N 
HETATM    2  C3  UNL     1      43.927  -0.707  28.077  1.00  0.00     0.147 C 
HETATM    3  C4  UNL     1      43.621  -0.353  29.468  1.00  0.00     0.147 C 
HETATM    4  N3  UNL     1      42.547  -1.079  30.068  1.00  0.00    -0.328 N 
HETATM    5  C5  UNL     1      42.108  -0.809  31.375  1.00  0.00     0.342 C 
HETATM    6  O1  UNL     1      42.759   0.139  31.974  1.00  0.00    -0.245 OA
HETATM    7  N4  UNL     1      41.088  -1.432  32.059  1.00  0.00    -0.168 N 
ATOM      8  H4  UNL     1      40.594  -2.170  31.558  1.00  0.00     0.198 HD
HETATM    9  C9  UNL     1      41.934  -2.111  29.282  1.00  0.00     0.169 C 
HETATM   10  C10 UNL     1      43.166  -2.919  28.763  1.00  0.00     0.201 C 
HETATM   11 CL1  UNL     1      42.748  -4.573  28.510  1.00  0.00    -0.101 Cl
ENDROOT
BRANCH   7  12
HETATM   12  N5  UNL     1      40.660  -1.176  33.335  1.00  0.00     0.004 N 
HETATM   13  C6  UNL     1      40.201   0.163  33.535  1.00  0.00     0.301 C 
HETATM   14  C7  UNL     1      41.701  -1.488  34.328  1.00  0.00     0.301 C 
HETATM   15  C8  UNL     1      39.517  -2.035  33.696  1.00  0.00     0.301 C 
ENDBRANCH   7  12
BRANCH   1  16
HETATM   16  C2  UNL     1      44.117  -2.522  26.444  1.00  0.00     0.170 C 
HETATM   17  S1  UNL     1      44.143  -1.316  25.268  1.00  0.00    -0.041 SA
BRANCH  16  18
HETATM   18  N1  UNL     1      44.502  -3.805  26.012  1.00  0.00    -0.371 N 
HETATM   19  C1  UNL     1      43.810  -4.397  24.850  1.00  0.00     0.148 C 
ATOM     20  H1  UNL     1      45.244  -4.315  26.492  1.00  0.00     0.161 HD
ENDBRANCH  16  18
ENDBRANCH   1  16
TORSDOF 3
ENDMDL
MODEL 2
REMARK VINA RESULT: -5.125127195      2.179      2.795
REMARK  3 active torsions:
REMARK  status: ('A' for Active; 'I' for Inactive)
REMARK    1  A    between atoms: N1_2  and  C2_4 
REMARK    2  A    between atoms: C2_4  and  N2_6 
REMARK       I    between atoms: N3_9  and  C5_10 
REMARK       I    between atoms: C5_10  and  N4_12 
REMARK    3  A    between atoms: N4_12  and  N5_14 
ROOT
HETATM    1  N2  UNL     1      43.488  -2.559  27.469  1.00  0.00    -0.338 N 
HETATM    2  C3  UNL     1      42.900  -3.850  27.918  1.00  0.00     0.147 C 
HETATM    3  C4  UNL     1      42.196  -3.810  29.205  1.00  0.00     0.147 C 
HETATM    4  N3  UNL     1      42.737  -2.911  30.176  1.00  0.00    -0.328 N 
HETATM    5  C5  UNL     1      42.201  -2.807  31.470  1.00  0.00     0.342 C 
HETATM    6  O1  UNL     1      41.187  -3.584  31.694  1.00  0.00    -0.245 OA
HETATM    7  N4  UNL     1      42.631  -1.988  32.489  1.00  0.00    -0.168 N 
ATOM      8  H4  UNL     1      43.433  -1.392  32.281  1.00  0.00     0.198 HD
HETATM    9  C9  UNL     1      43.853  -2.105  29.772  1.00  0.00     0.169 C 
HETATM   10  C10 UNL     1      43.367  -1.510  28.412  1.00  0.00     0.201 C 
HETATM   11 CL1  UNL     1      44.088   0.031  28.128  1.00  0.00    -0.101 Cl
ENDROOT
BRANCH   7  12
HETATM   12  N5  UNL     1      42.108  -1.879  33.751  1.00  0.00     0.004 N 
HETATM   13  C6  UNL     1      42.153  -3.093  34.503  1.00  0.00     0.301 C 
HETATM   14  C7  UNL     1      40.727  -1.373  33.722  1.00  0.00     0.301 C 
HETATM   15  C8  UNL     1      42.859  -0.897  34.556  1.00  0.00     0.301 C 
ENDBRANCH   7  12
BRANCH   1  16
HETATM   16  C2  UNL     1      44.059  -2.545  26.201  1.00  0.00     0.170 C 
HETATM   17  S1  UNL     1      43.992  -3.983  25.326  1.00  0.00    -0.041 SA
BRANCH  16  18
HETATM   18  N1  UNL     1      44.687  -1.464  25.553  1.00  0.00    -0.371 N 
HETATM   19  C1  UNL     1      43.917  -0.688  24.563  1.00  0.00     0.148 C 
ATOM     20  H1  UNL     1      45.656  -1.223  25.765  1.00  0.00     0.161 HD
ENDBRANCH  16  18
ENDBRANCH   1  16
TORSDOF 3
ENDMDL
MODEL 3
REMARK VINA RESULT: -5.012660419      0.868      1.286
REMARK  3 active torsions:
REMARK  status: ('A' for Active; 'I' for Inactive)
REMARK    1  A    between atoms: N1_2  and  C2_4 
REMARK    2  A    between atoms: C2_4  and  N2_6 
REMARK       I    between atoms: N3_9  and  C5_10 
REMARK       I    between atoms: C5_10  and  N4_12 
REMARK    3  A    between atoms: N4_12  and  N5_14 
ROOT
HETATM    1  N2  UNL     1      44.040  -2.329  27.781  1.00  0.00    -0.338 N 
HETATM    2  C3  UNL     1      44.527  -1.000  28.240  1.00  0.00     0.147 C 
HETATM    3  C4  UNL     1      44.434  -0.758  29.685  1.00  0.00     0.147 C 
HETATM    4  N3  UNL     1      43.315  -1.359  30.339  1.00  0.00    -0.328 N 
HETATM    5  C5  UNL     1      43.067  -1.168  31.710  1.00  0.00     0.342 C 
HETATM    6  O1  UNL     1      43.934  -0.414  32.311  1.00  0.00    -0.245 OA
HETATM    7  N4  UNL     1      42.029  -1.686  32.451  1.00  0.00    -0.168 N 
ATOM      8  H4  UNL     1      41.363  -2.271  31.946  1.00  0.00     0.198 HD
HETATM    9  C9  UNL     1      42.451  -2.179  29.541  1.00  0.00     0.169 C 
HETATM   10  C10 UNL     1      43.460  -3.117  28.804  1.00  0.00     0.201 C 
HETATM   11 CL1  UNL     1      42.732  -4.640  28.451  1.00  0.00    -0.101 Cl
ENDROOT
BRANCH   7  12
HETATM   12  N5  UNL     1      41.787  -1.507  33.787  1.00  0.00     0.004 N 
HETATM   13  C6  UNL     1      42.924  -1.745  34.619  1.00  0.00     0.301 C 
HETATM   14  C7  UNL     1      40.662  -2.336  34.248  1.00  0.00     0.301 C 
HETATM   15  C8  UNL     1      41.381  -0.118  34.074  1.00  0.00     0.301 C 
ENDBRANCH   7  12
BRANCH   1  16
HETATM   16  C2  UNL     1      44.224  -2.625  26.435  1.00  0.00     0.170 C 
HETATM   17  S1  UNL     1      44.099  -1.340  25.353  1.00  0.00    -0.041 SA
BRANCH  16  18
HETATM   18  N1  UNL     1      44.508  -3.880  25.862  1.00  0.00    -0.371 N 
HETATM   19  C1  UNL     1      43.733  -4.311  24.683  1.00  0.00     0.148 C 
ATOM     20  H1  UNL     1      45.236  -4.478  26.255  1.00  0.00     0.161 HD
ENDBRANCH  16  18
ENDBRANCH   1  16
TORSDOF 3
ENDMDL
MODEL 4
REMARK VINA RESULT: -4.721485892      1.762      2.364
REMARK  3 active torsions:
REMARK  status: ('A' for Active; 'I' for Inactive)
REMARK    1  A    between atoms: N1_2  and  C2_4 
REMARK    2  A    between atoms: C2_4  and  N2_6 
REMARK       I    between atoms: N3_9  and  C5_10 
REMARK       I    between atoms: C5_10  and  N4_12 
REMARK    3  A    between atoms: N4_12  and  N5_14 
ROOT
HETATM    1  N2  UNL     1      43.275  -2.506  28.135  1.00  0.00    -0.338 N 
HETATM    2  C3  UNL     1      42.206  -3.426  28.611  1.00  0.00     0.147 C 
HETATM    3  C4  UNL     1      41.487  -2.990  29.813  1.00  0.00     0.147 C 
HETATM    4  N3  UNL     1      42.266  -2.266  30.769  1.00  0.00    -0.328 N 
HETATM    5  C5  UNL     1      41.725  -1.834  31.991  1.00  0.00     0.342 C 
HETATM    6  O1  UNL     1      40.478  -2.143  32.164  1.00  0.00    -0.245 OA
HETATM    7  N4  UNL     1      42.369  -1.137  32.989  1.00  0.00    -0.168 N 
ATOM      8  H4  UNL     1      43.350  -0.914  32.822  1.00  0.00     0.198 HD
HETATM    9  C9  UNL     1      43.631  -1.988  30.425  1.00  0.00     0.169 C 
HETATM   10  C10 UNL     1      43.505  -1.398  28.985  1.00  0.00     0.201 C 
HETATM   11 CL1  UNL     1      44.781  -0.282  28.668  1.00  0.00    -0.101 Cl
ENDROOT
BRANCH   7  12
HETATM   12  N5  UNL     1      41.844  -0.708  34.180  1.00  0.00     0.004 N 
HETATM   13  C6  UNL     1      41.361  -1.763  35.014  1.00  0.00     0.301 C 
HETATM   14  C7  UNL     1      40.774   0.281  33.975  1.00  0.00     0.301 C 
HETATM   15  C8  UNL     1      42.861  -0.010  34.989  1.00  0.00     0.301 C 
ENDBRANCH   7  12
BRANCH   1  16
HETATM   16  C2  UNL     1      43.891  -2.841  26.934  1.00  0.00     0.170 C 
HETATM   17  S1  UNL     1      44.236  -1.571  25.881  1.00  0.00    -0.041 SA
BRANCH  16  18
HETATM   18  N1  UNL     1      44.269  -4.122  26.489  1.00  0.00    -0.371 N 
HETATM   19  C1  UNL     1      43.941  -4.516  25.106  1.00  0.00     0.148 C 
ATOM     20  H1  UNL     1      44.761  -4.765  27.111  1.00  0.00     0.161 HD
ENDBRANCH  16  18
ENDBRANCH   1  16
TORSDOF 3
ENDMDL
MODEL 5
REMARK VINA RESULT: -4.652352843      1.532      1.615
REMARK  3 active torsions:
REMARK  status: ('A' for Active; 'I' for Inactive)
REMARK    1  A    between atoms: N1_2  and  C2_4 
REMARK    2  A    between atoms: C2_4  and  N2_6 
REMARK       I    between atoms: N3_9  and  C5_10 
REMARK       I    between atoms: C5_10  and  N4_12 
REMARK    3  A    between atoms: N4_12  and  N5_14 
ROOT
HETATM    1  N2  UNL     1      43.711  -2.866  28.661  1.00  0.00    -0.338 N 
HETATM    2  C3  UNL     1      43.973  -1.501  29.193  1.00  0.00     0.147 C 
HETATM    3  C4  UNL     1      43.826  -1.351  30.645  1.00  0.00     0.147 C 
HETATM    4  N3  UNL     1      42.811  -2.156  31.249  1.00  0.00    -0.328 N 
HETATM    5  C5  UNL     1      42.521  -2.077  32.621  1.00  0.00     0.342 C 
HETATM    6  O1  UNL     1      43.249  -1.226  33.275  1.00  0.00    -0.245 OA
HETATM    7  N4  UNL     1      41.572  -2.791  33.317  1.00  0.00    -0.168 N 
ATOM      8  H4  UNL     1      41.014  -3.449  32.772  1.00  0.00     0.198 HD
HETATM    9  C9  UNL     1      42.100  -3.062  30.395  1.00  0.00     0.169 C 
HETATM   10  C10 UNL     1      43.254  -3.788  29.633  1.00  0.00     0.201 C 
HETATM   11 CL1  UNL     1      42.784  -5.388  29.193  1.00  0.00    -0.101 Cl
ENDROOT
BRANCH   7  12
HETATM   12  N5  UNL     1      41.289  -2.722  34.656  1.00  0.00     0.004 N 
HETATM   13  C6  UNL     1      40.874  -1.426  35.094  1.00  0.00     0.301 C 
HETATM   14  C7  UNL     1      42.427  -3.172  35.473  1.00  0.00     0.301 C 
HETATM   15  C8  UNL     1      40.180  -3.625  35.013  1.00  0.00     0.301 C 
ENDBRANCH   7  12
BRANCH   1  16
HETATM   16  C2  UNL     1      43.954  -3.061  27.305  1.00  0.00     0.170 C 
HETATM   17  S1  UNL     1      44.436  -1.710  26.421  1.00  0.00    -0.041 SA
BRANCH  16  18
HETATM   18  N1  UNL     1      43.851  -4.261  26.577  1.00  0.00    -0.371 N 
HETATM   19  C1  UNL     1      43.910  -4.203  25.104  1.00  0.00     0.148 C 
ATOM     20  H1  UNL     1      43.737  -5.154  27.058  1.00  0.00     0.161 HD
ENDBRANCH  16  18
ENDBRANCH   1  16
TORSDOF 3
ENDMDL
