MODEL 1
REMARK VINA RESULT: -6.489133321      0.000      0.000
REMARK  2 active torsions:
REMARK  status: ('A' for Active; 'I' for Inactive)
REMARK       I    between atoms: N2_9  and  C6_10 
REMARK       I    between atoms: C6_10  and  N3_12 
REMARK    1  A    between atoms: N3_12  and  C7_14 
REMARK    2  A    between atoms: C7_14  and  N4_16 
ROOT
HETATM    1  C1  UNL     1      44.464  -4.383  27.653  1.00  0.00     0.042 C 
HETATM    2  C2  UNL     1      43.497  -3.380  27.072  1.00  0.00     0.176 C 
HETATM    3  C3  UNL     1      43.768  -3.332  25.596  1.00  0.00     0.240 C 
HETATM    4  O1  UNL     1      43.829  -4.419  24.975  1.00  0.00    -0.271 OA
HETATM    5  N1  UNL     1      43.951  -2.102  24.915  1.00  0.00    -0.358 N 
ATOM      6  H1  UNL     1      43.917  -2.087  23.895  1.00  0.00     0.162 HD
HETATM    7  C4  UNL     1      44.189  -0.854  25.642  1.00  0.00     0.142 C 
HETATM    8  C5  UNL     1      44.820  -1.302  26.967  1.00  0.00     0.148 C 
HETATM    9  N2  UNL     1      43.817  -2.092  27.644  1.00  0.00    -0.320 N 
HETATM   10  C6  UNL     1      43.164  -1.652  28.814  1.00  0.00     0.320 C 
HETATM   11  O2  UNL     1      43.479  -0.524  29.266  1.00  0.00    -0.247 OA
HETATM   12  N3  UNL     1      42.177  -2.387  29.520  1.00  0.00    -0.315 N 
ATOM     13  H3  UNL     1      41.920  -3.304  29.154  1.00  0.00     0.166 HD
ENDROOT
BRANCH  12  14
HETATM   14  C7  UNL     1      41.519  -1.941  30.700  1.00  0.00     0.291 C 
HETATM   15  C8  UNL     1      42.212  -2.547  31.918  1.00  0.00     0.064 C 
BRANCH  14  16
HETATM   16  N4  UNL     1      40.121  -2.203  30.777  1.00  0.00    -0.020 N 
HETATM   17  C9  UNL     1      39.931  -3.173  31.861  1.00  0.00     0.278 C 
HETATM   18  C10 UNL     1      39.554  -2.789  29.589  1.00  0.00     0.243 C 
HETATM   19  C11 UNL     1      38.177  -3.320  29.925  1.00  0.00     0.028 C 
HETATM   20  C12 UNL     1      37.299  -2.123  30.216  1.00  0.00     0.006 C 
HETATM   21  C13 UNL     1      37.909  -1.246  31.260  1.00  0.00     0.067 C 
HETATM   22  C14 UNL     1      39.382  -1.017  31.089  1.00  0.00     0.374 C 
HETATM   23  F1  UNL     1      39.512  -0.111  30.029  1.00  0.00    -0.218 F 
ENDBRANCH  14  16
ENDBRANCH  12  14
TORSDOF 2
ENDMDL
MODEL 2
REMARK VINA RESULT: -6.270891085      2.402      3.182
REMARK  2 active torsions:
REMARK  status: ('A' for Active; 'I' for Inactive)
REMARK       I    between atoms: N2_9  and  C6_10 
REMARK       I    between atoms: C6_10  and  N3_12 
REMARK    1  A    between atoms: N3_12  and  C7_14 
REMARK    2  A    between atoms: C7_14  and  N4_16 
ROOT
HETATM    1  C1  UNL     1      43.031  -4.552  31.542  1.00  0.00     0.042 C 
HETATM    2  C2  UNL     1      42.213  -3.991  30.404  1.00  0.00     0.176 C 
HETATM    3  C3  UNL     1      42.345  -4.960  29.265  1.00  0.00     0.240 C 
HETATM    4  O1  UNL     1      42.146  -6.175  29.502  1.00  0.00    -0.271 OA
HETATM    5  N1  UNL     1      42.685  -4.528  27.958  1.00  0.00    -0.358 N 
ATOM      6  H1  UNL     1      42.556  -5.166  27.172  1.00  0.00     0.162 HD
HETATM    7  C4  UNL     1      43.217  -3.186  27.710  1.00  0.00     0.142 C 
HETATM    8  C5  UNL     1      43.879  -2.791  29.038  1.00  0.00     0.148 C 
HETATM    9  N2  UNL     1      42.818  -2.737  30.016  1.00  0.00    -0.320 N 
HETATM   10  C6  UNL     1      42.372  -1.526  30.588  1.00  0.00     0.320 C 
HETATM   11  O2  UNL     1      42.931  -0.466  30.213  1.00  0.00    -0.247 OA
HETATM   12  N3  UNL     1      41.340  -1.415  31.554  1.00  0.00    -0.315 N 
ATOM     13  H3  UNL     1      40.885  -2.275  31.860  1.00  0.00     0.166 HD
ENDROOT
BRANCH  12  14
HETATM   14  C7  UNL     1      40.891  -0.193  32.129  1.00  0.00     0.291 C 
HETATM   15  C8  UNL     1      41.764   0.141  33.337  1.00  0.00     0.064 C 
BRANCH  14  16
HETATM   16  N4  UNL     1      39.520  -0.146  32.514  1.00  0.00    -0.020 N 
HETATM   17  C9  UNL     1      39.463  -0.539  33.927  1.00  0.00     0.278 C 
HETATM   18  C10 UNL     1      38.663  -1.053  31.795  1.00  0.00     0.243 C 
HETATM   19  C11 UNL     1      37.340  -1.144  32.523  1.00  0.00     0.028 C 
HETATM   20  C12 UNL     1      36.666   0.204  32.391  1.00  0.00     0.006 C 
HETATM   21  C13 UNL     1      37.565   1.305  32.850  1.00  0.00     0.067 C 
HETATM   22  C14 UNL     1      38.985   1.176  32.385  1.00  0.00     0.374 C 
HETATM   23  F1  UNL     1      38.982   1.532  31.031  1.00  0.00    -0.218 F 
ENDBRANCH  14  16
ENDBRANCH  12  14
TORSDOF 2
ENDMDL
MODEL 3
REMARK VINA RESULT: -6.250587101      1.097      1.195
REMARK  2 active torsions:
REMARK  status: ('A' for Active; 'I' for Inactive)
REMARK       I    between atoms: N2_9  and  C6_10 
REMARK       I    between atoms: C6_10  and  N3_12 
REMARK    1  A    between atoms: N3_12  and  C7_14 
REMARK    2  A    between atoms: C7_14  and  N4_16 
ROOT
HETATM    1  C1  UNL     1      44.167  -4.112  28.490  1.00  0.00     0.042 C 
HETATM    2  C2  UNL     1      43.326  -3.165  27.669  1.00  0.00     0.176 C 
HETATM    3  C3  UNL     1      43.538  -3.541  26.232  1.00  0.00     0.240 C 
HETATM    4  O1  UNL     1      43.422  -4.749  25.917  1.00  0.00    -0.271 OA
HETATM    5  N1  UNL     1      43.861  -2.570  25.250  1.00  0.00    -0.358 N 
ATOM      6  H1  UNL     1      43.786  -2.815  24.262  1.00  0.00     0.162 HD
HETATM    7  C4  UNL     1      44.299  -1.224  25.622  1.00  0.00     0.142 C 
HETATM    8  C5  UNL     1      44.917  -1.400  27.016  1.00  0.00     0.148 C 
HETATM    9  N2  UNL     1      43.845  -1.833  27.881  1.00  0.00    -0.320 N 
HETATM   10  C6  UNL     1      43.308  -1.015  28.897  1.00  0.00     0.320 C 
HETATM   11  O2  UNL     1      43.795   0.135  29.035  1.00  0.00    -0.247 OA
HETATM   12  N3  UNL     1      42.260  -1.391  29.775  1.00  0.00    -0.315 N 
ATOM     13  H3  UNL     1      41.864  -2.324  29.665  1.00  0.00     0.166 HD
ENDROOT
BRANCH  12  14
HETATM   14  C7  UNL     1      41.720  -0.563  30.800  1.00  0.00     0.291 C 
HETATM   15  C8  UNL     1      42.661  -0.580  32.003  1.00  0.00     0.064 C 
BRANCH  14  16
HETATM   16  N4  UNL     1      40.400  -0.878  31.232  1.00  0.00    -0.020 N 
HETATM   17  C9  UNL     1      40.534  -1.772  32.388  1.00  0.00     0.278 C 
HETATM   18  C10 UNL     1      39.600  -1.575  30.257  1.00  0.00     0.243 C 
HETATM   19  C11 UNL     1      38.378  -2.137  30.951  1.00  0.00     0.028 C 
HETATM   20  C12 UNL     1      37.526  -0.961  31.373  1.00  0.00     0.006 C 
HETATM   21  C13 UNL     1      38.316   0.017  32.179  1.00  0.00     0.067 C 
HETATM   22  C14 UNL     1      39.688   0.295  31.641  1.00  0.00     0.374 C 
HETATM   23  F1  UNL     1      39.505   1.124  30.527  1.00  0.00    -0.218 F 
ENDBRANCH  14  16
ENDBRANCH  12  14
TORSDOF 2
ENDMDL
MODEL 4
REMARK VINA RESULT: -6.050481701      0.995      1.530
REMARK  2 active torsions:
REMARK  status: ('A' for Active; 'I' for Inactive)
REMARK       I    between atoms: N2_9  and  C6_10 
REMARK       I    between atoms: C6_10  and  N3_12 
REMARK    1  A    between atoms: N3_12  and  C7_14 
REMARK    2  A    between atoms: C7_14  and  N4_16 
ROOT
HETATM    1  C1  UNL     1      44.426  -4.373  27.659  1.00  0.00     0.042 C 
HETATM    2  C2  UNL     1      43.473  -3.353  27.085  1.00  0.00     0.176 C 
HETATM    3  C3  UNL     1      43.734  -3.308  25.608  1.00  0.00     0.240 C 
HETATM    4  O1  UNL     1      43.771  -4.396  24.985  1.00  0.00    -0.271 OA
HETATM    5  N1  UNL     1      43.933  -2.081  24.925  1.00  0.00    -0.358 N 
ATOM      6  H1  UNL     1      43.892  -2.065  23.906  1.00  0.00     0.162 HD
HETATM    7  C4  UNL     1      44.198  -0.838  25.652  1.00  0.00     0.142 C 
HETATM    8  C5  UNL     1      44.830  -1.298  26.972  1.00  0.00     0.148 C 
HETATM    9  N2  UNL     1      43.820  -2.071  27.655  1.00  0.00    -0.320 N 
HETATM   10  C6  UNL     1      43.182  -1.620  28.831  1.00  0.00     0.320 C 
HETATM   11  O2  UNL     1      43.520  -0.498  29.281  1.00  0.00    -0.247 OA
HETATM   12  N3  UNL     1      42.188  -2.339  29.543  1.00  0.00    -0.315 N 
ATOM     13  H3  UNL     1      41.913  -3.251  29.179  1.00  0.00     0.166 HD
ENDROOT
BRANCH  12  14
HETATM   14  C7  UNL     1      41.546  -1.882  30.728  1.00  0.00     0.291 C 
HETATM   15  C8  UNL     1      42.078  -2.674  31.921  1.00  0.00     0.064 C 
BRANCH  14  16
HETATM   16  N4  UNL     1      40.122  -1.930  30.730  1.00  0.00    -0.020 N 
HETATM   17  C9  UNL     1      39.652  -0.577  30.414  1.00  0.00     0.278 C 
HETATM   18  C10 UNL     1      39.536  -2.290  31.995  1.00  0.00     0.243 C 
HETATM   19  C11 UNL     1      38.057  -1.973  31.947  1.00  0.00     0.028 C 
HETATM   20  C12 UNL     1      37.431  -2.924  30.952  1.00  0.00     0.006 C 
HETATM   21  C13 UNL     1      38.132  -2.866  29.634  1.00  0.00     0.067 C 
HETATM   22  C14 UNL     1      39.628  -2.831  29.733  1.00  0.00     0.374 C 
HETATM   23  F1  UNL     1      40.024  -4.133  30.063  1.00  0.00    -0.218 F 
ENDBRANCH  14  16
ENDBRANCH  12  14
TORSDOF 2
ENDMDL
MODEL 5
REMARK VINA RESULT: -6.025853326      1.487      1.651
REMARK  2 active torsions:
REMARK  status: ('A' for Active; 'I' for Inactive)
REMARK       I    between atoms: N2_9  and  C6_10 
REMARK       I    between atoms: C6_10  and  N3_12 
REMARK    1  A    between atoms: N3_12  and  C7_14 
REMARK    2  A    between atoms: C7_14  and  N4_16 
ROOT
HETATM    1  C1  UNL     1      43.792  -3.988  29.449  1.00  0.00     0.042 C 
HETATM    2  C2  UNL     1      43.006  -3.025  28.593  1.00  0.00     0.176 C 
HETATM    3  C3  UNL     1      43.406  -3.292  27.172  1.00  0.00     0.240 C 
HETATM    4  O1  UNL     1      43.391  -4.479  26.770  1.00  0.00    -0.271 OA
HETATM    5  N1  UNL     1      43.793  -2.243  26.299  1.00  0.00    -0.358 N 
ATOM      6  H1  UNL     1      43.849  -2.422  25.297  1.00  0.00     0.162 HD
HETATM    7  C4  UNL     1      44.115  -0.907  26.807  1.00  0.00     0.142 C 
HETATM    8  C5  UNL     1      44.571  -1.151  28.252  1.00  0.00     0.148 C 
HETATM    9  N2  UNL     1      43.427  -1.689  28.950  1.00  0.00    -0.320 N 
HETATM   10  C6  UNL     1      42.732  -0.966  29.943  1.00  0.00     0.320 C 
HETATM   11  O2  UNL     1      43.139   0.191  30.211  1.00  0.00    -0.247 OA
HETATM   12  N3  UNL     1      41.608  -1.447  30.661  1.00  0.00    -0.315 N 
ATOM     13  H3  UNL     1      41.275  -2.387  30.445  1.00  0.00     0.166 HD
ENDROOT
BRANCH  12  14
HETATM   14  C7  UNL     1      40.908  -0.716  31.662  1.00  0.00     0.291 C 
HETATM   15  C8  UNL     1      41.602  -0.920  33.006  1.00  0.00     0.064 C 
BRANCH  14  16
HETATM   16  N4  UNL     1      39.520  -1.010  31.800  1.00  0.00    -0.020 N 
HETATM   17  C9  UNL     1      39.414  -2.095  32.782  1.00  0.00     0.278 C 
HETATM   18  C10 UNL     1      38.882  -1.474  30.595  1.00  0.00     0.243 C 
HETATM   19  C11 UNL     1      37.536  -2.062  30.960  1.00  0.00     0.028 C 
HETATM   20  C12 UNL     1      36.667  -0.920  31.437  1.00  0.00     0.006 C 
HETATM   21  C13 UNL     1      37.336  -0.150  32.528  1.00  0.00     0.067 C 
HETATM   22  C14 UNL     1      38.791   0.122  32.288  1.00  0.00     0.374 C 
HETATM   23  F1  UNL     1      38.841   1.140  31.327  1.00  0.00    -0.218 F 
ENDBRANCH  14  16
ENDBRANCH  12  14
TORSDOF 2
ENDMDL
