MODEL 1
REMARK VINA RESULT: -9.723014121      0.000      0.000
REMARK  14 active torsions:
REMARK  status: ('A' for Active; 'I' for Inactive)
REMARK       I    between atoms: N1_2  and  C2_4 
REMARK       I    between atoms: C2_4  and  N9_46 
REMARK    1  A    between atoms: N2_5  and  C3_7 
REMARK    2  A    between atoms: C3_7  and  C4_8 
REMARK    3  A    between atoms: C4_8  and  C5_9 
REMARK    4  A    between atoms: C5_9  and  C6_10 
REMARK    5  A    between atoms: C6_10  and  N3_11 
REMARK       I    between atoms: C7_13  and  N5_15 
REMARK    6  A    between atoms: N5_15  and  C8_17 
REMARK    7  A    between atoms: C8_17  and  C9_18 
REMARK    8  A    between atoms: C9_18  and  C10_19 
REMARK    9  A    between atoms: C10_19  and  N6_20 
REMARK   10  A    between atoms: N6_20  and  C11_22 
REMARK   11  A    between atoms: N7_25  and  C14_26 
REMARK   12  A    between atoms: C14_26  and  C15_27 
REMARK   13  A    between atoms: C27_39  and  C28_40 
REMARK   14  A    between atoms: N9_46  and  C32_48 
ROOT
HETATM    1  C9  UNL     1      13.694  23.396   4.081  1.00  0.00     0.039 C 
ENDROOT
BRANCH   1   2
HETATM    2  C8  UNL     1      15.034  23.401   4.772  1.00  0.00     0.123 C 
BRANCH   2   3
HETATM    3  N5  UNL     1      15.688  22.138   4.877  1.00  0.00    -0.365 N 
HETATM    4  C7  UNL     1      15.576  21.171   5.890  1.00  0.00     0.183 C 
HETATM    5  N3  UNL     1      15.604  19.895   5.555  1.00  0.00    -0.365 N 
HETATM    6  N4  UNL     1      15.437  21.473   7.252  1.00  0.00    -0.064 NA
ATOM      7  H3  UNL     1      15.527  19.169   6.267  1.00  0.00     0.162 HD
ATOM      8  H5  UNL     1      16.323  21.906   4.114  1.00  0.00     0.162 HD
BRANCH   5   9
HETATM    9  C6  UNL     1      15.745  19.544   4.151  1.00  0.00     0.122 C 
BRANCH   9  10
HETATM   10  C5  UNL     1      15.899  18.064   3.948  1.00  0.00     0.021 C 
BRANCH  10  11
HETATM   11  C4  UNL     1      17.232  17.772   3.339  1.00  0.00     0.022 C 
BRANCH  11  12
HETATM   12  C3  UNL     1      18.371  18.382   4.118  1.00  0.00     0.138 C 
BRANCH  12  13
HETATM   13  N2  UNL     1      18.874  17.447   5.055  1.00  0.00    -0.226 N 
HETATM   14  C2  UNL     1      18.939  17.346   6.289  1.00  0.00     0.675 C 
HETATM   15  N1  UNL     1      19.596  16.095   6.727  1.00  0.00    -0.231 N 
HETATM   16  N9  UNL     1      18.539  18.209   7.250  1.00  0.00    -0.175 N 
HETATM   17  C1  UNL     1      19.129  14.850   6.214  1.00  0.00     0.165 C 
ATOM     18  H1  UNL     1      20.373  16.123   7.387  1.00  0.00     0.177 HD
ATOM     19  H9  UNL     1      18.036  17.684   7.965  1.00  0.00     0.186 HD
ATOM     20  H2  UNL     1      19.294  16.642   4.592  1.00  0.00     0.177 HD
BRANCH  16  21
HETATM   21  C32 UNL     1      18.561  19.401   7.582  1.00  0.00     0.142 A 
HETATM   22  N10 UNL     1      18.797  20.527   6.855  1.00  0.00    -0.285 N 
HETATM   23  N11 UNL     1      18.714  21.601   7.612  1.00  0.00    -0.310 N 
ATOM     24  H10 UNL     1      19.009  20.538   5.857  1.00  0.00     0.188 HD
HETATM   25  C33 UNL     1      18.418  21.234   8.886  1.00  0.00     0.117 A 
ATOM     26  H11 UNL     1      18.852  22.560   7.292  1.00  0.00     0.186 HD
HETATM   27  C34 UNL     1      18.319  19.877   8.888  1.00  0.00     0.001 A 
HETATM   28  C35 UNL     1      18.023  18.982  10.019  1.00  0.00     0.054 C 
ENDBRANCH  16  21
ENDBRANCH  12  13
ENDBRANCH  11  12
ENDBRANCH  10  11
ENDBRANCH   9  10
ENDBRANCH   5   9
ENDBRANCH   2   3
ENDBRANCH   1   2
BRANCH   1  29
HETATM   29  C10 UNL     1      12.960  24.624   4.536  1.00  0.00     0.121 C 
BRANCH  29  30
HETATM   30  N6  UNL     1      11.870  24.374   5.459  1.00  0.00    -0.389 N 
ATOM     31  H6  UNL     1      11.820  23.456   5.902  1.00  0.00     0.159 HD
BRANCH  30  32
HETATM   32  C11 UNL     1      10.995  25.206   5.743  1.00  0.00     0.042 A 
HETATM   33  C12 UNL     1      10.292  25.861   4.736  1.00  0.00     0.047 A 
HETATM   34  C13 UNL     1       9.356  26.805   5.004  1.00  0.00     0.093 A 
HETATM   35  N7  UNL     1       9.033  27.173   6.263  1.00  0.00    -0.355 N 
HETATM   36  C25 UNL     1       9.710  26.532   7.260  1.00  0.00     0.043 A 
HETATM   37  C26 UNL     1      10.700  25.550   7.047  1.00  0.00     0.028 A 
HETATM   38  C31 UNL     1       9.258  26.794   8.462  1.00  0.00     0.004 C 
HETATM   39  C27 UNL     1      11.330  24.981   8.044  1.00  0.00     0.022 C 
HETATM   40  C29 UNL     1      11.116  25.569   9.443  1.00  0.00     0.049 C 
HETATM   41  C30 UNL     1       9.835  26.200   9.664  1.00  0.00     0.034 C 
BRANCH  35  42
HETATM   42  C14 UNL     1       8.056  28.205   6.496  1.00  0.00     0.138 C 
BRANCH  42  43
HETATM   43  C15 UNL     1       6.630  27.829   6.283  1.00  0.00    -0.023 C 
HETATM   44  C16 UNL     1       6.429  27.501   4.795  1.00  0.00     0.015 C 
HETATM   45  C17 UNL     1       5.036  27.085   4.485  1.00  0.00    -0.013 C 
HETATM   46  C18 UNL     1       4.552  25.985   5.409  1.00  0.00     0.009 C 
HETATM   47  C22 UNL     1       4.141  28.285   4.680  1.00  0.00     0.009 C 
HETATM   48  C19 UNL     1       4.599  26.509   6.815  1.00  0.00    -0.013 C 
HETATM   49  C20 UNL     1       3.763  27.736   7.042  1.00  0.00     0.009 C 
HETATM   50  C24 UNL     1       6.073  26.753   7.131  1.00  0.00     0.015 C 
HETATM   51  C21 UNL     1       4.318  28.806   6.092  1.00  0.00    -0.013 C 
HETATM   52  C23 UNL     1       5.724  29.062   6.490  1.00  0.00     0.015 C 
ENDBRANCH  42  43
ENDBRANCH  35  42
BRANCH  39  53
HETATM   53  C28 UNL     1      12.339  23.964   7.982  1.00  0.00     0.262 C 
HETATM   54  N8  UNL     1      13.732  24.530   8.129  1.00  0.00    -0.057 NA
HETATM   55  O1  UNL     1      12.432  22.798   7.851  1.00  0.00    -0.271 OA
ENDBRANCH  39  53
ENDBRANCH  30  32
ENDBRANCH  29  30
ENDBRANCH   1  29
TORSDOF 14
ENDMDL
MODEL 2
REMARK VINA RESULT: -9.704524602      2.909      6.276
REMARK  14 active torsions:
REMARK  status: ('A' for Active; 'I' for Inactive)
REMARK       I    between atoms: N1_2  and  C2_4 
REMARK       I    between atoms: C2_4  and  N9_46 
REMARK    1  A    between atoms: N2_5  and  C3_7 
REMARK    2  A    between atoms: C3_7  and  C4_8 
REMARK    3  A    between atoms: C4_8  and  C5_9 
REMARK    4  A    between atoms: C5_9  and  C6_10 
REMARK    5  A    between atoms: C6_10  and  N3_11 
REMARK       I    between atoms: C7_13  and  N5_15 
REMARK    6  A    between atoms: N5_15  and  C8_17 
REMARK    7  A    between atoms: C8_17  and  C9_18 
REMARK    8  A    between atoms: C9_18  and  C10_19 
REMARK    9  A    between atoms: C10_19  and  N6_20 
REMARK   10  A    between atoms: N6_20  and  C11_22 
REMARK   11  A    between atoms: N7_25  and  C14_26 
REMARK   12  A    between atoms: C14_26  and  C15_27 
REMARK   13  A    between atoms: C27_39  and  C28_40 
REMARK   14  A    between atoms: N9_46  and  C32_48 
ROOT
HETATM    1  C9  UNL     1       7.049  24.466   2.034  1.00  0.00     0.039 C 
ENDROOT
BRANCH   1   2
HETATM    2  C8  UNL     1       8.508  24.286   1.698  1.00  0.00     0.123 C 
BRANCH   2   3
HETATM    3  N5  UNL     1       9.424  24.450   2.780  1.00  0.00    -0.365 N 
HETATM    4  C7  UNL     1      10.054  23.463   3.557  1.00  0.00     0.183 C 
HETATM    5  N3  UNL     1      11.298  23.662   3.947  1.00  0.00    -0.365 N 
HETATM    6  N4  UNL     1       9.442  22.265   3.951  1.00  0.00    -0.064 NA
ATOM      7  H3  UNL     1      11.783  22.966   4.514  1.00  0.00     0.162 HD
ATOM      8  H5  UNL     1       9.651  25.414   3.023  1.00  0.00     0.162 HD
BRANCH   5   9
HETATM    9  C6  UNL     1      11.966  24.893   3.554  1.00  0.00     0.122 C 
BRANCH   9  10
HETATM   10  C5  UNL     1      13.202  25.153   4.366  1.00  0.00     0.021 C 
BRANCH  10  11
HETATM   11  C4  UNL     1      13.739  23.864   4.899  1.00  0.00     0.022 C 
BRANCH  11  12
HETATM   12  C3  UNL     1      15.239  23.763   4.767  1.00  0.00     0.138 C 
BRANCH  12  13
HETATM   13  N2  UNL     1      15.605  22.451   4.381  1.00  0.00    -0.226 N 
HETATM   14  C2  UNL     1      15.734  21.348   4.931  1.00  0.00     0.675 C 
HETATM   15  N1  UNL     1      16.152  20.285   3.990  1.00  0.00    -0.231 N 
HETATM   16  N9  UNL     1      15.586  21.006   6.230  1.00  0.00    -0.175 N 
HETATM   17  C1  UNL     1      15.407  20.088   2.791  1.00  0.00     0.165 C 
ATOM     18  H1  UNL     1      16.962  19.702   4.197  1.00  0.00     0.177 HD
ATOM     19  H9  UNL     1      15.037  20.147   6.278  1.00  0.00     0.186 HD
ATOM     20  H2  UNL     1      15.820  22.400   3.386  1.00  0.00     0.177 HD
BRANCH  16  21
HETATM   21  C32 UNL     1      15.872  21.351   7.384  1.00  0.00     0.142 A 
HETATM   22  N10 UNL     1      17.044  21.281   8.074  1.00  0.00    -0.285 N 
HETATM   23  N11 UNL     1      16.904  21.772   9.288  1.00  0.00    -0.310 N 
ATOM     24  H10 UNL     1      17.913  20.899   7.700  1.00  0.00     0.188 HD
HETATM   25  C33 UNL     1      15.624  22.193   9.461  1.00  0.00     0.117 A 
ATOM     26  H11 UNL     1      17.643  21.827   9.989  1.00  0.00     0.186 HD
HETATM   27  C34 UNL     1      14.970  21.941   8.294  1.00  0.00     0.001 A 
HETATM   28  C35 UNL     1      13.560  22.201   7.961  1.00  0.00     0.054 C 
ENDBRANCH  16  21
ENDBRANCH  12  13
ENDBRANCH  11  12
ENDBRANCH  10  11
ENDBRANCH   9  10
ENDBRANCH   5   9
ENDBRANCH   2   3
ENDBRANCH   1   2
BRANCH   1  29
HETATM   29  C10 UNL     1       6.632  25.797   1.477  1.00  0.00     0.121 C 
BRANCH  29  30
HETATM   30  N6  UNL     1       6.034  26.699   2.442  1.00  0.00    -0.389 N 
ATOM     31  H6  UNL     1       5.118  27.093   2.225  1.00  0.00     0.159 HD
BRANCH  30  32
HETATM   32  C11 UNL     1       6.567  27.020   3.516  1.00  0.00     0.042 A 
HETATM   33  C12 UNL     1       7.868  27.515   3.537  1.00  0.00     0.047 A 
HETATM   34  C13 UNL     1       8.499  27.841   4.692  1.00  0.00     0.093 A 
HETATM   35  N7  UNL     1       7.912  27.716   5.901  1.00  0.00    -0.355 N 
HETATM   36  C25 UNL     1       6.633  27.240   5.894  1.00  0.00     0.043 A 
HETATM   37  C26 UNL     1       5.926  26.875   4.730  1.00  0.00     0.028 A 
HETATM   38  C31 UNL     1       6.042  27.288   7.063  1.00  0.00     0.004 C 
HETATM   39  C27 UNL     1       4.705  26.406   4.785  1.00  0.00     0.022 C 
HETATM   40  C29 UNL     1       4.143  26.060   6.168  1.00  0.00     0.049 C 
HETATM   41  C30 UNL     1       4.668  26.839   7.267  1.00  0.00     0.034 C 
BRANCH  35  42
HETATM   42  C14 UNL     1       8.636  28.043   7.103  1.00  0.00     0.138 C 
BRANCH  42  43
HETATM   43  C15 UNL     1       9.559  26.996   7.628  1.00  0.00    -0.023 C 
HETATM   44  C16 UNL     1       8.784  26.119   8.623  1.00  0.00     0.015 C 
HETATM   45  C17 UNL     1       9.616  25.021   9.184  1.00  0.00    -0.013 C 
HETATM   46  C18 UNL     1      10.310  24.222   8.099  1.00  0.00     0.009 C 
HETATM   47  C22 UNL     1      10.679  25.646  10.055  1.00  0.00     0.009 C 
HETATM   48  C19 UNL     1      11.198  25.159   7.331  1.00  0.00    -0.013 C 
HETATM   49  C20 UNL     1      12.239  25.844   8.170  1.00  0.00     0.009 C 
HETATM   50  C24 UNL     1      10.271  26.156   6.640  1.00  0.00     0.015 C 
HETATM   51  C21 UNL     1      11.467  26.643   9.230  1.00  0.00    -0.013 C 
HETATM   52  C23 UNL     1      10.645  27.647   8.512  1.00  0.00     0.015 C 
ENDBRANCH  42  43
ENDBRANCH  35  42
BRANCH  39  53
HETATM   53  C28 UNL     1       3.862  26.012   3.694  1.00  0.00     0.262 C 
HETATM   54  N8  UNL     1       3.023  27.157   3.176  1.00  0.00    -0.057 NA
HETATM   55  O1  UNL     1       3.608  25.057   3.055  1.00  0.00    -0.271 OA
ENDBRANCH  39  53
ENDBRANCH  30  32
ENDBRANCH  29  30
ENDBRANCH   1  29
TORSDOF 14
ENDMDL
MODEL 3
REMARK VINA RESULT: -9.679281843      3.210      5.041
REMARK  14 active torsions:
REMARK  status: ('A' for Active; 'I' for Inactive)
REMARK       I    between atoms: N1_2  and  C2_4 
REMARK       I    between atoms: C2_4  and  N9_46 
REMARK    1  A    between atoms: N2_5  and  C3_7 
REMARK    2  A    between atoms: C3_7  and  C4_8 
REMARK    3  A    between atoms: C4_8  and  C5_9 
REMARK    4  A    between atoms: C5_9  and  C6_10 
REMARK    5  A    between atoms: C6_10  and  N3_11 
REMARK       I    between atoms: C7_13  and  N5_15 
REMARK    6  A    between atoms: N5_15  and  C8_17 
REMARK    7  A    between atoms: C8_17  and  C9_18 
REMARK    8  A    between atoms: C9_18  and  C10_19 
REMARK    9  A    between atoms: C10_19  and  N6_20 
REMARK   10  A    between atoms: N6_20  and  C11_22 
REMARK   11  A    between atoms: N7_25  and  C14_26 
REMARK   12  A    between atoms: C14_26  and  C15_27 
REMARK   13  A    between atoms: C27_39  and  C28_40 
REMARK   14  A    between atoms: N9_46  and  C32_48 
ROOT
HETATM    1  C9  UNL     1      15.695  19.390   5.403  1.00  0.00     0.039 C 
ENDROOT
BRANCH   1   2
HETATM    2  C8  UNL     1      15.784  18.514   4.179  1.00  0.00     0.123 C 
BRANCH   2   3
HETATM    3  N5  UNL     1      16.859  17.575   4.160  1.00  0.00    -0.365 N 
HETATM    4  C7  UNL     1      18.166  17.743   3.673  1.00  0.00     0.183 C 
HETATM    5  N3  UNL     1      19.162  17.171   4.321  1.00  0.00    -0.365 N 
HETATM    6  N4  UNL     1      18.488  18.486   2.528  1.00  0.00    -0.064 NA
ATOM      7  H3  UNL     1      20.122  17.272   3.992  1.00  0.00     0.162 HD
ATOM      8  H5  UNL     1      16.648  16.657   4.552  1.00  0.00     0.162 HD
BRANCH   5   9
HETATM    9  C6  UNL     1      18.866  16.394   5.514  1.00  0.00     0.122 C 
BRANCH   9  10
HETATM   10  C5  UNL     1      19.644  15.111   5.564  1.00  0.00     0.021 C 
BRANCH  10  11
HETATM   11  C4  UNL     1      21.007  15.366   6.120  1.00  0.00     0.022 C 
BRANCH  11  12
HETATM   12  C3  UNL     1      20.966  15.994   7.492  1.00  0.00     0.138 C 
BRANCH  12  13
HETATM   13  N2  UNL     1      20.676  15.009   8.467  1.00  0.00    -0.226 N 
HETATM   14  C2  UNL     1      19.747  14.753   9.247  1.00  0.00     0.675 C 
HETATM   15  N1  UNL     1      20.002  13.542  10.060  1.00  0.00    -0.231 N 
HETATM   16  N9  UNL     1      18.596  15.424   9.473  1.00  0.00    -0.175 N 
HETATM   17  C1  UNL     1      20.365  12.330   9.405  1.00  0.00     0.165 C 
ATOM     18  H1  UNL     1      19.917  13.576  11.076  1.00  0.00     0.177 HD
ATOM     19  H9  UNL     1      17.830  14.751   9.496  1.00  0.00     0.186 HD
ATOM     20  H2  UNL     1      21.432  14.330   8.550  1.00  0.00     0.177 HD
BRANCH  16  21
HETATM   21  C32 UNL     1      18.130  16.555   9.662  1.00  0.00     0.142 A 
HETATM   22  N10 UNL     1      18.196  17.686   8.909  1.00  0.00    -0.285 N 
HETATM   23  N11 UNL     1      17.547  18.675   9.488  1.00  0.00    -0.310 N 
ATOM     24  H10 UNL     1      18.682  17.759   8.015  1.00  0.00     0.188 HD
HETATM   25  C33 UNL     1      17.017  18.241  10.662  1.00  0.00     0.117 A 
ATOM     26  H11 UNL     1      17.456  19.620   9.114  1.00  0.00     0.186 HD
HETATM   27  C34 UNL     1      17.366  16.932  10.787  1.00  0.00     0.001 A 
HETATM   28  C35 UNL     1      17.051  16.001  11.883  1.00  0.00     0.054 C 
ENDBRANCH  16  21
ENDBRANCH  12  13
ENDBRANCH  11  12
ENDBRANCH  10  11
ENDBRANCH   9  10
ENDBRANCH   5   9
ENDBRANCH   2   3
ENDBRANCH   1   2
BRANCH   1  29
HETATM   29  C10 UNL     1      16.617  20.554   5.178  1.00  0.00     0.121 C 
BRANCH  29  30
HETATM   30  N6  UNL     1      16.274  21.752   5.919  1.00  0.00    -0.389 N 
ATOM     31  H6  UNL     1      16.827  21.978   6.747  1.00  0.00     0.159 HD
BRANCH  30  32
HETATM   32  C11 UNL     1      15.350  22.520   5.610  1.00  0.00     0.042 A 
HETATM   33  C12 UNL     1      14.984  22.682   4.277  1.00  0.00     0.047 A 
HETATM   34  C13 UNL     1      14.006  23.540   3.895  1.00  0.00     0.093 A 
HETATM   35  N7  UNL     1      13.314  24.293   4.776  1.00  0.00    -0.355 N 
HETATM   36  C25 UNL     1      13.657  24.138   6.088  1.00  0.00     0.043 A 
HETATM   37  C26 UNL     1      14.669  23.270   6.548  1.00  0.00     0.028 A 
HETATM   38  C31 UNL     1      12.858  24.756   6.923  1.00  0.00     0.004 C 
HETATM   39  C27 UNL     1      14.968  23.175   7.819  1.00  0.00     0.022 C 
HETATM   40  C29 UNL     1      14.334  24.195   8.772  1.00  0.00     0.049 C 
HETATM   41  C30 UNL     1      13.043  24.706   8.369  1.00  0.00     0.034 C 
BRANCH  35  42
HETATM   42  C14 UNL     1      12.307  25.216   4.317  1.00  0.00     0.138 C 
BRANCH  42  43
HETATM   43  C15 UNL     1      11.059  24.617   3.766  1.00  0.00    -0.023 C 
HETATM   44  C16 UNL     1      11.148  24.630   2.232  1.00  0.00     0.015 C 
HETATM   45  C17 UNL     1       9.955  24.024   1.585  1.00  0.00    -0.013 C 
HETATM   46  C18 UNL     1       9.635  22.655   2.152  1.00  0.00     0.009 C 
HETATM   47  C22 UNL     1       8.775  24.927   1.854  1.00  0.00     0.009 C 
HETATM   48  C19 UNL     1       9.362  22.815   3.620  1.00  0.00    -0.013 C 
HETATM   49  C20 UNL     1       8.227  23.748   3.935  1.00  0.00     0.009 C 
HETATM   50  C24 UNL     1      10.673  23.274   4.251  1.00  0.00     0.015 C 
HETATM   51  C21 UNL     1       8.626  25.110   3.350  1.00  0.00    -0.013 C 
HETATM   52  C23 UNL     1       9.859  25.546   4.050  1.00  0.00     0.015 C 
ENDBRANCH  42  43
ENDBRANCH  35  42
BRANCH  39  53
HETATM   53  C28 UNL     1      15.952  22.332   8.433  1.00  0.00     0.262 C 
HETATM   54  N8  UNL     1      17.272  23.040   8.628  1.00  0.00    -0.057 NA
HETATM   55  O1  UNL     1      16.064  21.234   8.844  1.00  0.00    -0.271 OA
ENDBRANCH  39  53
ENDBRANCH  30  32
ENDBRANCH  29  30
ENDBRANCH   1  29
TORSDOF 14
ENDMDL
MODEL 4
REMARK VINA RESULT: -9.677191266      4.919     10.100
REMARK  14 active torsions:
REMARK  status: ('A' for Active; 'I' for Inactive)
REMARK       I    between atoms: N1_2  and  C2_4 
REMARK       I    between atoms: C2_4  and  N9_46 
REMARK    1  A    between atoms: N2_5  and  C3_7 
REMARK    2  A    between atoms: C3_7  and  C4_8 
REMARK    3  A    between atoms: C4_8  and  C5_9 
REMARK    4  A    between atoms: C5_9  and  C6_10 
REMARK    5  A    between atoms: C6_10  and  N3_11 
REMARK       I    between atoms: C7_13  and  N5_15 
REMARK    6  A    between atoms: N5_15  and  C8_17 
REMARK    7  A    between atoms: C8_17  and  C9_18 
REMARK    8  A    between atoms: C9_18  and  C10_19 
REMARK    9  A    between atoms: C10_19  and  N6_20 
REMARK   10  A    between atoms: N6_20  and  C11_22 
REMARK   11  A    between atoms: N7_25  and  C14_26 
REMARK   12  A    between atoms: C14_26  and  C15_27 
REMARK   13  A    between atoms: C27_39  and  C28_40 
REMARK   14  A    between atoms: N9_46  and  C32_48 
ROOT
HETATM    1  C9  UNL     1       7.280  26.141   2.620  1.00  0.00     0.039 C 
ENDROOT
BRANCH   1   2
HETATM    2  C8  UNL     1       8.642  26.222   1.979  1.00  0.00     0.123 C 
BRANCH   2   3
HETATM    3  N5  UNL     1       9.201  24.984   1.538  1.00  0.00    -0.365 N 
HETATM    4  C7  UNL     1      10.440  24.411   1.869  1.00  0.00     0.183 C 
HETATM    5  N3  UNL     1      10.514  23.103   2.018  1.00  0.00    -0.365 N 
HETATM    6  N4  UNL     1      11.620  25.145   2.053  1.00  0.00    -0.064 NA
ATOM      7  H3  UNL     1      11.399  22.655   2.256  1.00  0.00     0.162 HD
ATOM      8  H5  UNL     1       8.622  24.443   0.896  1.00  0.00     0.162 HD
BRANCH   5   9
HETATM    9  C6  UNL     1       9.308  22.309   1.837  1.00  0.00     0.122 C 
BRANCH   9  10
HETATM   10  C5  UNL     1       9.007  21.453   3.034  1.00  0.00     0.021 C 
BRANCH  10  11
HETATM   11  C4  UNL     1       7.757  20.671   2.797  1.00  0.00     0.022 C 
BRANCH  11  12
HETATM   12  C3  UNL     1       6.509  21.480   3.054  1.00  0.00     0.138 C 
BRANCH  12  13
HETATM   13  N2  UNL     1       5.721  20.854   4.050  1.00  0.00    -0.226 N 
HETATM   14  C2  UNL     1       4.658  21.087   4.642  1.00  0.00     0.675 C 
HETATM   15  N1  UNL     1       4.305  20.033   5.620  1.00  0.00    -0.231 N 
HETATM   16  N9  UNL     1       3.828  22.149   4.546  1.00  0.00    -0.175 N 
HETATM   17  C1  UNL     1       4.277  18.673   5.194  1.00  0.00     0.165 C 
ATOM     18  H1  UNL     1       4.086  20.277   6.585  1.00  0.00     0.177 HD
ATOM     19  H9  UNL     1       2.869  21.806   4.484  1.00  0.00     0.186 HD
ATOM     20  H2  UNL     1       6.140  19.980   4.364  1.00  0.00     0.177 HD
BRANCH  16  21
HETATM   21  C32 UNL     1       3.803  23.386   4.507  1.00  0.00     0.142 A 
HETATM   22  N10 UNL     1       3.906  24.315   5.497  1.00  0.00    -0.285 N 
HETATM   23  N11 UNL     1       3.833  25.534   5.007  1.00  0.00    -0.310 N 
ATOM     24  H10 UNL     1       4.023  24.095   6.486  1.00  0.00     0.188 HD
HETATM   25  C33 UNL     1       3.677  25.471   3.658  1.00  0.00     0.117 A 
ATOM     26  H11 UNL     1       3.885  26.394   5.554  1.00  0.00     0.186 HD
HETATM   27  C34 UNL     1       3.656  24.151   3.330  1.00  0.00     0.001 A 
HETATM   28  C35 UNL     1       3.500  23.541   1.999  1.00  0.00     0.054 C 
ENDBRANCH  16  21
ENDBRANCH  12  13
ENDBRANCH  11  12
ENDBRANCH  10  11
ENDBRANCH   9  10
ENDBRANCH   5   9
ENDBRANCH   2   3
ENDBRANCH   1   2
BRANCH   1  29
HETATM   29  C10 UNL     1       7.348  25.058   3.658  1.00  0.00     0.121 C 
BRANCH  29  30
HETATM   30  N6  UNL     1       7.472  25.531   5.023  1.00  0.00    -0.389 N 
ATOM     31  H6  UNL     1       6.623  25.822   5.508  1.00  0.00     0.159 HD
BRANCH  30  32
HETATM   32  C11 UNL     1       8.547  25.606   5.638  1.00  0.00     0.042 A 
HETATM   33  C12 UNL     1       9.642  24.846   5.238  1.00  0.00     0.047 A 
HETATM   34  C13 UNL     1      10.822  24.869   5.907  1.00  0.00     0.093 A 
HETATM   35  N7  UNL     1      11.022  25.633   7.002  1.00  0.00    -0.355 N 
HETATM   36  C25 UNL     1       9.958  26.391   7.399  1.00  0.00     0.043 A 
HETATM   37  C26 UNL     1       8.705  26.403   6.754  1.00  0.00     0.028 A 
HETATM   38  C31 UNL     1      10.240  27.238   8.359  1.00  0.00     0.004 C 
HETATM   39  C27 UNL     1       7.713  27.138   7.192  1.00  0.00     0.022 C 
HETATM   40  C29 UNL     1       7.886  27.817   8.554  1.00  0.00     0.049 C 
HETATM   41  C30 UNL     1       9.245  28.148   8.919  1.00  0.00     0.034 C 
BRANCH  35  42
HETATM   42  C14 UNL     1      12.283  25.597   7.698  1.00  0.00     0.138 C 
BRANCH  42  43
HETATM   43  C15 UNL     1      13.112  24.374   7.506  1.00  0.00    -0.023 C 
HETATM   44  C16 UNL     1      14.277  24.413   8.508  1.00  0.00     0.015 C 
HETATM   45  C17 UNL     1      15.151  23.215   8.414  1.00  0.00    -0.013 C 
HETATM   46  C18 UNL     1      14.357  21.924   8.473  1.00  0.00     0.009 C 
HETATM   47  C22 UNL     1      15.862  23.264   7.082  1.00  0.00     0.009 C 
HETATM   48  C19 UNL     1      13.400  21.918   7.316  1.00  0.00    -0.013 C 
HETATM   49  C20 UNL     1      14.062  22.019   5.971  1.00  0.00     0.009 C 
HETATM   50  C24 UNL     1      12.424  23.066   7.562  1.00  0.00     0.015 C 
HETATM   51  C21 UNL     1      14.829  23.348   5.977  1.00  0.00    -0.013 C 
HETATM   52  C23 UNL     1      13.830  24.433   6.140  1.00  0.00     0.015 C 
ENDBRANCH  42  43
ENDBRANCH  35  42
BRANCH  39  53
HETATM   53  C28 UNL     1       6.398  27.265   6.634  1.00  0.00     0.262 C 
HETATM   54  N8  UNL     1       5.382  26.419   7.365  1.00  0.00    -0.057 NA
HETATM   55  O1  UNL     1       5.842  27.834   5.767  1.00  0.00    -0.271 OA
ENDBRANCH  39  53
ENDBRANCH  30  32
ENDBRANCH  29  30
ENDBRANCH   1  29
TORSDOF 14
ENDMDL
MODEL 5
REMARK VINA RESULT: -9.642234312      3.252      5.920
REMARK  14 active torsions:
REMARK  status: ('A' for Active; 'I' for Inactive)
REMARK       I    between atoms: N1_2  and  C2_4 
REMARK       I    between atoms: C2_4  and  N9_46 
REMARK    1  A    between atoms: N2_5  and  C3_7 
REMARK    2  A    between atoms: C3_7  and  C4_8 
REMARK    3  A    between atoms: C4_8  and  C5_9 
REMARK    4  A    between atoms: C5_9  and  C6_10 
REMARK    5  A    between atoms: C6_10  and  N3_11 
REMARK       I    between atoms: C7_13  and  N5_15 
REMARK    6  A    between atoms: N5_15  and  C8_17 
REMARK    7  A    between atoms: C8_17  and  C9_18 
REMARK    8  A    between atoms: C9_18  and  C10_19 
REMARK    9  A    between atoms: C10_19  and  N6_20 
REMARK   10  A    between atoms: N6_20  and  C11_22 
REMARK   11  A    between atoms: N7_25  and  C14_26 
REMARK   12  A    between atoms: C14_26  and  C15_27 
REMARK   13  A    between atoms: C27_39  and  C28_40 
REMARK   14  A    between atoms: N9_46  and  C32_48 
ROOT
HETATM    1  C9  UNL     1      15.237  19.390   2.836  1.00  0.00     0.039 C 
ENDROOT
BRANCH   1   2
HETATM    2  C8  UNL     1      15.606  18.518   4.010  1.00  0.00     0.123 C 
BRANCH   2   3
HETATM    3  N5  UNL     1      16.722  17.650   3.817  1.00  0.00    -0.365 N 
HETATM    4  C7  UNL     1      17.967  17.934   3.232  1.00  0.00     0.183 C 
HETATM    5  N3  UNL     1      19.049  17.375   3.739  1.00  0.00    -0.365 N 
HETATM    6  N4  UNL     1      18.141  18.782   2.129  1.00  0.00    -0.064 NA
ATOM      7  H3  UNL     1      19.967  17.560   3.336  1.00  0.00     0.162 HD
ATOM      8  H5  UNL     1      16.598  16.694   4.149  1.00  0.00     0.162 HD
BRANCH   5   9
HETATM    9  C6  UNL     1      18.907  16.492   4.886  1.00  0.00     0.122 C 
BRANCH   9  10
HETATM   10  C5  UNL     1      20.214  15.873   5.291  1.00  0.00     0.021 C 
BRANCH  10  11
HETATM   11  C4  UNL     1      20.277  15.748   6.778  1.00  0.00     0.022 C 
BRANCH  11  12
HETATM   12  C3  UNL     1      19.324  14.708   7.314  1.00  0.00     0.138 C 
BRANCH  12  13
HETATM   13  N2  UNL     1      19.762  14.256   8.582  1.00  0.00    -0.226 N 
HETATM   14  C2  UNL     1      19.441  14.430   9.766  1.00  0.00     0.675 C 
HETATM   15  N1  UNL     1      20.286  13.661  10.707  1.00  0.00    -0.231 N 
HETATM   16  N9  UNL     1      18.486  15.226  10.296  1.00  0.00    -0.175 N 
HETATM   17  C1  UNL     1      20.452  12.260  10.504  1.00  0.00     0.165 C 
ATOM     18  H1  UNL     1      20.744  14.128  11.489  1.00  0.00     0.177 HD
ATOM     19  H9  UNL     1      17.974  14.692  10.998  1.00  0.00     0.186 HD
ATOM     20  H2  UNL     1      20.552  13.616   8.499  1.00  0.00     0.177 HD
BRANCH  16  21
HETATM   21  C32 UNL     1      18.004  16.365  10.243  1.00  0.00     0.142 A 
HETATM   22  N10 UNL     1      18.204  17.380   9.359  1.00  0.00    -0.285 N 
HETATM   23  N11 UNL     1      17.476  18.430   9.677  1.00  0.00    -0.310 N 
ATOM     24  H10 UNL     1      18.833  17.334   8.558  1.00  0.00     0.188 HD
HETATM   25  C33 UNL     1      16.754  18.158  10.795  1.00  0.00     0.117 A 
ATOM     26  H11 UNL     1      17.457  19.311   9.164  1.00  0.00     0.186 HD
HETATM   27  C34 UNL     1      17.067  16.885  11.161  1.00  0.00     0.001 A 
HETATM   28  C35 UNL     1      16.566  16.113  12.310  1.00  0.00     0.054 C 
ENDBRANCH  16  21
ENDBRANCH  12  13
ENDBRANCH  11  12
ENDBRANCH  10  11
ENDBRANCH   9  10
ENDBRANCH   5   9
ENDBRANCH   2   3
ENDBRANCH   1   2
BRANCH   1  29
HETATM   29  C10 UNL     1      15.343  20.815   3.297  1.00  0.00     0.121 C 
BRANCH  29  30
HETATM   30  N6  UNL     1      15.900  20.983   4.625  1.00  0.00    -0.389 N 
ATOM     31  H6  UNL     1      16.709  20.415   4.881  1.00  0.00     0.159 HD
BRANCH  30  32
HETATM   32  C11 UNL     1      15.455  21.775   5.470  1.00  0.00     0.042 A 
HETATM   33  C12 UNL     1      14.343  22.561   5.183  1.00  0.00     0.047 A 
HETATM   34  C13 UNL     1      13.850  23.466   6.064  1.00  0.00     0.093 A 
HETATM   35  N7  UNL     1      14.396  23.666   7.283  1.00  0.00    -0.355 N 
HETATM   36  C25 UNL     1      15.483  22.896   7.581  1.00  0.00     0.043 A 
HETATM   37  C26 UNL     1      16.049  21.946   6.706  1.00  0.00     0.028 A 
HETATM   38  C31 UNL     1      15.882  22.999   8.825  1.00  0.00     0.004 C 
HETATM   39  C27 UNL     1      17.104  21.246   7.038  1.00  0.00     0.022 C 
HETATM   40  C29 UNL     1      17.839  21.646   8.323  1.00  0.00     0.049 C 
HETATM   41  C30 UNL     1      17.019  22.249   9.349  1.00  0.00     0.034 C 
BRANCH  35  42
HETATM   42  C14 UNL     1      13.856  24.664   8.171  1.00  0.00     0.138 C 
BRANCH  42  43
HETATM   43  C15 UNL     1      12.432  25.046   7.954  1.00  0.00    -0.023 C 
HETATM   44  C16 UNL     1      11.929  25.785   9.204  1.00  0.00     0.015 C 
HETATM   45  C17 UNL     1      10.518  26.234   9.072  1.00  0.00    -0.013 C 
HETATM   46  C18 UNL     1      10.283  27.004   7.788  1.00  0.00     0.009 C 
HETATM   47  C22 UNL     1       9.643  25.003   9.044  1.00  0.00     0.009 C 
HETATM   48  C19 UNL     1      10.612  26.097   6.638  1.00  0.00    -0.013 C 
HETATM   49  C20 UNL     1       9.800  24.834   6.601  1.00  0.00     0.009 C 
HETATM   50  C24 UNL     1      12.109  25.813   6.731  1.00  0.00     0.015 C 
HETATM   51  C21 UNL     1      10.099  24.101   7.916  1.00  0.00    -0.013 C 
HETATM   52  C23 UNL     1      11.547  23.780   7.922  1.00  0.00     0.015 C 
ENDBRANCH  42  43
ENDBRANCH  35  42
BRANCH  39  53
HETATM   53  C28 UNL     1      17.775  20.241   6.266  1.00  0.00     0.262 C 
HETATM   54  N8  UNL     1      17.509  18.847   6.786  1.00  0.00    -0.057 NA
HETATM   55  O1  UNL     1      18.485  20.152   5.332  1.00  0.00    -0.271 OA
ENDBRANCH  39  53
ENDBRANCH  30  32
ENDBRANCH  29  30
ENDBRANCH   1  29
TORSDOF 14
ENDMDL
