MODEL 1
REMARK VINA RESULT: -5.865130213      0.000      0.000
REMARK  2 active torsions:
REMARK  status: ('A' for Active; 'I' for Inactive)
REMARK       I    between atoms: C1_4  and  N3_6 
REMARK    1  A    between atoms: N3_6  and  C2_8 
REMARK    2  A    between atoms: C9_15  and  C10_16 
ROOT
HETATM    1  C2  UNL     1      45.813   9.514   0.065  1.00  0.00     0.092 C 
HETATM    2  C3  UNL     1      44.378   9.596   0.402  1.00  0.00     0.010 C 
HETATM    3  C4  UNL     1      43.602   9.260  -0.881  1.00  0.00     0.011 C 
HETATM    4  C5  UNL     1      43.906  10.257  -1.967  1.00  0.00    -0.013 C 
HETATM    5  C6  UNL     1      45.375  10.149  -2.276  1.00  0.00     0.011 C 
HETATM    6  C7  UNL     1      46.145  10.515  -1.021  1.00  0.00     0.010 C 
HETATM    7  C8  UNL     1      45.772  11.905  -0.569  1.00  0.00     0.024 C 
HETATM    8  C9  UNL     1      44.297  11.999  -0.308  1.00  0.00     0.023 C 
HETATM    9  C11 UNL     1      43.572  11.666  -1.578  1.00  0.00     0.022 C 
HETATM   10  C12 UNL     1      43.930  10.979   0.772  1.00  0.00     0.024 C 
ENDROOT
BRANCH   1  11
HETATM   11  N3  UNL     1      46.782   9.559   1.109  1.00  0.00    -0.359 N 
HETATM   12  C1  UNL     1      47.200   8.512   1.944  1.00  0.00     0.182 C 
HETATM   13  N1  UNL     1      46.449   7.568   2.249  1.00  0.00    -0.374 N 
HETATM   14  N2  UNL     1      48.536   8.515   2.467  1.00  0.00    -0.064 NA
ATOM     15  H12 UNL     1      46.753   6.807   2.857  1.00  0.00     0.158 HD
ATOM     16  H11 UNL     1      45.500   7.566   1.877  1.00  0.00     0.158 HD
ATOM     17  H3  UNL     1      47.226  10.463   1.269  1.00  0.00     0.162 HD
ENDBRANCH   1  11
BRANCH   8  18
HETATM   18  C10 UNL     1      43.967  13.338   0.184  1.00  0.00     0.134 A 
HETATM   19  N4  UNL     1      43.611  14.544  -0.288  1.00  0.00    -0.227 N 
HETATM   20  O1  UNL     1      43.549  15.055   0.871  1.00  0.00    -0.154 OA
ATOM     21  H4  UNL     1      43.452  14.911  -1.226  1.00  0.00     0.198 HD
HETATM   22  N5  UNL     1      43.866  13.926   1.413  1.00  0.00    -0.227 N 
ATOM     23  H5  UNL     1      43.991  13.604   2.372  1.00  0.00     0.198 HD
ENDBRANCH   8  18
TORSDOF 2
ENDMDL
MODEL 2
REMARK VINA RESULT: -5.773607866      2.514      4.981
REMARK  2 active torsions:
REMARK  status: ('A' for Active; 'I' for Inactive)
REMARK       I    between atoms: C1_4  and  N3_6 
REMARK    1  A    between atoms: N3_6  and  C2_8 
REMARK    2  A    between atoms: C9_15  and  C10_16 
ROOT
HETATM    1  C2  UNL     1      43.955  12.652   0.704  1.00  0.00     0.092 C 
HETATM    2  C3  UNL     1      44.333  12.875  -0.705  1.00  0.00     0.010 C 
HETATM    3  C4  UNL     1      43.645  11.775  -1.528  1.00  0.00     0.011 C 
HETATM    4  C5  UNL     1      44.125  10.412  -1.105  1.00  0.00    -0.013 C 
HETATM    5  C6  UNL     1      43.730  10.225   0.335  1.00  0.00     0.011 C 
HETATM    6  C7  UNL     1      44.435  11.289   1.156  1.00  0.00     0.010 C 
HETATM    7  C8  UNL     1      45.928  11.184   0.970  1.00  0.00     0.024 C 
HETATM    8  C9  UNL     1      46.294  11.331  -0.478  1.00  0.00     0.023 C 
HETATM    9  C11 UNL     1      45.609  10.243  -1.249  1.00  0.00     0.022 C 
HETATM   10  C12 UNL     1      45.799  12.694  -0.967  1.00  0.00     0.024 C 
ENDROOT
BRANCH   1  11
HETATM   11  N3  UNL     1      44.262  13.645   1.678  1.00  0.00    -0.359 N 
HETATM   12  C1  UNL     1      43.715  14.932   1.801  1.00  0.00     0.182 C 
HETATM   13  N1  UNL     1      43.297  15.570   0.819  1.00  0.00    -0.374 N 
HETATM   14  N2  UNL     1      43.626  15.542   3.097  1.00  0.00    -0.064 NA
ATOM     15  H12 UNL     1      42.899  16.506   0.908  1.00  0.00     0.158 HD
ATOM     16  H11 UNL     1      43.360  15.137  -0.102  1.00  0.00     0.158 HD
ATOM     17  H3  UNL     1      44.966  13.391   2.371  1.00  0.00     0.162 HD
ENDBRANCH   1  11
BRANCH   8  18
HETATM   18  C10 UNL     1      47.750  11.284  -0.627  1.00  0.00     0.134 A 
HETATM   19  N4  UNL     1      48.728  11.886  -1.324  1.00  0.00    -0.227 N 
HETATM   20  O1  UNL     1      49.637  11.184  -0.785  1.00  0.00    -0.154 OA
ATOM     21  H4  UNL     1      48.737  12.627  -2.024  1.00  0.00     0.198 HD
HETATM   22  N5  UNL     1      48.765  10.568  -0.059  1.00  0.00    -0.227 N 
ATOM     23  H5  UNL     1      48.814   9.840   0.653  1.00  0.00     0.198 HD
ENDBRANCH   8  18
TORSDOF 2
ENDMDL
MODEL 3
REMARK VINA RESULT: -5.592711053      3.232      4.895
REMARK  2 active torsions:
REMARK  status: ('A' for Active; 'I' for Inactive)
REMARK       I    between atoms: C1_4  and  N3_6 
REMARK    1  A    between atoms: N3_6  and  C2_8 
REMARK    2  A    between atoms: C9_15  and  C10_16 
ROOT
HETATM    1  C2  UNL     1      44.753  12.703   0.303  1.00  0.00     0.092 C 
HETATM    2  C3  UNL     1      44.801  11.376   0.948  1.00  0.00     0.010 C 
HETATM    3  C4  UNL     1      46.158  10.754   0.582  1.00  0.00     0.011 C 
HETATM    4  C5  UNL     1      46.279  10.576  -0.908  1.00  0.00    -0.013 C 
HETATM    5  C6  UNL     1      46.217  11.945  -1.530  1.00  0.00     0.011 C 
HETATM    6  C7  UNL     1      44.865  12.549  -1.199  1.00  0.00     0.010 C 
HETATM    7  C8  UNL     1      43.760  11.656  -1.707  1.00  0.00     0.024 C 
HETATM    8  C9  UNL     1      43.867  10.285  -1.106  1.00  0.00     0.023 C 
HETATM    9  C11 UNL     1      45.199   9.709  -1.484  1.00  0.00     0.022 C 
HETATM   10  C12 UNL     1      43.780  10.415   0.416  1.00  0.00     0.024 C 
ENDROOT
BRANCH   1  11
HETATM   11  N3  UNL     1      43.708  13.610   0.642  1.00  0.00    -0.359 N 
HETATM   12  C1  UNL     1      43.756  14.684   1.544  1.00  0.00     0.182 C 
HETATM   13  N1  UNL     1      44.509  14.683   2.534  1.00  0.00    -0.374 N 
HETATM   14  N2  UNL     1      42.917  15.828   1.327  1.00  0.00    -0.064 NA
ATOM     15  H12 UNL     1      44.544  15.464   3.190  1.00  0.00     0.158 HD
ATOM     16  H11 UNL     1      45.105  13.871   2.688  1.00  0.00     0.158 HD
ATOM     17  H3  UNL     1      42.815  13.461   0.172  1.00  0.00     0.162 HD
ENDBRANCH   1  11
BRANCH   8  18
HETATM   18  C10 UNL     1      42.753   9.455  -1.567  1.00  0.00     0.134 A 
HETATM   19  N4  UNL     1      41.646   9.554  -2.322  1.00  0.00    -0.227 N 
HETATM   20  O1  UNL     1      41.329   8.340  -2.136  1.00  0.00    -0.154 OA
ATOM     21  H4  UNL     1      41.221  10.317  -2.847  1.00  0.00     0.198 HD
HETATM   22  N5  UNL     1      42.382   8.149  -1.413  1.00  0.00    -0.227 N 
ATOM     23  H5  UNL     1      42.778   7.347  -0.924  1.00  0.00     0.198 HD
ENDBRANCH   8  18
TORSDOF 2
ENDMDL
MODEL 4
REMARK VINA RESULT: -5.580097211      3.252      5.075
REMARK  2 active torsions:
REMARK  status: ('A' for Active; 'I' for Inactive)
REMARK       I    between atoms: C1_4  and  N3_6 
REMARK    1  A    between atoms: N3_6  and  C2_8 
REMARK    2  A    between atoms: C9_15  and  C10_16 
ROOT
HETATM    1  C2  UNL     1      45.012  12.142   0.218  1.00  0.00     0.092 C 
HETATM    2  C3  UNL     1      44.649  10.953   1.015  1.00  0.00     0.010 C 
HETATM    3  C4  UNL     1      45.963  10.242   1.374  1.00  0.00     0.011 C 
HETATM    4  C5  UNL     1      46.685   9.793   0.132  1.00  0.00    -0.013 C 
HETATM    5  C6  UNL     1      47.030  11.028  -0.657  1.00  0.00     0.011 C 
HETATM    6  C7  UNL     1      45.734  11.714  -1.043  1.00  0.00     0.010 C 
HETATM    7  C8  UNL     1      44.864  10.771  -1.837  1.00  0.00     0.024 C 
HETATM    8  C9  UNL     1      44.568   9.530  -1.047  1.00  0.00     0.023 C 
HETATM    9  C11 UNL     1      45.869   8.863  -0.715  1.00  0.00     0.022 C 
HETATM   10  C12 UNL     1      43.858   9.937   0.246  1.00  0.00     0.024 C 
ENDROOT
BRANCH   1  11
HETATM   11  N3  UNL     1      44.019  13.121  -0.074  1.00  0.00    -0.359 N 
HETATM   12  C1  UNL     1      43.704  14.275   0.658  1.00  0.00     0.182 C 
HETATM   13  N1  UNL     1      43.861  14.341   1.890  1.00  0.00    -0.374 N 
HETATM   14  N2  UNL     1      43.186  15.426  -0.024  1.00  0.00    -0.064 NA
ATOM     15  H12 UNL     1      43.631  15.181   2.423  1.00  0.00     0.158 HD
ATOM     16  H11 UNL     1      44.230  13.523   2.375  1.00  0.00     0.158 HD
ATOM     17  H3  UNL     1      43.470  12.963  -0.919  1.00  0.00     0.162 HD
ENDBRANCH   1  11
BRANCH   8  18
HETATM   18  C10 UNL     1      43.676   8.658  -1.813  1.00  0.00     0.134 A 
HETATM   19  N4  UNL     1      43.695   7.883  -2.911  1.00  0.00    -0.227 N 
HETATM   20  O1  UNL     1      42.482   7.540  -2.772  1.00  0.00    -0.154 OA
ATOM     21  H4  UNL     1      44.415   7.657  -3.597  1.00  0.00     0.198 HD
HETATM   22  N5  UNL     1      42.380   8.244  -1.694  1.00  0.00    -0.227 N 
ATOM     23  H5  UNL     1      41.632   8.419  -1.023  1.00  0.00     0.198 HD
ENDBRANCH   8  18
TORSDOF 2
ENDMDL
MODEL 5
REMARK VINA RESULT: -5.500906935      3.013      4.081
REMARK  2 active torsions:
REMARK  status: ('A' for Active; 'I' for Inactive)
REMARK       I    between atoms: C1_4  and  N3_6 
REMARK    1  A    between atoms: N3_6  and  C2_8 
REMARK    2  A    between atoms: C9_15  and  C10_16 
ROOT
HETATM    1  C2  UNL     1      45.889  10.232   0.612  1.00  0.00     0.092 C 
HETATM    2  C3  UNL     1      46.283  10.234  -0.811  1.00  0.00     0.010 C 
HETATM    3  C4  UNL     1      45.937  11.625  -1.365  1.00  0.00     0.011 C 
HETATM    4  C5  UNL     1      44.458  11.886  -1.269  1.00  0.00    -0.013 C 
HETATM    5  C6  UNL     1      44.093  11.868   0.191  1.00  0.00     0.011 C 
HETATM    6  C7  UNL     1      44.401  10.486   0.733  1.00  0.00     0.010 C 
HETATM    7  C8  UNL     1      43.638   9.441  -0.044  1.00  0.00     0.024 C 
HETATM    8  C9  UNL     1      43.986   9.506  -1.502  1.00  0.00     0.023 C 
HETATM    9  C11 UNL     1      43.636  10.872  -2.009  1.00  0.00     0.022 C 
HETATM   10  C12 UNL     1      45.492   9.276  -1.651  1.00  0.00     0.024 C 
ENDROOT
BRANCH   1  11
HETATM   11  N3  UNL     1      46.289   9.151   1.449  1.00  0.00    -0.359 N 
HETATM   12  C1  UNL     1      47.577   8.857   1.923  1.00  0.00     0.182 C 
HETATM   13  N1  UNL     1      48.601   9.161   1.286  1.00  0.00    -0.374 N 
HETATM   14  N2  UNL     1      47.732   8.188   3.182  1.00  0.00    -0.064 NA
ATOM     15  H12 UNL     1      49.538   8.947   1.630  1.00  0.00     0.158 HD
ATOM     16  H11 UNL     1      48.491   9.637   0.391  1.00  0.00     0.158 HD
ATOM     17  H3  UNL     1      45.549   8.513   1.740  1.00  0.00     0.162 HD
ENDBRANCH   1  11
BRANCH   8  18
HETATM   18  C10 UNL     1      43.280   8.447  -2.226  1.00  0.00     0.134 A 
HETATM   19  N4  UNL     1      43.492   7.570  -3.221  1.00  0.00    -0.227 N 
HETATM   20  O1  UNL     1      42.323   7.086  -3.135  1.00  0.00    -0.154 OA
ATOM     21  H4  UNL     1      44.292   7.368  -3.820  1.00  0.00     0.198 HD
HETATM   22  N5  UNL     1      42.039   7.881  -2.157  1.00  0.00    -0.227 N 
ATOM     23  H5  UNL     1      41.219   8.026  -1.569  1.00  0.00     0.198 HD
ENDBRANCH   8  18
TORSDOF 2
ENDMDL
