MODEL 1
REMARK VINA RESULT: -5.562755130      0.000      0.000
REMARK  3 active torsions:
REMARK  status: ('A' for Active; 'I' for Inactive)
REMARK    1  A    between atoms: C2_2  and  C3_3 
REMARK    2  A    between atoms: C8_8  and  O1_9 
REMARK    3  A    between atoms: C8_8  and  C9_11 
ROOT
HETATM    1  C3  UNL     1      44.961  11.691   1.579  1.00  0.00     0.047 C 
HETATM    2  C4  UNL     1      43.895  12.564   1.072  1.00  0.00     0.012 C 
HETATM    3  C5  UNL     1      44.034  13.128  -0.296  1.00  0.00     0.001 C 
HETATM    4  C6  UNL     1      44.700  12.185  -1.278  1.00  0.00     0.003 C 
HETATM    5  C7  UNL     1      45.937  11.697  -0.592  1.00  0.00     0.044 C 
HETATM    6  C8  UNL     1      45.525  10.714   0.514  1.00  0.00     0.097 C 
ENDROOT
BRANCH   6   7
HETATM    7  O1  UNL     1      44.371  10.025   0.192  1.00  0.00    -0.384 OA
ATOM      8  H1  UNL     1      44.488   9.947  -0.748  1.00  0.00     0.211 HD
ENDBRANCH   6   7
BRANCH   6   9
HETATM    9  C9  UNL     1      46.637  10.037   1.099  1.00  0.00     0.104 C 
HETATM   10  N1  UNL     1      47.558   9.138   0.657  1.00  0.00    -0.335 N 
HETATM   11  C10 UNL     1      48.548   8.658   1.667  1.00  0.00     0.132 C 
HETATM   12  C13 UNL     1      47.775   8.574  -0.603  1.00  0.00     0.173 C 
HETATM   13  C11 UNL     1      49.953   8.861   1.202  1.00  0.00     0.040 C 
HETATM   14  C12 UNL     1      50.195   8.606  -0.250  1.00  0.00     0.123 C 
HETATM   15  N2  UNL     1      49.062   8.086  -0.963  1.00  0.00    -0.367 N 
ATOM     16  H2  UNL     1      49.176   7.392  -1.701  1.00  0.00     0.161 HD
HETATM   17  S1  UNL     1      46.520   8.514  -1.586  1.00  0.00    -0.041 SA
ENDBRANCH   6   9
BRANCH   1  18
HETATM   18  C2  UNL     1      46.012  12.334   2.381  1.00  0.00    -0.029 C 
HETATM   19  C1  UNL     1      45.856  13.435   3.088  1.00  0.00     0.007 C 
ENDBRANCH   1  18
TORSDOF 3
ENDMDL
MODEL 2
REMARK VINA RESULT: -5.384322009      1.223      1.301
REMARK  3 active torsions:
REMARK  status: ('A' for Active; 'I' for Inactive)
REMARK    1  A    between atoms: C2_2  and  C3_3 
REMARK    2  A    between atoms: C8_8  and  O1_9 
REMARK    3  A    between atoms: C8_8  and  C9_11 
ROOT
HETATM    1  C3  UNL     1      44.641  11.620   1.237  1.00  0.00     0.047 C 
HETATM    2  C4  UNL     1      43.769  12.777   0.998  1.00  0.00     0.012 C 
HETATM    3  C5  UNL     1      43.968  13.567  -0.245  1.00  0.00     0.001 C 
HETATM    4  C6  UNL     1      44.370  12.729  -1.441  1.00  0.00     0.003 C 
HETATM    5  C7  UNL     1      45.500  11.869  -0.969  1.00  0.00     0.044 C 
HETATM    6  C8  UNL     1      44.933  10.786  -0.039  1.00  0.00     0.097 C 
ENDROOT
BRANCH   6   7
HETATM    7  O1  UNL     1      43.645  10.428  -0.386  1.00  0.00    -0.384 OA
ATOM      8  H1  UNL     1      43.158  10.957   0.235  1.00  0.00     0.211 HD
ENDBRANCH   6   7
BRANCH   6   9
HETATM    9  C9  UNL     1      45.896   9.793   0.309  1.00  0.00     0.104 C 
HETATM   10  N1  UNL     1      46.521   8.782  -0.355  1.00  0.00    -0.335 N 
HETATM   11  C10 UNL     1      47.456   7.942   0.452  1.00  0.00     0.132 C 
HETATM   12  C13 UNL     1      46.471   8.380  -1.692  1.00  0.00     0.173 C 
HETATM   13  C11 UNL     1      48.816   7.884  -0.163  1.00  0.00     0.040 C 
HETATM   14  C12 UNL     1      48.847   7.802  -1.655  1.00  0.00     0.123 C 
HETATM   15  N2  UNL     1      47.558   7.669  -2.273  1.00  0.00    -0.367 N 
ATOM     16  H2  UNL     1      47.426   7.086  -3.100  1.00  0.00     0.161 HD
HETATM   17  S1  UNL     1      45.151   8.758  -2.504  1.00  0.00    -0.041 SA
ENDBRANCH   6   9
BRANCH   1  18
HETATM   18  C2  UNL     1      45.840  11.858   2.053  1.00  0.00    -0.029 C 
HETATM   19  C1  UNL     1      46.017  12.889   2.854  1.00  0.00     0.007 C 
ENDBRANCH   1  18
TORSDOF 3
ENDMDL
MODEL 3
REMARK VINA RESULT: -4.797721442      1.460      1.871
REMARK  3 active torsions:
REMARK  status: ('A' for Active; 'I' for Inactive)
REMARK    1  A    between atoms: C2_2  and  C3_3 
REMARK    2  A    between atoms: C8_8  and  O1_9 
REMARK    3  A    between atoms: C8_8  and  C9_11 
ROOT
HETATM    1  C3  UNL     1      44.057  11.434  -0.585  1.00  0.00     0.047 C 
HETATM    2  C4  UNL     1      43.591  12.455  -1.531  1.00  0.00     0.012 C 
HETATM    3  C5  UNL     1      44.607  13.278  -2.238  1.00  0.00     0.001 C 
HETATM    4  C6  UNL     1      45.871  12.518  -2.587  1.00  0.00     0.003 C 
HETATM    5  C7  UNL     1      46.284  11.826  -1.327  1.00  0.00     0.044 C 
HETATM    6  C8  UNL     1      45.314  10.663  -1.068  1.00  0.00     0.097 C 
ENDROOT
BRANCH   6   7
HETATM    7  O1  UNL     1      44.824  10.127  -2.243  1.00  0.00    -0.384 OA
ATOM      8  H1  UNL     1      44.221  10.816  -2.496  1.00  0.00     0.211 HD
ENDBRANCH   6   7
BRANCH   6   9
HETATM    9  C9  UNL     1      45.734   9.815  -0.000  1.00  0.00     0.104 C 
HETATM   10  N1  UNL     1      46.774   8.960   0.198  1.00  0.00    -0.335 N 
HETATM   11  C10 UNL     1      46.788   8.230   1.501  1.00  0.00     0.132 C 
HETATM   12  C13 UNL     1      47.876   8.638  -0.598  1.00  0.00     0.173 C 
HETATM   13  C11 UNL     1      48.077   8.426   2.230  1.00  0.00     0.040 C 
HETATM   14  C12 UNL     1      49.304   8.442   1.378  1.00  0.00     0.123 C 
HETATM   15  N2  UNL     1      49.074   8.146  -0.008  1.00  0.00    -0.367 N 
ATOM     16  H2  UNL     1      49.744   7.601  -0.551  1.00  0.00     0.161 HD
HETATM   17  S1  UNL     1      47.710   8.852  -2.170  1.00  0.00    -0.041 SA
ENDBRANCH   6   9
BRANCH   1  18
HETATM   18  C2  UNL     1      44.137  11.834   0.828  1.00  0.00    -0.029 C 
HETATM   19  C1  UNL     1      43.986  13.064   1.275  1.00  0.00     0.007 C 
ENDBRANCH   1  18
TORSDOF 3
ENDMDL
MODEL 4
REMARK VINA RESULT: -4.780650675      3.445      5.384
REMARK  3 active torsions:
REMARK  status: ('A' for Active; 'I' for Inactive)
REMARK    1  A    between atoms: C2_2  and  C3_3 
REMARK    2  A    between atoms: C8_8  and  O1_9 
REMARK    3  A    between atoms: C8_8  and  C9_11 
ROOT
HETATM    1  C3  UNL     1      45.232  11.673  -0.156  1.00  0.00     0.047 C 
HETATM    2  C4  UNL     1      46.352  11.487   0.775  1.00  0.00     0.012 C 
HETATM    3  C5  UNL     1      46.542  10.149   1.393  1.00  0.00     0.001 C 
HETATM    4  C6  UNL     1      46.193   8.998   0.470  1.00  0.00     0.003 C 
HETATM    5  C7  UNL     1      44.846   9.326  -0.091  1.00  0.00     0.044 C 
HETATM    6  C8  UNL     1      45.005  10.468  -1.106  1.00  0.00     0.097 C 
ENDROOT
BRANCH   6   7
HETATM    7  O1  UNL     1      46.232  10.431  -1.738  1.00  0.00    -0.384 OA
ATOM      8  H1  UNL     1      46.017   9.875  -2.477  1.00  0.00     0.211 HD
ENDBRANCH   6   7
BRANCH   6   9
HETATM    9  C9  UNL     1      43.812  10.724  -1.846  1.00  0.00     0.104 C 
HETATM   10  N1  UNL     1      43.156  10.099  -2.862  1.00  0.00    -0.335 N 
HETATM   11  C10 UNL     1      41.923  10.775  -3.365  1.00  0.00     0.132 C 
HETATM   12  C13 UNL     1      43.411   8.900  -3.533  1.00  0.00     0.173 C 
HETATM   13  C11 UNL     1      40.742   9.860  -3.337  1.00  0.00     0.040 C 
HETATM   14  C12 UNL     1      41.016   8.442  -3.717  1.00  0.00     0.123 C 
HETATM   15  N2  UNL     1      42.355   8.192  -4.171  1.00  0.00    -0.367 N 
ATOM     16  H2  UNL     1      42.543   7.530  -4.925  1.00  0.00     0.161 HD
HETATM   17  S1  UNL     1      44.923   8.390  -3.538  1.00  0.00    -0.041 SA
ENDBRANCH   6   9
BRANCH   1  18
HETATM   18  C2  UNL     1      43.983  12.198   0.414  1.00  0.00    -0.029 C 
HETATM   19  C1  UNL     1      43.871  13.333   1.074  1.00  0.00     0.007 C 
ENDBRANCH   1  18
TORSDOF 3
ENDMDL
MODEL 5
REMARK VINA RESULT: -4.640781712      2.257      5.356
REMARK  3 active torsions:
REMARK  status: ('A' for Active; 'I' for Inactive)
REMARK    1  A    between atoms: C2_2  and  C3_3 
REMARK    2  A    between atoms: C8_8  and  O1_9 
REMARK    3  A    between atoms: C8_8  and  C9_11 
ROOT
HETATM    1  C3  UNL     1      48.584   8.236   2.139  1.00  0.00     0.047 C 
HETATM    2  C4  UNL     1      49.533   7.177   1.777  1.00  0.00     0.012 C 
HETATM    3  C5  UNL     1      49.329   6.453   0.495  1.00  0.00     0.001 C 
HETATM    4  C6  UNL     1      48.792   7.328  -0.619  1.00  0.00     0.003 C 
HETATM    5  C7  UNL     1      47.624   8.055  -0.032  1.00  0.00     0.044 C 
HETATM    6  C8  UNL     1      48.152   9.122   0.940  1.00  0.00     0.097 C 
ENDROOT
BRANCH   6   7
HETATM    7  O1  UNL     1      49.384   9.611   0.552  1.00  0.00    -0.384 OA
ATOM      8  H1  UNL     1      49.139  10.041  -0.258  1.00  0.00     0.211 HD
ENDBRANCH   6   7
BRANCH   6   9
HETATM    9  C9  UNL     1      47.131  10.005   1.404  1.00  0.00     0.104 C 
HETATM   10  N1  UNL     1      46.407  11.015   0.850  1.00  0.00    -0.335 N 
HETATM   11  C10 UNL     1      45.444  11.710   1.757  1.00  0.00     0.132 C 
HETATM   12  C13 UNL     1      46.374  11.530  -0.448  1.00  0.00     0.173 C 
HETATM   13  C11 UNL     1      44.061  11.713   1.194  1.00  0.00     0.040 C 
HETATM   14  C12 UNL     1      43.965  11.917  -0.283  1.00  0.00     0.123 C 
HETATM   15  N2  UNL     1      45.215  12.200  -0.930  1.00  0.00    -0.367 N 
ATOM     16  H2  UNL     1      45.270  12.859  -1.707  1.00  0.00     0.161 HD
HETATM   17  S1  UNL     1      47.686  11.325  -1.333  1.00  0.00    -0.041 SA
ENDBRANCH   6   9
BRANCH   1  18
HETATM   18  C2  UNL     1      47.457   7.845   2.998  1.00  0.00    -0.029 C 
HETATM   19  C1  UNL     1      47.550   7.076   4.064  1.00  0.00     0.007 C 
ENDBRANCH   1  18
TORSDOF 3
ENDMDL
