MODEL 1
REMARK VINA RESULT: -6.326552704      0.000      0.000
REMARK  3 active torsions:
REMARK  status: ('A' for Active; 'I' for Inactive)
REMARK    1  A    between atoms: N1_1  and  N2_4 
REMARK    2  A    between atoms: C4_9  and  N3_10 
REMARK    3  A    between atoms: C5_12  and  C6_13 
ROOT
HETATM    1  N2  UNL     1      14.340  45.840  18.502  1.00  0.00    -0.292 N 
ATOM      2  H2  UNL     1      15.341  45.836  18.303  1.00  0.00     0.188 HD
HETATM    3  C1  UNL     1      13.483  45.528  17.590  1.00  0.00     0.120 A 
HETATM    4  C2  UNL     1      12.121  45.542  17.895  1.00  0.00     0.067 A 
HETATM    5  C3  UNL     1      11.185  45.214  16.950  1.00  0.00     0.040 A 
HETATM    6  C4  UNL     1       9.811  45.217  17.218  1.00  0.00     0.118 A 
HETATM    7  N5  UNL     1       8.935  44.873  16.204  1.00  0.00    -0.338 N 
ATOM      8  H5  UNL     1       7.928  44.866  16.371  1.00  0.00     0.168 HD
HETATM    9  C11 UNL     1       9.420  44.553  15.014  1.00  0.00     0.182 A 
HETATM   10  N6  UNL     1      10.736  44.552  14.761  1.00  0.00    -0.350 N 
ATOM     11  H6  UNL     1      11.065  44.298  13.829  1.00  0.00     0.166 HD
HETATM   12  C12 UNL     1      11.628  44.876  15.705  1.00  0.00     0.062 A 
HETATM   13  C13 UNL     1      12.989  44.878  15.455  1.00  0.00     0.120 A 
HETATM   14  N7  UNL     1      13.922  45.192  16.358  1.00  0.00    -0.349 N 
ATOM     15  H7  UNL     1      14.916  45.178  16.128  1.00  0.00     0.167 HD
ENDROOT
BRANCH   6  16
HETATM   16  N3  UNL     1       9.346  45.506  18.296  1.00  0.00    -0.349 N 
HETATM   17  C5  UNL     1       8.431  45.503  19.293  1.00  0.00     0.119 C 
ATOM     18  H3  UNL     1      10.072  46.110  18.681  1.00  0.00     0.167 HD
BRANCH  17  19
HETATM   19  C6  UNL     1       8.831  46.377  20.469  1.00  0.00     0.047 A 
HETATM   20  C7  UNL     1      10.070  46.966  20.525  1.00  0.00     0.031 A 
HETATM   21  C8  UNL     1      10.457  47.765  21.584  1.00  0.00     0.004 A 
HETATM   22  C9  UNL     1       9.574  47.981  22.620  1.00  0.00     0.017 A 
HETATM   23  C10 UNL     1       8.339  47.375  22.531  1.00  0.00     0.088 A 
HETATM   24  N4  UNL     1       7.981  46.599  21.489  1.00  0.00    -0.365 N 
ATOM     25  H4  UNL     1       7.054  46.175  21.473  1.00  0.00     0.165 HD
ENDBRANCH  17  19
ENDBRANCH   6  16
BRANCH   1  26
HETATM   26  N1  UNL     1      13.865  46.183  19.764  1.00  0.00    -0.344 N 
ATOM     27  H12 UNL     1      12.907  45.950  20.028  1.00  0.00     0.176 HD
ATOM     28  H11 UNL     1      14.496  46.664  20.405  1.00  0.00     0.176 HD
ENDBRANCH   1  26
TORSDOF 3
ENDMDL
MODEL 2
REMARK VINA RESULT: -6.127192757      1.477      3.316
REMARK  3 active torsions:
REMARK  status: ('A' for Active; 'I' for Inactive)
REMARK    1  A    between atoms: N1_1  and  N2_4 
REMARK    2  A    between atoms: C4_9  and  N3_10 
REMARK    3  A    between atoms: C5_12  and  C6_13 
ROOT
HETATM    1  N2  UNL     1       8.517  46.563  13.982  1.00  0.00    -0.292 N 
ATOM      2  H2  UNL     1       8.404  46.675  12.975  1.00  0.00     0.188 HD
HETATM    3  C1  UNL     1       9.526  45.925  14.469  1.00  0.00     0.120 A 
HETATM    4  C2  UNL     1       9.651  45.791  15.852  1.00  0.00     0.067 A 
HETATM    5  C3  UNL     1      10.711  45.120  16.402  1.00  0.00     0.040 A 
HETATM    6  C4  UNL     1      10.871  44.964  17.784  1.00  0.00     0.118 A 
HETATM    7  N5  UNL     1      11.972  44.271  18.253  1.00  0.00    -0.338 N 
ATOM      8  H5  UNL     1      12.114  44.143  19.256  1.00  0.00     0.168 HD
HETATM    9  C11 UNL     1      12.840  43.775  17.384  1.00  0.00     0.182 A 
HETATM   10  N6  UNL     1      12.685  43.926  16.062  1.00  0.00    -0.350 N 
ATOM     11  H6  UNL     1      13.379  43.528  15.429  1.00  0.00     0.166 HD
HETATM   12  C12 UNL     1      11.637  44.588  15.554  1.00  0.00     0.062 A 
HETATM   13  C13 UNL     1      11.467  44.749  14.190  1.00  0.00     0.120 A 
HETATM   14  N7  UNL     1      10.444  45.399  13.629  1.00  0.00    -0.349 N 
ATOM     15  H7  UNL     1      10.360  45.494  12.617  1.00  0.00     0.167 HD
ENDROOT
BRANCH   6  16
HETATM   16  N3  UNL     1      10.091  45.407  18.596  1.00  0.00    -0.349 N 
HETATM   17  C5  UNL     1       8.879  45.658  19.143  1.00  0.00     0.119 C 
ATOM     18  H3  UNL     1      10.718  45.857  19.262  1.00  0.00     0.167 HD
BRANCH  17  19
HETATM   19  C6  UNL     1       8.960  46.487  20.413  1.00  0.00     0.047 A 
HETATM   20  C7  UNL     1      10.057  47.269  20.679  1.00  0.00     0.031 A 
HETATM   21  C8  UNL     1      10.154  48.032  21.828  1.00  0.00     0.004 A 
HETATM   22  C9  UNL     1       9.120  48.010  22.738  1.00  0.00     0.017 A 
HETATM   23  C10 UNL     1       8.035  47.214  22.438  1.00  0.00     0.088 A 
HETATM   24  N4  UNL     1       7.960  46.478  21.312  1.00  0.00    -0.365 N 
ATOM     25  H4  UNL     1       7.133  45.906  21.139  1.00  0.00     0.165 HD
ENDBRANCH  17  19
ENDBRANCH   6  16
BRANCH   1  26
HETATM   26  N1  UNL     1       7.585  47.096  14.868  1.00  0.00    -0.344 N 
ATOM     27  H12 UNL     1       7.855  47.300  15.830  1.00  0.00     0.176 HD
ATOM     28  H11 UNL     1       6.639  47.273  14.526  1.00  0.00     0.176 HD
ENDBRANCH   1  26
TORSDOF 3
ENDMDL
MODEL 3
REMARK VINA RESULT: -6.124096624      2.500      5.355
REMARK  3 active torsions:
REMARK  status: ('A' for Active; 'I' for Inactive)
REMARK    1  A    between atoms: N1_1  and  N2_4 
REMARK    2  A    between atoms: C4_9  and  N3_10 
REMARK    3  A    between atoms: C5_12  and  C6_13 
ROOT
HETATM    1  N2  UNL     1       9.587  45.794  19.514  1.00  0.00    -0.292 N 
ATOM      2  H2  UNL     1       9.816  45.922  20.499  1.00  0.00     0.188 HD
HETATM    3  C1  UNL     1      10.433  45.258  18.701  1.00  0.00     0.120 A 
HETATM    4  C2  UNL     1      10.087  45.096  17.359  1.00  0.00     0.067 A 
HETATM    5  C3  UNL     1      10.963  44.530  16.470  1.00  0.00     0.040 A 
HETATM    6  C4  UNL     1      10.652  44.351  15.116  1.00  0.00     0.118 A 
HETATM    7  N5  UNL     1      11.596  43.771  14.288  1.00  0.00    -0.338 N 
ATOM      8  H5  UNL     1      11.396  43.628  13.298  1.00  0.00     0.168 HD
HETATM    9  C11 UNL     1      12.762  43.404  14.797  1.00  0.00     0.182 A 
HETATM   10  N6  UNL     1      13.056  43.577  16.093  1.00  0.00    -0.350 N 
ATOM     11  H6  UNL     1      13.967  43.279  16.442  1.00  0.00     0.166 HD
HETATM   12  C12 UNL     1      12.180  44.133  16.939  1.00  0.00     0.062 A 
HETATM   13  C13 UNL     1      12.473  44.316  18.279  1.00  0.00     0.120 A 
HETATM   14  N7  UNL     1      11.638  44.864  19.166  1.00  0.00    -0.349 N 
ATOM     15  H7  UNL     1      11.898  44.978  20.146  1.00  0.00     0.167 HD
ENDROOT
BRANCH   6  16
HETATM   16  N3  UNL     1       9.595  44.679  14.629  1.00  0.00    -0.349 N 
HETATM   17  C5  UNL     1       8.485  44.542  13.867  1.00  0.00     0.119 C 
ATOM     18  H3  UNL     1       9.461  45.608  15.029  1.00  0.00     0.167 HD
BRANCH  17  19
HETATM   19  C6  UNL     1       7.589  45.769  13.897  1.00  0.00     0.047 A 
HETATM   20  C7  UNL     1       8.012  46.941  14.472  1.00  0.00     0.031 A 
HETATM   21  C8  UNL     1       7.216  48.070  14.511  1.00  0.00     0.004 A 
HETATM   22  C9  UNL     1       5.955  48.023  13.956  1.00  0.00     0.017 A 
HETATM   23  C10 UNL     1       5.564  46.829  13.386  1.00  0.00     0.088 A 
HETATM   24  N4  UNL     1       6.356  45.740  13.359  1.00  0.00    -0.365 N 
ATOM     25  H4  UNL     1       6.016  44.882  12.924  1.00  0.00     0.165 HD
ENDBRANCH  17  19
ENDBRANCH   6  16
BRANCH   1  26
HETATM   26  N1  UNL     1       8.352  46.191  19.011  1.00  0.00    -0.344 N 
ATOM     27  H12 UNL     1       8.228  46.318  18.007  1.00  0.00     0.176 HD
ATOM     28  H11 UNL     1       7.589  46.348  19.671  1.00  0.00     0.176 HD
ENDBRANCH   1  26
TORSDOF 3
ENDMDL
MODEL 4
REMARK VINA RESULT: -5.943228151      2.814      6.120
REMARK  3 active torsions:
REMARK  status: ('A' for Active; 'I' for Inactive)
REMARK    1  A    between atoms: N1_1  and  N2_4 
REMARK    2  A    between atoms: C4_9  and  N3_10 
REMARK    3  A    between atoms: C5_12  and  C6_13 
ROOT
HETATM    1  N2  UNL     1      10.741  44.206  15.982  1.00  0.00    -0.292 N 
ATOM      2  H2  UNL     1       9.975  43.921  15.372  1.00  0.00     0.188 HD
HETATM    3  C1  UNL     1      10.511  44.840  17.082  1.00  0.00     0.120 A 
HETATM    4  C2  UNL     1      11.581  45.215  17.895  1.00  0.00     0.067 A 
HETATM    5  C3  UNL     1      11.371  45.888  19.070  1.00  0.00     0.040 A 
HETATM    6  C4  UNL     1      12.419  46.281  19.911  1.00  0.00     0.118 A 
HETATM    7  N5  UNL     1      12.116  46.957  21.079  1.00  0.00    -0.338 N 
ATOM      8  H5  UNL     1      12.860  47.255  21.711  1.00  0.00     0.168 HD
HETATM    9  C11 UNL     1      10.849  47.213  21.366  1.00  0.00     0.182 A 
HETATM   10  N6  UNL     1       9.849  46.835  20.559  1.00  0.00    -0.350 N 
ATOM     11  H6  UNL     1       8.887  47.053  20.820  1.00  0.00     0.166 HD
HETATM   12  C12 UNL     1      10.085  46.178  19.416  1.00  0.00     0.062 A 
HETATM   13  C13 UNL     1       9.059  45.783  18.575  1.00  0.00     0.120 A 
HETATM   14  N7  UNL     1       9.237  45.126  17.426  1.00  0.00    -0.349 N 
ATOM     15  H7  UNL     1       8.449  44.854  16.837  1.00  0.00     0.167 HD
ENDROOT
BRANCH   6  16
HETATM   16  N3  UNL     1      13.583  46.060  19.669  1.00  0.00    -0.349 N 
HETATM   17  C5  UNL     1      14.630  45.490  19.028  1.00  0.00     0.119 C 
ATOM     18  H3  UNL     1      14.054  46.653  20.351  1.00  0.00     0.167 HD
BRANCH  17  19
HETATM   19  C6  UNL     1      15.975  45.918  19.590  1.00  0.00     0.047 A 
HETATM   20  C7  UNL     1      16.602  45.182  20.565  1.00  0.00     0.031 A 
HETATM   21  C8  UNL     1      17.825  45.551  21.093  1.00  0.00     0.004 A 
HETATM   22  C9  UNL     1      18.439  46.694  20.628  1.00  0.00     0.017 A 
HETATM   23  C10 UNL     1      17.781  47.408  19.649  1.00  0.00     0.088 A 
HETATM   24  N4  UNL     1      16.589  47.030  19.148  1.00  0.00    -0.365 N 
ATOM     25  H4  UNL     1      16.146  47.596  18.424  1.00  0.00     0.165 HD
ENDBRANCH  17  19
ENDBRANCH   6  16
BRANCH   1  26
HETATM   26  N1  UNL     1      12.062  43.923  15.650  1.00  0.00    -0.344 N 
ATOM     27  H12 UNL     1      12.809  44.125  16.314  1.00  0.00     0.176 HD
ATOM     28  H11 UNL     1      12.253  43.512  14.735  1.00  0.00     0.176 HD
ENDBRANCH   1  26
TORSDOF 3
ENDMDL
MODEL 5
REMARK VINA RESULT: -5.927129260      2.563      5.691
REMARK  3 active torsions:
REMARK  status: ('A' for Active; 'I' for Inactive)
REMARK    1  A    between atoms: N1_1  and  N2_4 
REMARK    2  A    between atoms: C4_9  and  N3_10 
REMARK    3  A    between atoms: C5_12  and  C6_13 
ROOT
HETATM    1  N2  UNL     1       9.484  47.152  21.228  1.00  0.00    -0.292 N 
ATOM      2  H2  UNL     1       8.550  47.431  21.526  1.00  0.00     0.188 HD
HETATM    3  C1  UNL     1       9.666  46.546  20.104  1.00  0.00     0.120 A 
HETATM    4  C2  UNL     1      10.958  46.178  19.724  1.00  0.00     0.067 A 
HETATM    5  C3  UNL     1      11.186  45.535  18.537  1.00  0.00     0.040 A 
HETATM    6  C4  UNL     1      12.467  45.150  18.122  1.00  0.00     0.118 A 
HETATM    7  N5  UNL     1      12.607  44.504  16.907  1.00  0.00    -0.338 N 
ATOM      8  H5  UNL     1      13.528  44.213  16.580  1.00  0.00     0.168 HD
HETATM    9  C11 UNL     1      11.529  44.269  16.174  1.00  0.00     0.182 A 
HETATM   10  N6  UNL     1      10.305  44.639  16.574  1.00  0.00    -0.350 N 
ATOM     11  H6  UNL     1       9.503  44.438  15.976  1.00  0.00     0.166 HD
HETATM   12  C12 UNL     1      10.112  45.267  17.741  1.00  0.00     0.062 A 
HETATM   13  C13 UNL     1       8.852  45.654  18.163  1.00  0.00     0.120 A 
HETATM   14  N7  UNL     1       8.603  46.282  19.315  1.00  0.00    -0.349 N 
ATOM     15  H7  UNL     1       7.656  46.549  19.585  1.00  0.00     0.167 HD
ENDROOT
BRANCH   6  16
HETATM   16  N3  UNL     1      13.465  45.353  18.775  1.00  0.00    -0.349 N 
HETATM   17  C5  UNL     1      14.207  45.479  19.899  1.00  0.00     0.119 C 
ATOM     18  H3  UNL     1      14.154  45.539  18.047  1.00  0.00     0.167 HD
BRANCH  17  19
HETATM   19  C6  UNL     1      15.650  45.862  19.618  1.00  0.00     0.047 A 
HETATM   20  C7  UNL     1      16.684  45.289  20.318  1.00  0.00     0.031 A 
HETATM   21  C8  UNL     1      18.005  45.621  20.081  1.00  0.00     0.004 A 
HETATM   22  C9  UNL     1      18.298  46.555  19.111  1.00  0.00     0.017 A 
HETATM   23  C10 UNL     1      17.236  47.109  18.429  1.00  0.00     0.088 A 
HETATM   24  N4  UNL     1      15.955  46.772  18.676  1.00  0.00    -0.365 N 
ATOM     25  H4  UNL     1      15.207  47.212  18.140  1.00  0.00     0.165 HD
ENDBRANCH  17  19
ENDBRANCH   6  16
BRANCH   1  26
HETATM   26  N1  UNL     1      10.595  47.414  22.023  1.00  0.00    -0.344 N 
ATOM     27  H12 UNL     1      11.521  47.111  21.721  1.00  0.00     0.176 HD
ATOM     28  H11 UNL     1      10.454  47.911  22.903  1.00  0.00     0.176 HD
ENDBRANCH   1  26
TORSDOF 3
ENDMDL
