MODEL 1
REMARK VINA RESULT: -10.510705478      0.000      0.000
REMARK  10 active torsions:
REMARK  status: ('A' for Active; 'I' for Inactive)
REMARK    1  A    between atoms: C2_2  and  C3_3 
REMARK    2  A    between atoms: C3_3  and  N1_4 
REMARK       I    between atoms: N1_4  and  C4_6 
REMARK    3  A    between atoms: C4_6  and  C5_8 
REMARK    4  A    between atoms: C5_8  and  C6_9 
REMARK    5  A    between atoms: C6_9  and  C7_10 
REMARK    6  A    between atoms: C7_10  and  C8_12 
REMARK    7  A    between atoms: C8_12  and  C10_14 
REMARK    8  A    between atoms: C10_14  and  C11_15 
REMARK    9  A    between atoms: C22_26  and  N2_27 
REMARK   10  A    between atoms: C29_35  and  O3_36 
ROOT
HETATM    1  C11 UNL     1      28.715  48.179   0.977  1.00  0.00     0.021 C 
HETATM    2  C12 UNL     1      29.222  48.111   2.391  1.00  0.00     0.009 C 
HETATM    3  C13 UNL     1      30.592  47.475   2.121  1.00  0.00     0.013 C 
HETATM    4  C14 UNL     1      30.474  46.771   0.778  1.00  0.00    -0.009 C 
HETATM    5  C15 UNL     1      31.067  47.776  -0.236  1.00  0.00     0.018 C 
HETATM    6  C16 UNL     1      31.300  45.564   0.660  1.00  0.00     0.039 C 
HETATM    7  C17 UNL     1      31.511  44.733   1.853  1.00  0.00    -0.021 C 
HETATM    8  C18 UNL     1      30.893  43.565   2.062  1.00  0.00    -0.064 C 
HETATM    9  C19 UNL     1      31.286  42.898   3.379  1.00  0.00    -0.003 C 
HETATM   10  C20 UNL     1      31.503  43.929   4.471  1.00  0.00     0.021 C 
HETATM   11  C21 UNL     1      32.664  42.275   3.142  1.00  0.00     0.021 C 
HETATM   12  C22 UNL     1      30.258  41.952   3.867  1.00  0.00     0.092 C 
HETATM   13  C24 UNL     1      29.344  41.365   2.829  1.00  0.00     0.011 C 
HETATM   14  C25 UNL     1      28.142  42.219   2.494  1.00  0.00     0.017 C 
HETATM   15  C26 UNL     1      28.616  43.356   1.620  1.00  0.00    -0.027 A 
HETATM   16  C27 UNL     1      28.408  44.756   2.066  1.00  0.00     0.013 C 
HETATM   17  C28 UNL     1      28.093  45.786   1.040  1.00  0.00     0.040 C 
HETATM   18  C29 UNL     1      29.025  46.755   0.533  1.00  0.00     0.069 C 
HETATM   19  C30 UNL     1      29.010  43.195   0.213  1.00  0.00     0.025 A 
HETATM   20  C31 UNL     1      29.954  42.897   1.224  1.00  0.00    -0.008 A 
HETATM   21  C32 UNL     1      30.072  41.391   1.543  1.00  0.00     0.021 C 
ENDROOT
BRANCH   1  22
HETATM   22  C10 UNL     1      27.354  48.669   0.762  1.00  0.00     0.019 C 
BRANCH  22  23
HETATM   23  C8  UNL     1      27.369  50.119   0.247  1.00  0.00     0.052 C 
HETATM   24  C9  UNL     1      28.362  50.310  -0.844  1.00  0.00     0.018 C 
BRANCH  23  25
HETATM   25  C7  UNL     1      26.000  50.388  -0.338  1.00  0.00     0.131 C 
HETATM   26  O2  UNL     1      25.002  50.294   0.341  1.00  0.00    -0.298 OA
BRANCH  25  27
HETATM   27  C6  UNL     1      25.859  50.775  -1.765  1.00  0.00     0.088 C 
BRANCH  27  28
HETATM   28  C5  UNL     1      24.548  51.443  -2.074  1.00  0.00     0.110 C 
BRANCH  28  29
HETATM   29  C4  UNL     1      24.470  52.064  -3.402  1.00  0.00     0.217 C 
HETATM   30  N1  UNL     1      23.469  51.640  -4.310  1.00  0.00    -0.361 N 
ATOM     31  H1  UNL     1      22.815  50.909  -4.029  1.00  0.00     0.162 HD
HETATM   32  O1  UNL     1      25.269  52.957  -3.746  1.00  0.00    -0.274 OA
BRANCH  30  33
HETATM   33  C3  UNL     1      23.358  52.224  -5.630  1.00  0.00     0.122 C 
BRANCH  33  34
HETATM   34  C2  UNL     1      21.955  52.752  -5.876  1.00  0.00     0.015 C 
HETATM   35  C1  UNL     1      21.610  53.887  -4.965  1.00  0.00     0.006 C 
ENDBRANCH  33  34
ENDBRANCH  30  33
ENDBRANCH  28  29
ENDBRANCH  27  28
ENDBRANCH  25  27
ENDBRANCH  23  25
ENDBRANCH  22  23
ENDBRANCH   1  22
BRANCH  18  36
HETATM   36  O3  UNL     1      28.828  46.840  -0.877  1.00  0.00    -0.389 OA
ATOM     37  H3  UNL     1      28.222  46.125  -1.032  1.00  0.00     0.210 HD
ENDBRANCH  18  36
BRANCH  12  38
HETATM   38  N2  UNL     1      30.836  40.844   4.567  1.00  0.00    -0.420 N 
HETATM   39  C23 UNL     1      29.976  39.854   5.081  1.00  0.00     0.140 C 
ATOM     40  H2  UNL     1      31.846  40.774   4.691  1.00  0.00     0.153 HD
ENDBRANCH  12  38
TORSDOF 10
ENDMDL
MODEL 2
REMARK VINA RESULT: -10.018924792      1.964      3.040
REMARK  10 active torsions:
REMARK  status: ('A' for Active; 'I' for Inactive)
REMARK    1  A    between atoms: C2_2  and  C3_3 
REMARK    2  A    between atoms: C3_3  and  N1_4 
REMARK       I    between atoms: N1_4  and  C4_6 
REMARK    3  A    between atoms: C4_6  and  C5_8 
REMARK    4  A    between atoms: C5_8  and  C6_9 
REMARK    5  A    between atoms: C6_9  and  C7_10 
REMARK    6  A    between atoms: C7_10  and  C8_12 
REMARK    7  A    between atoms: C8_12  and  C10_14 
REMARK    8  A    between atoms: C10_14  and  C11_15 
REMARK    9  A    between atoms: C22_26  and  N2_27 
REMARK   10  A    between atoms: C29_35  and  O3_36 
ROOT
HETATM    1  C11 UNL     1      30.473  46.316   1.876  1.00  0.00     0.021 C 
HETATM    2  C12 UNL     1      30.332  45.759   3.266  1.00  0.00     0.009 C 
HETATM    3  C13 UNL     1      31.461  44.721   3.221  1.00  0.00     0.013 C 
HETATM    4  C14 UNL     1      31.700  44.419   1.750  1.00  0.00    -0.009 C 
HETATM    5  C15 UNL     1      32.902  45.311   1.365  1.00  0.00     0.018 C 
HETATM    6  C16 UNL     1      32.135  43.043   1.485  1.00  0.00     0.039 C 
HETATM    7  C17 UNL     1      31.611  41.961   2.330  1.00  0.00    -0.021 C 
HETATM    8  C18 UNL     1      30.665  41.103   1.935  1.00  0.00    -0.064 C 
HETATM    9  C19 UNL     1      30.296  40.073   3.001  1.00  0.00    -0.003 C 
HETATM   10  C20 UNL     1      30.334  40.684   4.389  1.00  0.00     0.021 C 
HETATM   11  C21 UNL     1      31.422  39.036   2.993  1.00  0.00     0.021 C 
HETATM   12  C22 UNL     1      28.941  39.511   2.806  1.00  0.00     0.092 C 
HETATM   13  C24 UNL     1      28.395  39.554   1.407  1.00  0.00     0.011 C 
HETATM   14  C25 UNL     1      27.715  40.853   1.036  1.00  0.00     0.017 C 
HETATM   15  C26 UNL     1      28.794  41.880   0.785  1.00  0.00    -0.027 A 
HETATM   16  C27 UNL     1      28.821  43.123   1.595  1.00  0.00     0.013 C 
HETATM   17  C28 UNL     1      29.242  44.388   0.934  1.00  0.00     0.040 C 
HETATM   18  C29 UNL     1      30.528  45.011   1.091  1.00  0.00     0.069 C 
HETATM   19  C30 UNL     1      29.657  41.883  -0.405  1.00  0.00     0.025 A 
HETATM   20  C31 UNL     1      29.994  41.039   0.679  1.00  0.00    -0.008 A 
HETATM   21  C32 UNL     1      29.553  39.572   0.489  1.00  0.00     0.021 C 
ENDROOT
BRANCH   1  22
HETATM   22  C10 UNL     1      29.506  47.322   1.441  1.00  0.00     0.019 C 
BRANCH  22  23
HETATM   23  C8  UNL     1      29.645  48.609   2.273  1.00  0.00     0.052 C 
HETATM   24  C9  UNL     1      30.767  49.460   1.795  1.00  0.00     0.018 C 
BRANCH  23  25
HETATM   25  C7  UNL     1      28.367  49.396   2.074  1.00  0.00     0.131 C 
HETATM   26  O2  UNL     1      27.482  49.368   2.900  1.00  0.00    -0.298 OA
BRANCH  25  27
HETATM   27  C6  UNL     1      28.179  50.221   0.854  1.00  0.00     0.088 C 
BRANCH  27  28
HETATM   28  C5  UNL     1      26.832  50.036   0.212  1.00  0.00     0.110 C 
BRANCH  28  29
HETATM   29  C4  UNL     1      26.771  50.395  -1.210  1.00  0.00     0.217 C 
HETATM   30  N1  UNL     1      25.581  50.955  -1.735  1.00  0.00    -0.361 N 
ATOM     31  H1  UNL     1      24.782  51.102  -1.118  1.00  0.00     0.162 HD
HETATM   32  O1  UNL     1      27.748  50.217  -1.964  1.00  0.00    -0.274 OA
BRANCH  30  33
HETATM   33  C3  UNL     1      25.478  51.322  -3.132  1.00  0.00     0.122 C 
BRANCH  33  34
HETATM   34  C2  UNL     1      24.704  52.619  -3.299  1.00  0.00     0.015 C 
HETATM   35  C1  UNL     1      23.551  52.715  -2.351  1.00  0.00     0.006 C 
ENDBRANCH  33  34
ENDBRANCH  30  33
ENDBRANCH  28  29
ENDBRANCH  27  28
ENDBRANCH  25  27
ENDBRANCH  23  25
ENDBRANCH  22  23
ENDBRANCH   1  22
BRANCH  18  36
HETATM   36  O3  UNL     1      30.943  45.462  -0.197  1.00  0.00    -0.389 OA
ATOM     37  H3  UNL     1      30.240  46.058  -0.430  1.00  0.00     0.210 HD
ENDBRANCH  18  36
BRANCH  12  38
HETATM   38  N2  UNL     1      28.859  38.145   3.229  1.00  0.00    -0.420 N 
HETATM   39  C23 UNL     1      27.698  37.413   2.911  1.00  0.00     0.140 C 
ATOM     40  H2  UNL     1      29.623  37.712   3.747  1.00  0.00     0.153 HD
ENDBRANCH  12  38
TORSDOF 10
ENDMDL
MODEL 3
REMARK VINA RESULT: -9.942797165      1.374      1.841
REMARK  10 active torsions:
REMARK  status: ('A' for Active; 'I' for Inactive)
REMARK    1  A    between atoms: C2_2  and  C3_3 
REMARK    2  A    between atoms: C3_3  and  N1_4 
REMARK       I    between atoms: N1_4  and  C4_6 
REMARK    3  A    between atoms: C4_6  and  C5_8 
REMARK    4  A    between atoms: C5_8  and  C6_9 
REMARK    5  A    between atoms: C6_9  and  C7_10 
REMARK    6  A    between atoms: C7_10  and  C8_12 
REMARK    7  A    between atoms: C8_12  and  C10_14 
REMARK    8  A    between atoms: C10_14  and  C11_15 
REMARK    9  A    between atoms: C22_26  and  N2_27 
REMARK   10  A    between atoms: C29_35  and  O3_36 
ROOT
HETATM    1  C11 UNL     1      29.798  47.448   0.928  1.00  0.00     0.021 C 
HETATM    2  C12 UNL     1      30.392  47.267   2.298  1.00  0.00     0.009 C 
HETATM    3  C13 UNL     1      31.572  46.359   1.927  1.00  0.00     0.013 C 
HETATM    4  C14 UNL     1      31.201  45.703   0.606  1.00  0.00    -0.009 C 
HETATM    5  C15 UNL     1      31.907  46.567  -0.464  1.00  0.00     0.018 C 
HETATM    6  C16 UNL     1      31.744  44.350   0.436  1.00  0.00     0.039 C 
HETATM    7  C17 UNL     1      31.871  43.487   1.618  1.00  0.00    -0.021 C 
HETATM    8  C18 UNL     1      31.042  42.474   1.890  1.00  0.00    -0.064 C 
HETATM    9  C19 UNL     1      31.391  41.732   3.179  1.00  0.00    -0.003 C 
HETATM   10  C20 UNL     1      31.906  42.688   4.237  1.00  0.00     0.021 C 
HETATM   11  C21 UNL     1      32.583  40.835   2.839  1.00  0.00     0.021 C 
HETATM   12  C22 UNL     1      30.230  41.020   3.758  1.00  0.00     0.092 C 
HETATM   13  C24 UNL     1      29.132  40.643   2.804  1.00  0.00     0.011 C 
HETATM   14  C25 UNL     1      28.113  41.733   2.556  1.00  0.00     0.017 C 
HETATM   15  C26 UNL     1      28.742  42.749   1.633  1.00  0.00    -0.027 A 
HETATM   16  C27 UNL     1      28.869  44.160   2.079  1.00  0.00     0.013 C 
HETATM   17  C28 UNL     1      28.695  45.238   1.069  1.00  0.00     0.040 C 
HETATM   18  C29 UNL     1      29.765  45.993   0.478  1.00  0.00     0.069 C 
HETATM   19  C30 UNL     1      28.980  42.517   0.202  1.00  0.00     0.025 A 
HETATM   20  C31 UNL     1      29.919  42.022   1.137  1.00  0.00    -0.008 A 
HETATM   21  C32 UNL     1      29.744  40.522   1.463  1.00  0.00     0.021 C 
ENDROOT
BRANCH   1  22
HETATM   22  C10 UNL     1      28.557  48.213   0.818  1.00  0.00     0.019 C 
BRANCH  22  23
HETATM   23  C8  UNL     1      28.704  49.594   1.482  1.00  0.00     0.052 C 
HETATM   24  C9  UNL     1      29.122  50.637   0.508  1.00  0.00     0.018 C 
BRANCH  23  25
HETATM   25  C7  UNL     1      27.333  49.979   1.994  1.00  0.00     0.131 C 
HETATM   26  O2  UNL     1      26.901  49.517   3.027  1.00  0.00    -0.298 OA
BRANCH  25  27
HETATM   27  C6  UNL     1      26.492  50.937   1.233  1.00  0.00     0.088 C 
BRANCH  27  28
HETATM   28  C5  UNL     1      25.371  50.277   0.480  1.00  0.00     0.110 C 
BRANCH  28  29
HETATM   29  C4  UNL     1      25.224  50.711  -0.914  1.00  0.00     0.217 C 
HETATM   30  N1  UNL     1      24.052  51.403  -1.307  1.00  0.00    -0.361 N 
ATOM     31  H1  UNL     1      23.325  51.590  -0.615  1.00  0.00     0.162 HD
HETATM   32  O1  UNL     1      26.111  50.483  -1.759  1.00  0.00    -0.274 OA
BRANCH  30  33
HETATM   33  C3  UNL     1      23.866  51.848  -2.672  1.00  0.00     0.122 C 
BRANCH  33  34
HETATM   34  C2  UNL     1      22.948  53.057  -2.731  1.00  0.00     0.015 C 
HETATM   35  C1  UNL     1      22.401  53.285  -4.105  1.00  0.00     0.006 C 
ENDBRANCH  33  34
ENDBRANCH  30  33
ENDBRANCH  28  29
ENDBRANCH  27  28
ENDBRANCH  25  27
ENDBRANCH  23  25
ENDBRANCH  22  23
ENDBRANCH   1  22
BRANCH  18  36
HETATM   36  O3  UNL     1      29.478  46.125  -0.913  1.00  0.00    -0.389 OA
ATOM     37  H3  UNL     1      29.745  45.277  -1.248  1.00  0.00     0.210 HD
ENDBRANCH  18  36
BRANCH  12  38
HETATM   38  N2  UNL     1      30.618  39.811   4.423  1.00  0.00    -0.420 N 
HETATM   39  C23 UNL     1      29.690  38.753   4.483  1.00  0.00     0.140 C 
ATOM     40  H2  UNL     1      31.543  39.720   4.842  1.00  0.00     0.153 HD
ENDBRANCH  12  38
TORSDOF 10
ENDMDL
MODEL 4
REMARK VINA RESULT: -9.731971312      2.384      3.938
REMARK  10 active torsions:
REMARK  status: ('A' for Active; 'I' for Inactive)
REMARK    1  A    between atoms: C2_2  and  C3_3 
REMARK    2  A    between atoms: C3_3  and  N1_4 
REMARK       I    between atoms: N1_4  and  C4_6 
REMARK    3  A    between atoms: C4_6  and  C5_8 
REMARK    4  A    between atoms: C5_8  and  C6_9 
REMARK    5  A    between atoms: C6_9  and  C7_10 
REMARK    6  A    between atoms: C7_10  and  C8_12 
REMARK    7  A    between atoms: C8_12  and  C10_14 
REMARK    8  A    between atoms: C10_14  and  C11_15 
REMARK    9  A    between atoms: C22_26  and  N2_27 
REMARK   10  A    between atoms: C29_35  and  O3_36 
ROOT
HETATM    1  C11 UNL     1      30.905  45.817   2.176  1.00  0.00     0.021 C 
HETATM    2  C12 UNL     1      30.621  45.236   3.534  1.00  0.00     0.009 C 
HETATM    3  C13 UNL     1      31.661  44.108   3.531  1.00  0.00     0.013 C 
HETATM    4  C14 UNL     1      31.977  43.828   2.070  1.00  0.00    -0.009 C 
HETATM    5  C15 UNL     1      33.272  44.626   1.796  1.00  0.00     0.018 C 
HETATM    6  C16 UNL     1      32.315  42.427   1.788  1.00  0.00     0.039 C 
HETATM    7  C17 UNL     1      31.646  41.371   2.560  1.00  0.00    -0.021 C 
HETATM    8  C18 UNL     1      30.662  40.607   2.074  1.00  0.00    -0.064 C 
HETATM    9  C19 UNL     1      30.137  39.582   3.078  1.00  0.00    -0.003 C 
HETATM   10  C20 UNL     1      30.128  40.150   4.485  1.00  0.00     0.021 C 
HETATM   11  C21 UNL     1      31.171  38.455   3.111  1.00  0.00     0.021 C 
HETATM   12  C22 UNL     1      28.757  39.143   2.774  1.00  0.00     0.092 C 
HETATM   13  C24 UNL     1      28.315  39.270   1.343  1.00  0.00     0.011 C 
HETATM   14  C25 UNL     1      27.772  40.631   0.971  1.00  0.00     0.017 C 
HETATM   15  C26 UNL     1      28.946  41.570   0.827  1.00  0.00    -0.027 A 
HETATM   16  C27 UNL     1      29.019  42.784   1.678  1.00  0.00     0.013 C 
HETATM   17  C28 UNL     1      29.588  44.027   1.089  1.00  0.00     0.040 C 
HETATM   18  C29 UNL     1      30.906  44.534   1.353  1.00  0.00     0.069 C 
HETATM   19  C30 UNL     1      29.887  41.534  -0.301  1.00  0.00     0.025 A 
HETATM   20  C31 UNL     1      30.078  40.635   0.775  1.00  0.00    -0.008 A 
HETATM   21  C32 UNL     1      29.532  39.215   0.506  1.00  0.00     0.021 C 
ENDROOT
BRANCH   1  22
HETATM   22  C10 UNL     1      30.056  46.912   1.711  1.00  0.00     0.019 C 
BRANCH  22  23
HETATM   23  C8  UNL     1      30.843  48.235   1.669  1.00  0.00     0.052 C 
HETATM   24  C9  UNL     1      31.327  48.550   0.299  1.00  0.00     0.018 C 
BRANCH  23  25
HETATM   25  C7  UNL     1      29.877  49.329   2.069  1.00  0.00     0.131 C 
HETATM   26  O2  UNL     1      30.235  50.484   2.131  1.00  0.00    -0.298 OA
BRANCH  25  27
HETATM   27  C6  UNL     1      28.466  49.000   2.393  1.00  0.00     0.088 C 
BRANCH  27  28
HETATM   28  C5  UNL     1      27.473  49.903   1.715  1.00  0.00     0.110 C 
BRANCH  28  29
HETATM   29  C4  UNL     1      27.284  49.646   0.282  1.00  0.00     0.217 C 
HETATM   30  N1  UNL     1      26.775  50.675  -0.547  1.00  0.00    -0.361 N 
ATOM     31  H1  UNL     1      26.547  51.581  -0.138  1.00  0.00     0.162 HD
HETATM   32  O1  UNL     1      27.564  48.539  -0.219  1.00  0.00    -0.274 OA
BRANCH  30  33
HETATM   33  C3  UNL     1      26.572  50.465  -1.965  1.00  0.00     0.122 C 
BRANCH  33  34
HETATM   34  C2  UNL     1      25.412  51.299  -2.480  1.00  0.00     0.015 C 
HETATM   35  C1  UNL     1      24.313  51.422  -1.473  1.00  0.00     0.006 C 
ENDBRANCH  33  34
ENDBRANCH  30  33
ENDBRANCH  28  29
ENDBRANCH  27  28
ENDBRANCH  25  27
ENDBRANCH  23  25
ENDBRANCH  22  23
ENDBRANCH   1  22
BRANCH  18  36
HETATM   36  O3  UNL     1      31.446  44.985   0.112  1.00  0.00    -0.389 OA
ATOM     37  H3  UNL     1      32.084  44.307  -0.079  1.00  0.00     0.210 HD
ENDBRANCH  18  36
BRANCH  12  38
HETATM   38  N2  UNL     1      28.534  37.777   3.144  1.00  0.00    -0.420 N 
HETATM   39  C23 UNL     1      27.463  37.086   2.544  1.00  0.00     0.140 C 
ATOM     40  H2  UNL     1      29.135  37.316   3.826  1.00  0.00     0.153 HD
ENDBRANCH  12  38
TORSDOF 10
ENDMDL
MODEL 5
REMARK VINA RESULT: -9.711372659      2.038      3.618
REMARK  10 active torsions:
REMARK  status: ('A' for Active; 'I' for Inactive)
REMARK    1  A    between atoms: C2_2  and  C3_3 
REMARK    2  A    between atoms: C3_3  and  N1_4 
REMARK       I    between atoms: N1_4  and  C4_6 
REMARK    3  A    between atoms: C4_6  and  C5_8 
REMARK    4  A    between atoms: C5_8  and  C6_9 
REMARK    5  A    between atoms: C6_9  and  C7_10 
REMARK    6  A    between atoms: C7_10  and  C8_12 
REMARK    7  A    between atoms: C8_12  and  C10_14 
REMARK    8  A    between atoms: C10_14  and  C11_15 
REMARK    9  A    between atoms: C22_26  and  N2_27 
REMARK   10  A    between atoms: C29_35  and  O3_36 
ROOT
HETATM    1  C11 UNL     1      31.398  45.706   1.866  1.00  0.00     0.021 C 
HETATM    2  C12 UNL     1      30.705  45.381   3.162  1.00  0.00     0.009 C 
HETATM    3  C13 UNL     1      31.571  44.194   3.603  1.00  0.00     0.013 C 
HETATM    4  C14 UNL     1      32.221  43.652   2.339  1.00  0.00    -0.009 C 
HETATM    5  C15 UNL     1      33.626  44.295   2.324  1.00  0.00     0.018 C 
HETATM    6  C16 UNL     1      32.455  42.203   2.360  1.00  0.00     0.039 C 
HETATM    7  C17 UNL     1      31.490  41.343   3.058  1.00  0.00    -0.021 C 
HETATM    8  C18 UNL     1      30.584  40.584   2.432  1.00  0.00    -0.064 C 
HETATM    9  C19 UNL     1      29.700  39.783   3.386  1.00  0.00    -0.003 C 
HETATM   10  C20 UNL     1      29.392  40.576   4.642  1.00  0.00     0.021 C 
HETATM   11  C21 UNL     1      30.551  38.603   3.860  1.00  0.00     0.021 C 
HETATM   12  C22 UNL     1      28.405  39.403   2.778  1.00  0.00     0.092 C 
HETATM   13  C24 UNL     1      28.368  39.323   1.278  1.00  0.00     0.011 C 
HETATM   14  C25 UNL     1      28.104  40.641   0.584  1.00  0.00     0.017 C 
HETATM   15  C26 UNL     1      29.376  41.452   0.639  1.00  0.00    -0.027 A 
HETATM   16  C27 UNL     1      29.366  42.782   1.298  1.00  0.00     0.013 C 
HETATM   17  C28 UNL     1      30.210  43.863   0.721  1.00  0.00     0.040 C 
HETATM   18  C29 UNL     1      31.463  44.308   1.263  1.00  0.00     0.069 C 
HETATM   19  C30 UNL     1      30.567  41.158  -0.170  1.00  0.00     0.025 A 
HETATM   20  C31 UNL     1      30.366  40.439   1.032  1.00  0.00    -0.008 A 
HETATM   21  C32 UNL     1      29.746  39.039   0.824  1.00  0.00     0.021 C 
ENDROOT
BRANCH   1  22
HETATM   22  C10 UNL     1      30.833  46.769   1.037  1.00  0.00     0.019 C 
BRANCH  22  23
HETATM   23  C8  UNL     1      29.604  47.398   1.717  1.00  0.00     0.052 C 
HETATM   24  C9  UNL     1      29.874  48.785   2.179  1.00  0.00     0.018 C 
BRANCH  23  25
HETATM   25  C7  UNL     1      28.518  47.478   0.665  1.00  0.00     0.131 C 
HETATM   26  O2  UNL     1      27.685  46.606   0.561  1.00  0.00    -0.298 OA
BRANCH  25  27
HETATM   27  C6  UNL     1      28.459  48.637  -0.262  1.00  0.00     0.088 C 
BRANCH  27  28
HETATM   28  C5  UNL     1      27.254  49.510  -0.047  1.00  0.00     0.110 C 
BRANCH  28  29
HETATM   29  C4  UNL     1      26.749  50.173  -1.256  1.00  0.00     0.217 C 
HETATM   30  N1  UNL     1      25.469  50.780  -1.233  1.00  0.00    -0.361 N 
ATOM     31  H1  UNL     1      24.916  50.748  -0.377  1.00  0.00     0.162 HD
HETATM   32  O1  UNL     1      27.426  50.212  -2.302  1.00  0.00    -0.274 OA
BRANCH  30  33
HETATM   33  C3  UNL     1      24.933  51.443  -2.403  1.00  0.00     0.122 C 
BRANCH  33  34
HETATM   34  C2  UNL     1      23.604  52.110  -2.091  1.00  0.00     0.015 C 
HETATM   35  C1  UNL     1      23.152  53.012  -3.194  1.00  0.00     0.006 C 
ENDBRANCH  33  34
ENDBRANCH  30  33
ENDBRANCH  28  29
ENDBRANCH  27  28
ENDBRANCH  25  27
ENDBRANCH  23  25
ENDBRANCH  22  23
ENDBRANCH   1  22
BRANCH  18  36
HETATM   36  O3  UNL     1      32.356  44.504   0.169  1.00  0.00    -0.389 OA
ATOM     37  H3  UNL     1      32.585  43.610  -0.058  1.00  0.00     0.210 HD
ENDBRANCH  18  36
BRANCH  12  38
HETATM   38  N2  UNL     1      27.935  38.138   3.260  1.00  0.00    -0.420 N 
HETATM   39  C23 UNL     1      27.297  37.270   2.353  1.00  0.00     0.140 C 
ATOM     40  H2  UNL     1      28.060  37.873   4.237  1.00  0.00     0.153 HD
ENDBRANCH  12  38
TORSDOF 10
ENDMDL
