MODEL 1
REMARK VINA RESULT: -6.792226693      0.000      0.000
REMARK  11 active torsions:
REMARK  status: ('A' for Active; 'I' for Inactive)
REMARK    1  A    between atoms: C2_2  and  C3_3 
REMARK    2  A    between atoms: C2_2  and  N2_16 
REMARK    3  A    between atoms: C4_4  and  C5_5 
REMARK       I    between atoms: C5_5  and  N1_7 
REMARK    4  A    between atoms: N1_7  and  C6_9 
REMARK    5  A    between atoms: C6_9  and  C7_10 
REMARK    6  A    between atoms: C6_9  and  C8_13 
REMARK    7  A    between atoms: C7_10  and  O2_11 
REMARK    8  A    between atoms: C8_13  and  C9_14 
REMARK    9  A    between atoms: N2_16  and  C10_19 
REMARK   10  A    between atoms: C10_19  and  C11_20 
REMARK   11  A    between atoms: C12_21  and  C13_22 
REMARK       I    between atoms: C13_22  and  N3_24 
ROOT
HETATM    1  C1  UNL     1      -7.075   3.262  17.212  1.00  0.00     0.044 C 
HETATM    2  C2  UNL     1      -6.217   2.841  16.064  1.00  0.00     0.205 C 
ENDROOT
BRANCH   2   3
HETATM    3  C3  UNL     1      -4.873   2.449  16.533  1.00  0.00     0.011 C 
HETATM    4  C4  UNL     1      -4.123   1.514  16.072  1.00  0.00     0.072 C 
BRANCH   4   5
HETATM    5  C5  UNL     1      -4.450   0.626  14.970  1.00  0.00     0.241 C 
HETATM    6  O1  UNL     1      -4.911  -0.515  15.121  1.00  0.00    -0.269 OA
HETATM    7  N1  UNL     1      -4.242   1.057  13.619  1.00  0.00    -0.351 N 
ATOM      8  H1  UNL     1      -3.872   1.992  13.450  1.00  0.00     0.163 HD
BRANCH   7   9
HETATM    9  C6  UNL     1      -4.536   0.221  12.509  1.00  0.00     0.114 C 
BRANCH   9  10
HETATM   10  C7  UNL     1      -4.770   0.971  11.210  1.00  0.00     0.189 C 
BRANCH  10  11
HETATM   11  O2  UNL     1      -5.830   1.878  11.349  1.00  0.00    -0.399 OA
ATOM     12  H2  UNL     1      -6.191   2.102  10.500  1.00  0.00     0.209 HD
ENDBRANCH  10  11
ENDBRANCH   9  10
BRANCH   9  13
HETATM   13  C8  UNL     1      -3.520  -0.881  12.356  1.00  0.00     0.096 C 
BRANCH  13  14
HETATM   14  C9  UNL     1      -4.121  -2.040  11.640  1.00  0.00     0.233 C 
HETATM   15  O3  UNL     1      -3.459  -3.061  11.549  1.00  0.00    -0.307 OA
ENDBRANCH  13  14
ENDBRANCH   9  13
ENDBRANCH   7   9
ENDBRANCH   4   5
ENDBRANCH   2   3
BRANCH   2  16
HETATM   16  N2  UNL     1      -6.121   3.804  15.014  1.00  0.00    -0.065 N 
ATOM     17  H22 UNL     1      -5.291   3.631  14.447  1.00  0.00     0.278 HD
ATOM     18  H21 UNL     1      -6.846   3.641  14.315  1.00  0.00     0.278 HD
BRANCH  16  19
HETATM   19  C10 UNL     1      -6.148   5.149  15.448  1.00  0.00     0.260 C 
BRANCH  19  20
HETATM   20  C11 UNL     1      -4.906   5.820  14.920  1.00  0.00     0.006 C 
HETATM   21  C12 UNL     1      -4.363   5.362  13.826  1.00  0.00     0.072 C 
BRANCH  21  22
HETATM   22  C13 UNL     1      -3.160   6.006  13.307  1.00  0.00     0.244 C 
HETATM   23  O4  UNL     1      -2.969   7.251  13.539  1.00  0.00    -0.268 OA
HETATM   24  N3  UNL     1      -2.245   5.247  12.569  1.00  0.00    -0.316 N 
HETATM   25  C14 UNL     1      -0.981   5.563  11.925  1.00  0.00     0.165 C 
HETATM   26  C16 UNL     1      -2.122   3.897  12.137  1.00  0.00     0.322 A 
HETATM   27  C15 UNL     1      -0.704   4.101  11.674  1.00  0.00     0.256 A 
HETATM   28  N4  UNL     1      -1.024   3.141  12.708  1.00  0.00    -0.042 N 
ATOM     29  H42 UNL     1      -0.842   2.144  12.822  1.00  0.00     0.280 HD
ATOM     30  H41 UNL     1      -0.691   3.000  13.662  1.00  0.00     0.280 HD
ENDBRANCH  21  22
ENDBRANCH  19  20
ENDBRANCH  16  19
ENDBRANCH   2  16
TORSDOF 11
ENDMDL
MODEL 2
REMARK VINA RESULT: -6.547260008      3.532      5.503
REMARK  11 active torsions:
REMARK  status: ('A' for Active; 'I' for Inactive)
REMARK    1  A    between atoms: C2_2  and  C3_3 
REMARK    2  A    between atoms: C2_2  and  N2_16 
REMARK    3  A    between atoms: C4_4  and  C5_5 
REMARK       I    between atoms: C5_5  and  N1_7 
REMARK    4  A    between atoms: N1_7  and  C6_9 
REMARK    5  A    between atoms: C6_9  and  C7_10 
REMARK    6  A    between atoms: C6_9  and  C8_13 
REMARK    7  A    between atoms: C7_10  and  O2_11 
REMARK    8  A    between atoms: C8_13  and  C9_14 
REMARK    9  A    between atoms: N2_16  and  C10_19 
REMARK   10  A    between atoms: C10_19  and  C11_20 
REMARK   11  A    between atoms: C12_21  and  C13_22 
REMARK       I    between atoms: C13_22  and  N3_24 
ROOT
HETATM    1  C1  UNL     1      -2.024   4.542  13.938  1.00  0.00     0.044 C 
HETATM    2  C2  UNL     1      -3.131   5.295  13.277  1.00  0.00     0.205 C 
ENDROOT
BRANCH   2   3
HETATM    3  C3  UNL     1      -3.896   6.078  14.269  1.00  0.00     0.011 C 
HETATM    4  C4  UNL     1      -4.858   5.671  15.016  1.00  0.00     0.072 C 
BRANCH   4   5
HETATM    5  C5  UNL     1      -5.408   4.327  15.038  1.00  0.00     0.241 C 
HETATM    6  O1  UNL     1      -6.434   3.995  14.428  1.00  0.00    -0.269 OA
HETATM    7  N1  UNL     1      -4.757   3.301  15.798  1.00  0.00    -0.351 N 
ATOM      8  H1  UNL     1      -3.904   3.529  16.309  1.00  0.00     0.163 HD
BRANCH   7   9
HETATM    9  C6  UNL     1      -5.262   1.974  15.860  1.00  0.00     0.114 C 
BRANCH   9  10
HETATM   10  C7  UNL     1      -4.440   0.958  15.089  1.00  0.00     0.189 C 
BRANCH  10  11
HETATM   11  O2  UNL     1      -4.837  -0.346  15.414  1.00  0.00    -0.399 OA
ATOM     12  H2  UNL     1      -4.499  -0.966  14.779  1.00  0.00     0.209 HD
ENDBRANCH  10  11
ENDBRANCH   9  10
BRANCH   9  13
HETATM   13  C8  UNL     1      -5.518   1.541  17.280  1.00  0.00     0.096 C 
BRANCH  13  14
HETATM   14  C9  UNL     1      -6.971   1.292  17.489  1.00  0.00     0.233 C 
HETATM   15  O3  UNL     1      -7.501   0.415  16.828  1.00  0.00    -0.307 OA
ENDBRANCH  13  14
ENDBRANCH   9  13
ENDBRANCH   7   9
ENDBRANCH   4   5
ENDBRANCH   2   3
BRANCH   2  16
HETATM   16  N2  UNL     1      -4.009   4.487  12.491  1.00  0.00    -0.065 N 
ATOM     17  H22 UNL     1      -4.657   3.977  13.092  1.00  0.00     0.278 HD
ATOM     18  H21 UNL     1      -4.670   5.073  11.980  1.00  0.00     0.278 HD
BRANCH  16  19
HETATM   19  C10 UNL     1      -3.353   3.599  11.609  1.00  0.00     0.260 C 
BRANCH  19  20
HETATM   20  C11 UNL     1      -3.798   3.941  10.209  1.00  0.00     0.006 C 
HETATM   21  C12 UNL     1      -3.325   5.020   9.648  1.00  0.00     0.072 C 
BRANCH  21  22
HETATM   22  C13 UNL     1      -3.749   5.359   8.292  1.00  0.00     0.244 C 
HETATM   23  O4  UNL     1      -3.089   4.895   7.298  1.00  0.00    -0.268 OA
HETATM   24  N3  UNL     1      -4.867   6.181   8.113  1.00  0.00    -0.316 N 
HETATM   25  C14 UNL     1      -5.542   6.700   6.936  1.00  0.00     0.165 C 
HETATM   26  C16 UNL     1      -5.812   6.848   8.943  1.00  0.00     0.322 A 
HETATM   27  C15 UNL     1      -6.692   7.202   7.775  1.00  0.00     0.256 A 
HETATM   28  N4  UNL     1      -7.180   6.376   8.857  1.00  0.00    -0.042 N 
ATOM     29  H42 UNL     1      -7.985   6.439   9.481  1.00  0.00     0.280 HD
ATOM     30  H41 UNL     1      -7.607   5.451   8.897  1.00  0.00     0.280 HD
ENDBRANCH  21  22
ENDBRANCH  19  20
ENDBRANCH  16  19
ENDBRANCH   2  16
TORSDOF 11
ENDMDL
MODEL 3
REMARK VINA RESULT: -6.510757275      3.587      5.597
REMARK  11 active torsions:
REMARK  status: ('A' for Active; 'I' for Inactive)
REMARK    1  A    between atoms: C2_2  and  C3_3 
REMARK    2  A    between atoms: C2_2  and  N2_16 
REMARK    3  A    between atoms: C4_4  and  C5_5 
REMARK       I    between atoms: C5_5  and  N1_7 
REMARK    4  A    between atoms: N1_7  and  C6_9 
REMARK    5  A    between atoms: C6_9  and  C7_10 
REMARK    6  A    between atoms: C6_9  and  C8_13 
REMARK    7  A    between atoms: C7_10  and  O2_11 
REMARK    8  A    between atoms: C8_13  and  C9_14 
REMARK    9  A    between atoms: N2_16  and  C10_19 
REMARK   10  A    between atoms: C10_19  and  C11_20 
REMARK   11  A    between atoms: C12_21  and  C13_22 
REMARK       I    between atoms: C13_22  and  N3_24 
ROOT
HETATM    1  C1  UNL     1      -1.551   3.711  12.189  1.00  0.00     0.044 C 
HETATM    2  C2  UNL     1      -2.944   4.247  12.251  1.00  0.00     0.205 C 
ENDROOT
BRANCH   2   3
HETATM    3  C3  UNL     1      -3.829   3.504  11.332  1.00  0.00     0.011 C 
HETATM    4  C4  UNL     1      -4.576   2.495  11.607  1.00  0.00     0.072 C 
BRANCH   4   5
HETATM    5  C5  UNL     1      -4.704   1.860  12.907  1.00  0.00     0.241 C 
HETATM    6  O1  UNL     1      -4.478   0.659  13.110  1.00  0.00    -0.269 OA
HETATM    7  N1  UNL     1      -5.113   2.633  14.042  1.00  0.00    -0.351 N 
ATOM      8  H1  UNL     1      -5.302   3.628  13.921  1.00  0.00     0.163 HD
BRANCH   7   9
HETATM    9  C6  UNL     1      -5.263   2.056  15.332  1.00  0.00     0.114 C 
BRANCH   9  10
HETATM   10  C7  UNL     1      -4.002   2.082  16.176  1.00  0.00     0.189 C 
BRANCH  10  11
HETATM   11  O2  UNL     1      -3.581   0.778  16.473  1.00  0.00    -0.399 OA
ATOM     12  H2  UNL     1      -2.733   0.790  16.900  1.00  0.00     0.209 HD
ENDBRANCH  10  11
ENDBRANCH   9  10
BRANCH   9  13
HETATM   13  C8  UNL     1      -6.451   2.627  16.063  1.00  0.00     0.096 C 
BRANCH  13  14
HETATM   14  C9  UNL     1      -7.037   1.602  16.972  1.00  0.00     0.233 C 
HETATM   15  O3  UNL     1      -6.819   0.428  16.724  1.00  0.00    -0.307 OA
ENDBRANCH  13  14
ENDBRANCH   9  13
ENDBRANCH   7   9
ENDBRANCH   4   5
ENDBRANCH   2   3
BRANCH   2  16
HETATM   16  N2  UNL     1      -3.047   5.653  12.020  1.00  0.00    -0.065 N 
ATOM     17  H22 UNL     1      -2.139   6.038  11.758  1.00  0.00     0.278 HD
ATOM     18  H21 UNL     1      -3.567   5.834  11.161  1.00  0.00     0.278 HD
BRANCH  16  19
HETATM   19  C10 UNL     1      -3.600   6.384  13.096  1.00  0.00     0.260 C 
BRANCH  19  20
HETATM   20  C11 UNL     1      -5.027   6.712  12.734  1.00  0.00     0.006 C 
HETATM   21  C12 UNL     1      -5.296   7.068  11.509  1.00  0.00     0.072 C 
BRANCH  21  22
HETATM   22  C13 UNL     1      -6.675   7.387  11.149  1.00  0.00     0.244 C 
HETATM   23  O4  UNL     1      -7.550   7.506  12.077  1.00  0.00    -0.268 OA
HETATM   24  N3  UNL     1      -7.006   7.557   9.800  1.00  0.00    -0.316 N 
HETATM   25  C14 UNL     1      -8.247   7.872   9.113  1.00  0.00     0.165 C 
HETATM   26  C16 UNL     1      -6.329   7.513   8.549  1.00  0.00     0.322 A 
HETATM   27  C15 UNL     1      -7.512   8.080   7.811  1.00  0.00     0.256 A 
HETATM   28  N4  UNL     1      -6.239   8.768   7.828  1.00  0.00    -0.042 N 
ATOM     29  H42 UNL     1      -5.619   9.115   7.097  1.00  0.00     0.280 HD
ATOM     30  H41 UNL     1      -5.955   9.711   8.093  1.00  0.00     0.280 HD
ENDBRANCH  21  22
ENDBRANCH  19  20
ENDBRANCH  16  19
ENDBRANCH   2  16
TORSDOF 11
ENDMDL
MODEL 4
REMARK VINA RESULT: -6.484153779      3.047      5.419
REMARK  11 active torsions:
REMARK  status: ('A' for Active; 'I' for Inactive)
REMARK    1  A    between atoms: C2_2  and  C3_3 
REMARK    2  A    between atoms: C2_2  and  N2_16 
REMARK    3  A    between atoms: C4_4  and  C5_5 
REMARK       I    between atoms: C5_5  and  N1_7 
REMARK    4  A    between atoms: N1_7  and  C6_9 
REMARK    5  A    between atoms: C6_9  and  C7_10 
REMARK    6  A    between atoms: C6_9  and  C8_13 
REMARK    7  A    between atoms: C7_10  and  O2_11 
REMARK    8  A    between atoms: C8_13  and  C9_14 
REMARK    9  A    between atoms: N2_16  and  C10_19 
REMARK   10  A    between atoms: C10_19  and  C11_20 
REMARK   11  A    between atoms: C12_21  and  C13_22 
REMARK       I    between atoms: C13_22  and  N3_24 
ROOT
HETATM    1  C1  UNL     1      -3.764   5.915  11.522  1.00  0.00     0.044 C 
HETATM    2  C2  UNL     1      -3.687   5.193  12.827  1.00  0.00     0.205 C 
ENDROOT
BRANCH   2   3
HETATM    3  C3  UNL     1      -4.256   6.017  13.913  1.00  0.00     0.011 C 
HETATM    4  C4  UNL     1      -5.051   5.641  14.849  1.00  0.00     0.072 C 
BRANCH   4   5
HETATM    5  C5  UNL     1      -5.571   4.298  15.035  1.00  0.00     0.241 C 
HETATM    6  O1  UNL     1      -6.699   3.941  14.668  1.00  0.00    -0.269 OA
HETATM    7  N1  UNL     1      -4.764   3.302  15.677  1.00  0.00    -0.351 N 
ATOM      8  H1  UNL     1      -3.825   3.552  15.988  1.00  0.00     0.163 HD
BRANCH   7   9
HETATM    9  C6  UNL     1      -5.232   1.978  15.892  1.00  0.00     0.114 C 
BRANCH   9  10
HETATM   10  C7  UNL     1      -4.296   0.897  15.382  1.00  0.00     0.189 C 
BRANCH  10  11
HETATM   11  O2  UNL     1      -4.922  -0.357  15.427  1.00  0.00    -0.399 OA
ATOM     12  H2  UNL     1      -5.112  -0.603  16.325  1.00  0.00     0.209 HD
ENDBRANCH  10  11
ENDBRANCH   9  10
BRANCH   9  13
HETATM   13  C8  UNL     1      -5.632   1.755  17.327  1.00  0.00     0.096 C 
BRANCH  13  14
HETATM   14  C9  UNL     1      -7.078   1.409  17.411  1.00  0.00     0.233 C 
HETATM   15  O3  UNL     1      -7.442   0.354  16.920  1.00  0.00    -0.307 OA
ENDBRANCH  13  14
ENDBRANCH   9  13
ENDBRANCH   7   9
ENDBRANCH   4   5
ENDBRANCH   2   3
BRANCH   2  16
HETATM   16  N2  UNL     1      -2.379   4.737  13.175  1.00  0.00    -0.065 N 
ATOM     17  H22 UNL     1      -1.795   5.522  13.466  1.00  0.00     0.278 HD
ATOM     18  H21 UNL     1      -2.407   4.208  14.047  1.00  0.00     0.278 HD
BRANCH  16  19
HETATM   19  C10 UNL     1      -1.732   3.990  12.165  1.00  0.00     0.260 C 
BRANCH  19  20
HETATM   20  C11 UNL     1      -0.331   4.531  12.029  1.00  0.00     0.006 C 
HETATM   21  C12 UNL     1       0.457   4.008  11.130  1.00  0.00     0.072 C 
BRANCH  21  22
HETATM   22  C13 UNL     1       1.815   4.526  10.990  1.00  0.00     0.244 C 
HETATM   23  O4  UNL     1       2.331   5.194  11.954  1.00  0.00    -0.268 OA
HETATM   24  N3  UNL     1       2.521   4.278   9.807  1.00  0.00    -0.316 N 
HETATM   25  C14 UNL     1       3.853   4.636   9.350  1.00  0.00     0.165 C 
HETATM   26  C16 UNL     1       2.286   3.599   8.579  1.00  0.00     0.322 A 
HETATM   27  C15 UNL     1       3.727   3.719   8.158  1.00  0.00     0.256 A 
HETATM   28  N4  UNL     1       3.103   2.426   8.334  1.00  0.00    -0.042 N 
ATOM     29  H42 UNL     1       2.997   1.610   7.731  1.00  0.00     0.280 HD
ATOM     30  H41 UNL     1       3.336   1.604   8.890  1.00  0.00     0.280 HD
ENDBRANCH  21  22
ENDBRANCH  19  20
ENDBRANCH  16  19
ENDBRANCH   2  16
TORSDOF 11
ENDMDL
MODEL 5
REMARK VINA RESULT: -6.475577689      2.521      4.196
REMARK  11 active torsions:
REMARK  status: ('A' for Active; 'I' for Inactive)
REMARK    1  A    between atoms: C2_2  and  C3_3 
REMARK    2  A    between atoms: C2_2  and  N2_16 
REMARK    3  A    between atoms: C4_4  and  C5_5 
REMARK       I    between atoms: C5_5  and  N1_7 
REMARK    4  A    between atoms: N1_7  and  C6_9 
REMARK    5  A    between atoms: C6_9  and  C7_10 
REMARK    6  A    between atoms: C6_9  and  C8_13 
REMARK    7  A    between atoms: C7_10  and  O2_11 
REMARK    8  A    between atoms: C8_13  and  C9_14 
REMARK    9  A    between atoms: N2_16  and  C10_19 
REMARK   10  A    between atoms: C10_19  and  C11_20 
REMARK   11  A    between atoms: C12_21  and  C13_22 
REMARK       I    between atoms: C13_22  and  N3_24 
ROOT
HETATM    1  C1  UNL     1      -5.263   6.703  12.024  1.00  0.00     0.044 C 
HETATM    2  C2  UNL     1      -4.539   6.164  13.214  1.00  0.00     0.205 C 
ENDROOT
BRANCH   2   3
HETATM    3  C3  UNL     1      -5.483   5.870  14.310  1.00  0.00     0.011 C 
HETATM    4  C4  UNL     1      -5.539   4.811  15.035  1.00  0.00     0.072 C 
BRANCH   4   5
HETATM    5  C5  UNL     1      -4.666   3.655  14.921  1.00  0.00     0.241 C 
HETATM    6  O1  UNL     1      -3.546   3.586  15.445  1.00  0.00    -0.269 OA
HETATM    7  N1  UNL     1      -5.090   2.512  14.167  1.00  0.00    -0.351 N 
ATOM      8  H1  UNL     1      -6.010   2.524  13.726  1.00  0.00     0.163 HD
BRANCH   7   9
HETATM    9  C6  UNL     1      -4.269   1.362  14.017  1.00  0.00     0.114 C 
BRANCH   9  10
HETATM   10  C7  UNL     1      -4.462   0.314  15.098  1.00  0.00     0.189 C 
BRANCH  10  11
HETATM   11  O2  UNL     1      -3.702   0.632  16.233  1.00  0.00    -0.399 OA
ATOM     12  H2  UNL     1      -3.396  -0.159  16.662  1.00  0.00     0.209 HD
ENDBRANCH  10  11
ENDBRANCH   9  10
BRANCH   9  13
HETATM   13  C8  UNL     1      -4.375   0.778  12.632  1.00  0.00     0.096 C 
BRANCH  13  14
HETATM   14  C9  UNL     1      -4.700   1.846  11.647  1.00  0.00     0.233 C 
HETATM   15  O3  UNL     1      -5.854   1.938  11.264  1.00  0.00    -0.307 OA
ENDBRANCH  13  14
ENDBRANCH   9  13
ENDBRANCH   7   9
ENDBRANCH   4   5
ENDBRANCH   2   3
BRANCH   2  16
HETATM   16  N2  UNL     1      -3.470   6.990  13.679  1.00  0.00    -0.065 N 
ATOM     17  H22 UNL     1      -3.325   7.775  13.044  1.00  0.00     0.278 HD
ATOM     18  H21 UNL     1      -3.752   7.495  14.520  1.00  0.00     0.278 HD
BRANCH  16  19
HETATM   19  C10 UNL     1      -2.254   6.304  13.901  1.00  0.00     0.260 C 
BRANCH  19  20
HETATM   20  C11 UNL     1      -1.967   5.484  12.669  1.00  0.00     0.006 C 
HETATM   21  C12 UNL     1      -1.248   6.013  11.718  1.00  0.00     0.072 C 
BRANCH  21  22
HETATM   22  C13 UNL     1      -0.963   5.226  10.521  1.00  0.00     0.244 C 
HETATM   23  O4  UNL     1       0.069   4.468  10.504  1.00  0.00    -0.268 OA
HETATM   24  N3  UNL     1      -1.826   5.317   9.424  1.00  0.00    -0.316 N 
HETATM   25  C14 UNL     1      -1.840   4.689   8.114  1.00  0.00     0.165 C 
HETATM   26  C16 UNL     1      -3.023   6.015   9.096  1.00  0.00     0.322 A 
HETATM   27  C15 UNL     1      -3.228   5.214   7.839  1.00  0.00     0.256 A 
HETATM   28  N4  UNL     1      -4.205   5.198   8.905  1.00  0.00    -0.042 N 
ATOM     29  H42 UNL     1      -5.206   5.391   8.942  1.00  0.00     0.280 HD
ATOM     30  H41 UNL     1      -4.639   4.452   9.448  1.00  0.00     0.280 HD
ENDBRANCH  21  22
ENDBRANCH  19  20
ENDBRANCH  16  19
ENDBRANCH   2  16
TORSDOF 11
ENDMDL
