MODEL 1
REMARK VINA RESULT: -5.295489977      0.000      0.000
REMARK  4 active torsions:
REMARK  status: ('A' for Active; 'I' for Inactive)
REMARK       I    between atoms: C2_2  and  N1_4 
REMARK    1  A    between atoms: N1_4  and  N2_6 
REMARK    2  A    between atoms: N2_6  and  C4_8 
REMARK    3  A    between atoms: C5_11  and  N4_12 
REMARK    4  A    between atoms: C8_17  and  N6_18 
ROOT
HETATM    1  C4  UNL     1      35.741  48.986   9.340  1.00  0.00     0.726 A 
HETATM    2  N3  UNL     1      34.982  49.477  10.335  1.00  0.00    -0.020 N 
ATOM      3  H3  UNL     1      34.374  48.851  10.864  1.00  0.00     0.203 HD
HETATM    4  C5  UNL     1      35.018  50.801  10.643  1.00  0.00     0.708 A 
HETATM    5  N5  UNL     1      35.804  51.658   9.971  1.00  0.00    -0.022 N 
ATOM      6  H5  UNL     1      35.822  52.649  10.210  1.00  0.00     0.203 HD
HETATM    7  C8  UNL     1      36.565  51.174   8.973  1.00  0.00     0.705 A 
HETATM    8  N7  UNL     1      36.522  49.856   8.676  1.00  0.00    -0.020 N 
ATOM      9  H7  UNL     1      37.107  49.507   7.916  1.00  0.00     0.203 HD
ENDROOT
BRANCH   1  10
HETATM   10  N2  UNL     1      35.688  47.722   9.068  1.00  0.00    -0.127 N 
ATOM     11  H2  UNL     1      36.539  47.264   8.740  1.00  0.00     0.206 HD
BRANCH  10  12
HETATM   12  N1  UNL     1      34.542  46.959   9.197  1.00  0.00    -0.252 N 
HETATM   13  C2  UNL     1      33.551  46.988   8.188  1.00  0.00     0.234 C 
HETATM   14  C1  UNL     1      32.299  46.185   8.280  1.00  0.00     0.119 C 
HETATM   15  O1  UNL     1      33.711  47.708   7.173  1.00  0.00    -0.272 OA
HETATM   16  C3  UNL     1      34.303  46.104  10.354  1.00  0.00     0.181 C 
ENDBRANCH  10  12
ENDBRANCH   1  10
BRANCH   4  17
HETATM   17  N4  UNL     1      34.204  51.303  11.704  1.00  0.00    -0.225 N 
HETATM   18  C6  UNL     1      34.610  52.509  12.424  1.00  0.00     0.168 C 
HETATM   19  C7  UNL     1      32.978  50.629  12.077  1.00  0.00     0.168 C 
ENDBRANCH   4  17
BRANCH   7  20
HETATM   20  N6  UNL     1      37.341  51.974   8.297  1.00  0.00    -0.234 N 
ATOM     21  H62 UNL     1      37.180  52.981   8.315  1.00  0.00     0.174 HD
ATOM     22  H61 UNL     1      38.112  51.594   7.749  1.00  0.00     0.174 HD
ENDBRANCH   7  20
TORSDOF 4
ENDMDL
MODEL 2
REMARK VINA RESULT: -4.690617095      1.117      1.401
REMARK  4 active torsions:
REMARK  status: ('A' for Active; 'I' for Inactive)
REMARK       I    between atoms: C2_2  and  N1_4 
REMARK    1  A    between atoms: N1_4  and  N2_6 
REMARK    2  A    between atoms: N2_6  and  C4_8 
REMARK    3  A    between atoms: C5_11  and  N4_12 
REMARK    4  A    between atoms: C8_17  and  N6_18 
ROOT
HETATM    1  C4  UNL     1      35.801  49.027   9.289  1.00  0.00     0.726 A 
HETATM    2  N3  UNL     1      35.026  49.475  10.292  1.00  0.00    -0.020 N 
ATOM      3  H3  UNL     1      34.438  48.820  10.808  1.00  0.00     0.203 HD
HETATM    4  C5  UNL     1      35.019  50.793  10.624  1.00  0.00     0.708 A 
HETATM    5  N5  UNL     1      35.778  51.688   9.969  1.00  0.00    -0.022 N 
ATOM      6  H5  UNL     1      35.764  52.674  10.227  1.00  0.00     0.203 HD
HETATM    7  C8  UNL     1      36.556  51.247   8.965  1.00  0.00     0.705 A 
HETATM    8  N7  UNL     1      36.555  49.934   8.643  1.00  0.00    -0.020 N 
ATOM      9  H7  UNL     1      37.152  49.618   7.878  1.00  0.00     0.203 HD
ENDROOT
BRANCH   1  10
HETATM   10  N2  UNL     1      35.790  47.768   8.994  1.00  0.00    -0.127 N 
ATOM     11  H2  UNL     1      36.678  47.265   8.987  1.00  0.00     0.206 HD
BRANCH  10  12
HETATM   12  N1  UNL     1      34.638  47.065   8.686  1.00  0.00    -0.252 N 
HETATM   13  C2  UNL     1      33.996  46.284   9.676  1.00  0.00     0.234 C 
HETATM   14  C1  UNL     1      32.755  45.509   9.394  1.00  0.00     0.119 C 
HETATM   15  O1  UNL     1      34.471  46.228  10.835  1.00  0.00    -0.272 OA
HETATM   16  C3  UNL     1      34.043  47.093   7.356  1.00  0.00     0.181 C 
ENDBRANCH  10  12
ENDBRANCH   1  10
BRANCH   4  17
HETATM   17  N4  UNL     1      34.189  51.250  11.693  1.00  0.00    -0.225 N 
HETATM   18  C6  UNL     1      34.577  52.430  12.463  1.00  0.00     0.168 C 
HETATM   19  C7  UNL     1      32.962  50.554  12.024  1.00  0.00     0.168 C 
ENDBRANCH   4  17
BRANCH   7  20
HETATM   20  N6  UNL     1      37.307  52.083   8.305  1.00  0.00    -0.234 N 
ATOM     21  H62 UNL     1      37.050  52.369   7.361  1.00  0.00     0.174 HD
ATOM     22  H61 UNL     1      38.155  52.455   8.733  1.00  0.00     0.174 HD
ENDBRANCH   7  20
TORSDOF 4
ENDMDL
MODEL 3
REMARK VINA RESULT: -4.665183976      1.479      3.141
REMARK  4 active torsions:
REMARK  status: ('A' for Active; 'I' for Inactive)
REMARK       I    between atoms: C2_2  and  N1_4 
REMARK    1  A    between atoms: N1_4  and  N2_6 
REMARK    2  A    between atoms: N2_6  and  C4_8 
REMARK    3  A    between atoms: C5_11  and  N4_12 
REMARK    4  A    between atoms: C8_17  and  N6_18 
ROOT
HETATM    1  C4  UNL     1      33.703  49.832   9.633  1.00  0.00     0.726 A 
HETATM    2  N3  UNL     1      34.879  50.320   9.201  1.00  0.00    -0.020 N 
ATOM      3  H3  UNL     1      35.356  49.869   8.419  1.00  0.00     0.203 HD
HETATM    4  C5  UNL     1      35.438  51.407   9.795  1.00  0.00     0.708 A 
HETATM    5  N5  UNL     1      34.842  52.028  10.827  1.00  0.00    -0.022 N 
ATOM      6  H5  UNL     1      35.271  52.842  11.266  1.00  0.00     0.203 HD
HETATM    7  C8  UNL     1      33.666  51.546  11.266  1.00  0.00     0.705 A 
HETATM    8  N7  UNL     1      33.119  50.465  10.667  1.00  0.00    -0.020 N 
ATOM      9  H7  UNL     1      32.226  50.113  11.014  1.00  0.00     0.203 HD
ENDROOT
BRANCH   1  10
HETATM   10  N2  UNL     1      33.193  48.797   9.049  1.00  0.00    -0.127 N 
ATOM     11  H2  UNL     1      32.402  48.938   8.421  1.00  0.00     0.206 HD
BRANCH  10  12
HETATM   12  N1  UNL     1      33.662  47.508   9.230  1.00  0.00    -0.252 N 
HETATM   13  C2  UNL     1      33.991  46.707   8.111  1.00  0.00     0.234 C 
HETATM   14  C1  UNL     1      34.499  45.314   8.253  1.00  0.00     0.119 C 
HETATM   15  O1  UNL     1      33.857  47.166   6.951  1.00  0.00    -0.272 OA
HETATM   16  C3  UNL     1      33.837  46.923  10.554  1.00  0.00     0.181 C 
ENDBRANCH  10  12
ENDBRANCH   1  10
BRANCH   4  17
HETATM   17  N4  UNL     1      36.687  51.909   9.321  1.00  0.00    -0.225 N 
HETATM   18  C6  UNL     1      37.425  51.176   8.295  1.00  0.00     0.168 C 
HETATM   19  C7  UNL     1      37.234  53.143   9.847  1.00  0.00     0.168 C 
ENDBRANCH   4  17
BRANCH   7  20
HETATM   20  N6  UNL     1      33.056  52.120  12.264  1.00  0.00    -0.234 N 
ATOM     21  H62 UNL     1      33.533  52.835  12.814  1.00  0.00     0.174 HD
ATOM     22  H61 UNL     1      32.100  51.857  12.499  1.00  0.00     0.174 HD
ENDBRANCH   7  20
TORSDOF 4
ENDMDL
MODEL 4
REMARK VINA RESULT: -4.610175147      2.048      5.078
REMARK  4 active torsions:
REMARK  status: ('A' for Active; 'I' for Inactive)
REMARK       I    between atoms: C2_2  and  N1_4 
REMARK    1  A    between atoms: N1_4  and  N2_6 
REMARK    2  A    between atoms: N2_6  and  C4_8 
REMARK    3  A    between atoms: C5_11  and  N4_12 
REMARK    4  A    between atoms: C8_17  and  N6_18 
ROOT
HETATM    1  C4  UNL     1      34.688  49.702   9.231  1.00  0.00     0.726 A 
HETATM    2  N3  UNL     1      33.975  48.574   9.065  1.00  0.00    -0.020 N 
ATOM      3  H3  UNL     1      32.960  48.598   9.164  1.00  0.00     0.203 HD
HETATM    4  C5  UNL     1      34.595  47.401   8.766  1.00  0.00     0.708 A 
HETATM    5  N5  UNL     1      35.930  47.327   8.628  1.00  0.00    -0.022 N 
ATOM      6  H5  UNL     1      36.384  46.442   8.404  1.00  0.00     0.203 HD
HETATM    7  C8  UNL     1      36.650  48.451   8.793  1.00  0.00     0.705 A 
HETATM    8  N7  UNL     1      36.023  49.611   9.089  1.00  0.00    -0.020 N 
ATOM      9  H7  UNL     1      36.586  50.453   9.211  1.00  0.00     0.203 HD
ENDROOT
BRANCH   1  10
HETATM   10  N2  UNL     1      34.074  50.804   9.514  1.00  0.00    -0.127 N 
ATOM     11  H2  UNL     1      33.282  51.078   8.932  1.00  0.00     0.206 HD
BRANCH  10  12
HETATM   12  N1  UNL     1      34.432  51.632  10.562  1.00  0.00    -0.252 N 
HETATM   13  C2  UNL     1      33.833  51.470  11.833  1.00  0.00     0.234 C 
HETATM   14  C1  UNL     1      34.184  52.336  12.994  1.00  0.00     0.119 C 
HETATM   15  O1  UNL     1      32.974  50.573  12.011  1.00  0.00    -0.272 OA
HETATM   16  C3  UNL     1      35.424  52.690  10.413  1.00  0.00     0.181 C 
ENDBRANCH  10  12
ENDBRANCH   1  10
BRANCH   4  17
HETATM   17  N4  UNL     1      33.820  46.214   8.593  1.00  0.00    -0.225 N 
HETATM   18  C6  UNL     1      34.478  44.910   8.587  1.00  0.00     0.168 C 
HETATM   19  C7  UNL     1      32.384  46.289   8.423  1.00  0.00     0.168 C 
ENDBRANCH   4  17
BRANCH   7  20
HETATM   20  N6  UNL     1      37.947  48.419   8.667  1.00  0.00    -0.234 N 
ATOM     21  H62 UNL     1      38.467  49.280   8.499  1.00  0.00     0.174 HD
ATOM     22  H61 UNL     1      38.445  47.533   8.736  1.00  0.00     0.174 HD
ENDBRANCH   7  20
TORSDOF 4
ENDMDL
MODEL 5
REMARK VINA RESULT: -4.573335060      0.995      1.003
REMARK  4 active torsions:
REMARK  status: ('A' for Active; 'I' for Inactive)
REMARK       I    between atoms: C2_2  and  N1_4 
REMARK    1  A    between atoms: N1_4  and  N2_6 
REMARK    2  A    between atoms: N2_6  and  C4_8 
REMARK    3  A    between atoms: C5_11  and  N4_12 
REMARK    4  A    between atoms: C8_17  and  N6_18 
ROOT
HETATM    1  C4  UNL     1      35.921  49.778   9.049  1.00  0.00     0.726 A 
HETATM    2  N3  UNL     1      35.047  49.961  10.054  1.00  0.00    -0.020 N 
ATOM      3  H3  UNL     1      34.368  49.232  10.272  1.00  0.00     0.203 HD
HETATM    4  C5  UNL     1      35.060  51.109  10.781  1.00  0.00     0.708 A 
HETATM    5  N5  UNL     1      35.937  52.094  10.526  1.00  0.00    -0.022 N 
ATOM      6  H5  UNL     1      35.937  52.951  11.077  1.00  0.00     0.203 HD
HETATM    7  C8  UNL     1      36.814  51.919   9.521  1.00  0.00     0.705 A 
HETATM    8  N7  UNL     1      36.793  50.774   8.805  1.00  0.00    -0.020 N 
ATOM      9  H7  UNL     1      37.466  50.659   8.046  1.00  0.00     0.203 HD
ENDROOT
BRANCH   1  10
HETATM   10  N2  UNL     1      35.888  48.676   8.373  1.00  0.00    -0.127 N 
ATOM     11  H2  UNL     1      36.605  48.524   7.663  1.00  0.00     0.206 HD
BRANCH  10  12
HETATM   12  N1  UNL     1      34.933  47.693   8.559  1.00  0.00    -0.252 N 
HETATM   13  C2  UNL     1      33.562  47.990   8.379  1.00  0.00     0.234 C 
HETATM   14  C1  UNL     1      32.496  46.967   8.569  1.00  0.00     0.119 C 
HETATM   15  O1  UNL     1      33.210  49.148   8.050  1.00  0.00    -0.272 OA
HETATM   16  C3  UNL     1      35.284  46.331   8.942  1.00  0.00     0.181 C 
ENDBRANCH  10  12
ENDBRANCH   1  10
BRANCH   4  17
HETATM   17  N4  UNL     1      34.124  51.284  11.846  1.00  0.00    -0.225 N 
HETATM   18  C6  UNL     1      34.366  52.299  12.869  1.00  0.00     0.168 C 
HETATM   19  C7  UNL     1      32.932  50.463  11.923  1.00  0.00     0.168 C 
ENDBRANCH   4  17
BRANCH   7  20
HETATM   20  N6  UNL     1      37.681  52.851   9.242  1.00  0.00    -0.234 N 
ATOM     21  H62 UNL     1      38.585  52.607   8.836  1.00  0.00     0.174 HD
ATOM     22  H61 UNL     1      37.458  53.829   9.427  1.00  0.00     0.174 HD
ENDBRANCH   7  20
TORSDOF 4
ENDMDL
