MODEL 1
REMARK VINA RESULT: -4.661953899      0.000      0.000
REMARK  3 active torsions:
REMARK  status: ('A' for Active; 'I' for Inactive)
REMARK    1  A    between atoms: O1_2  and  C2_3 
REMARK    2  A    between atoms: C4_9  and  N3_10 
REMARK       I    between atoms: N3_10  and  C5_12 
REMARK    3  A    between atoms: C6_15  and  N5_16 
ROOT
HETATM    1  C2  UNL     1      34.530  46.304   9.149  1.00  0.00     0.225 A 
HETATM    2  N1  UNL     1      33.876  47.276   9.794  1.00  0.00    -0.306 N 
ATOM      3  H1  UNL     1      33.004  47.145  10.306  1.00  0.00     0.171 HD
HETATM    4  C3  UNL     1      34.529  48.456   9.675  1.00  0.00     0.143 A 
HETATM    5  N2  UNL     1      34.127  49.625  10.212  1.00  0.00    -0.323 N 
ATOM      6  H2  UNL     1      33.272  49.587  10.766  1.00  0.00     0.169 HD
HETATM    7  C4  UNL     1      34.705  50.835  10.112  1.00  0.00     0.155 C 
HETATM    8  C6  UNL     1      35.987  51.073   9.657  1.00  0.00     0.147 C 
HETATM    9  N6  UNL     1      36.760  50.324   8.849  1.00  0.00    -0.305 N 
ATOM     10  H6  UNL     1      37.559  50.811   8.443  1.00  0.00     0.171 HD
HETATM   11  C7  UNL     1      36.641  49.032   8.496  1.00  0.00     0.277 C 
HETATM   12  O3  UNL     1      37.484  48.527   7.734  1.00  0.00    -0.265 OA
HETATM   13  C8  UNL     1      35.646  48.184   8.911  1.00  0.00     0.148 A 
HETATM   14  N7  UNL     1      35.639  46.863   8.593  1.00  0.00    -0.314 N 
ATOM     15  H7  UNL     1      36.341  46.376   8.036  1.00  0.00     0.170 HD
ENDROOT
BRANCH   7  16
HETATM   16  N3  UNL     1      34.001  51.873  10.475  1.00  0.00    -0.294 N 
HETATM   17  C5  UNL     1      33.799  52.078  11.858  1.00  0.00     0.334 C 
HETATM   18  N4  UNL     1      32.783  51.389  12.582  1.00  0.00    -0.040 NA
HETATM   19  O2  UNL     1      34.522  52.882  12.490  1.00  0.00    -0.251 OA
ATOM     20  H3  UNL     1      33.611  52.515   9.784  1.00  0.00     0.172 HD
ENDBRANCH   7  16
BRANCH   8  21
HETATM   21  N5  UNL     1      36.509  52.196  10.083  1.00  0.00    -0.382 N 
ATOM     22  H52 UNL     1      36.126  53.053   9.684  1.00  0.00     0.157 HD
ATOM     23  H51 UNL     1      37.248  52.078  10.776  1.00  0.00     0.157 HD
ENDBRANCH   8  21
BRANCH   1  24
HETATM   24  O1  UNL     1      34.209  44.950   9.017  1.00  0.00    -0.327 OA
HETATM   25  C1  UNL     1      35.002  44.138   8.171  1.00  0.00     0.213 C 
ENDBRANCH   1  24
TORSDOF 3
ENDMDL
MODEL 2
REMARK VINA RESULT: -4.047879366      1.747      2.382
REMARK  3 active torsions:
REMARK  status: ('A' for Active; 'I' for Inactive)
REMARK    1  A    between atoms: O1_2  and  C2_3 
REMARK    2  A    between atoms: C4_9  and  N3_10 
REMARK       I    between atoms: N3_10  and  C5_12 
REMARK    3  A    between atoms: C6_15  and  N5_16 
ROOT
HETATM    1  C2  UNL     1      35.560  46.602   8.509  1.00  0.00     0.225 A 
HETATM    2  N1  UNL     1      36.276  47.574   9.083  1.00  0.00    -0.306 N 
ATOM      3  H1  UNL     1      37.243  47.475   9.393  1.00  0.00     0.171 HD
HETATM    4  C3  UNL     1      35.545  48.708   9.197  1.00  0.00     0.143 A 
HETATM    5  N2  UNL     1      35.981  49.865   9.732  1.00  0.00    -0.323 N 
ATOM      6  H2  UNL     1      36.950  49.868  10.049  1.00  0.00     0.169 HD
HETATM    7  C4  UNL     1      35.307  51.016   9.904  1.00  0.00     0.155 C 
HETATM    8  C6  UNL     1      34.097  51.328   9.314  1.00  0.00     0.147 C 
HETATM    9  N6  UNL     1      33.142  50.510   8.837  1.00  0.00    -0.305 N 
ATOM     10  H6  UNL     1      32.234  50.949   8.684  1.00  0.00     0.171 HD
HETATM   11  C7  UNL     1      33.201  49.201   8.530  1.00  0.00     0.277 C 
HETATM   12  O3  UNL     1      32.188  48.632   8.088  1.00  0.00    -0.265 OA
HETATM   13  C8  UNL     1      34.310  48.405   8.660  1.00  0.00     0.148 A 
HETATM   14  N7  UNL     1      34.328  47.112   8.241  1.00  0.00    -0.314 N 
ATOM     15  H7  UNL     1      33.554  46.613   7.802  1.00  0.00     0.170 HD
ENDROOT
BRANCH   7  16
HETATM   16  N3  UNL     1      35.833  51.914  10.691  1.00  0.00    -0.294 N 
HETATM   17  C5  UNL     1      35.578  51.803  12.076  1.00  0.00     0.334 C 
HETATM   18  N4  UNL     1      34.374  52.288  12.663  1.00  0.00    -0.040 NA
HETATM   19  O2  UNL     1      36.420  51.265  12.832  1.00  0.00    -0.251 OA
ATOM     20  H3  UNL     1      36.409  52.669  10.320  1.00  0.00     0.172 HD
ENDBRANCH   7  16
BRANCH   8  21
HETATM   21  N5  UNL     1      33.865  52.613   9.214  1.00  0.00    -0.382 N 
ATOM     22  H52 UNL     1      34.489  53.140   8.603  1.00  0.00     0.157 HD
ATOM     23  H51 UNL     1      33.072  52.939   9.766  1.00  0.00     0.157 HD
ENDBRANCH   8  21
BRANCH   1  24
HETATM   24  O1  UNL     1      35.925  45.287   8.206  1.00  0.00    -0.327 OA
HETATM   25  C1  UNL     1      34.939  44.272   8.267  1.00  0.00     0.213 C 
ENDBRANCH   1  24
TORSDOF 3
ENDMDL
MODEL 3
REMARK VINA RESULT: -3.280886782      1.428      5.372
REMARK  3 active torsions:
REMARK  status: ('A' for Active; 'I' for Inactive)
REMARK    1  A    between atoms: O1_2  and  C2_3 
REMARK    2  A    between atoms: C4_9  and  N3_10 
REMARK       I    between atoms: N3_10  and  C5_12 
REMARK    3  A    between atoms: C6_15  and  N5_16 
ROOT
HETATM    1  C2  UNL     1      34.089  51.622  11.535  1.00  0.00     0.225 A 
HETATM    2  N1  UNL     1      33.785  50.334  11.341  1.00  0.00    -0.306 N 
ATOM      3  H1  UNL     1      33.013  49.847  11.797  1.00  0.00     0.171 HD
HETATM    4  C3  UNL     1      34.639  49.765  10.458  1.00  0.00     0.143 A 
HETATM    5  N2  UNL     1      34.598  48.481  10.052  1.00  0.00    -0.323 N 
ATOM      6  H2  UNL     1      33.840  47.920  10.438  1.00  0.00     0.169 HD
HETATM    7  C4  UNL     1      35.425  47.843   9.205  1.00  0.00     0.155 C 
HETATM    8  C6  UNL     1      36.334  48.455   8.364  1.00  0.00     0.147 C 
HETATM    9  N6  UNL     1      36.913  49.665   8.467  1.00  0.00    -0.305 N 
ATOM     10  H6  UNL     1      37.736  49.801   7.879  1.00  0.00     0.171 HD
HETATM   11  C7  UNL     1      36.574  50.723   9.225  1.00  0.00     0.277 C 
HETATM   12  O3  UNL     1      37.251  51.764   9.159  1.00  0.00    -0.265 OA
HETATM   13  C8  UNL     1      35.514  50.769  10.095  1.00  0.00     0.148 A 
HETATM   14  N7  UNL     1      35.170  51.903  10.760  1.00  0.00    -0.314 N 
ATOM     15  H7  UNL     1      35.640  52.806  10.689  1.00  0.00     0.170 HD
ENDROOT
BRANCH   7  16
HETATM   16  N3  UNL     1      35.367  46.540   9.170  1.00  0.00    -0.294 N 
HETATM   17  C5  UNL     1      34.115  45.945   8.898  1.00  0.00     0.334 C 
HETATM   18  N4  UNL     1      33.131  45.760   9.912  1.00  0.00    -0.040 NA
HETATM   19  O2  UNL     1      33.837  45.563   7.738  1.00  0.00    -0.251 OA
ATOM     20  H3  UNL     1      36.197  45.970   9.333  1.00  0.00     0.172 HD
ENDBRANCH   7  16
BRANCH   8  21
HETATM   21  N5  UNL     1      36.669  47.737   7.321  1.00  0.00    -0.382 N 
ATOM     22  H52 UNL     1      36.680  46.726   7.452  1.00  0.00     0.157 HD
ATOM     23  H51 UNL     1      36.881  48.284   6.487  1.00  0.00     0.157 HD
ENDBRANCH   8  21
BRANCH   1  24
HETATM   24  O1  UNL     1      33.472  52.569  12.358  1.00  0.00    -0.327 OA
HETATM   25  C1  UNL     1      33.839  52.631  13.724  1.00  0.00     0.213 C 
ENDBRANCH   1  24
TORSDOF 3
ENDMDL
MODEL 4
REMARK VINA RESULT: -2.816038084      0.998      1.017
REMARK  3 active torsions:
REMARK  status: ('A' for Active; 'I' for Inactive)
REMARK    1  A    between atoms: O1_2  and  C2_3 
REMARK    2  A    between atoms: C4_9  and  N3_10 
REMARK       I    between atoms: N3_10  and  C5_12 
REMARK    3  A    between atoms: C6_15  and  N5_16 
ROOT
HETATM    1  C2  UNL     1      35.577  46.909   8.639  1.00  0.00     0.225 A 
HETATM    2  N1  UNL     1      34.703  47.536   9.433  1.00  0.00    -0.306 N 
ATOM      3  H1  UNL     1      33.910  47.086   9.890  1.00  0.00     0.171 HD
HETATM    4  C3  UNL     1      35.013  48.849   9.548  1.00  0.00     0.143 A 
HETATM    5  N2  UNL     1      34.327  49.750  10.278  1.00  0.00    -0.323 N 
ATOM      6  H2  UNL     1      33.527  49.384  10.794  1.00  0.00     0.169 HD
HETATM    7  C4  UNL     1      34.558  51.068  10.416  1.00  0.00     0.155 C 
HETATM    8  C6  UNL     1      35.719  51.718  10.044  1.00  0.00     0.147 C 
HETATM    9  N6  UNL     1      36.643  51.363   9.134  1.00  0.00    -0.305 N 
ATOM     10  H6  UNL     1      37.273  52.111   8.844  1.00  0.00     0.171 HD
HETATM   11  C7  UNL     1      36.866  50.173   8.548  1.00  0.00     0.277 C 
HETATM   12  O3  UNL     1      37.794  50.059   7.729  1.00  0.00    -0.265 OA
HETATM   13  C8  UNL     1      36.144  49.029   8.776  1.00  0.00     0.148 A 
HETATM   14  N7  UNL     1      36.482  47.835   8.223  1.00  0.00    -0.314 N 
ATOM     15  H7  UNL     1      37.275  47.664   7.605  1.00  0.00     0.170 HD
ENDROOT
BRANCH   7  16
HETATM   16  N3  UNL     1      33.611  51.796  10.943  1.00  0.00    -0.294 N 
HETATM   17  C5  UNL     1      33.456  51.753  12.347  1.00  0.00     0.334 C 
HETATM   18  N4  UNL     1      32.736  50.708  12.995  1.00  0.00    -0.040 NA
HETATM   19  O2  UNL     1      33.958  52.649  13.064  1.00  0.00    -0.251 OA
ATOM     20  H3  UNL     1      33.005  52.375  10.362  1.00  0.00     0.172 HD
ENDBRANCH   7  16
BRANCH   8  21
HETATM   21  N5  UNL     1      35.931  52.843  10.681  1.00  0.00    -0.382 N 
ATOM     22  H52 UNL     1      36.623  53.470  10.271  1.00  0.00     0.157 HD
ATOM     23  H51 UNL     1      35.369  52.959  11.524  1.00  0.00     0.157 HD
ENDBRANCH   8  21
BRANCH   1  24
HETATM   24  O1  UNL     1      35.627  45.565   8.254  1.00  0.00    -0.327 OA
HETATM   25  C1  UNL     1      34.570  44.705   8.638  1.00  0.00     0.213 C 
ENDBRANCH   1  24
TORSDOF 3
ENDMDL
MODEL 5
REMARK VINA RESULT: -2.768016150      1.964      5.891
REMARK  3 active torsions:
REMARK  status: ('A' for Active; 'I' for Inactive)
REMARK    1  A    between atoms: O1_2  and  C2_3 
REMARK    2  A    between atoms: C4_9  and  N3_10 
REMARK       I    between atoms: N3_10  and  C5_12 
REMARK    3  A    between atoms: C6_15  and  N5_16 
ROOT
HETATM    1  C2  UNL     1      36.770  52.236   9.444  1.00  0.00     0.225 A 
HETATM    2  N1  UNL     1      36.962  51.076   8.808  1.00  0.00    -0.306 N 
ATOM      3  H1  UNL     1      37.680  50.915   8.102  1.00  0.00     0.171 HD
HETATM    4  C3  UNL     1      36.075  50.144   9.229  1.00  0.00     0.143 A 
HETATM    5  N2  UNL     1      36.008  48.875   8.781  1.00  0.00    -0.323 N 
ATOM      6  H2  UNL     1      36.707  48.613   8.087  1.00  0.00     0.169 HD
HETATM    7  C4  UNL     1      35.140  47.908   9.129  1.00  0.00     0.155 C 
HETATM    8  C6  UNL     1      34.302  47.944  10.227  1.00  0.00     0.147 C 
HETATM    9  N6  UNL     1      33.830  49.005  10.907  1.00  0.00    -0.305 N 
ATOM     10  H6  UNL     1      33.032  48.810  11.511  1.00  0.00     0.171 HD
HETATM   11  C7  UNL     1      34.250  50.283  10.913  1.00  0.00     0.277 C 
HETATM   12  O3  UNL     1      33.669  51.113  11.633  1.00  0.00    -0.265 OA
HETATM   13  C8  UNL     1      35.297  50.778  10.177  1.00  0.00     0.148 A 
HETATM   14  N7  UNL     1      35.730  52.060  10.302  1.00  0.00    -0.314 N 
ATOM     15  H7  UNL     1      35.343  52.765  10.930  1.00  0.00     0.170 HD
ENDROOT
BRANCH   7  16
HETATM   16  N3  UNL     1      35.083  46.846   8.373  1.00  0.00    -0.294 N 
HETATM   17  C5  UNL     1      33.940  46.682   7.558  1.00  0.00     0.334 C 
HETATM   18  N4  UNL     1      32.724  46.140   8.065  1.00  0.00    -0.040 NA
HETATM   19  O2  UNL     1      33.972  47.017   6.351  1.00  0.00    -0.251 OA
ATOM     20  H3  UNL     1      35.836  46.158   8.369  1.00  0.00     0.172 HD
ENDBRANCH   7  16
BRANCH   8  21
HETATM   21  N5  UNL     1      33.920  46.766  10.651  1.00  0.00    -0.382 N 
ATOM     22  H52 UNL     1      33.659  46.089   9.933  1.00  0.00     0.157 HD
ATOM     23  H51 UNL     1      33.933  46.662  11.665  1.00  0.00     0.157 HD
ENDBRANCH   8  21
BRANCH   1  24
HETATM   24  O1  UNL     1      37.456  53.448   9.314  1.00  0.00    -0.327 OA
HETATM   25  C1  UNL     1      38.824  53.501   9.674  1.00  0.00     0.213 C 
ENDBRANCH   1  24
TORSDOF 3
ENDMDL
