MODEL 1
REMARK VINA RESULT: -6.019113768      0.000      0.000
REMARK  10 active torsions:
REMARK  status: ('A' for Active; 'I' for Inactive)
REMARK    1  A    between atoms: N1_1  and  C1_5 
REMARK    2  A    between atoms: C1_5  and  C2_6 
REMARK    3  A    between atoms: C2_6  and  C3_7 
REMARK    4  A    between atoms: C2_6  and  C4_12 
REMARK    5  A    between atoms: C2_6  and  N3_16 
REMARK    6  A    between atoms: C3_7  and  N2_8 
REMARK    7  A    between atoms: C4_12  and  C5_13 
REMARK    8  A    between atoms: C5_13  and  O1_14 
REMARK    9  A    between atoms: N3_16  and  C6_18 
REMARK   10  A    between atoms: C6_18  and  C7_19 
ROOT
HETATM    1  C2  UNL     1      40.226  30.422  18.969  1.00  0.00     0.075 C 
ENDROOT
BRANCH   1   2
HETATM    2  C1  UNL     1      41.369  30.563  19.908  1.00  0.00     0.261 C 
BRANCH   2   3
HETATM    3  N1  UNL     1      41.797  31.900  20.193  1.00  0.00    -0.077 N 
ATOM      4  H13 UNL     1      42.238  32.303  19.366  1.00  0.00     0.274 HD
ATOM      5  H12 UNL     1      40.985  32.509  20.286  1.00  0.00     0.274 HD
ATOM      6  H11 UNL     1      42.409  32.019  21.000  1.00  0.00     0.274 HD
ENDBRANCH   2   3
ENDBRANCH   1   2
BRANCH   1   7
HETATM    7  C3  UNL     1      39.113  31.370  19.373  1.00  0.00     0.261 C 
BRANCH   7   8
HETATM    8  N2  UNL     1      37.868  30.729  19.634  1.00  0.00    -0.077 N 
ATOM      9  H23 UNL     1      37.171  31.006  18.942  1.00  0.00     0.274 HD
ATOM     10  H22 UNL     1      37.929  29.732  19.428  1.00  0.00     0.274 HD
ATOM     11  H21 UNL     1      37.511  30.878  20.578  1.00  0.00     0.274 HD
ENDBRANCH   7   8
ENDBRANCH   1   7
BRANCH   1  12
HETATM   12  C4  UNL     1      39.738  29.021  18.797  1.00  0.00     0.060 C 
BRANCH  12  13
HETATM   13  C5  UNL     1      39.939  28.080  19.918  1.00  0.00     0.166 C 
BRANCH  13  14
HETATM   14  O1  UNL     1      38.650  27.877  20.488  1.00  0.00    -0.401 OA
ATOM     15  H1  UNL     1      38.803  27.460  21.328  1.00  0.00     0.209 HD
ENDBRANCH  13  14
ENDBRANCH  12  13
ENDBRANCH   1  12
BRANCH   1  16
HETATM   16  N3  UNL     1      40.669  30.818  17.649  1.00  0.00    -0.408 N 
ATOM     17  H3  UNL     1      40.700  31.800  17.375  1.00  0.00     0.154 HD
BRANCH  16  18
HETATM   18  C6  UNL     1      41.055  29.801  16.759  1.00  0.00     0.139 C 
BRANCH  18  19
HETATM   19  C7  UNL     1      42.499  30.135  16.334  1.00  0.00     0.094 C 
HETATM   20  C8  UNL     1      43.403  29.578  17.370  1.00  0.00     0.028 C 
HETATM   21  C9  UNL     1      44.851  29.941  17.114  1.00  0.00     0.029 C 
HETATM   22  C10 UNL     1      45.645  28.740  16.719  1.00  0.00     0.232 C 
HETATM   23  N4  UNL     1      46.010  28.702  15.332  1.00  0.00    -0.074 N 
HETATM   24  C11 UNL     1      45.017  29.244  14.447  1.00  0.00     0.251 C 
ATOM     25  H42 UNL     1      46.908  29.163  15.187  1.00  0.00     0.277 HD
ATOM     26  H41 UNL     1      46.257  27.752  15.054  1.00  0.00     0.277 HD
HETATM   27  C12 UNL     1      43.623  28.693  14.746  1.00  0.00     0.141 C 
HETATM   28  N5  UNL     1      42.766  29.803  14.987  1.00  0.00    -0.414 N 
ATOM     29  H5  UNL     1      42.360  30.337  14.219  1.00  0.00     0.153 HD
ENDBRANCH  18  19
ENDBRANCH  16  18
ENDBRANCH   1  16
TORSDOF 10
ENDMDL
MODEL 2
REMARK VINA RESULT: -5.910150111      1.810      2.494
REMARK  10 active torsions:
REMARK  status: ('A' for Active; 'I' for Inactive)
REMARK    1  A    between atoms: N1_1  and  C1_5 
REMARK    2  A    between atoms: C1_5  and  C2_6 
REMARK    3  A    between atoms: C2_6  and  C3_7 
REMARK    4  A    between atoms: C2_6  and  C4_12 
REMARK    5  A    between atoms: C2_6  and  N3_16 
REMARK    6  A    between atoms: C3_7  and  N2_8 
REMARK    7  A    between atoms: C4_12  and  C5_13 
REMARK    8  A    between atoms: C5_13  and  O1_14 
REMARK    9  A    between atoms: N3_16  and  C6_18 
REMARK   10  A    between atoms: C6_18  and  C7_19 
ROOT
HETATM    1  C2  UNL     1      40.464  29.484  19.245  1.00  0.00     0.075 C 
ENDROOT
BRANCH   1   2
HETATM    2  C1  UNL     1      39.284  30.272  18.804  1.00  0.00     0.261 C 
BRANCH   2   3
HETATM    3  N1  UNL     1      38.166  30.300  19.699  1.00  0.00    -0.077 N 
ATOM      4  H13 UNL     1      38.258  29.552  20.387  1.00  0.00     0.274 HD
ATOM      5  H12 UNL     1      38.231  31.118  20.305  1.00  0.00     0.274 HD
ATOM      6  H11 UNL     1      37.241  30.263  19.272  1.00  0.00     0.274 HD
ENDBRANCH   2   3
ENDBRANCH   1   2
BRANCH   1   7
HETATM    7  C3  UNL     1      40.003  28.267  20.024  1.00  0.00     0.261 C 
BRANCH   7   8
HETATM    8  N2  UNL     1      40.057  27.049  19.287  1.00  0.00    -0.077 N 
ATOM      9  H23 UNL     1      39.201  26.511  19.424  1.00  0.00     0.274 HD
ATOM     10  H22 UNL     1      39.988  27.234  18.286  1.00  0.00     0.274 HD
ATOM     11  H21 UNL     1      40.876  26.475  19.489  1.00  0.00     0.274 HD
ENDBRANCH   7   8
ENDBRANCH   1   7
BRANCH   1  12
HETATM   12  C4  UNL     1      41.490  30.273  19.989  1.00  0.00     0.060 C 
BRANCH  12  13
HETATM   13  C5  UNL     1      41.575  31.723  19.715  1.00  0.00     0.166 C 
BRANCH  13  14
HETATM   14  O1  UNL     1      42.525  32.236  20.644  1.00  0.00    -0.401 OA
ATOM     15  H1  UNL     1      42.765  33.095  20.318  1.00  0.00     0.209 HD
ENDBRANCH  13  14
ENDBRANCH  12  13
ENDBRANCH   1  12
BRANCH   1  16
HETATM   16  N3  UNL     1      41.156  29.003  18.068  1.00  0.00    -0.408 N 
ATOM     17  H3  UNL     1      41.754  28.178  18.107  1.00  0.00     0.154 HD
BRANCH  16  18
HETATM   18  C6  UNL     1      40.974  29.714  16.869  1.00  0.00     0.139 C 
BRANCH  18  19
HETATM   19  C7  UNL     1      42.387  30.088  16.380  1.00  0.00     0.094 C 
HETATM   20  C8  UNL     1      43.354  29.546  17.367  1.00  0.00     0.028 C 
HETATM   21  C9  UNL     1      44.778  29.948  17.045  1.00  0.00     0.029 C 
HETATM   22  C10 UNL     1      45.582  28.771  16.602  1.00  0.00     0.232 C 
HETATM   23  N4  UNL     1      45.882  28.753  15.199  1.00  0.00    -0.074 N 
HETATM   24  C11 UNL     1      44.834  29.276  14.366  1.00  0.00     0.251 C 
ATOM     25  H42 UNL     1      46.760  29.239  15.015  1.00  0.00     0.277 HD
ATOM     26  H41 UNL     1      46.139  27.812  14.900  1.00  0.00     0.277 HD
HETATM   27  C12 UNL     1      43.470  28.688  14.727  1.00  0.00     0.141 C 
HETATM   28  N5  UNL     1      42.598  29.774  15.019  1.00  0.00    -0.414 N 
ATOM     29  H5  UNL     1      42.142  30.303  14.275  1.00  0.00     0.153 HD
ENDBRANCH  18  19
ENDBRANCH  16  18
ENDBRANCH   1  16
TORSDOF 10
ENDMDL
MODEL 3
REMARK VINA RESULT: -5.880997800      1.931      2.897
REMARK  10 active torsions:
REMARK  status: ('A' for Active; 'I' for Inactive)
REMARK    1  A    between atoms: N1_1  and  C1_5 
REMARK    2  A    between atoms: C1_5  and  C2_6 
REMARK    3  A    between atoms: C2_6  and  C3_7 
REMARK    4  A    between atoms: C2_6  and  C4_12 
REMARK    5  A    between atoms: C2_6  and  N3_16 
REMARK    6  A    between atoms: C3_7  and  N2_8 
REMARK    7  A    between atoms: C4_12  and  C5_13 
REMARK    8  A    between atoms: C5_13  and  O1_14 
REMARK    9  A    between atoms: N3_16  and  C6_18 
REMARK   10  A    between atoms: C6_18  and  C7_19 
ROOT
HETATM    1  C2  UNL     1      40.261  29.887  18.968  1.00  0.00     0.075 C 
ENDROOT
BRANCH   1   2
HETATM    2  C1  UNL     1      38.830  29.757  19.349  1.00  0.00     0.261 C 
BRANCH   2   3
HETATM    3  N1  UNL     1      38.135  30.975  19.641  1.00  0.00    -0.077 N 
ATOM      4  H13 UNL     1      37.227  30.761  20.054  1.00  0.00     0.274 HD
ATOM      5  H12 UNL     1      38.587  31.450  20.421  1.00  0.00     0.274 HD
ATOM      6  H11 UNL     1      38.014  31.626  18.865  1.00  0.00     0.274 HD
ENDBRANCH   2   3
ENDBRANCH   1   2
BRANCH   1   7
HETATM    7  C3  UNL     1      41.124  29.133  19.961  1.00  0.00     0.261 C 
BRANCH   7   8
HETATM    8  N2  UNL     1      41.059  27.715  19.831  1.00  0.00    -0.077 N 
ATOM      9  H23 UNL     1      41.531  27.413  18.979  1.00  0.00     0.274 HD
ATOM     10  H22 UNL     1      41.653  27.266  20.528  1.00  0.00     0.274 HD
ATOM     11  H21 UNL     1      40.113  27.335  19.870  1.00  0.00     0.274 HD
ENDBRANCH   7   8
ENDBRANCH   1   7
BRANCH   1  12
HETATM   12  C4  UNL     1      40.722  31.294  18.776  1.00  0.00     0.060 C 
BRANCH  12  13
HETATM   13  C5  UNL     1      41.804  31.790  19.653  1.00  0.00     0.166 C 
BRANCH  13  14
HETATM   14  O1  UNL     1      41.232  32.852  20.408  1.00  0.00    -0.401 OA
ATOM     15  H1  UNL     1      41.766  32.927  21.191  1.00  0.00     0.209 HD
ENDBRANCH  13  14
ENDBRANCH  12  13
ENDBRANCH   1  12
BRANCH   1  16
HETATM   16  N3  UNL     1      40.447  29.262  17.676  1.00  0.00    -0.408 N 
ATOM     17  H3  UNL     1      40.081  28.330  17.483  1.00  0.00     0.154 HD
BRANCH  16  18
HETATM   18  C6  UNL     1      41.151  29.985  16.698  1.00  0.00     0.139 C 
BRANCH  18  19
HETATM   19  C7  UNL     1      42.419  29.164  16.393  1.00  0.00     0.094 C 
HETATM   20  C8  UNL     1      42.883  29.554  15.038  1.00  0.00     0.028 C 
HETATM   21  C9  UNL     1      44.068  28.729  14.585  1.00  0.00     0.029 C 
HETATM   22  C10 UNL     1      45.309  29.555  14.526  1.00  0.00     0.232 C 
HETATM   23  N4  UNL     1      46.253  29.282  15.571  1.00  0.00    -0.074 N 
HETATM   24  C11 UNL     1      45.653  28.955  16.835  1.00  0.00     0.251 C 
ATOM     25  H42 UNL     1      46.901  28.549  15.283  1.00  0.00     0.277 HD
ATOM     26  H41 UNL     1      46.905  30.059  15.675  1.00  0.00     0.277 HD
HETATM   27  C12 UNL     1      44.556  29.947  17.220  1.00  0.00     0.141 C 
HETATM   28  N5  UNL     1      43.363  29.203  17.443  1.00  0.00    -0.414 N 
ATOM     29  H5  UNL     1      43.197  28.718  18.324  1.00  0.00     0.153 HD
ENDBRANCH  18  19
ENDBRANCH  16  18
ENDBRANCH   1  16
TORSDOF 10
ENDMDL
MODEL 4
REMARK VINA RESULT: -5.844428239      1.535      2.276
REMARK  10 active torsions:
REMARK  status: ('A' for Active; 'I' for Inactive)
REMARK    1  A    between atoms: N1_1  and  C1_5 
REMARK    2  A    between atoms: C1_5  and  C2_6 
REMARK    3  A    between atoms: C2_6  and  C3_7 
REMARK    4  A    between atoms: C2_6  and  C4_12 
REMARK    5  A    between atoms: C2_6  and  N3_16 
REMARK    6  A    between atoms: C3_7  and  N2_8 
REMARK    7  A    between atoms: C4_12  and  C5_13 
REMARK    8  A    between atoms: C5_13  and  O1_14 
REMARK    9  A    between atoms: N3_16  and  C6_18 
REMARK   10  A    between atoms: C6_18  and  C7_19 
ROOT
HETATM    1  C2  UNL     1      40.472  29.435  19.221  1.00  0.00     0.075 C 
ENDROOT
BRANCH   1   2
HETATM    2  C1  UNL     1      39.876  28.266  19.918  1.00  0.00     0.261 C 
BRANCH   2   3
HETATM    3  N1  UNL     1      40.093  26.985  19.314  1.00  0.00    -0.077 N 
ATOM      4  H13 UNL     1      39.258  26.701  18.802  1.00  0.00     0.274 HD
ATOM      5  H12 UNL     1      40.760  27.075  18.548  1.00  0.00     0.274 HD
ATOM      6  H11 UNL     1      40.387  26.233  19.938  1.00  0.00     0.274 HD
ENDBRANCH   2   3
ENDBRANCH   1   2
BRANCH   1   7
HETATM    7  C3  UNL     1      41.556  30.048  20.087  1.00  0.00     0.261 C 
BRANCH   7   8
HETATM    8  N2  UNL     1      41.670  31.463  19.963  1.00  0.00    -0.077 N 
ATOM      9  H23 UNL     1      40.940  31.929  20.502  1.00  0.00     0.274 HD
ATOM     10  H22 UNL     1      42.495  31.799  20.460  1.00  0.00     0.274 HD
ATOM     11  H21 UNL     1      41.672  31.799  19.000  1.00  0.00     0.274 HD
ENDBRANCH   7   8
ENDBRANCH   1   7
BRANCH   1  12
HETATM   12  C4  UNL     1      39.480  30.450  18.759  1.00  0.00     0.060 C 
BRANCH  12  13
HETATM   13  C5  UNL     1      38.366  30.789  19.669  1.00  0.00     0.166 C 
BRANCH  13  14
HETATM   14  O1  UNL     1      38.688  32.063  20.215  1.00  0.00    -0.401 OA
ATOM     15  H1  UNL     1      37.927  32.610  20.058  1.00  0.00     0.209 HD
ENDBRANCH  13  14
ENDBRANCH  12  13
ENDBRANCH   1  12
BRANCH   1  16
HETATM   16  N3  UNL     1      41.107  28.966  18.007  1.00  0.00    -0.408 N 
ATOM     17  H3  UNL     1      41.648  28.102  17.995  1.00  0.00     0.154 HD
BRANCH  16  18
HETATM   18  C6  UNL     1      40.951  29.745  16.848  1.00  0.00     0.139 C 
BRANCH  18  19
HETATM   19  C7  UNL     1      42.376  30.102  16.382  1.00  0.00     0.094 C 
HETATM   20  C8  UNL     1      43.320  29.550  17.385  1.00  0.00     0.028 C 
HETATM   21  C9  UNL     1      44.753  29.936  17.087  1.00  0.00     0.029 C 
HETATM   22  C10 UNL     1      45.552  28.750  16.659  1.00  0.00     0.232 C 
HETATM   23  N4  UNL     1      45.875  28.726  15.262  1.00  0.00    -0.074 N 
HETATM   24  C11 UNL     1      44.847  29.260  14.411  1.00  0.00     0.251 C 
ATOM     25  H42 UNL     1      46.761  29.202  15.093  1.00  0.00     0.277 HD
ATOM     26  H41 UNL     1      46.126  27.782  14.969  1.00  0.00     0.277 HD
HETATM   27  C12 UNL     1      43.471  28.687  14.749  1.00  0.00     0.141 C 
HETATM   28  N5  UNL     1      42.606  29.783  15.025  1.00  0.00    -0.414 N 
ATOM     29  H5  UNL     1      42.169  30.317  14.273  1.00  0.00     0.153 HD
ENDBRANCH  18  19
ENDBRANCH  16  18
ENDBRANCH   1  16
TORSDOF 10
ENDMDL
MODEL 5
REMARK VINA RESULT: -5.780470758      1.416      2.224
REMARK  10 active torsions:
REMARK  status: ('A' for Active; 'I' for Inactive)
REMARK    1  A    between atoms: N1_1  and  C1_5 
REMARK    2  A    between atoms: C1_5  and  C2_6 
REMARK    3  A    between atoms: C2_6  and  C3_7 
REMARK    4  A    between atoms: C2_6  and  C4_12 
REMARK    5  A    between atoms: C2_6  and  N3_16 
REMARK    6  A    between atoms: C3_7  and  N2_8 
REMARK    7  A    between atoms: C4_12  and  C5_13 
REMARK    8  A    between atoms: C5_13  and  O1_14 
REMARK    9  A    between atoms: N3_16  and  C6_18 
REMARK   10  A    between atoms: C6_18  and  C7_19 
ROOT
HETATM    1  C2  UNL     1      40.138  30.024  19.234  1.00  0.00     0.075 C 
ENDROOT
BRANCH   1   2
HETATM    2  C1  UNL     1      41.057  29.233  20.093  1.00  0.00     0.261 C 
BRANCH   2   3
HETATM    3  N1  UNL     1      41.106  27.823  19.846  1.00  0.00    -0.077 N 
ATOM      4  H13 UNL     1      40.620  27.327  20.593  1.00  0.00     0.274 HD
ATOM      5  H12 UNL     1      40.508  27.593  19.052  1.00  0.00     0.274 HD
ATOM      6  H11 UNL     1      42.031  27.417  19.708  1.00  0.00     0.274 HD
ENDBRANCH   2   3
ENDBRANCH   1   2
BRANCH   1   7
HETATM    7  C3  UNL     1      40.586  31.473  19.206  1.00  0.00     0.261 C 
BRANCH   7   8
HETATM    8  N2  UNL     1      41.692  31.757  20.057  1.00  0.00    -0.077 N 
ATOM      9  H23 UNL     1      41.402  31.751  21.035  1.00  0.00     0.274 HD
ATOM     10  H22 UNL     1      42.347  30.975  20.065  1.00  0.00     0.274 HD
ATOM     11  H21 UNL     1      42.178  32.626  19.835  1.00  0.00     0.274 HD
ENDBRANCH   7   8
ENDBRANCH   1   7
BRANCH   1  12
HETATM   12  C4  UNL     1      38.694  29.888  19.588  1.00  0.00     0.060 C 
BRANCH  12  13
HETATM   13  C5  UNL     1      38.108  28.531  19.583  1.00  0.00     0.166 C 
BRANCH  13  14
HETATM   14  O1  UNL     1      38.014  28.147  20.951  1.00  0.00    -0.401 OA
ATOM     15  H1  UNL     1      37.157  27.750  21.048  1.00  0.00     0.209 HD
ENDBRANCH  13  14
ENDBRANCH  12  13
ENDBRANCH   1  12
BRANCH   1  16
HETATM   16  N3  UNL     1      40.232  29.519  17.881  1.00  0.00    -0.408 N 
ATOM     17  H3  UNL     1      39.738  28.674  17.597  1.00  0.00     0.154 HD
BRANCH  16  18
HETATM   18  C6  UNL     1      41.030  30.237  16.973  1.00  0.00     0.139 C 
BRANCH  18  19
HETATM   19  C7  UNL     1      42.171  29.283  16.565  1.00  0.00     0.094 C 
HETATM   20  C8  UNL     1      42.517  29.587  15.154  1.00  0.00     0.028 C 
HETATM   21  C9  UNL     1      43.558  28.633  14.609  1.00  0.00     0.029 C 
HETATM   22  C10 UNL     1      44.860  29.328  14.384  1.00  0.00     0.232 C 
HETATM   23  N4  UNL     1      45.883  28.990  15.332  1.00  0.00    -0.074 N 
HETATM   24  C11 UNL     1      45.398  28.761  16.664  1.00  0.00     0.251 C 
ATOM     25  H42 UNL     1      46.421  28.188  15.004  1.00  0.00     0.277 HD
ATOM     26  H41 UNL     1      46.615  29.700  15.335  1.00  0.00     0.277 HD
HETATM   27  C12 UNL     1      44.452  29.869  17.127  1.00  0.00     0.141 C 
HETATM   28  N5  UNL     1      43.225  29.256  17.505  1.00  0.00    -0.414 N 
ATOM     29  H5  UNL     1      43.111  28.815  18.418  1.00  0.00     0.153 HD
ENDBRANCH  18  19
ENDBRANCH  16  18
ENDBRANCH   1  16
TORSDOF 10
ENDMDL
