MODEL 1
REMARK VINA RESULT: -8.215095731      0.000      0.000
REMARK  12 active torsions:
REMARK  status: ('A' for Active; 'I' for Inactive)
REMARK    1  A    between atoms: C2_3  and  N2_4 
REMARK    2  A    between atoms: N2_4  and  C3_7 
REMARK    3  A    between atoms: C3_7  and  C4_8 
REMARK    4  A    between atoms: N5_13  and  C5_14 
REMARK    5  A    between atoms: C5_14  and  C11_34 
REMARK    6  A    between atoms: N6_15  and  N7_17 
REMARK    7  A    between atoms: N7_17  and  C6_19 
REMARK    8  A    between atoms: C7_22  and  N9_23 
REMARK    9  A    between atoms: C9_30  and  C10_31 
REMARK   10  A    between atoms: C12_35  and  O2_36 
REMARK   11  A    between atoms: C13_38  and  O3_39 
REMARK   12  A    between atoms: N13_42  and  O4_43 
ROOT
HETATM    1  N1  UNL     1      14.210  -8.822  51.378  1.00  0.00    -0.196 NA
HETATM    2  C1  UNL     1      15.069  -9.576  51.555  1.00  0.00     0.086 C 
HETATM    3  C2  UNL     1      16.173 -10.520  51.794  1.00  0.00     0.356 C 
ENDROOT
BRANCH   3   4
HETATM    4  N2  UNL     1      16.296 -11.348  50.596  1.00  0.00    -0.057 N 
ATOM      5  H22 UNL     1      16.404 -10.793  49.747  1.00  0.00     0.278 HD
ATOM      6  H21 UNL     1      17.186 -11.844  50.553  1.00  0.00     0.278 HD
BRANCH   4   7
HETATM    7  C3  UNL     1      15.160 -12.243  50.532  1.00  0.00     0.312 C 
BRANCH   7   8
HETATM    8  C4  UNL     1      15.137 -13.072  49.326  1.00  0.00     0.139 A 
HETATM    9  N3  UNL     1      14.465 -14.218  49.171  1.00  0.00    -0.270 N 
HETATM   10  N4  UNL     1      14.665 -14.700  47.967  1.00  0.00    -0.218 N 
ATOM     11  H3  UNL     1      13.881 -14.654  49.885  1.00  0.00     0.190 HD
HETATM   12  N5  UNL     1      15.467 -13.880  47.324  1.00  0.00    -0.160 N 
ATOM     13  H4  UNL     1      14.268 -15.562  47.595  1.00  0.00     0.210 HD
HETATM   14  N14 UNL     1      15.765 -12.881  48.137  1.00  0.00    -0.262 N 
ATOM     15  H14 UNL     1      16.370 -12.093  47.908  1.00  0.00     0.190 HD
BRANCH  12  16
HETATM   16  C5  UNL     1      15.946 -14.013  45.969  1.00  0.00     0.193 C 
HETATM   17  N6  UNL     1      15.248 -13.469  45.050  1.00  0.00    -0.279 N 
ATOM     18  H6  UNL     1      15.579 -13.557  44.090  1.00  0.00     0.189 HD
BRANCH  17  19
HETATM   19  N7  UNL     1      14.085 -12.774  45.262  1.00  0.00    -0.282 N 
ATOM     20  H7  UNL     1      14.033 -12.173  46.085  1.00  0.00     0.188 HD
BRANCH  19  21
HETATM   21  C6  UNL     1      13.049 -12.829  44.488  1.00  0.00     0.154 A 
HETATM   22  N8  UNL     1      12.707 -11.874  43.611  1.00  0.00    -0.174 N 
HETATM   23  C7  UNL     1      11.619 -11.976  42.823  1.00  0.00     0.678 A 
ATOM     24  H8  UNL     1      13.291 -11.041  43.539  1.00  0.00     0.186 HD
HETATM   25  N10 UNL     1      10.835 -13.081  42.911  1.00  0.00    -0.178 N 
HETATM   26  C8  UNL     1      11.109 -14.080  43.763  1.00  0.00     0.151 A 
ATOM     27  H10 UNL     1      10.013 -13.153  42.312  1.00  0.00     0.185 HD
HETATM   28  N11 UNL     1      10.301 -15.241  43.866  1.00  0.00    -0.081 NA
HETATM   29  C9  UNL     1      12.245 -13.946  44.567  1.00  0.00     0.116 A 
BRANCH  23  30
HETATM   30  N9  UNL     1      11.330 -11.040  41.999  1.00  0.00    -0.234 N 
ATOM     31  H92 UNL     1      10.656 -11.200  41.251  1.00  0.00     0.174 HD
ATOM     32  H91 UNL     1      11.774 -10.125  42.083  1.00  0.00     0.174 HD
ENDBRANCH  23  30
BRANCH  29  33
HETATM   33  C10 UNL     1      12.527 -15.034  45.483  1.00  0.00     0.272 C 
HETATM   34  N12 UNL     1      11.959 -14.969  46.786  1.00  0.00    -0.057 NA
HETATM   35  O1  UNL     1      13.239 -16.014  45.177  1.00  0.00    -0.271 OA
ENDBRANCH  29  33
ENDBRANCH  19  21
ENDBRANCH  17  19
BRANCH  16  36
HETATM   36  C11 UNL     1      17.173 -14.746  45.705  1.00  0.00     0.146 A 
HETATM   37  C12 UNL     1      18.256 -14.293  44.973  1.00  0.00     0.134 A 
HETATM   38  C13 UNL     1      19.217 -15.320  44.970  1.00  0.00     0.119 A 
HETATM   39  C14 UNL     1      18.682 -16.351  45.697  1.00  0.00     0.163 A 
HETATM   40  N13 UNL     1      17.444 -15.993  46.137  1.00  0.00    -0.227 N 
BRANCH  37  41
HETATM   41  O2  UNL     1      18.448 -13.100  44.341  1.00  0.00    -0.356 OA
ATOM     42  H2  UNL     1      19.050 -12.393  44.542  1.00  0.00     0.218 HD
ENDBRANCH  37  41
BRANCH  38  43
HETATM   43  O3  UNL     1      20.452 -15.326  44.372  1.00  0.00    -0.357 OA
ATOM     44  H3  UNL     1      20.765 -14.776  43.665  1.00  0.00     0.218 HD
ENDBRANCH  38  43
BRANCH  40  45
HETATM   45  O4  UNL     1      16.620 -16.786  46.896  1.00  0.00    -0.283 OA
ATOM     46  H4  UNL     1      16.743 -17.710  47.080  1.00  0.00     0.245 HD
ENDBRANCH  40  45
ENDBRANCH  16  36
ENDBRANCH  12  16
ENDBRANCH   7   8
ENDBRANCH   4   7
ENDBRANCH   3   4
TORSDOF 12
ENDMDL
MODEL 2
REMARK VINA RESULT: -8.111064246      3.048      5.004
REMARK  12 active torsions:
REMARK  status: ('A' for Active; 'I' for Inactive)
REMARK    1  A    between atoms: C2_3  and  N2_4 
REMARK    2  A    between atoms: N2_4  and  C3_7 
REMARK    3  A    between atoms: C3_7  and  C4_8 
REMARK    4  A    between atoms: N5_13  and  C5_14 
REMARK    5  A    between atoms: C5_14  and  C11_34 
REMARK    6  A    between atoms: N6_15  and  N7_17 
REMARK    7  A    between atoms: N7_17  and  C6_19 
REMARK    8  A    between atoms: C7_22  and  N9_23 
REMARK    9  A    between atoms: C9_30  and  C10_31 
REMARK   10  A    between atoms: C12_35  and  O2_36 
REMARK   11  A    between atoms: C13_38  and  O3_39 
REMARK   12  A    between atoms: N13_42  and  O4_43 
ROOT
HETATM    1  N1  UNL     1      14.341  -8.836  51.377  1.00  0.00    -0.196 NA
HETATM    2  C1  UNL     1      14.977  -9.801  51.370  1.00  0.00     0.086 C 
HETATM    3  C2  UNL     1      15.792 -11.027  51.386  1.00  0.00     0.356 C 
ENDROOT
BRANCH   3   4
HETATM    4  N2  UNL     1      16.292 -11.226  50.027  1.00  0.00    -0.057 N 
ATOM      5  H22 UNL     1      16.999 -10.538  49.766  1.00  0.00     0.278 HD
ATOM      6  H21 UNL     1      16.871 -12.062  49.942  1.00  0.00     0.278 HD
BRANCH   4   7
HETATM    7  C3  UNL     1      15.167 -11.238  49.117  1.00  0.00     0.312 C 
BRANCH   7   8
HETATM    8  C4  UNL     1      14.765 -12.583  48.703  1.00  0.00     0.139 A 
HETATM    9  N3  UNL     1      15.584 -13.565  48.312  1.00  0.00    -0.270 N 
HETATM   10  N4  UNL     1      14.893 -14.638  48.011  1.00  0.00    -0.218 N 
ATOM     11  H3  UNL     1      16.600 -13.490  48.256  1.00  0.00     0.190 HD
HETATM   12  N5  UNL     1      13.619 -14.373  48.200  1.00  0.00    -0.160 N 
ATOM     13  H4  UNL     1      15.277 -15.526  47.687  1.00  0.00     0.210 HD
HETATM   14  N14 UNL     1      13.521 -13.125  48.622  1.00  0.00    -0.262 N 
ATOM     15  H14 UNL     1      12.651 -12.644  48.850  1.00  0.00     0.190 HD
BRANCH  12  16
HETATM   16  C5  UNL     1      12.504 -15.268  48.000  1.00  0.00     0.193 C 
HETATM   17  N6  UNL     1      12.151 -15.496  46.795  1.00  0.00    -0.279 N 
ATOM     18  H6  UNL     1      11.365 -16.128  46.644  1.00  0.00     0.189 HD
BRANCH  17  19
HETATM   19  N7  UNL     1      12.753 -14.953  45.689  1.00  0.00    -0.282 N 
ATOM     20  H7  UNL     1      13.764 -15.057  45.599  1.00  0.00     0.188 HD
BRANCH  19  21
HETATM   21  C6  UNL     1      12.125 -14.317  44.753  1.00  0.00     0.154 A 
HETATM   22  N8  UNL     1      11.080 -14.810  44.072  1.00  0.00    -0.174 N 
HETATM   23  C7  UNL     1      10.455 -14.111  43.106  1.00  0.00     0.678 A 
ATOM     24  H8  UNL     1      10.747 -15.748  44.295  1.00  0.00     0.186 HD
HETATM   25  N10 UNL     1      10.891 -12.861  42.802  1.00  0.00    -0.178 N 
HETATM   26  C8  UNL     1      11.929 -12.297  43.436  1.00  0.00     0.151 A 
ATOM     27  H10 UNL     1      10.413 -12.336  42.070  1.00  0.00     0.185 HD
HETATM   28  N11 UNL     1      12.395 -10.992  43.131  1.00  0.00    -0.081 NA
HETATM   29  C9  UNL     1      12.557 -13.048  44.435  1.00  0.00     0.116 A 
BRANCH  23  30
HETATM   30  N9  UNL     1       9.460 -14.620  42.482  1.00  0.00    -0.234 N 
ATOM     31  H92 UNL     1       8.507 -14.453  42.805  1.00  0.00     0.174 HD
ATOM     32  H91 UNL     1       9.612 -15.200  41.657  1.00  0.00     0.174 HD
ENDBRANCH  23  30
BRANCH  29  33
HETATM   33  C10 UNL     1      13.679 -12.424  45.110  1.00  0.00     0.272 C 
HETATM   34  N12 UNL     1      14.943 -13.072  45.033  1.00  0.00    -0.057 NA
HETATM   35  O1  UNL     1      13.581 -11.355  45.747  1.00  0.00    -0.271 OA
ENDBRANCH  29  33
ENDBRANCH  19  21
ENDBRANCH  17  19
BRANCH  16  36
HETATM   36  C11 UNL     1      11.837 -15.860  49.148  1.00  0.00     0.146 A 
HETATM   37  C12 UNL     1      12.405 -16.114  50.383  1.00  0.00     0.134 A 
HETATM   38  C13 UNL     1      11.408 -16.689  51.191  1.00  0.00     0.119 A 
HETATM   39  C14 UNL     1      10.279 -16.761  50.418  1.00  0.00     0.163 A 
HETATM   40  N13 UNL     1      10.551 -16.257  49.182  1.00  0.00    -0.227 N 
BRANCH  37  41
HETATM   41  O2  UNL     1      13.674 -15.885  50.828  1.00  0.00    -0.356 OA
ATOM     42  H2  UNL     1      14.111 -16.195  51.612  1.00  0.00     0.218 HD
ENDBRANCH  37  41
BRANCH  38  43
HETATM   43  O3  UNL     1      11.506 -17.107  52.494  1.00  0.00    -0.357 OA
ATOM     44  H3  UNL     1      11.754 -17.964  52.820  1.00  0.00     0.218 HD
ENDBRANCH  38  43
BRANCH  40  45
HETATM   45  O4  UNL     1       9.648 -16.174  48.152  1.00  0.00    -0.283 OA
ATOM     46  H4  UNL     1       9.741 -16.562  47.290  1.00  0.00     0.245 HD
ENDBRANCH  40  45
ENDBRANCH  16  36
ENDBRANCH  12  16
ENDBRANCH   7   8
ENDBRANCH   4   7
ENDBRANCH   3   4
TORSDOF 12
ENDMDL
MODEL 3
REMARK VINA RESULT: -8.025927711      0.896      1.577
REMARK  12 active torsions:
REMARK  status: ('A' for Active; 'I' for Inactive)
REMARK    1  A    between atoms: C2_3  and  N2_4 
REMARK    2  A    between atoms: N2_4  and  C3_7 
REMARK    3  A    between atoms: C3_7  and  C4_8 
REMARK    4  A    between atoms: N5_13  and  C5_14 
REMARK    5  A    between atoms: C5_14  and  C11_34 
REMARK    6  A    between atoms: N6_15  and  N7_17 
REMARK    7  A    between atoms: N7_17  and  C6_19 
REMARK    8  A    between atoms: C7_22  and  N9_23 
REMARK    9  A    between atoms: C9_30  and  C10_31 
REMARK   10  A    between atoms: C12_35  and  O2_36 
REMARK   11  A    between atoms: C13_38  and  O3_39 
REMARK   12  A    between atoms: N13_42  and  O4_43 
ROOT
HETATM    1  N1  UNL     1      14.205  -8.732  51.378  1.00  0.00    -0.196 NA
HETATM    2  C1  UNL     1      15.052  -9.503  51.531  1.00  0.00     0.086 C 
HETATM    3  C2  UNL     1      16.142 -10.469  51.743  1.00  0.00     0.356 C 
ENDROOT
BRANCH   3   4
HETATM    4  N2  UNL     1      16.244 -11.273  50.526  1.00  0.00    -0.057 N 
ATOM      5  H22 UNL     1      16.318 -10.700  49.685  1.00  0.00     0.278 HD
ATOM      6  H21 UNL     1      17.141 -11.753  50.448  1.00  0.00     0.278 HD
BRANCH   4   7
HETATM    7  C3  UNL     1      15.121 -12.185  50.478  1.00  0.00     0.312 C 
BRANCH   7   8
HETATM    8  C4  UNL     1      15.129 -13.059  49.304  1.00  0.00     0.139 A 
HETATM    9  N3  UNL     1      14.541 -14.256  49.209  1.00  0.00    -0.270 N 
HETATM   10  N4  UNL     1      14.745 -14.768  48.019  1.00  0.00    -0.218 N 
ATOM     11  H3  UNL     1      14.010 -14.707  49.955  1.00  0.00     0.190 HD
HETATM   12  N5  UNL     1      15.467 -13.916  47.324  1.00  0.00    -0.160 N 
ATOM     13  H4  UNL     1      14.404 -15.670  47.689  1.00  0.00     0.210 HD
HETATM   14  N14 UNL     1      15.710 -12.868  48.091  1.00  0.00    -0.262 N 
ATOM     15  H14 UNL     1      16.249 -12.047  47.816  1.00  0.00     0.190 HD
BRANCH  12  16
HETATM   16  C5  UNL     1      15.919 -14.066  45.961  1.00  0.00     0.193 C 
HETATM   17  N6  UNL     1      15.211 -13.520  45.051  1.00  0.00    -0.279 N 
ATOM     18  H6  UNL     1      15.523 -13.619  44.085  1.00  0.00     0.189 HD
BRANCH  17  19
HETATM   19  N7  UNL     1      14.061 -12.809  45.279  1.00  0.00    -0.282 N 
ATOM     20  H7  UNL     1      14.031 -12.201  46.097  1.00  0.00     0.188 HD
BRANCH  19  21
HETATM   21  C6  UNL     1      13.010 -12.858  44.524  1.00  0.00     0.154 A 
HETATM   22  N8  UNL     1      12.683 -11.924  43.619  1.00  0.00    -0.174 N 
HETATM   23  C7  UNL     1      11.580 -12.018  42.853  1.00  0.00     0.678 A 
ATOM     24  H8  UNL     1      13.293 -11.114  43.506  1.00  0.00     0.186 HD
HETATM   25  N10 UNL     1      10.762 -13.092  42.994  1.00  0.00    -0.178 N 
HETATM   26  C8  UNL     1      11.017 -14.069  43.878  1.00  0.00     0.151 A 
ATOM     27  H10 UNL     1       9.927 -13.158  42.411  1.00  0.00     0.185 HD
HETATM   28  N11 UNL     1      10.173 -15.198  44.036  1.00  0.00    -0.081 NA
HETATM   29  C9  UNL     1      12.171 -13.943  44.657  1.00  0.00     0.116 A 
BRANCH  23  30
HETATM   30  N9  UNL     1      11.307 -11.103  42.000  1.00  0.00    -0.234 N 
ATOM     31  H92 UNL     1      11.704 -10.169  42.099  1.00  0.00     0.174 HD
ATOM     32  H91 UNL     1      10.688 -11.301  41.214  1.00  0.00     0.174 HD
ENDBRANCH  23  30
BRANCH  29  33
HETATM   33  C10 UNL     1      12.433 -15.007  45.608  1.00  0.00     0.272 C 
HETATM   34  N12 UNL     1      13.262 -16.084  45.188  1.00  0.00    -0.057 NA
HETATM   35  O1  UNL     1      11.966 -15.013  46.767  1.00  0.00    -0.271 OA
ENDBRANCH  29  33
ENDBRANCH  19  21
ENDBRANCH  17  19
BRANCH  16  36
HETATM   36  C11 UNL     1      17.132 -14.816  45.680  1.00  0.00     0.146 A 
HETATM   37  C12 UNL     1      17.394 -16.120  46.057  1.00  0.00     0.134 A 
HETATM   38  C13 UNL     1      18.678 -16.443  45.580  1.00  0.00     0.119 A 
HETATM   39  C14 UNL     1      19.142 -15.327  44.936  1.00  0.00     0.163 A 
HETATM   40  N13 UNL     1      18.198 -14.347  45.003  1.00  0.00    -0.227 N 
BRANCH  37  41
HETATM   41  O2  UNL     1      16.622 -17.003  46.754  1.00  0.00    -0.356 OA
ATOM     42  H2  UNL     1      16.573 -17.165  47.689  1.00  0.00     0.218 HD
ENDBRANCH  37  41
BRANCH  38  43
HETATM   43  O3  UNL     1      19.360 -17.625  45.714  1.00  0.00    -0.357 OA
ATOM     44  H3  UNL     1      19.144 -18.474  45.348  1.00  0.00     0.218 HD
ENDBRANCH  38  43
BRANCH  40  45
HETATM   45  O4  UNL     1      18.329 -13.093  44.462  1.00  0.00    -0.283 OA
ATOM     46  H4  UNL     1      19.145 -12.648  44.265  1.00  0.00     0.245 HD
ENDBRANCH  40  45
ENDBRANCH  16  36
ENDBRANCH  12  16
ENDBRANCH   7   8
ENDBRANCH   4   7
ENDBRANCH   3   4
TORSDOF 12
ENDMDL
MODEL 4
REMARK VINA RESULT: -7.938415379      2.133      5.538
REMARK  12 active torsions:
REMARK  status: ('A' for Active; 'I' for Inactive)
REMARK    1  A    between atoms: C2_3  and  N2_4 
REMARK    2  A    between atoms: N2_4  and  C3_7 
REMARK    3  A    between atoms: C3_7  and  C4_8 
REMARK    4  A    between atoms: N5_13  and  C5_14 
REMARK    5  A    between atoms: C5_14  and  C11_34 
REMARK    6  A    between atoms: N6_15  and  N7_17 
REMARK    7  A    between atoms: N7_17  and  C6_19 
REMARK    8  A    between atoms: C7_22  and  N9_23 
REMARK    9  A    between atoms: C9_30  and  C10_31 
REMARK   10  A    between atoms: C12_35  and  O2_36 
REMARK   11  A    between atoms: C13_38  and  O3_39 
REMARK   12  A    between atoms: N13_42  and  O4_43 
ROOT
HETATM    1  N1  UNL     1      14.184  -8.632  51.704  1.00  0.00    -0.196 NA
HETATM    2  C1  UNL     1      15.026  -9.342  51.356  1.00  0.00     0.086 C 
HETATM    3  C2  UNL     1      16.116 -10.234  50.925  1.00  0.00     0.356 C 
ENDROOT
BRANCH   3   4
HETATM    4  N2  UNL     1      15.723 -10.798  49.635  1.00  0.00    -0.057 N 
ATOM      5  H22 UNL     1      15.552 -10.079  48.931  1.00  0.00     0.278 HD
ATOM      6  H21 UNL     1      16.494 -11.273  49.165  1.00  0.00     0.278 HD
BRANCH   4   7
HETATM    7  C3  UNL     1      14.579 -11.662  49.835  1.00  0.00     0.312 C 
BRANCH   7   8
HETATM    8  C4  UNL     1      14.142 -12.342  48.615  1.00  0.00     0.139 A 
HETATM    9  N3  UNL     1      13.190 -13.278  48.534  1.00  0.00    -0.270 N 
HETATM   10  N4  UNL     1      13.052 -13.675  47.291  1.00  0.00    -0.218 N 
ATOM     11  H3  UNL     1      12.650 -13.631  49.324  1.00  0.00     0.190 HD
HETATM   12  N5  UNL     1      13.907 -13.008  46.549  1.00  0.00    -0.160 N 
ATOM     13  H4  UNL     1      12.394 -14.380  46.959  1.00  0.00     0.210 HD
HETATM   14  N14 UNL     1      14.580 -12.190  47.338  1.00  0.00    -0.262 N 
ATOM     15  H14 UNL     1      15.313 -11.548  47.037  1.00  0.00     0.190 HD
BRANCH  12  16
HETATM   16  C5  UNL     1      14.094 -13.119  45.122  1.00  0.00     0.193 C 
HETATM   17  N6  UNL     1      15.251 -13.470  44.713  1.00  0.00    -0.279 N 
ATOM     18  H6  UNL     1      15.392 -13.552  43.706  1.00  0.00     0.189 HD
BRANCH  17  19
HETATM   19  N7  UNL     1      16.317 -13.744  45.531  1.00  0.00    -0.282 N 
ATOM     20  H7  UNL     1      16.540 -13.070  46.264  1.00  0.00     0.188 HD
BRANCH  19  21
HETATM   21  C6  UNL     1      17.061 -14.799  45.434  1.00  0.00     0.154 A 
HETATM   22  N8  UNL     1      17.900 -15.044  44.417  1.00  0.00    -0.174 N 
HETATM   23  C7  UNL     1      18.656 -16.156  44.359  1.00  0.00     0.678 A 
ATOM     24  H8  UNL     1      17.968 -14.362  43.661  1.00  0.00     0.186 HD
HETATM   25  N10 UNL     1      18.574 -17.069  45.360  1.00  0.00    -0.178 N 
HETATM   26  C8  UNL     1      17.759 -16.899  46.412  1.00  0.00     0.151 A 
ATOM     27  H10 UNL     1      19.150 -17.910  45.312  1.00  0.00     0.185 HD
HETATM   28  N11 UNL     1      17.662 -17.843  47.466  1.00  0.00    -0.081 NA
HETATM   29  C9  UNL     1      16.987 -15.734  46.443  1.00  0.00     0.116 A 
BRANCH  23  30
HETATM   30  N9  UNL     1      19.446 -16.349  43.369  1.00  0.00    -0.234 N 
ATOM     31  H92 UNL     1      20.391 -16.700  43.523  1.00  0.00     0.174 HD
ATOM     32  H91 UNL     1      19.136 -16.150  42.418  1.00  0.00     0.174 HD
ENDBRANCH  23  30
BRANCH  29  33
HETATM   33  C10 UNL     1      16.109 -15.566  47.586  1.00  0.00     0.272 C 
HETATM   34  N12 UNL     1      14.798 -16.113  47.502  1.00  0.00    -0.057 NA
HETATM   35  O1  UNL     1      16.455 -14.967  48.626  1.00  0.00    -0.271 OA
ENDBRANCH  29  33
ENDBRANCH  19  21
ENDBRANCH  17  19
BRANCH  16  36
HETATM   36  C11 UNL     1      12.988 -12.833  44.223  1.00  0.00     0.146 A 
HETATM   37  C12 UNL     1      12.750 -11.635  43.574  1.00  0.00     0.134 A 
HETATM   38  C13 UNL     1      11.580 -11.799  42.811  1.00  0.00     0.119 A 
HETATM   39  C14 UNL     1      11.156 -13.084  43.026  1.00  0.00     0.163 A 
HETATM   40  N13 UNL     1      12.016 -13.701  43.883  1.00  0.00    -0.227 N 
BRANCH  37  41
HETATM   41  O2  UNL     1      13.455 -10.467  43.603  1.00  0.00    -0.356 OA
ATOM     42  H2  UNL     1      13.282  -9.662  44.076  1.00  0.00     0.218 HD
ENDBRANCH  37  41
BRANCH  38  43
HETATM   43  O3  UNL     1      10.957 -10.882  42.003  1.00  0.00    -0.357 OA
ATOM     44  H3  UNL     1      10.026 -10.760  41.861  1.00  0.00     0.218 HD
ENDBRANCH  38  43
BRANCH  40  45
HETATM   45  O4  UNL     1      11.896 -14.997  44.319  1.00  0.00    -0.283 OA
ATOM     46  H4  UNL     1      11.243 -15.627  44.037  1.00  0.00     0.245 HD
ENDBRANCH  40  45
ENDBRANCH  16  36
ENDBRANCH  12  16
ENDBRANCH   7   8
ENDBRANCH   4   7
ENDBRANCH   3   4
TORSDOF 12
ENDMDL
MODEL 5
REMARK VINA RESULT: -7.791777496      1.349      2.171
REMARK  12 active torsions:
REMARK  status: ('A' for Active; 'I' for Inactive)
REMARK    1  A    between atoms: C2_3  and  N2_4 
REMARK    2  A    between atoms: N2_4  and  C3_7 
REMARK    3  A    between atoms: C3_7  and  C4_8 
REMARK    4  A    between atoms: N5_13  and  C5_14 
REMARK    5  A    between atoms: C5_14  and  C11_34 
REMARK    6  A    between atoms: N6_15  and  N7_17 
REMARK    7  A    between atoms: N7_17  and  C6_19 
REMARK    8  A    between atoms: C7_22  and  N9_23 
REMARK    9  A    between atoms: C9_30  and  C10_31 
REMARK   10  A    between atoms: C12_35  and  O2_36 
REMARK   11  A    between atoms: C13_38  and  O3_39 
REMARK   12  A    between atoms: N13_42  and  O4_43 
ROOT
HETATM    1  N1  UNL     1      14.209  -8.859  51.378  1.00  0.00    -0.196 NA
HETATM    2  C1  UNL     1      14.962  -9.736  51.379  1.00  0.00     0.086 C 
HETATM    3  C2  UNL     1      15.928 -10.847  51.404  1.00  0.00     0.356 C 
ENDROOT
BRANCH   3   4
HETATM    4  N2  UNL     1      16.294 -11.126  50.017  1.00  0.00    -0.057 N 
ATOM      5  H22 UNL     1      16.973 -10.459  49.650  1.00  0.00     0.278 HD
ATOM      6  H21 UNL     1      16.862 -11.969  49.924  1.00  0.00     0.278 HD
BRANCH   4   7
HETATM    7  C3  UNL     1      15.086 -11.183  49.221  1.00  0.00     0.312 C 
BRANCH   7   8
HETATM    8  C4  UNL     1      14.815 -12.509  48.665  1.00  0.00     0.139 A 
HETATM    9  N3  UNL     1      14.126 -13.488  49.261  1.00  0.00    -0.270 N 
HETATM   10  N4  UNL     1      14.074 -14.543  48.483  1.00  0.00    -0.218 N 
ATOM     11  H3  UNL     1      13.702 -13.422  50.186  1.00  0.00     0.190 HD
HETATM   12  N5  UNL     1      14.726 -14.269  47.375  1.00  0.00    -0.160 N 
ATOM     13  H4  UNL     1      13.608 -15.423  48.701  1.00  0.00     0.210 HD
HETATM   14  N14 UNL     1      15.185 -13.033  47.467  1.00  0.00    -0.262 N 
ATOM     15  H14 UNL     1      15.730 -12.551  46.753  1.00  0.00     0.190 HD
BRANCH  12  16
HETATM   16  C5  UNL     1      14.915 -15.138  46.238  1.00  0.00     0.193 C 
HETATM   17  N6  UNL     1      13.923 -15.288  45.450  1.00  0.00    -0.279 N 
ATOM     18  H6  UNL     1      14.048 -15.900  44.643  1.00  0.00     0.189 HD
BRANCH  17  19
HETATM   19  N7  UNL     1      12.701 -14.686  45.610  1.00  0.00    -0.282 N 
ATOM     20  H7  UNL     1      12.333 -14.603  46.558  1.00  0.00     0.188 HD
BRANCH  19  21
HETATM   21  C6  UNL     1      11.985 -14.217  44.639  1.00  0.00     0.154 A 
HETATM   22  N8  UNL     1      10.948 -14.862  44.084  1.00  0.00    -0.174 N 
HETATM   23  C7  UNL     1      10.228 -14.334  43.076  1.00  0.00     0.678 A 
ATOM     24  H8  UNL     1      10.695 -15.784  44.439  1.00  0.00     0.186 HD
HETATM   25  N10 UNL     1      10.555 -13.106  42.597  1.00  0.00    -0.178 N 
HETATM   26  C8  UNL     1      11.579 -12.398  43.098  1.00  0.00     0.151 A 
ATOM     27  H10 UNL     1      10.007 -12.711  41.834  1.00  0.00     0.185 HD
HETATM   28  N11 UNL     1      11.933 -11.114  42.609  1.00  0.00    -0.081 NA
HETATM   29  C9  UNL     1      12.306 -12.973  44.144  1.00  0.00     0.116 A 
BRANCH  23  30
HETATM   30  N9  UNL     1       9.244 -14.983  42.576  1.00  0.00    -0.234 N 
ATOM     31  H92 UNL     1       8.372 -15.081  43.096  1.00  0.00     0.174 HD
ATOM     32  H91 UNL     1       9.326 -15.411  41.654  1.00  0.00     0.174 HD
ENDBRANCH  23  30
BRANCH  29  33
HETATM   33  C10 UNL     1      13.411 -12.195  44.673  1.00  0.00     0.272 C 
HETATM   34  N12 UNL     1      13.120 -11.224  45.671  1.00  0.00    -0.057 NA
HETATM   35  O1  UNL     1      14.591 -12.343  44.292  1.00  0.00    -0.271 OA
ENDBRANCH  29  33
ENDBRANCH  19  21
ENDBRANCH  17  19
BRANCH  16  36
HETATM   36  C11 UNL     1      16.195 -15.797  46.037  1.00  0.00     0.146 A 
HETATM   37  C12 UNL     1      17.401 -15.177  45.764  1.00  0.00     0.134 A 
HETATM   38  C13 UNL     1      18.373 -16.188  45.645  1.00  0.00     0.119 A 
HETATM   39  C14 UNL     1      17.720 -17.375  45.849  1.00  0.00     0.163 A 
HETATM   40  N13 UNL     1      16.402 -17.127  46.085  1.00  0.00    -0.227 N 
BRANCH  37  41
HETATM   41  O2  UNL     1      17.693 -13.852  45.622  1.00  0.00    -0.356 OA
ATOM     42  H2  UNL     1      18.507 -13.387  45.774  1.00  0.00     0.218 HD
ENDBRANCH  37  41
BRANCH  38  43
HETATM   43  O3  UNL     1      19.711 -16.052  45.379  1.00  0.00    -0.357 OA
ATOM     44  H3  UNL     1      20.346 -16.733  45.193  1.00  0.00     0.218 HD
ENDBRANCH  38  43
BRANCH  40  45
HETATM   45  O4  UNL     1      15.454 -18.088  46.330  1.00  0.00    -0.283 OA
ATOM     46  H4  UNL     1      15.438 -18.967  45.969  1.00  0.00     0.245 HD
ENDBRANCH  40  45
ENDBRANCH  16  36
ENDBRANCH  12  16
ENDBRANCH   7   8
ENDBRANCH   4   7
ENDBRANCH   3   4
TORSDOF 12
ENDMDL
