MODEL 1
REMARK VINA RESULT: -9.886216480      0.000      0.000
REMARK  13 active torsions:
REMARK  status: ('A' for Active; 'I' for Inactive)
REMARK    1  A    between atoms: C2_2  and  O1_3 
REMARK    2  A    between atoms: C2_2  and  C3_5 
REMARK    3  A    between atoms: C3_5  and  C4_6 
REMARK    4  A    between atoms: C4_6  and  C5_7 
REMARK    5  A    between atoms: C5_7  and  C6_8 
REMARK    6  A    between atoms: C6_8  and  C7_9 
REMARK    7  A    between atoms: C17_22  and  C18_23 
REMARK    8  A    between atoms: C19_24  and  C20_25 
REMARK    9  A    between atoms: C19_24  and  C31_39 
REMARK   10  A    between atoms: C21_26  and  C22_27 
REMARK   11  A    between atoms: C22_27  and  N1_28 
REMARK   12  A    between atoms: C29_35  and  C30_36 
REMARK   13  A    between atoms: C30_36  and  O5_37 
ROOT
HETATM    1  C6  UNL     1      14.574  21.275   5.716  1.00  0.00     0.103 C 
HETATM    2  O2  UNL     1      13.388  21.295   6.510  1.00  0.00    -0.229 OA
HETATM    3  O3  UNL     1      12.306  21.214   5.873  1.00  0.00    -0.234 OA
HETATM    4  C10 UNL     1      11.826  22.322   5.252  1.00  0.00     0.167 C 
HETATM    5  C11 UNL     1      12.359  22.273   3.808  1.00  0.00     0.036 C 
HETATM    6  C12 UNL     1      13.786  22.617   3.695  1.00  0.00     0.010 C 
HETATM    7  C13 UNL     1      14.662  22.506   4.871  1.00  0.00     0.026 C 
HETATM    8  C14 UNL     1      14.578  23.757   5.684  1.00  0.00     0.040 C 
HETATM    9  C15 UNL     1      13.357  23.908   6.513  1.00  0.00     0.136 C 
HETATM   10  O4  UNL     1      13.164  25.327   6.747  1.00  0.00    -0.350 OA
HETATM   11  C16 UNL     1      11.858  25.428   7.157  1.00  0.00     0.047 C 
HETATM   12  C17 UNL     1      11.320  26.470   7.815  1.00  0.00     0.033 C 
HETATM   13  C32 UNL     1      11.086  24.217   6.777  1.00  0.00     0.074 C 
HETATM   14  C33 UNL     1      12.086  23.636   5.769  1.00  0.00     0.053 C 
ENDROOT
BRANCH  12  15
HETATM   15  C18 UNL     1       9.948  26.481   8.201  1.00  0.00     0.018 C 
HETATM   16  C19 UNL     1       8.981  27.126   7.547  1.00  0.00     0.048 C 
BRANCH  16  17
HETATM   17  C20 UNL     1       9.346  27.870   6.363  1.00  0.00     0.017 C 
HETATM   18  C21 UNL     1       8.913  27.572   5.016  1.00  0.00     0.018 C 
BRANCH  18  19
HETATM   19  C22 UNL     1       7.590  27.716   4.430  1.00  0.00     0.090 C 
BRANCH  19  20
HETATM   20  N1  UNL     1       7.314  26.892   3.325  1.00  0.00    -0.363 N 
HETATM   21  C23 UNL     1       6.164  26.157   3.146  1.00  0.00     0.072 C 
HETATM   22  C24 UNL     1       6.373  24.750   2.588  1.00  0.00    -0.015 C 
HETATM   23  C25 UNL     1       5.917  24.767   1.149  1.00  0.00     0.020 C 
HETATM   24  C26 UNL     1       5.510  23.744   3.316  1.00  0.00     0.020 C 
HETATM   25  C27 UNL     1       7.834  24.376   2.612  1.00  0.00     0.016 C 
HETATM   26  C28 UNL     1       8.538  25.411   1.754  1.00  0.00     0.029 C 
HETATM   27  C29 UNL     1       8.400  26.741   2.401  1.00  0.00     0.112 C 
BRANCH  27  28
HETATM   28  C30 UNL     1       8.309  27.844   1.362  1.00  0.00     0.189 C 
BRANCH  28  29
HETATM   29  O5  UNL     1       8.975  28.991   1.811  1.00  0.00    -0.399 OA
ATOM     30  H5  UNL     1       8.679  29.754   1.330  1.00  0.00     0.209 HD
ENDBRANCH  28  29
ENDBRANCH  27  28
ENDBRANCH  19  20
ENDBRANCH  18  19
ENDBRANCH  16  17
BRANCH  16  31
HETATM   31  C31 UNL     1       7.658  27.072   8.180  1.00  0.00     0.417 C 
HETATM   32  F1  UNL     1       6.576  27.234   7.422  1.00  0.00    -0.166 F 
HETATM   33  F2  UNL     1       7.485  25.814   8.826  1.00  0.00    -0.166 F 
HETATM   34  F3  UNL     1       7.662  28.039   9.204  1.00  0.00    -0.166 F 
ENDBRANCH  16  31
ENDBRANCH  12  15
BRANCH   1  35
HETATM   35  C5  UNL     1      14.579  20.005   5.011  1.00  0.00     0.042 C 
BRANCH  35  36
HETATM   36  C4  UNL     1      15.158  19.808   3.682  1.00  0.00     0.006 C 
BRANCH  36  37
HETATM   37  C3  UNL     1      16.012  18.554   3.571  1.00  0.00     0.031 C 
BRANCH  37  38
HETATM   38  C2  UNL     1      17.474  18.840   3.504  1.00  0.00     0.114 C 
HETATM   39  C1  UNL     1      18.224  17.736   4.217  1.00  0.00     0.039 C 
BRANCH  38  40
HETATM   40  O1  UNL     1      17.886  18.921   2.161  1.00  0.00    -0.396 OA
ATOM     41  H1  UNL     1      18.426  19.692   2.028  1.00  0.00     0.210 HD
ENDBRANCH  38  40
ENDBRANCH  37  38
ENDBRANCH  36  37
ENDBRANCH  35  36
ENDBRANCH   1  35
BRANCH   1  42
HETATM   42  C7  UNL     1      15.633  21.388   6.776  1.00  0.00     0.016 C 
HETATM   43  C8  UNL     1      16.808  20.517   6.712  1.00  0.00     0.012 C 
HETATM   44  C9  UNL     1      14.984  21.215   8.173  1.00  0.00     0.012 C 
ENDBRANCH   1  42
TORSDOF 13
ENDMDL
MODEL 2
REMARK VINA RESULT: -9.589130591      1.854      3.065
REMARK  13 active torsions:
REMARK  status: ('A' for Active; 'I' for Inactive)
REMARK    1  A    between atoms: C2_2  and  O1_3 
REMARK    2  A    between atoms: C2_2  and  C3_5 
REMARK    3  A    between atoms: C3_5  and  C4_6 
REMARK    4  A    between atoms: C4_6  and  C5_7 
REMARK    5  A    between atoms: C5_7  and  C6_8 
REMARK    6  A    between atoms: C6_8  and  C7_9 
REMARK    7  A    between atoms: C17_22  and  C18_23 
REMARK    8  A    between atoms: C19_24  and  C20_25 
REMARK    9  A    between atoms: C19_24  and  C31_39 
REMARK   10  A    between atoms: C21_26  and  C22_27 
REMARK   11  A    between atoms: C22_27  and  N1_28 
REMARK   12  A    between atoms: C29_35  and  C30_36 
REMARK   13  A    between atoms: C30_36  and  O5_37 
ROOT
HETATM    1  C6  UNL     1      15.027  21.410   4.627  1.00  0.00     0.103 C 
HETATM    2  O2  UNL     1      14.906  22.826   4.753  1.00  0.00    -0.229 OA
HETATM    3  O3  UNL     1      15.474  23.333   5.755  1.00  0.00    -0.234 OA
HETATM    4  C10 UNL     1      14.868  23.243   6.968  1.00  0.00     0.167 C 
HETATM    5  C11 UNL     1      15.430  21.975   7.637  1.00  0.00     0.036 C 
HETATM    6  C12 UNL     1      14.887  20.725   7.080  1.00  0.00     0.010 C 
HETATM    7  C13 UNL     1      14.296  20.719   5.733  1.00  0.00     0.026 C 
HETATM    8  C14 UNL     1      12.862  21.133   5.809  1.00  0.00     0.040 C 
HETATM    9  C15 UNL     1      12.618  22.584   5.992  1.00  0.00     0.136 C 
HETATM   10  O4  UNL     1      11.310  22.730   6.604  1.00  0.00    -0.350 OA
HETATM   11  C16 UNL     1      11.308  24.011   7.098  1.00  0.00     0.047 C 
HETATM   12  C17 UNL     1      10.218  24.721   7.435  1.00  0.00     0.033 C 
HETATM   13  C32 UNL     1      12.693  24.535   7.222  1.00  0.00     0.074 C 
HETATM   14  C33 UNL     1      13.438  23.201   7.083  1.00  0.00     0.053 C 
ENDROOT
BRANCH  12  15
HETATM   15  C18 UNL     1      10.319  26.050   7.941  1.00  0.00     0.018 C 
HETATM   16  C19 UNL     1       9.340  26.955   7.898  1.00  0.00     0.048 C 
BRANCH  16  17
HETATM   17  C20 UNL     1       8.086  26.566   7.295  1.00  0.00     0.017 C 
HETATM   18  C21 UNL     1       7.391  27.293   6.257  1.00  0.00     0.018 C 
BRANCH  18  19
HETATM   19  C22 UNL     1       7.756  27.461   4.859  1.00  0.00     0.090 C 
BRANCH  19  20
HETATM   20  N1  UNL     1       8.031  26.280   4.150  1.00  0.00    -0.363 N 
HETATM   21  C23 UNL     1       9.106  25.449   4.371  1.00  0.00     0.072 C 
HETATM   22  C24 UNL     1       9.778  24.908   3.110  1.00  0.00    -0.015 C 
HETATM   23  C25 UNL     1       9.395  23.453   2.988  1.00  0.00     0.020 C 
HETATM   24  C26 UNL     1      11.285  24.963   3.232  1.00  0.00     0.020 C 
HETATM   25  C27 UNL     1       9.276  25.628   1.884  1.00  0.00     0.016 C 
HETATM   26  C28 UNL     1       7.778  25.386   1.849  1.00  0.00     0.029 C 
HETATM   27  C29 UNL     1       7.162  26.029   3.037  1.00  0.00     0.112 C 
BRANCH  27  28
HETATM   28  C30 UNL     1       5.964  25.235   3.526  1.00  0.00     0.189 C 
BRANCH  28  29
HETATM   29  O5  UNL     1       6.233  23.862   3.462  1.00  0.00    -0.399 OA
ATOM     30  H5  UNL     1       5.541  23.370   3.888  1.00  0.00     0.209 HD
ENDBRANCH  28  29
ENDBRANCH  27  28
ENDBRANCH  19  20
ENDBRANCH  18  19
ENDBRANCH  16  17
BRANCH  16  31
HETATM   31  C31 UNL     1       9.702  28.287   8.398  1.00  0.00     0.417 C 
HETATM   32  F1  UNL     1       9.668  29.319   7.558  1.00  0.00    -0.166 F 
HETATM   33  F2  UNL     1       8.842  28.646   9.477  1.00  0.00    -0.166 F 
HETATM   34  F3  UNL     1      10.992  28.173   8.949  1.00  0.00    -0.166 F 
ENDBRANCH  16  31
ENDBRANCH  12  15
BRANCH   1  35
HETATM   35  C5  UNL     1      16.447  21.124   4.512  1.00  0.00     0.042 C 
BRANCH  35  36
HETATM   36  C4  UNL     1      17.112  20.002   5.173  1.00  0.00     0.006 C 
BRANCH  36  37
HETATM   37  C3  UNL     1      17.178  18.745   4.317  1.00  0.00     0.031 C 
BRANCH  37  38
HETATM   38  C2  UNL     1      18.502  18.063   4.370  1.00  0.00     0.114 C 
HETATM   39  C1  UNL     1      18.318  16.676   4.946  1.00  0.00     0.039 C 
BRANCH  38  40
HETATM   40  O1  UNL     1      19.054  17.986   3.078  1.00  0.00    -0.396 OA
ATOM     41  H1  UNL     1      20.003  17.990   3.125  1.00  0.00     0.210 HD
ENDBRANCH  38  40
ENDBRANCH  37  38
ENDBRANCH  36  37
ENDBRANCH  35  36
ENDBRANCH   1  35
BRANCH   1  42
HETATM   42  C7  UNL     1      14.252  21.166   3.363  1.00  0.00     0.016 C 
HETATM   43  C8  UNL     1      14.751  20.189   2.393  1.00  0.00     0.012 C 
HETATM   44  C9  UNL     1      14.037  22.510   2.622  1.00  0.00     0.012 C 
ENDBRANCH   1  42
TORSDOF 13
ENDMDL
MODEL 3
REMARK VINA RESULT: -9.344191404      1.891      2.909
REMARK  13 active torsions:
REMARK  status: ('A' for Active; 'I' for Inactive)
REMARK    1  A    between atoms: C2_2  and  O1_3 
REMARK    2  A    between atoms: C2_2  and  C3_5 
REMARK    3  A    between atoms: C3_5  and  C4_6 
REMARK    4  A    between atoms: C4_6  and  C5_7 
REMARK    5  A    between atoms: C5_7  and  C6_8 
REMARK    6  A    between atoms: C6_8  and  C7_9 
REMARK    7  A    between atoms: C17_22  and  C18_23 
REMARK    8  A    between atoms: C19_24  and  C20_25 
REMARK    9  A    between atoms: C19_24  and  C31_39 
REMARK   10  A    between atoms: C21_26  and  C22_27 
REMARK   11  A    between atoms: C22_27  and  N1_28 
REMARK   12  A    between atoms: C29_35  and  C30_36 
REMARK   13  A    between atoms: C30_36  and  O5_37 
ROOT
HETATM    1  C6  UNL     1      15.123  21.311   4.715  1.00  0.00     0.103 C 
HETATM    2  O2  UNL     1      14.994  22.725   4.855  1.00  0.00    -0.229 OA
HETATM    3  O3  UNL     1      15.528  23.221   5.882  1.00  0.00    -0.234 OA
HETATM    4  C10 UNL     1      14.884  23.115   7.073  1.00  0.00     0.167 C 
HETATM    5  C11 UNL     1      15.427  21.839   7.744  1.00  0.00     0.036 C 
HETATM    6  C12 UNL     1      14.905  20.595   7.155  1.00  0.00     0.010 C 
HETATM    7  C13 UNL     1      14.357  20.605   5.789  1.00  0.00     0.026 C 
HETATM    8  C14 UNL     1      12.921  21.016   5.824  1.00  0.00     0.040 C 
HETATM    9  C15 UNL     1      12.668  22.464   6.017  1.00  0.00     0.136 C 
HETATM   10  O4  UNL     1      11.340  22.601   6.588  1.00  0.00    -0.350 OA
HETATM   11  C16 UNL     1      11.320  23.875   7.097  1.00  0.00     0.047 C 
HETATM   12  C17 UNL     1      10.218  24.579   7.407  1.00  0.00     0.033 C 
HETATM   13  C32 UNL     1      12.699  24.400   7.272  1.00  0.00     0.074 C 
HETATM   14  C33 UNL     1      13.451  23.069   7.141  1.00  0.00     0.053 C 
ENDROOT
BRANCH  12  15
HETATM   15  C18 UNL     1      10.300  25.902   7.932  1.00  0.00     0.018 C 
HETATM   16  C19 UNL     1       9.410  26.867   7.699  1.00  0.00     0.048 C 
BRANCH  16  17
HETATM   17  C20 UNL     1       8.281  26.556   6.853  1.00  0.00     0.017 C 
HETATM   18  C21 UNL     1       7.893  27.285   5.666  1.00  0.00     0.018 C 
BRANCH  18  19
HETATM   19  C22 UNL     1       8.561  27.348   4.375  1.00  0.00     0.090 C 
BRANCH  19  20
HETATM   20  N1  UNL     1       8.098  26.449   3.400  1.00  0.00    -0.363 N 
HETATM   21  C23 UNL     1       6.924  26.575   2.692  1.00  0.00     0.072 C 
HETATM   22  C24 UNL     1       6.139  25.278   2.500  1.00  0.00    -0.015 C 
HETATM   23  C25 UNL     1       6.308  24.863   1.057  1.00  0.00     0.020 C 
HETATM   24  C26 UNL     1       4.661  25.499   2.728  1.00  0.00     0.020 C 
HETATM   25  C27 UNL     1       6.696  24.181   3.370  1.00  0.00     0.016 C 
HETATM   26  C28 UNL     1       8.142  24.010   2.943  1.00  0.00     0.029 C 
HETATM   27  C29 UNL     1       8.883  25.258   3.257  1.00  0.00     0.112 C 
BRANCH  27  28
HETATM   28  C30 UNL     1       9.973  25.515   2.231  1.00  0.00     0.189 C 
BRANCH  28  29
HETATM   29  O5  UNL     1      11.225  25.571   2.856  1.00  0.00    -0.399 OA
ATOM     30  H5  UNL     1      11.370  26.433   3.226  1.00  0.00     0.209 HD
ENDBRANCH  28  29
ENDBRANCH  27  28
ENDBRANCH  19  20
ENDBRANCH  18  19
ENDBRANCH  16  17
BRANCH  16  31
HETATM   31  C31 UNL     1       9.748  28.177   8.271  1.00  0.00     0.417 C 
HETATM   32  F1  UNL     1       9.718  29.249   7.483  1.00  0.00    -0.166 F 
HETATM   33  F2  UNL     1       8.865  28.472   9.350  1.00  0.00    -0.166 F 
HETATM   34  F3  UNL     1      11.030  28.048   8.840  1.00  0.00    -0.166 F 
ENDBRANCH  16  31
ENDBRANCH  12  15
BRANCH   1  35
HETATM   35  C5  UNL     1      16.546  21.029   4.643  1.00  0.00     0.042 C 
BRANCH  35  36
HETATM   36  C4  UNL     1      17.138  19.723   4.931  1.00  0.00     0.006 C 
BRANCH  36  37
HETATM   37  C3  UNL     1      18.626  19.784   5.239  1.00  0.00     0.031 C 
BRANCH  37  38
HETATM   38  C2  UNL     1      18.923  20.181   6.644  1.00  0.00     0.114 C 
HETATM   39  C1  UNL     1      18.619  19.015   7.559  1.00  0.00     0.039 C 
BRANCH  38  40
HETATM   40  O1  UNL     1      20.274  20.556   6.763  1.00  0.00    -0.396 OA
ATOM     41  H1  UNL     1      20.442  21.346   6.263  1.00  0.00     0.210 HD
ENDBRANCH  38  40
ENDBRANCH  37  38
ENDBRANCH  36  37
ENDBRANCH  35  36
ENDBRANCH   1  35
BRANCH   1  42
HETATM   42  C7  UNL     1      14.389  21.081   3.424  1.00  0.00     0.016 C 
HETATM   43  C8  UNL     1      14.894  20.081   2.482  1.00  0.00     0.012 C 
HETATM   44  C9  UNL     1      14.247  22.425   2.666  1.00  0.00     0.012 C 
ENDBRANCH   1  42
TORSDOF 13
ENDMDL
MODEL 4
REMARK VINA RESULT: -9.335761170      1.696      2.698
REMARK  13 active torsions:
REMARK  status: ('A' for Active; 'I' for Inactive)
REMARK    1  A    between atoms: C2_2  and  O1_3 
REMARK    2  A    between atoms: C2_2  and  C3_5 
REMARK    3  A    between atoms: C3_5  and  C4_6 
REMARK    4  A    between atoms: C4_6  and  C5_7 
REMARK    5  A    between atoms: C5_7  and  C6_8 
REMARK    6  A    between atoms: C6_8  and  C7_9 
REMARK    7  A    between atoms: C17_22  and  C18_23 
REMARK    8  A    between atoms: C19_24  and  C20_25 
REMARK    9  A    between atoms: C19_24  and  C31_39 
REMARK   10  A    between atoms: C21_26  and  C22_27 
REMARK   11  A    between atoms: C22_27  and  N1_28 
REMARK   12  A    between atoms: C29_35  and  C30_36 
REMARK   13  A    between atoms: C30_36  and  O5_37 
ROOT
HETATM    1  C6  UNL     1      15.024  21.402   4.659  1.00  0.00     0.103 C 
HETATM    2  O2  UNL     1      14.878  22.815   4.798  1.00  0.00    -0.229 OA
HETATM    3  O3  UNL     1      15.433  23.320   5.809  1.00  0.00    -0.234 OA
HETATM    4  C10 UNL     1      14.823  23.209   7.017  1.00  0.00     0.167 C 
HETATM    5  C11 UNL     1      15.402  21.943   7.677  1.00  0.00     0.036 C 
HETATM    6  C12 UNL     1      14.882  20.690   7.105  1.00  0.00     0.010 C 
HETATM    7  C13 UNL     1      14.298  20.688   5.754  1.00  0.00     0.026 C 
HETATM    8  C14 UNL     1      12.857  21.078   5.827  1.00  0.00     0.040 C 
HETATM    9  C15 UNL     1      12.588  22.523   6.023  1.00  0.00     0.136 C 
HETATM   10  O4  UNL     1      11.275  22.642   6.630  1.00  0.00    -0.350 OA
HETATM   11  C16 UNL     1      11.250  23.918   7.136  1.00  0.00     0.047 C 
HETATM   12  C17 UNL     1      10.147  24.607   7.474  1.00  0.00     0.033 C 
HETATM   13  C32 UNL     1      12.626  24.463   7.273  1.00  0.00     0.074 C 
HETATM   14  C33 UNL     1      13.393  23.142   7.125  1.00  0.00     0.053 C 
ENDROOT
BRANCH  12  15
HETATM   15  C18 UNL     1      10.224  25.932   7.994  1.00  0.00     0.018 C 
HETATM   16  C19 UNL     1       9.350  26.903   7.728  1.00  0.00     0.048 C 
BRANCH  16  17
HETATM   17  C20 UNL     1       8.245  26.596   6.849  1.00  0.00     0.017 C 
HETATM   18  C21 UNL     1       7.927  27.293   5.622  1.00  0.00     0.018 C 
BRANCH  18  19
HETATM   19  C22 UNL     1       8.646  27.288   4.358  1.00  0.00     0.090 C 
BRANCH  19  20
HETATM   20  N1  UNL     1       8.171  26.392   3.385  1.00  0.00    -0.363 N 
HETATM   21  C23 UNL     1       6.954  26.480   2.747  1.00  0.00     0.072 C 
HETATM   22  C24 UNL     1       6.220  25.153   2.562  1.00  0.00    -0.015 C 
HETATM   23  C25 UNL     1       6.327  24.782   1.102  1.00  0.00     0.020 C 
HETATM   24  C26 UNL     1       4.748  25.298   2.878  1.00  0.00     0.020 C 
HETATM   25  C27 UNL     1       6.875  24.062   3.370  1.00  0.00     0.016 C 
HETATM   26  C28 UNL     1       8.301  23.970   2.859  1.00  0.00     0.029 C 
HETATM   27  C29 UNL     1       9.001  25.244   3.166  1.00  0.00     0.112 C 
BRANCH  27  28
HETATM   28  C30 UNL     1      10.018  25.579   2.090  1.00  0.00     0.189 C 
BRANCH  28  29
HETATM   29  O5  UNL     1      11.317  25.493   2.605  1.00  0.00    -0.399 OA
ATOM     30  H5  UNL     1      11.779  26.312   2.472  1.00  0.00     0.209 HD
ENDBRANCH  28  29
ENDBRANCH  27  28
ENDBRANCH  19  20
ENDBRANCH  18  19
ENDBRANCH  16  17
BRANCH  16  31
HETATM   31  C31 UNL     1       9.681  28.213   8.302  1.00  0.00     0.417 C 
HETATM   32  F1  UNL     1       9.674  29.282   7.509  1.00  0.00    -0.166 F 
HETATM   33  F2  UNL     1       8.776  28.517   9.360  1.00  0.00    -0.166 F 
HETATM   34  F3  UNL     1      10.950  28.082   8.899  1.00  0.00    -0.166 F 
ENDBRANCH  16  31
ENDBRANCH  12  15
BRANCH   1  35
HETATM   35  C5  UNL     1      16.448  21.140   4.549  1.00  0.00     0.042 C 
BRANCH  35  36
HETATM   36  C4  UNL     1      17.136  20.047   5.237  1.00  0.00     0.006 C 
BRANCH  36  37
HETATM   37  C3  UNL     1      17.903  19.127   4.299  1.00  0.00     0.031 C 
BRANCH  37  38
HETATM   38  C2  UNL     1      17.115  17.938   3.864  1.00  0.00     0.114 C 
HETATM   39  C1  UNL     1      17.541  17.551   2.465  1.00  0.00     0.039 C 
BRANCH  38  40
HETATM   40  O1  UNL     1      17.328  16.869   4.753  1.00  0.00    -0.396 OA
ATOM     41  H1  UNL     1      16.646  16.848   5.414  1.00  0.00     0.210 HD
ENDBRANCH  38  40
ENDBRANCH  37  38
ENDBRANCH  36  37
ENDBRANCH  35  36
ENDBRANCH   1  35
BRANCH   1  42
HETATM   42  C7  UNL     1      14.259  21.157   3.388  1.00  0.00     0.016 C 
HETATM   43  C8  UNL     1      14.800  20.231   2.393  1.00  0.00     0.012 C 
HETATM   44  C9  UNL     1      13.984  22.511   2.684  1.00  0.00     0.012 C 
ENDBRANCH   1  42
TORSDOF 13
ENDMDL
MODEL 5
REMARK VINA RESULT: -9.272766286      5.007     10.804
REMARK  13 active torsions:
REMARK  status: ('A' for Active; 'I' for Inactive)
REMARK    1  A    between atoms: C2_2  and  O1_3 
REMARK    2  A    between atoms: C2_2  and  C3_5 
REMARK    3  A    between atoms: C3_5  and  C4_6 
REMARK    4  A    between atoms: C4_6  and  C5_7 
REMARK    5  A    between atoms: C5_7  and  C6_8 
REMARK    6  A    between atoms: C6_8  and  C7_9 
REMARK    7  A    between atoms: C17_22  and  C18_23 
REMARK    8  A    between atoms: C19_24  and  C20_25 
REMARK    9  A    between atoms: C19_24  and  C31_39 
REMARK   10  A    between atoms: C21_26  and  C22_27 
REMARK   11  A    between atoms: C22_27  and  N1_28 
REMARK   12  A    between atoms: C29_35  and  C30_36 
REMARK   13  A    between atoms: C30_36  and  O5_37 
ROOT
HETATM    1  C6  UNL     1      10.988  23.928   5.409  1.00  0.00     0.103 C 
HETATM    2  O2  UNL     1      11.057  22.505   5.324  1.00  0.00    -0.229 OA
HETATM    3  O3  UNL     1      11.487  21.920   6.352  1.00  0.00    -0.234 OA
HETATM    4  C10 UNL     1      12.825  21.902   6.586  1.00  0.00     0.167 C 
HETATM    5  C11 UNL     1      13.121  23.113   7.490  1.00  0.00     0.036 C 
HETATM    6  C12 UNL     1      13.088  24.401   6.778  1.00  0.00     0.010 C 
HETATM    7  C13 UNL     1      12.359  24.517   5.505  1.00  0.00     0.026 C 
HETATM    8  C14 UNL     1      13.240  24.086   4.378  1.00  0.00     0.040 C 
HETATM    9  C15 UNL     1      13.426  22.623   4.226  1.00  0.00     0.136 C 
HETATM   10  O4  UNL     1      14.682  22.414   3.529  1.00  0.00    -0.350 OA
HETATM   11  C16 UNL     1      14.985  21.096   3.764  1.00  0.00     0.047 C 
HETATM   12  C17 UNL     1      15.850  20.351   3.054  1.00  0.00     0.033 C 
HETATM   13  C32 UNL     1      14.225  20.575   4.929  1.00  0.00     0.074 C 
HETATM   14  C33 UNL     1      13.769  21.922   5.505  1.00  0.00     0.053 C 
ENDROOT
BRANCH  12  15
HETATM   15  C18 UNL     1      16.098  18.985   3.377  1.00  0.00     0.018 C 
HETATM   16  C19 UNL     1      17.136  18.551   4.093  1.00  0.00     0.048 C 
BRANCH  16  17
HETATM   17  C20 UNL     1      18.080  19.532   4.577  1.00  0.00     0.017 C 
HETATM   18  C21 UNL     1      18.293  19.880   5.964  1.00  0.00     0.018 C 
BRANCH  18  19
HETATM   19  C22 UNL     1      18.910  19.091   7.019  1.00  0.00     0.090 C 
BRANCH  19  20
HETATM   20  N1  UNL     1      18.488  19.380   8.328  1.00  0.00    -0.363 N 
HETATM   21  C23 UNL     1      18.928  18.743   9.466  1.00  0.00     0.072 C 
HETATM   22  C24 UNL     1      17.844  18.435  10.498  1.00  0.00    -0.015 C 
HETATM   23  C25 UNL     1      18.028  19.401  11.644  1.00  0.00     0.020 C 
HETATM   24  C26 UNL     1      18.011  17.041  11.060  1.00  0.00     0.020 C 
HETATM   25  C27 UNL     1      16.471  18.657   9.915  1.00  0.00     0.016 C 
HETATM   26  C28 UNL     1      16.431  20.117   9.503  1.00  0.00     0.029 C 
HETATM   27  C29 UNL     1      17.424  20.336   8.421  1.00  0.00     0.112 C 
BRANCH  27  28
HETATM   28  C30 UNL     1      18.026  21.727   8.509  1.00  0.00     0.189 C 
BRANCH  28  29
HETATM   29  O5  UNL     1      17.191  22.659   7.881  1.00  0.00    -0.399 OA
ATOM     30  H5  UNL     1      17.632  23.497   7.804  1.00  0.00     0.209 HD
ENDBRANCH  28  29
ENDBRANCH  27  28
ENDBRANCH  19  20
ENDBRANCH  18  19
ENDBRANCH  16  17
BRANCH  16  31
HETATM   31  C31 UNL     1      17.238  17.092   4.222  1.00  0.00     0.417 C 
HETATM   32  F1  UNL     1      18.043  16.584   5.152  1.00  0.00    -0.166 F 
HETATM   33  F2  UNL     1      15.950  16.543   4.491  1.00  0.00    -0.166 F 
HETATM   34  F3  UNL     1      17.614  16.602   2.957  1.00  0.00    -0.166 F 
ENDBRANCH  16  31
ENDBRANCH  12  15
BRANCH   1  35
HETATM   35  C5  UNL     1      10.075  24.234   6.497  1.00  0.00     0.042 C 
BRANCH  35  36
HETATM   36  C4  UNL     1      10.337  25.237   7.529  1.00  0.00     0.006 C 
BRANCH  36  37
HETATM   37  C3  UNL     1       9.651  26.570   7.269  1.00  0.00     0.031 C 
BRANCH  37  38
HETATM   38  C2  UNL     1       9.841  27.556   8.371  1.00  0.00     0.114 C 
HETATM   39  C1  UNL     1      11.215  27.362   8.973  1.00  0.00     0.039 C 
BRANCH  38  40
HETATM   40  O1  UNL     1       9.706  28.865   7.873  1.00  0.00    -0.396 OA
ATOM     41  H1  UNL     1       9.232  28.857   7.049  1.00  0.00     0.210 HD
ENDBRANCH  38  40
ENDBRANCH  37  38
ENDBRANCH  36  37
ENDBRANCH  35  36
ENDBRANCH   1  35
BRANCH   1  42
HETATM   42  C7  UNL     1      10.452  24.272   4.048  1.00  0.00     0.016 C 
HETATM   43  C8  UNL     1       9.487  25.365   3.913  1.00  0.00     0.012 C 
HETATM   44  C9  UNL     1       9.835  23.006   3.401  1.00  0.00     0.012 C 
ENDBRANCH   1  42
TORSDOF 13
ENDMDL
