MODEL 1
REMARK VINA RESULT: -4.861426168      0.000      0.000
REMARK  2 active torsions:
REMARK  status: ('A' for Active; 'I' for Inactive)
REMARK    1  A    between atoms: C2_2  and  C3_3 
REMARK    2  A    between atoms: C4_4  and  C5_5 
ROOT
HETATM    1  C5  UNL     1      59.197  -3.488  -1.401  1.00  0.00     0.149 C 
HETATM    2  C6  UNL     1      58.048  -2.625  -0.864  1.00  0.00     0.062 C 
HETATM    3  C7  UNL     1      56.778  -3.226  -1.435  1.00  0.00     0.173 C 
HETATM    4  O1  UNL     1      56.840  -3.264  -2.825  1.00  0.00    -0.367 OA
HETATM    5  C8  UNL     1      57.981  -3.900  -3.264  1.00  0.00     0.338 C 
HETATM    6  O2  UNL     1      59.156  -3.353  -2.789  1.00  0.00    -0.358 OA
ENDROOT
BRANCH   1   7
HETATM    7  C4  UNL     1      60.492  -3.032  -0.891  1.00  0.00     0.005 C 
HETATM    8  C3  UNL     1      61.270  -3.779  -0.139  1.00  0.00    -0.002 C 
BRANCH   8   9
HETATM    9  C2  UNL     1      60.893  -5.130   0.241  1.00  0.00    -0.010 C 
HETATM   10  C1  UNL     1      61.166  -6.190  -0.492  1.00  0.00     0.011 C 
ENDBRANCH   8   9
ENDBRANCH   1   7
TORSDOF 2
ENDMDL
MODEL 2
REMARK VINA RESULT: -4.783645518      1.221      1.405
REMARK  2 active torsions:
REMARK  status: ('A' for Active; 'I' for Inactive)
REMARK    1  A    between atoms: C2_2  and  C3_3 
REMARK    2  A    between atoms: C4_4  and  C5_5 
ROOT
HETATM    1  C5  UNL     1      58.346  -3.701  -2.026  1.00  0.00     0.149 C 
HETATM    2  C6  UNL     1      57.760  -2.840  -0.901  1.00  0.00     0.062 C 
HETATM    3  C7  UNL     1      56.320  -3.288  -0.746  1.00  0.00     0.173 C 
HETATM    4  O1  UNL     1      55.638  -3.161  -1.953  1.00  0.00    -0.367 OA
HETATM    5  C8  UNL     1      56.296  -3.808  -2.977  1.00  0.00     0.338 C 
HETATM    6  O2  UNL     1      57.600  -3.397  -3.165  1.00  0.00    -0.358 OA
ENDROOT
BRANCH   1   7
HETATM    7  C4  UNL     1      59.760  -3.392  -2.256  1.00  0.00     0.005 C 
HETATM    8  C3  UNL     1      60.729  -4.248  -2.019  1.00  0.00    -0.002 C 
BRANCH   8   9
HETATM    9  C2  UNL     1      60.461  -5.581  -1.507  1.00  0.00    -0.010 C 
HETATM   10  C1  UNL     1      61.083  -6.094  -0.467  1.00  0.00     0.011 C 
ENDBRANCH   8   9
ENDBRANCH   1   7
TORSDOF 2
ENDMDL
MODEL 3
REMARK VINA RESULT: -4.726908377      2.782      3.193
REMARK  2 active torsions:
REMARK  status: ('A' for Active; 'I' for Inactive)
REMARK    1  A    between atoms: C2_2  and  C3_3 
REMARK    2  A    between atoms: C4_4  and  C5_5 
ROOT
HETATM    1  C5  UNL     1      59.326  -4.069   1.126  1.00  0.00     0.149 C 
HETATM    2  C6  UNL     1      59.166  -3.574   2.569  1.00  0.00     0.062 C 
HETATM    3  C7  UNL     1      57.810  -4.074   3.029  1.00  0.00     0.173 C 
HETATM    4  O1  UNL     1      56.809  -3.622   2.174  1.00  0.00    -0.367 OA
HETATM    5  C8  UNL     1      57.083  -3.940   0.861  1.00  0.00     0.338 C 
HETATM    6  O2  UNL     1      58.297  -3.468   0.402  1.00  0.00    -0.358 OA
ENDROOT
BRANCH   1   7
HETATM    7  C4  UNL     1      60.625  -3.680   0.569  1.00  0.00     0.005 C 
HETATM    8  C3  UNL     1      61.371  -4.494  -0.144  1.00  0.00    -0.002 C 
BRANCH   8   9
HETATM    9  C2  UNL     1      60.954  -5.855  -0.433  1.00  0.00    -0.010 C 
HETATM   10  C1  UNL     1      60.630  -6.270  -1.640  1.00  0.00     0.011 C 
ENDBRANCH   8   9
ENDBRANCH   1   7
TORSDOF 2
ENDMDL
MODEL 4
REMARK VINA RESULT: -4.713024605      3.110      4.038
REMARK  2 active torsions:
REMARK  status: ('A' for Active; 'I' for Inactive)
REMARK    1  A    between atoms: C2_2  and  C3_3 
REMARK    2  A    between atoms: C4_4  and  C5_5 
ROOT
HETATM    1  C5  UNL     1      59.462  -5.274   0.731  1.00  0.00     0.149 C 
HETATM    2  C6  UNL     1      58.617  -6.181   1.635  1.00  0.00     0.062 C 
HETATM    3  C7  UNL     1      57.563  -5.283   2.251  1.00  0.00     0.173 C 
HETATM    4  O1  UNL     1      58.161  -4.225   2.930  1.00  0.00    -0.367 OA
HETATM    5  C8  UNL     1      59.046  -3.541   2.124  1.00  0.00     0.338 C 
HETATM    6  O2  UNL     1      60.039  -4.327   1.576  1.00  0.00    -0.358 OA
ENDROOT
BRANCH   1   7
HETATM    7  C4  UNL     1      60.507  -6.033   0.039  1.00  0.00     0.005 C 
HETATM    8  C3  UNL     1      60.849  -5.808  -1.211  1.00  0.00    -0.002 C 
BRANCH   8   9
HETATM    9  C2  UNL     1      60.204  -4.774  -2.002  1.00  0.00    -0.010 C 
HETATM   10  C1  UNL     1      60.670  -3.547  -2.105  1.00  0.00     0.011 C 
ENDBRANCH   8   9
ENDBRANCH   1   7
TORSDOF 2
ENDMDL
MODEL 5
REMARK VINA RESULT: -4.697514266      1.957      2.476
REMARK  2 active torsions:
REMARK  status: ('A' for Active; 'I' for Inactive)
REMARK    1  A    between atoms: C2_2  and  C3_3 
REMARK    2  A    between atoms: C4_4  and  C5_5 
ROOT
HETATM    1  C5  UNL     1      59.389  -3.030  -0.627  1.00  0.00     0.149 C 
HETATM    2  C6  UNL     1      59.815  -1.848   0.253  1.00  0.00     0.062 C 
HETATM    3  C7  UNL     1      58.795  -1.777   1.372  1.00  0.00     0.173 C 
HETATM    4  O1  UNL     1      57.510  -1.645   0.851  1.00  0.00    -0.367 OA
HETATM    5  C8  UNL     1      57.233  -2.634  -0.069  1.00  0.00     0.338 C 
HETATM    6  O2  UNL     1      58.126  -2.701  -1.119  1.00  0.00    -0.358 OA
ENDROOT
BRANCH   1   7
HETATM    7  C4  UNL     1      60.323  -3.233  -1.738  1.00  0.00     0.005 C 
HETATM    8  C3  UNL     1      60.788  -4.415  -2.076  1.00  0.00    -0.002 C 
BRANCH   8   9
HETATM    9  C2  UNL     1      60.402  -5.620  -1.360  1.00  0.00    -0.010 C 
HETATM   10  C1  UNL     1      61.131  -6.156  -0.404  1.00  0.00     0.011 C 
ENDBRANCH   8   9
ENDBRANCH   1   7
TORSDOF 2
ENDMDL
