MODEL 1
REMARK VINA RESULT: -7.781561776      0.000      0.000
REMARK  7 active torsions:
REMARK  status: ('A' for Active; 'I' for Inactive)
REMARK    1  A    between atoms: N1_2  and  C2_5 
REMARK    2  A    between atoms: C2_5  and  C4_7 
REMARK       I    between atoms: C4_7  and  N2_9 
REMARK    3  A    between atoms: N3_12  and  C7_13 
REMARK    4  A    between atoms: C7_13  and  C8_14 
REMARK    5  A    between atoms: C7_13  and  C17_29 
REMARK       I    between atoms: C8_14  and  N4_16 
REMARK    6  A    between atoms: N4_16  and  C9_18 
REMARK    7  A    between atoms: N6_26  and  O3_27 
ROOT
HETATM    1  C7  UNL     1      17.863 -15.854  22.934  1.00  0.00     0.176 C 
ENDROOT
BRANCH   1   2
HETATM    2  N3  UNL     1      19.007 -15.039  23.052  1.00  0.00    -0.396 N 
HETATM    3  C6  UNL     1      20.276 -15.410  22.619  1.00  0.00     0.137 C 
HETATM    4  C5  UNL     1      21.384 -14.552  23.308  1.00  0.00     0.145 C 
HETATM    5  N2  UNL     1      21.397 -15.053  24.659  1.00  0.00    -0.343 N 
HETATM    6  C4  UNL     1      22.603 -15.358  25.286  1.00  0.00     0.250 C 
HETATM    7  C23 UNL     1      20.090 -15.204  25.275  1.00  0.00     0.100 C 
HETATM    8  O1  UNL     1      22.605 -15.804  26.457  1.00  0.00    -0.271 OA
HETATM    9  C22 UNL     1      19.113 -14.462  24.379  1.00  0.00     0.142 C 
HETATM   10  C24 UNL     1      20.125 -14.538  26.608  1.00  0.00     0.034 C 
BRANCH   6  11
HETATM   11  C2  UNL     1      23.912 -15.173  24.611  1.00  0.00     0.272 C 
HETATM   12  C3  UNL     1      24.294 -13.691  24.714  1.00  0.00     0.050 C 
BRANCH  11  13
HETATM   13  N1  UNL     1      24.970 -15.894  25.336  1.00  0.00    -0.067 N 
HETATM   14  C1  UNL     1      25.581 -16.829  24.411  1.00  0.00     0.267 C 
ATOM     15  H12 UNL     1      24.632 -16.343  26.187  1.00  0.00     0.277 HD
ATOM     16  H11 UNL     1      25.647 -15.269  25.773  1.00  0.00     0.277 HD
ENDBRANCH  11  13
ENDBRANCH   6  11
ENDBRANCH   1   2
BRANCH   1  17
HETATM   17  C8  UNL     1      16.855 -14.969  22.227  1.00  0.00     0.241 C 
HETATM   18  O2  UNL     1      17.369 -14.253  21.294  1.00  0.00    -0.271 OA
HETATM   19  N4  UNL     1      15.495 -14.885  22.512  1.00  0.00    -0.353 N 
ATOM     20  H4  UNL     1      15.095 -15.452  23.259  1.00  0.00     0.163 HD
BRANCH  19  21
HETATM   21  C9  UNL     1      14.650 -13.994  21.750  1.00  0.00     0.107 C 
HETATM   22  C10 UNL     1      13.760 -14.780  20.787  1.00  0.00     0.050 C 
HETATM   23  C11 UNL     1      12.656 -13.723  20.605  1.00  0.00     0.117 C 
HETATM   24  C12 UNL     1      13.220 -12.512  19.964  1.00  0.00     0.294 C 
HETATM   25  N6  UNL     1      12.317 -13.549  22.025  1.00  0.00    -0.183 NA
HETATM   26  N5  UNL     1      13.768 -11.513  20.785  1.00  0.00     0.087 N 
HETATM   27  C13 UNL     1      13.262 -10.205  20.460  1.00  0.00     0.310 C 
HETATM   28  C14 UNL     1      13.838 -11.745  22.171  1.00  0.00     0.295 C 
HETATM   29  C15 UNL     1      13.658 -13.223  22.542  1.00  0.00     0.137 C 
BRANCH  25  30
HETATM   30  O3  UNL     1      11.532 -12.453  22.095  1.00  0.00    -0.308 OA
HETATM   31  C16 UNL     1      10.800 -12.429  23.252  1.00  0.00     0.229 C 
ENDBRANCH  25  30
ENDBRANCH  19  21
ENDBRANCH   1  17
BRANCH   1  32
HETATM   32  C17 UNL     1      17.968 -17.067  22.098  1.00  0.00     0.021 C 
HETATM   33  C18 UNL     1      18.600 -18.281  22.698  1.00  0.00     0.033 C 
HETATM   34  C19 UNL     1      18.088 -19.518  21.981  1.00  0.00     0.168 C 
HETATM   35  O4  UNL     1      16.785 -19.747  22.433  1.00  0.00    -0.391 OA
HETATM   36  C20 UNL     1      16.129 -18.552  22.591  1.00  0.00     0.168 C 
HETATM   37  C21 UNL     1      16.644 -17.522  21.562  1.00  0.00     0.033 C 
ENDBRANCH   1  32
TORSDOF 7
ENDMDL
MODEL 2
REMARK VINA RESULT: -7.509536514      3.452      5.346
REMARK  7 active torsions:
REMARK  status: ('A' for Active; 'I' for Inactive)
REMARK    1  A    between atoms: N1_2  and  C2_5 
REMARK    2  A    between atoms: C2_5  and  C4_7 
REMARK       I    between atoms: C4_7  and  N2_9 
REMARK    3  A    between atoms: N3_12  and  C7_13 
REMARK    4  A    between atoms: C7_13  and  C8_14 
REMARK    5  A    between atoms: C7_13  and  C17_29 
REMARK       I    between atoms: C8_14  and  N4_16 
REMARK    6  A    between atoms: N4_16  and  C9_18 
REMARK    7  A    between atoms: N6_26  and  O3_27 
ROOT
HETATM    1  C7  UNL     1      19.090 -15.895  24.078  1.00  0.00     0.176 C 
ENDROOT
BRANCH   1   2
HETATM    2  N3  UNL     1      18.325 -16.943  24.629  1.00  0.00    -0.396 N 
HETATM    3  C6  UNL     1      17.928 -17.002  25.961  1.00  0.00     0.137 C 
HETATM    4  C5  UNL     1      17.544 -18.458  26.374  1.00  0.00     0.145 C 
HETATM    5  N2  UNL     1      18.816 -19.130  26.436  1.00  0.00    -0.343 N 
HETATM    6  C4  UNL     1      19.133 -19.940  27.526  1.00  0.00     0.250 C 
HETATM    7  C23 UNL     1      19.697 -18.892  25.306  1.00  0.00     0.100 C 
HETATM    8  O1  UNL     1      20.247 -20.512  27.577  1.00  0.00    -0.271 OA
HETATM    9  C22 UNL     1      18.841 -18.240  24.235  1.00  0.00     0.142 C 
HETATM   10  C24 UNL     1      20.178 -20.211  24.805  1.00  0.00     0.034 C 
BRANCH   6  11
HETATM   11  C2  UNL     1      18.188 -20.156  28.648  1.00  0.00     0.272 C 
HETATM   12  C3  UNL     1      18.428 -21.565  29.206  1.00  0.00     0.050 C 
BRANCH  11  13
HETATM   13  N1  UNL     1      18.497 -19.245  29.763  1.00  0.00    -0.067 N 
HETATM   14  C1  UNL     1      18.876 -20.055  30.904  1.00  0.00     0.267 C 
ATOM     15  H12 UNL     1      17.733 -18.601  29.970  1.00  0.00     0.277 HD
ATOM     16  H11 UNL     1      19.200 -18.547  29.520  1.00  0.00     0.277 HD
ENDBRANCH  11  13
ENDBRANCH   6  11
ENDBRANCH   1   2
BRANCH   1  17
HETATM   17  C8  UNL     1      18.208 -15.338  22.978  1.00  0.00     0.241 C 
HETATM   18  O2  UNL     1      18.724 -15.443  21.807  1.00  0.00    -0.271 OA
HETATM   19  N4  UNL     1      16.957 -14.751  23.147  1.00  0.00    -0.353 N 
ATOM     20  H4  UNL     1      16.556 -14.666  24.080  1.00  0.00     0.163 HD
BRANCH  19  21
HETATM   21  C9  UNL     1      16.226 -14.264  21.999  1.00  0.00     0.107 C 
HETATM   22  C10 UNL     1      14.718 -14.378  22.227  1.00  0.00     0.050 C 
HETATM   23  C11 UNL     1      14.267 -13.313  21.212  1.00  0.00     0.117 C 
HETATM   24  C12 UNL     1      14.647 -13.729  19.842  1.00  0.00     0.294 C 
HETATM   25  N6  UNL     1      15.060 -12.193  21.740  1.00  0.00    -0.183 NA
HETATM   26  N5  UNL     1      15.916 -13.370  19.360  1.00  0.00     0.087 N 
HETATM   27  C13 UNL     1      15.849 -12.762  18.056  1.00  0.00     0.310 C 
HETATM   28  C14 UNL     1      16.803 -12.706  20.228  1.00  0.00     0.295 C 
HETATM   29  C15 UNL     1      16.393 -12.819  21.703  1.00  0.00     0.137 C 
BRANCH  25  30
HETATM   30  O3  UNL     1      14.998 -11.215  20.813  1.00  0.00    -0.308 OA
HETATM   31  C16 UNL     1      14.052 -10.276  21.130  1.00  0.00     0.229 C 
ENDBRANCH  25  30
ENDBRANCH  19  21
ENDBRANCH   1  17
BRANCH   1  32
HETATM   32  C17 UNL     1      19.401 -14.742  24.948  1.00  0.00     0.021 C 
HETATM   33  C18 UNL     1      20.073 -15.009  26.255  1.00  0.00     0.033 C 
HETATM   34  C19 UNL     1      20.830 -13.767  26.692  1.00  0.00     0.168 C 
HETATM   35  O4  UNL     1      21.983 -13.688  25.905  1.00  0.00    -0.391 OA
HETATM   36  C20 UNL     1      21.697 -14.073  24.619  1.00  0.00     0.168 C 
HETATM   37  C21 UNL     1      20.240 -13.705  24.265  1.00  0.00     0.033 C 
ENDBRANCH   1  32
TORSDOF 7
ENDMDL
MODEL 3
REMARK VINA RESULT: -7.472904792      2.211      3.870
REMARK  7 active torsions:
REMARK  status: ('A' for Active; 'I' for Inactive)
REMARK    1  A    between atoms: N1_2  and  C2_5 
REMARK    2  A    between atoms: C2_5  and  C4_7 
REMARK       I    between atoms: C4_7  and  N2_9 
REMARK    3  A    between atoms: N3_12  and  C7_13 
REMARK    4  A    between atoms: C7_13  and  C8_14 
REMARK    5  A    between atoms: C7_13  and  C17_29 
REMARK       I    between atoms: C8_14  and  N4_16 
REMARK    6  A    between atoms: N4_16  and  C9_18 
REMARK    7  A    between atoms: N6_26  and  O3_27 
ROOT
HETATM    1  C7  UNL     1      18.568 -14.732  21.823  1.00  0.00     0.176 C 
ENDROOT
BRANCH   1   2
HETATM    2  N3  UNL     1      18.648 -15.513  22.993  1.00  0.00    -0.396 N 
HETATM    3  C6  UNL     1      19.391 -15.161  24.115  1.00  0.00     0.137 C 
HETATM    4  C5  UNL     1      19.682 -16.403  25.015  1.00  0.00     0.145 C 
HETATM    5  N2  UNL     1      20.660 -17.139  24.257  1.00  0.00    -0.343 N 
HETATM    6  C4  UNL     1      21.806 -17.635  24.877  1.00  0.00     0.250 C 
HETATM    7  C23 UNL     1      20.353 -17.305  22.847  1.00  0.00     0.100 C 
HETATM    8  O1  UNL     1      22.657 -18.264  24.207  1.00  0.00    -0.271 OA
HETATM    9  C22 UNL     1      18.896 -16.908  22.684  1.00  0.00     0.142 C 
HETATM   10  C24 UNL     1      20.502 -18.748  22.505  1.00  0.00     0.034 C 
BRANCH   6  11
HETATM   11  C2  UNL     1      22.063 -17.445  26.326  1.00  0.00     0.272 C 
HETATM   12  C3  UNL     1      22.463 -18.802  26.919  1.00  0.00     0.050 C 
BRANCH  11  13
HETATM   13  N1  UNL     1      23.234 -16.576  26.530  1.00  0.00    -0.067 N 
HETATM   14  C1  UNL     1      22.838 -15.219  26.208  1.00  0.00     0.267 C 
ATOM     15  H12 UNL     1      24.052 -16.885  26.006  1.00  0.00     0.277 HD
ATOM     16  H11 UNL     1      23.632 -16.662  27.465  1.00  0.00     0.277 HD
ENDBRANCH  11  13
ENDBRANCH   6  11
ENDBRANCH   1   2
BRANCH   1  17
HETATM   17  C8  UNL     1      17.157 -14.175  21.850  1.00  0.00     0.241 C 
HETATM   18  O2  UNL     1      16.730 -13.924  23.034  1.00  0.00    -0.271 OA
HETATM   19  N4  UNL     1      16.346 -13.941  20.744  1.00  0.00    -0.353 N 
ATOM     20  H4  UNL     1      16.690 -14.148  19.807  1.00  0.00     0.163 HD
BRANCH  19  21
HETATM   21  C9  UNL     1      15.017 -13.403  20.922  1.00  0.00     0.107 C 
HETATM   22  C10 UNL     1      14.600 -12.569  19.710  1.00  0.00     0.050 C 
HETATM   23  C11 UNL     1      13.076 -12.657  19.903  1.00  0.00     0.117 C 
HETATM   24  C12 UNL     1      12.691 -12.003  21.175  1.00  0.00     0.294 C 
HETATM   25  N6  UNL     1      12.967 -14.124  19.926  1.00  0.00    -0.183 NA
HETATM   26  N5  UNL     1      12.687 -12.772  22.350  1.00  0.00     0.087 N 
HETATM   27  C13 UNL     1      11.460 -12.627  23.090  1.00  0.00     0.310 C 
HETATM   28  C14 UNL     1      13.133 -14.105  22.283  1.00  0.00     0.295 C 
HETATM   29  C15 UNL     1      13.927 -14.408  21.006  1.00  0.00     0.137 C 
BRANCH  25  30
HETATM   30  O3  UNL     1      11.718 -14.404  20.352  1.00  0.00    -0.308 OA
HETATM   31  C16 UNL     1      11.346 -15.681  20.024  1.00  0.00     0.229 C 
ENDBRANCH  25  30
ENDBRANCH  19  21
ENDBRANCH   1  17
BRANCH   1  32
HETATM   32  C17 UNL     1      19.449 -13.550  21.724  1.00  0.00     0.021 C 
HETATM   33  C18 UNL     1      20.903 -13.778  21.471  1.00  0.00     0.033 C 
HETATM   34  C19 UNL     1      21.497 -12.543  20.815  1.00  0.00     0.168 C 
HETATM   35  O4  UNL     1      21.076 -12.539  19.482  1.00  0.00    -0.391 OA
HETATM   36  C20 UNL     1      19.776 -12.975  19.402  1.00  0.00     0.168 C 
HETATM   37  C21 UNL     1      19.002 -12.575  20.676  1.00  0.00     0.033 C 
ENDBRANCH   1  32
TORSDOF 7
ENDMDL
MODEL 4
REMARK VINA RESULT: -7.466023666      2.812      8.652
REMARK  7 active torsions:
REMARK  status: ('A' for Active; 'I' for Inactive)
REMARK    1  A    between atoms: N1_2  and  C2_5 
REMARK    2  A    between atoms: C2_5  and  C4_7 
REMARK       I    between atoms: C4_7  and  N2_9 
REMARK    3  A    between atoms: N3_12  and  C7_13 
REMARK    4  A    between atoms: C7_13  and  C8_14 
REMARK    5  A    between atoms: C7_13  and  C17_29 
REMARK       I    between atoms: C8_14  and  N4_16 
REMARK    6  A    between atoms: N4_16  and  C9_18 
REMARK    7  A    between atoms: N6_26  and  O3_27 
ROOT
HETATM    1  C7  UNL     1      16.449 -15.155  21.617  1.00  0.00     0.176 C 
ENDROOT
BRANCH   1   2
HETATM    2  N3  UNL     1      16.284 -16.532  21.366  1.00  0.00    -0.396 N 
HETATM    3  C6  UNL     1      15.158 -17.085  20.764  1.00  0.00     0.137 C 
HETATM    4  C5  UNL     1      15.048 -18.613  21.065  1.00  0.00     0.145 C 
HETATM    5  N2  UNL     1      14.664 -18.650  22.453  1.00  0.00    -0.343 N 
HETATM    6  C4  UNL     1      13.626 -19.478  22.875  1.00  0.00     0.250 C 
HETATM    7  C23 UNL     1      15.428 -17.780  23.329  1.00  0.00     0.100 C 
HETATM    8  O1  UNL     1      13.291 -19.496  24.083  1.00  0.00    -0.271 OA
HETATM    9  C22 UNL     1      16.636 -17.329  22.526  1.00  0.00     0.142 C 
HETATM   10  C24 UNL     1      15.895 -18.585  24.493  1.00  0.00     0.034 C 
BRANCH   6  11
HETATM   11  C2  UNL     1      12.886 -20.357  21.936  1.00  0.00     0.272 C 
HETATM   12  C3  UNL     1      13.003 -21.800  22.443  1.00  0.00     0.050 C 
BRANCH  11  13
HETATM   13  N1  UNL     1      11.446 -20.052  21.974  1.00  0.00    -0.067 N 
HETATM   14  C1  UNL     1      11.232 -18.835  21.217  1.00  0.00     0.267 C 
ATOM     15  H12 UNL     1      11.078 -19.998  22.923  1.00  0.00     0.277 HD
ATOM     16  H11 UNL     1      10.869 -20.828  21.649  1.00  0.00     0.277 HD
ENDBRANCH  11  13
ENDBRANCH   6  11
ENDBRANCH   1   2
BRANCH   1  17
HETATM   17  C8  UNL     1      17.494 -15.106  22.716  1.00  0.00     0.241 C 
HETATM   18  O2  UNL     1      17.063 -14.589  23.808  1.00  0.00    -0.271 OA
HETATM   19  N4  UNL     1      18.808 -15.553  22.618  1.00  0.00    -0.353 N 
ATOM     20  H4  UNL     1      19.145 -15.958  21.745  1.00  0.00     0.163 HD
BRANCH  19  21
HETATM   21  C9  UNL     1      19.696 -15.444  23.754  1.00  0.00     0.107 C 
HETATM   22  C10 UNL     1      20.728 -16.573  23.748  1.00  0.00     0.050 C 
HETATM   23  C11 UNL     1      21.796 -15.890  24.621  1.00  0.00     0.117 C 
HETATM   24  C12 UNL     1      21.257 -15.649  25.979  1.00  0.00     0.294 C 
HETATM   25  N6  UNL     1      21.957 -14.671  23.814  1.00  0.00    -0.183 NA
HETATM   26  N5  UNL     1      20.571 -14.449  26.225  1.00  0.00     0.087 N 
HETATM   27  C13 UNL     1      21.051 -13.781  27.407  1.00  0.00     0.310 C 
HETATM   28  C14 UNL     1      20.349 -13.568  25.149  1.00  0.00     0.295 C 
HETATM   29  C15 UNL     1      20.552 -14.232  23.780  1.00  0.00     0.137 C 
BRANCH  25  30
HETATM   30  O3  UNL     1      22.678 -13.813  24.565  1.00  0.00    -0.308 OA
HETATM   31  C16 UNL     1      24.023 -14.037  24.439  1.00  0.00     0.229 C 
ENDBRANCH  25  30
ENDBRANCH  19  21
ENDBRANCH   1  17
BRANCH   1  32
HETATM   32  C17 UNL     1      16.993 -14.319  20.527  1.00  0.00     0.021 C 
HETATM   33  C18 UNL     1      16.202 -14.211  19.264  1.00  0.00     0.033 C 
HETATM   34  C19 UNL     1      16.560 -12.914  18.560  1.00  0.00     0.168 C 
HETATM   35  O4  UNL     1      15.934 -11.877  19.258  1.00  0.00    -0.391 OA
HETATM   36  C20 UNL     1      15.985 -12.127  20.607  1.00  0.00     0.168 C 
HETATM   37  C21 UNL     1      17.269 -12.910  20.955  1.00  0.00     0.033 C 
ENDBRANCH   1  32
TORSDOF 7
ENDMDL
MODEL 5
REMARK VINA RESULT: -7.408799979      3.116      8.979
REMARK  7 active torsions:
REMARK  status: ('A' for Active; 'I' for Inactive)
REMARK    1  A    between atoms: N1_2  and  C2_5 
REMARK    2  A    between atoms: C2_5  and  C4_7 
REMARK       I    between atoms: C4_7  and  N2_9 
REMARK    3  A    between atoms: N3_12  and  C7_13 
REMARK    4  A    between atoms: C7_13  and  C8_14 
REMARK    5  A    between atoms: C7_13  and  C17_29 
REMARK       I    between atoms: C8_14  and  N4_16 
REMARK    6  A    between atoms: N4_16  and  C9_18 
REMARK    7  A    between atoms: N6_26  and  O3_27 
ROOT
HETATM    1  C7  UNL     1      16.273 -15.038  21.641  1.00  0.00     0.176 C 
ENDROOT
BRANCH   1   2
HETATM    2  N3  UNL     1      15.955 -16.406  21.516  1.00  0.00    -0.396 N 
HETATM    3  C6  UNL     1      16.210 -17.165  20.378  1.00  0.00     0.137 C 
HETATM    4  C5  UNL     1      15.331 -18.455  20.349  1.00  0.00     0.145 C 
HETATM    5  N2  UNL     1      14.014 -17.951  20.055  1.00  0.00    -0.343 N 
HETATM    6  C4  UNL     1      13.227 -18.561  19.080  1.00  0.00     0.250 C 
HETATM    7  C23 UNL     1      13.605 -16.797  20.837  1.00  0.00     0.100 C 
HETATM    8  O1  UNL     1      12.087 -18.110  18.823  1.00  0.00    -0.271 OA
HETATM    9  C22 UNL     1      14.607 -16.681  21.973  1.00  0.00     0.142 C 
HETATM   10  C24 UNL     1      12.256 -17.077  21.408  1.00  0.00     0.034 C 
BRANCH   6  11
HETATM   11  C2  UNL     1      13.693 -19.747  18.319  1.00  0.00     0.272 C 
HETATM   12  C3  UNL     1      12.728 -20.905  18.606  1.00  0.00     0.050 C 
BRANCH  11  13
HETATM   13  N1  UNL     1      13.581 -19.504  16.872  1.00  0.00    -0.067 N 
HETATM   14  C1  UNL     1      14.668 -18.626  16.486  1.00  0.00     0.267 C 
ATOM     15  H12 UNL     1      12.666 -19.145  16.600  1.00  0.00     0.277 HD
ATOM     16  H11 UNL     1      13.556 -20.366  16.327  1.00  0.00     0.277 HD
ENDBRANCH  11  13
ENDBRANCH   6  11
ENDBRANCH   1   2
BRANCH   1  17
HETATM   17  C8  UNL     1      17.348 -15.008  22.710  1.00  0.00     0.241 C 
HETATM   18  O2  UNL     1      16.986 -14.401  23.781  1.00  0.00    -0.271 OA
HETATM   19  N4  UNL     1      18.622 -15.558  22.608  1.00  0.00    -0.353 N 
ATOM     20  H4  UNL     1      18.904 -16.034  21.751  1.00  0.00     0.163 HD
BRANCH  19  21
HETATM   21  C9  UNL     1      19.546 -15.454  23.714  1.00  0.00     0.107 C 
HETATM   22  C10 UNL     1      20.560 -16.598  23.685  1.00  0.00     0.050 C 
HETATM   23  C11 UNL     1      21.665 -15.926  24.520  1.00  0.00     0.117 C 
HETATM   24  C12 UNL     1      21.172 -15.667  25.892  1.00  0.00     0.294 C 
HETATM   25  N6  UNL     1      21.820 -14.716  23.698  1.00  0.00    -0.183 NA
HETATM   26  N5  UNL     1      20.513 -14.454  26.149  1.00  0.00     0.087 N 
HETATM   27  C13 UNL     1      21.040 -13.784  27.310  1.00  0.00     0.310 C 
HETATM   28  C14 UNL     1      20.271 -13.578  25.074  1.00  0.00     0.295 C 
HETATM   29  C15 UNL     1      20.421 -14.255  23.705  1.00  0.00     0.137 C 
BRANCH  25  30
HETATM   30  O3  UNL     1      22.576 -13.864  24.420  1.00  0.00    -0.308 OA
HETATM   31  C16 UNL     1      23.900 -14.216  24.394  1.00  0.00     0.229 C 
ENDBRANCH  25  30
ENDBRANCH  19  21
ENDBRANCH   1  17
BRANCH   1  32
HETATM   32  C17 UNL     1      16.870 -14.363  20.470  1.00  0.00     0.021 C 
HETATM   33  C18 UNL     1      16.038 -14.228  19.237  1.00  0.00     0.033 C 
HETATM   34  C19 UNL     1      16.536 -13.045  18.425  1.00  0.00     0.168 C 
HETATM   35  O4  UNL     1      16.097 -11.886  19.070  1.00  0.00    -0.391 OA
HETATM   36  C20 UNL     1      16.182 -12.049  20.431  1.00  0.00     0.168 C 
HETATM   37  C21 UNL     1      17.361 -12.981  20.782  1.00  0.00     0.033 C 
ENDBRANCH   1  32
TORSDOF 7
ENDMDL
