MODEL 1
REMARK VINA RESULT: -8.596008968      0.000      0.000
REMARK  14 active torsions:
REMARK  status: ('A' for Active; 'I' for Inactive)
REMARK    1  A    between atoms: C2_2  and  C3_3 
REMARK    2  A    between atoms: C3_3  and  C4_4 
REMARK    3  A    between atoms: C5_5  and  C6_6 
REMARK    4  A    between atoms: C10_10  and  O1_11 
REMARK    5  A    between atoms: O1_11  and  C11_12 
REMARK    6  A    between atoms: C14_16  and  O3_17 
REMARK    7  A    between atoms: C15_19  and  O4_20 
REMARK    8  A    between atoms: O4_20  and  C16_21 
REMARK    9  A    between atoms: C17_23  and  C18_24 
REMARK   10  A    between atoms: C18_24  and  O6_25 
REMARK   11  A    between atoms: C19_27  and  O7_28 
REMARK   12  A    between atoms: C20_30  and  C21_31 
REMARK   13  A    between atoms: C21_31  and  O8_32 
REMARK   14  A    between atoms: C22_35  and  O10_36 
ROOT
HETATM    1  C11 UNL     1      21.633  65.842  47.334  1.00  0.00     0.291 C 
HETATM    2  O2  UNL     1      21.743  64.460  47.401  1.00  0.00    -0.351 OA
HETATM    3  C12 UNL     1      21.971  63.988  48.678  1.00  0.00     0.152 C 
HETATM    4  C13 UNL     1      20.639  63.933  49.401  1.00  0.00     0.042 C 
HETATM    5  C14 UNL     1      22.952  64.792  49.468  1.00  0.00     0.178 C 
HETATM    6  C15 UNL     1      23.787  65.730  48.643  1.00  0.00     0.191 C 
HETATM    7  C22 UNL     1      23.042  66.392  47.536  1.00  0.00     0.205 C 
ENDROOT
BRANCH   6   8
HETATM    8  O4  UNL     1      24.923  65.127  48.133  1.00  0.00    -0.328 OA
BRANCH   8   9
HETATM    9  C16 UNL     1      25.796  64.641  49.099  1.00  0.00     0.414 C 
HETATM   10  O5  UNL     1      26.444  63.560  48.560  1.00  0.00    -0.329 OA
HETATM   11  C17 UNL     1      27.790  63.712  48.329  1.00  0.00     0.181 C 
HETATM   12  C19 UNL     1      28.521  64.313  49.512  1.00  0.00     0.180 C 
HETATM   13  C20 UNL     1      27.551  65.018  50.447  1.00  0.00     0.181 C 
HETATM   14  O9  UNL     1      26.584  65.606  49.664  1.00  0.00    -0.329 OA
BRANCH  11  15
HETATM   15  C18 UNL     1      28.026  64.519  47.067  1.00  0.00     0.199 C 
BRANCH  15  16
HETATM   16  O6  UNL     1      28.612  65.727  47.435  1.00  0.00    -0.398 OA
ATOM     17  H6  UNL     1      29.440  65.802  46.976  1.00  0.00     0.209 HD
ENDBRANCH  15  16
ENDBRANCH  11  15
BRANCH  12  18
HETATM   18  O7  UNL     1      29.291  63.364  50.175  1.00  0.00    -0.390 OA
ATOM     19  H7  UNL     1      29.094  63.340  51.104  1.00  0.00     0.210 HD
ENDBRANCH  12  18
BRANCH  13  20
HETATM   20  C21 UNL     1      28.278  66.078  51.242  1.00  0.00     0.199 C 
BRANCH  20  21
HETATM   21  O8  UNL     1      27.808  67.328  50.831  1.00  0.00    -0.398 OA
ATOM     22  H8  UNL     1      28.539  67.936  50.838  1.00  0.00     0.209 HD
ENDBRANCH  20  21
ENDBRANCH  13  20
ENDBRANCH   8   9
ENDBRANCH   6   8
BRANCH   5  23
HETATM   23  O3  UNL     1      22.290  65.475  50.489  1.00  0.00    -0.390 OA
ATOM     24  H3  UNL     1      22.870  66.124  50.871  1.00  0.00     0.210 HD
ENDBRANCH   5  23
BRANCH   7  25
HETATM   25  O10 UNL     1      23.712  66.201  46.327  1.00  0.00    -0.388 OA
ATOM     26  H10 UNL     1      24.341  66.908  46.257  1.00  0.00     0.210 HD
ENDBRANCH   7  25
BRANCH   1  27
HETATM   27  O1  UNL     1      21.291  66.167  46.031  1.00  0.00    -0.353 OA
BRANCH  27  28
HETATM   28  C10 UNL     1      20.460  67.251  45.880  1.00  0.00     0.132 C 
HETATM   29  C6  UNL     1      19.243  67.010  45.081  1.00  0.00     0.037 C 
HETATM   30  C7  UNL     1      18.953  68.330  44.357  1.00  0.00     0.011 C 
HETATM   31  C8  UNL     1      19.946  69.320  44.928  1.00  0.00     0.003 C 
HETATM   32  C9  UNL     1      21.135  68.413  45.182  1.00  0.00     0.033 C 
BRANCH  29  33
HETATM   33  C5  UNL     1      18.022  66.661  45.811  1.00  0.00    -0.024 C 
HETATM   34  C4  UNL     1      17.889  66.224  47.030  1.00  0.00    -0.030 C 
BRANCH  34  35
HETATM   35  C3  UNL     1      16.568  65.910  47.643  1.00  0.00     0.026 C 
BRANCH  35  36
HETATM   36  C2  UNL     1      15.556  65.477  46.612  1.00  0.00    -0.001 C 
HETATM   37  C1  UNL     1      14.180  65.835  47.181  1.00  0.00     0.005 C 
ENDBRANCH  35  36
ENDBRANCH  34  35
ENDBRANCH  29  33
ENDBRANCH  27  28
ENDBRANCH   1  27
TORSDOF 14
ENDMDL
MODEL 2
REMARK VINA RESULT: -8.577813640      2.057      2.889
REMARK  14 active torsions:
REMARK  status: ('A' for Active; 'I' for Inactive)
REMARK    1  A    between atoms: C2_2  and  C3_3 
REMARK    2  A    between atoms: C3_3  and  C4_4 
REMARK    3  A    between atoms: C5_5  and  C6_6 
REMARK    4  A    between atoms: C10_10  and  O1_11 
REMARK    5  A    between atoms: O1_11  and  C11_12 
REMARK    6  A    between atoms: C14_16  and  O3_17 
REMARK    7  A    between atoms: C15_19  and  O4_20 
REMARK    8  A    between atoms: O4_20  and  C16_21 
REMARK    9  A    between atoms: C17_23  and  C18_24 
REMARK   10  A    between atoms: C18_24  and  O6_25 
REMARK   11  A    between atoms: C19_27  and  O7_28 
REMARK   12  A    between atoms: C20_30  and  C21_31 
REMARK   13  A    between atoms: C21_31  and  O8_32 
REMARK   14  A    between atoms: C22_35  and  O10_36 
ROOT
HETATM    1  C11 UNL     1      22.326  65.575  47.138  1.00  0.00     0.291 C 
HETATM    2  O2  UNL     1      21.989  64.470  47.906  1.00  0.00    -0.351 OA
HETATM    3  C12 UNL     1      22.839  64.261  48.973  1.00  0.00     0.152 C 
HETATM    4  C13 UNL     1      22.417  65.190  50.095  1.00  0.00     0.042 C 
HETATM    5  C14 UNL     1      24.286  64.459  48.658  1.00  0.00     0.178 C 
HETATM    6  C15 UNL     1      24.599  64.481  47.189  1.00  0.00     0.191 C 
HETATM    7  C22 UNL     1      23.582  65.187  46.361  1.00  0.00     0.205 C 
ENDROOT
BRANCH   6   8
HETATM    8  O4  UNL     1      24.816  63.218  46.668  1.00  0.00    -0.328 OA
BRANCH   8   9
HETATM    9  C16 UNL     1      26.147  62.820  46.665  1.00  0.00     0.414 C 
HETATM   10  O5  UNL     1      26.295  61.887  45.673  1.00  0.00    -0.329 OA
HETATM   11  C17 UNL     1      27.064  62.260  44.597  1.00  0.00     0.181 C 
HETATM   12  C19 UNL     1      28.373  62.899  45.009  1.00  0.00     0.180 C 
HETATM   13  C20 UNL     1      28.308  63.390  46.447  1.00  0.00     0.181 C 
HETATM   14  O9  UNL     1      27.034  63.863  46.660  1.00  0.00    -0.329 OA
BRANCH  11  15
HETATM   15  C18 UNL     1      26.276  63.164  43.669  1.00  0.00     0.199 C 
BRANCH  15  16
HETATM   16  O6  UNL     1      25.014  62.603  43.493  1.00  0.00    -0.398 OA
ATOM     17  H6  UNL     1      24.379  63.310  43.478  1.00  0.00     0.209 HD
ENDBRANCH  15  16
ENDBRANCH  11  15
BRANCH  12  18
HETATM   18  O7  UNL     1      29.450  62.047  44.796  1.00  0.00    -0.390 OA
ATOM     19  H7  UNL     1      30.168  62.233  45.389  1.00  0.00     0.210 HD
ENDBRANCH  12  18
BRANCH  13  20
HETATM   20  C21 UNL     1      29.307  64.504  46.659  1.00  0.00     0.199 C 
BRANCH  20  21
HETATM   21  O8  UNL     1      28.602  65.659  47.006  1.00  0.00    -0.398 OA
ATOM     22  H8  UNL     1      29.113  66.411  46.727  1.00  0.00     0.209 HD
ENDBRANCH  20  21
ENDBRANCH  13  20
ENDBRANCH   8   9
ENDBRANCH   6   8
BRANCH   5  23
HETATM   23  O3  UNL     1      24.754  65.613  49.289  1.00  0.00    -0.390 OA
ATOM     24  H3  UNL     1      25.649  65.785  49.022  1.00  0.00     0.210 HD
ENDBRANCH   5  23
BRANCH   7  25
HETATM   25  O10 UNL     1      23.155  64.361  45.320  1.00  0.00    -0.388 OA
ATOM     26  H10 UNL     1      22.634  63.676  45.721  1.00  0.00     0.210 HD
ENDBRANCH   7  25
BRANCH   1  27
HETATM   27  O1  UNL     1      21.334  65.735  46.183  1.00  0.00    -0.353 OA
BRANCH  27  28
HETATM   28  C10 UNL     1      20.630  66.914  46.239  1.00  0.00     0.132 C 
HETATM   29  C6  UNL     1      19.563  67.062  45.231  1.00  0.00     0.037 C 
HETATM   30  C7  UNL     1      19.510  68.558  44.899  1.00  0.00     0.011 C 
HETATM   31  C8  UNL     1      20.456  69.214  45.882  1.00  0.00     0.003 C 
HETATM   32  C9  UNL     1      21.507  68.130  46.030  1.00  0.00     0.033 C 
BRANCH  29  33
HETATM   33  C5  UNL     1      18.206  66.679  45.631  1.00  0.00    -0.024 C 
HETATM   34  C4  UNL     1      17.368  65.881  45.035  1.00  0.00    -0.030 C 
BRANCH  34  35
HETATM   35  C3  UNL     1      16.008  65.584  45.567  1.00  0.00     0.026 C 
BRANCH  35  36
HETATM   36  C2  UNL     1      15.977  65.595  47.074  1.00  0.00    -0.001 C 
HETATM   37  C1  UNL     1      14.499  65.561  47.476  1.00  0.00     0.005 C 
ENDBRANCH  35  36
ENDBRANCH  34  35
ENDBRANCH  29  33
ENDBRANCH  27  28
ENDBRANCH   1  27
TORSDOF 14
ENDMDL
MODEL 3
REMARK VINA RESULT: -8.542728514      2.324      3.396
REMARK  14 active torsions:
REMARK  status: ('A' for Active; 'I' for Inactive)
REMARK    1  A    between atoms: C2_2  and  C3_3 
REMARK    2  A    between atoms: C3_3  and  C4_4 
REMARK    3  A    between atoms: C5_5  and  C6_6 
REMARK    4  A    between atoms: C10_10  and  O1_11 
REMARK    5  A    between atoms: O1_11  and  C11_12 
REMARK    6  A    between atoms: C14_16  and  O3_17 
REMARK    7  A    between atoms: C15_19  and  O4_20 
REMARK    8  A    between atoms: O4_20  and  C16_21 
REMARK    9  A    between atoms: C17_23  and  C18_24 
REMARK   10  A    between atoms: C18_24  and  O6_25 
REMARK   11  A    between atoms: C19_27  and  O7_28 
REMARK   12  A    between atoms: C20_30  and  C21_31 
REMARK   13  A    between atoms: C21_31  and  O8_32 
REMARK   14  A    between atoms: C22_35  and  O10_36 
ROOT
HETATM    1  C11 UNL     1      20.237  65.835  47.639  1.00  0.00     0.291 C 
HETATM    2  O2  UNL     1      20.577  64.493  47.553  1.00  0.00    -0.351 OA
HETATM    3  C12 UNL     1      21.281  64.031  48.646  1.00  0.00     0.152 C 
HETATM    4  C13 UNL     1      20.285  63.725  49.748  1.00  0.00     0.042 C 
HETATM    5  C14 UNL     1      22.329  64.971  49.148  1.00  0.00     0.178 C 
HETATM    6  C15 UNL     1      22.691  66.063  48.181  1.00  0.00     0.191 C 
HETATM    7  C22 UNL     1      21.531  66.617  47.428  1.00  0.00     0.205 C 
ENDROOT
BRANCH   6   8
HETATM    8  O4  UNL     1      23.677  65.682  47.288  1.00  0.00    -0.328 OA
BRANCH   8   9
HETATM    9  C16 UNL     1      24.739  64.997  47.864  1.00  0.00     0.414 C 
HETATM   10  O5  UNL     1      24.705  63.712  47.388  1.00  0.00    -0.329 OA
HETATM   11  C17 UNL     1      25.741  63.342  46.565  1.00  0.00     0.181 C 
HETATM   12  C19 UNL     1      27.095  63.735  47.118  1.00  0.00     0.180 C 
HETATM   13  C20 UNL     1      26.956  64.823  48.171  1.00  0.00     0.181 C 
HETATM   14  O9  UNL     1      25.935  65.653  47.767  1.00  0.00    -0.329 OA
BRANCH  11  15
HETATM   15  C18 UNL     1      25.534  63.895  45.169  1.00  0.00     0.199 C 
BRANCH  15  16
HETATM   16  O6  UNL     1      26.661  64.640  44.831  1.00  0.00    -0.398 OA
ATOM     17  H6  UNL     1      26.371  65.501  44.556  1.00  0.00     0.209 HD
ENDBRANCH  15  16
ENDBRANCH  11  15
BRANCH  12  18
HETATM   18  O7  UNL     1      27.794  62.632  47.594  1.00  0.00    -0.390 OA
ATOM     19  H7  UNL     1      28.732  62.738  47.486  1.00  0.00     0.210 HD
ENDBRANCH  12  18
BRANCH  13  20
HETATM   20  C21 UNL     1      28.242  65.610  48.275  1.00  0.00     0.199 C 
BRANCH  20  21
HETATM   21  O8  UNL     1      28.832  65.647  47.009  1.00  0.00    -0.398 OA
ATOM     22  H8  UNL     1      28.586  66.465  46.592  1.00  0.00     0.209 HD
ENDBRANCH  20  21
ENDBRANCH  13  20
ENDBRANCH   8   9
ENDBRANCH   6   8
BRANCH   5  23
HETATM   23  O3  UNL     1      21.940  65.499  50.379  1.00  0.00    -0.390 OA
ATOM     24  H3  UNL     1      22.487  65.142  51.069  1.00  0.00     0.210 HD
ENDBRANCH   5  23
BRANCH   7  25
HETATM   25  O10 UNL     1      21.788  66.579  46.057  1.00  0.00    -0.388 OA
ATOM     26  H10 UNL     1      22.705  66.806  45.953  1.00  0.00     0.210 HD
ENDBRANCH   7  25
BRANCH   1  27
HETATM   27  O1  UNL     1      19.441  66.133  46.545  1.00  0.00    -0.353 OA
BRANCH  27  28
HETATM   28  C10 UNL     1      18.207  65.530  46.517  1.00  0.00     0.132 C 
HETATM   29  C6  UNL     1      17.432  65.730  45.277  1.00  0.00     0.037 C 
HETATM   30  C7  UNL     1      15.961  65.765  45.708  1.00  0.00     0.011 C 
HETATM   31  C8  UNL     1      15.972  65.409  47.179  1.00  0.00     0.003 C 
HETATM   32  C9  UNL     1      17.287  66.028  47.611  1.00  0.00     0.033 C 
BRANCH  29  33
HETATM   33  C5  UNL     1      17.536  64.691  44.249  1.00  0.00    -0.024 C 
HETATM   34  C4  UNL     1      16.629  64.261  43.420  1.00  0.00    -0.030 C 
BRANCH  34  35
HETATM   35  C3  UNL     1      16.883  63.188  42.419  1.00  0.00     0.026 C 
BRANCH  35  36
HETATM   36  C2  UNL     1      18.119  63.463  41.599  1.00  0.00    -0.001 C 
HETATM   37  C1  UNL     1      17.792  63.030  40.167  1.00  0.00     0.005 C 
ENDBRANCH  35  36
ENDBRANCH  34  35
ENDBRANCH  29  33
ENDBRANCH  27  28
ENDBRANCH   1  27
TORSDOF 14
ENDMDL
MODEL 4
REMARK VINA RESULT: -8.479647183      2.366      4.907
REMARK  14 active torsions:
REMARK  status: ('A' for Active; 'I' for Inactive)
REMARK    1  A    between atoms: C2_2  and  C3_3 
REMARK    2  A    between atoms: C3_3  and  C4_4 
REMARK    3  A    between atoms: C5_5  and  C6_6 
REMARK    4  A    between atoms: C10_10  and  O1_11 
REMARK    5  A    between atoms: O1_11  and  C11_12 
REMARK    6  A    between atoms: C14_16  and  O3_17 
REMARK    7  A    between atoms: C15_19  and  O4_20 
REMARK    8  A    between atoms: O4_20  and  C16_21 
REMARK    9  A    between atoms: C17_23  and  C18_24 
REMARK   10  A    between atoms: C18_24  and  O6_25 
REMARK   11  A    between atoms: C19_27  and  O7_28 
REMARK   12  A    between atoms: C20_30  and  C21_31 
REMARK   13  A    between atoms: C21_31  and  O8_32 
REMARK   14  A    between atoms: C22_35  and  O10_36 
ROOT
HETATM    1  C11 UNL     1      19.227  66.936  46.710  1.00  0.00     0.291 C 
HETATM    2  O2  UNL     1      19.654  68.244  46.890  1.00  0.00    -0.351 OA
HETATM    3  C12 UNL     1      20.617  68.639  45.984  1.00  0.00     0.152 C 
HETATM    4  C13 UNL     1      19.916  69.028  44.697  1.00  0.00     0.042 C 
HETATM    5  C14 UNL     1      21.665  67.610  45.707  1.00  0.00     0.178 C 
HETATM    6  C15 UNL     1      21.711  66.494  46.712  1.00  0.00     0.191 C 
HETATM    7  C22 UNL     1      20.372  66.046  47.185  1.00  0.00     0.205 C 
ENDROOT
BRANCH   6   8
HETATM    8  O4  UNL     1      22.507  66.790  47.804  1.00  0.00    -0.328 OA
BRANCH   8   9
HETATM    9  C16 UNL     1      23.771  66.213  47.766  1.00  0.00     0.414 C 
HETATM   10  O5  UNL     1      24.163  65.995  49.061  1.00  0.00    -0.329 OA
HETATM   11  C17 UNL     1      24.270  64.682  49.450  1.00  0.00     0.181 C 
HETATM   12  C19 UNL     1      25.032  63.838  48.450  1.00  0.00     0.180 C 
HETATM   13  C20 UNL     1      25.073  64.514  47.088  1.00  0.00     0.181 C 
HETATM   14  O9  UNL     1      23.864  65.148  46.912  1.00  0.00    -0.329 OA
BRANCH  11  15
HETATM   15  C18 UNL     1      22.901  64.098  49.736  1.00  0.00     0.199 C 
BRANCH  15  16
HETATM   16  O6  UNL     1      22.154  65.064  50.404  1.00  0.00    -0.398 OA
ATOM     17  H6  UNL     1      21.706  64.640  51.126  1.00  0.00     0.209 HD
ENDBRANCH  15  16
ENDBRANCH  11  15
BRANCH  12  18
HETATM   18  O7  UNL     1      26.303  63.516  48.912  1.00  0.00    -0.390 OA
ATOM     19  H7  UNL     1      26.553  62.633  48.665  1.00  0.00     0.210 HD
ENDBRANCH  12  18
BRANCH  13  20
HETATM   20  C21 UNL     1      25.269  63.480  46.003  1.00  0.00     0.199 C 
BRANCH  20  21
HETATM   21  O8  UNL     1      24.776  62.260  46.472  1.00  0.00    -0.398 OA
ATOM     22  H8  UNL     1      23.854  62.371  46.672  1.00  0.00     0.209 HD
ENDBRANCH  20  21
ENDBRANCH  13  20
ENDBRANCH   8   9
ENDBRANCH   6   8
BRANCH   5  23
HETATM   23  O3  UNL     1      21.510  67.114  44.412  1.00  0.00    -0.390 OA
ATOM     24  H3  UNL     1      21.741  66.193  44.391  1.00  0.00     0.210 HD
ENDBRANCH   5  23
BRANCH   7  25
HETATM   25  O10 UNL     1      20.326  66.064  48.580  1.00  0.00    -0.388 OA
ATOM     26  H10 UNL     1      20.027  65.203  48.847  1.00  0.00     0.210 HD
ENDBRANCH   7  25
BRANCH   1  27
HETATM   27  O1  UNL     1      18.189  66.713  47.600  1.00  0.00    -0.353 OA
BRANCH  27  28
HETATM   28  C10 UNL     1      17.221  65.830  47.185  1.00  0.00     0.132 C 
HETATM   29  C6  UNL     1      16.839  65.931  45.763  1.00  0.00     0.037 C 
HETATM   30  C7  UNL     1      15.349  65.572  45.707  1.00  0.00     0.011 C 
HETATM   31  C8  UNL     1      15.000  65.114  47.107  1.00  0.00     0.003 C 
HETATM   32  C9  UNL     1      15.915  66.001  47.931  1.00  0.00     0.033 C 
BRANCH  29  33
HETATM   33  C5  UNL     1      17.515  65.034  44.823  1.00  0.00    -0.024 C 
HETATM   34  C4  UNL     1      17.006  64.295  43.881  1.00  0.00    -0.030 C 
BRANCH  34  35
HETATM   35  C3  UNL     1      17.828  63.425  42.994  1.00  0.00     0.026 C 
BRANCH  35  36
HETATM   36  C2  UNL     1      17.001  62.782  41.910  1.00  0.00    -0.001 C 
HETATM   37  C1  UNL     1      17.721  63.069  40.589  1.00  0.00     0.005 C 
ENDBRANCH  35  36
ENDBRANCH  34  35
ENDBRANCH  29  33
ENDBRANCH  27  28
ENDBRANCH   1  27
TORSDOF 14
ENDMDL
MODEL 5
REMARK VINA RESULT: -8.377918008      2.656      3.888
REMARK  14 active torsions:
REMARK  status: ('A' for Active; 'I' for Inactive)
REMARK    1  A    between atoms: C2_2  and  C3_3 
REMARK    2  A    between atoms: C3_3  and  C4_4 
REMARK    3  A    between atoms: C5_5  and  C6_6 
REMARK    4  A    between atoms: C10_10  and  O1_11 
REMARK    5  A    between atoms: O1_11  and  C11_12 
REMARK    6  A    between atoms: C14_16  and  O3_17 
REMARK    7  A    between atoms: C15_19  and  O4_20 
REMARK    8  A    between atoms: O4_20  and  C16_21 
REMARK    9  A    between atoms: C17_23  and  C18_24 
REMARK   10  A    between atoms: C18_24  and  O6_25 
REMARK   11  A    between atoms: C19_27  and  O7_28 
REMARK   12  A    between atoms: C20_30  and  C21_31 
REMARK   13  A    between atoms: C21_31  and  O8_32 
REMARK   14  A    between atoms: C22_35  and  O10_36 
ROOT
HETATM    1  C11 UNL     1      20.415  65.698  47.639  1.00  0.00     0.291 C 
HETATM    2  O2  UNL     1      20.350  64.321  47.480  1.00  0.00    -0.351 OA
HETATM    3  C12 UNL     1      21.149  63.626  48.364  1.00  0.00     0.152 C 
HETATM    4  C13 UNL     1      20.409  63.525  49.683  1.00  0.00     0.042 C 
HETATM    5  C14 UNL     1      22.501  64.226  48.577  1.00  0.00     0.178 C 
HETATM    6  C15 UNL     1      22.895  65.241  47.542  1.00  0.00     0.191 C 
HETATM    7  C22 UNL     1      21.779  66.124  47.102  1.00  0.00     0.205 C 
ENDROOT
BRANCH   6   8
HETATM    8  O4  UNL     1      23.492  64.670  46.432  1.00  0.00    -0.328 OA
BRANCH   8   9
HETATM    9  C16 UNL     1      24.502  63.763  46.727  1.00  0.00     0.414 C 
HETATM   10  O5  UNL     1      24.350  62.691  45.887  1.00  0.00    -0.329 OA
HETATM   11  C17 UNL     1      25.334  62.513  44.946  1.00  0.00     0.181 C 
HETATM   12  C19 UNL     1      26.727  62.615  45.532  1.00  0.00     0.180 C 
HETATM   13  C20 UNL     1      26.701  63.337  46.870  1.00  0.00     0.181 C 
HETATM   14  O9  UNL     1      25.748  64.325  46.781  1.00  0.00    -0.329 OA
BRANCH  11  15
HETATM   15  C18 UNL     1      25.149  63.479  43.793  1.00  0.00     0.199 C 
BRANCH  15  16
HETATM   16  O6  UNL     1      26.252  64.329  43.763  1.00  0.00    -0.398 OA
ATOM     17  H6  UNL     1      26.454  64.514  42.854  1.00  0.00     0.209 HD
ENDBRANCH  15  16
ENDBRANCH  11  15
BRANCH  12  18
HETATM   18  O7  UNL     1      27.339  61.370  45.622  1.00  0.00    -0.390 OA
ATOM     19  H7  UNL     1      26.869  60.710  45.124  1.00  0.00     0.210 HD
ENDBRANCH  12  18
BRANCH  13  20
HETATM   20  C21 UNL     1      28.052  63.955  47.149  1.00  0.00     0.199 C 
BRANCH  20  21
HETATM   21  O8  UNL     1      28.600  64.372  45.933  1.00  0.00    -0.398 OA
ATOM     22  H8  UNL     1      28.847  65.285  46.018  1.00  0.00     0.209 HD
ENDBRANCH  20  21
ENDBRANCH  13  20
ENDBRANCH   8   9
ENDBRANCH   6   8
BRANCH   5  23
HETATM   23  O3  UNL     1      22.583  64.762  49.863  1.00  0.00    -0.390 OA
ATOM     24  H3  UNL     1      21.780  64.583  50.338  1.00  0.00     0.210 HD
ENDBRANCH   5  23
BRANCH   7  25
HETATM   25  O10 UNL     1      21.673  66.104  45.711  1.00  0.00    -0.388 OA
ATOM     26  H10 UNL     1      20.995  65.472  45.506  1.00  0.00     0.210 HD
ENDBRANCH   7  25
BRANCH   1  27
HETATM   27  O1  UNL     1      19.486  66.260  46.779  1.00  0.00    -0.353 OA
BRANCH  27  28
HETATM   28  C10 UNL     1      18.255  65.650  46.742  1.00  0.00     0.132 C 
HETATM   29  C6  UNL     1      17.504  65.816  45.483  1.00  0.00     0.037 C 
HETATM   30  C7  UNL     1      16.024  65.855  45.884  1.00  0.00     0.011 C 
HETATM   31  C8  UNL     1      16.008  65.534  47.363  1.00  0.00     0.003 C 
HETATM   32  C9  UNL     1      17.312  66.170  47.806  1.00  0.00     0.033 C 
BRANCH  29  33
HETATM   33  C5  UNL     1      17.632  64.753  44.482  1.00  0.00    -0.024 C 
HETATM   34  C4  UNL     1      16.729  64.264  43.682  1.00  0.00    -0.030 C 
BRANCH  34  35
HETATM   35  C3  UNL     1      17.011  63.174  42.707  1.00  0.00     0.026 C 
BRANCH  35  36
HETATM   36  C2  UNL     1      18.177  63.505  41.811  1.00  0.00    -0.001 C 
HETATM   37  C1  UNL     1      17.783  63.048  40.403  1.00  0.00     0.005 C 
ENDBRANCH  35  36
ENDBRANCH  34  35
ENDBRANCH  29  33
ENDBRANCH  27  28
ENDBRANCH   1  27
TORSDOF 14
ENDMDL
