MODEL 1
REMARK VINA RESULT: -9.458786309      0.000      0.000
REMARK  8 active torsions:
REMARK  status: ('A' for Active; 'I' for Inactive)
REMARK    1  A    between atoms: C2_2  and  C4_4 
REMARK    2  A    between atoms: C4_4  and  C5_5 
REMARK    3  A    between atoms: C4_4  and  N5_14 
REMARK    4  A    between atoms: C5_5  and  N1_6 
REMARK       I    between atoms: N5_14  and  C7_16 
REMARK    5  A    between atoms: C7_16  and  C8_18 
REMARK    6  A    between atoms: C8_18  and  N6_19 
REMARK    7  A    between atoms: C8_18  and  C9_23 
REMARK    8  A    between atoms: C9_23  and  C10_24 
ROOT
HETATM    1  N5  UNL     1     107.288  22.820  21.709  1.00  0.00    -0.353 N 
ATOM      2  H5  UNL     1     106.709  22.005  21.907  1.00  0.00     0.163 HD
HETATM    3  C7  UNL     1     108.327  23.130  22.600  1.00  0.00     0.248 C 
HETATM    4  O1  UNL     1     109.043  24.124  22.369  1.00  0.00    -0.271 OA
ENDROOT
BRANCH   1   5
HETATM    5  C4  UNL     1     106.991  23.609  20.505  1.00  0.00     0.109 C 
BRANCH   5   6
HETATM    6  C2  UNL     1     105.769  23.078  19.876  1.00  0.00     0.002 C 
HETATM    7  C1  UNL     1     104.999  24.042  19.027  1.00  0.00     0.011 C 
HETATM    8  C3  UNL     1     104.875  22.302  20.819  1.00  0.00     0.011 C 
ENDBRANCH   5   6
BRANCH   5   9
HETATM    9  C5  UNL     1     108.240  23.724  19.750  1.00  0.00     0.196 C 
BRANCH   9  10
HETATM   10  N1  UNL     1     108.602  25.021  19.245  1.00  0.00    -0.217 N 
HETATM   11  N2  UNL     1     107.896  25.730  18.365  1.00  0.00    -0.277 N 
HETATM   12  C6  UNL     1     108.500  26.880  18.117  1.00  0.00     0.216 A 
ATOM     13  H2  UNL     1     107.017  25.429  17.942  1.00  0.00     0.189 HD
HETATM   14  N3  UNL     1     109.625  26.922  18.853  1.00  0.00    -0.279 N 
HETATM   15  N4  UNL     1     109.646  25.782  19.516  1.00  0.00    -0.225 N 
ATOM     16  H3  UNL     1     110.314  27.673  18.891  1.00  0.00     0.189 HD
ATOM     17  H4  UNL     1     110.386  25.519  20.167  1.00  0.00     0.210 HD
ENDBRANCH   9  10
ENDBRANCH   5   9
ENDBRANCH   1   5
BRANCH   3  18
HETATM   18  C8  UNL     1     108.574  22.299  23.791  1.00  0.00     0.275 C 
BRANCH  18  19
HETATM   19  N6  UNL     1     107.339  21.602  24.174  1.00  0.00    -0.066 N 
ATOM     20  H63 UNL     1     106.564  21.822  23.548  1.00  0.00     0.275 HD
ATOM     21  H62 UNL     1     107.393  20.599  23.994  1.00  0.00     0.275 HD
ATOM     22  H61 UNL     1     107.117  21.806  25.148  1.00  0.00     0.275 HD
ENDBRANCH  18  19
BRANCH  18  23
HETATM   23  C9  UNL     1     109.656  21.322  23.488  1.00  0.00     0.047 C 
BRANCH  23  24
HETATM   24  C10 UNL     1     109.890  20.284  24.530  1.00  0.00    -0.012 C 
HETATM   25  C11 UNL     1     110.079  18.945  23.851  1.00  0.00     0.005 C 
HETATM   26  C12 UNL     1     109.888  17.866  24.869  1.00  0.00     0.000 C 
HETATM   27  C13 UNL     1     110.083  18.373  26.271  1.00  0.00     0.000 C 
HETATM   28  C14 UNL     1     111.258  19.333  26.332  1.00  0.00     0.000 C 
HETATM   29  C15 UNL     1     111.018  20.543  25.453  1.00  0.00     0.005 C 
ENDBRANCH  23  24
ENDBRANCH  18  23
ENDBRANCH   3  18
TORSDOF 8
ENDMDL
MODEL 2
REMARK VINA RESULT: -9.200595263      0.848      1.520
REMARK  8 active torsions:
REMARK  status: ('A' for Active; 'I' for Inactive)
REMARK    1  A    between atoms: C2_2  and  C4_4 
REMARK    2  A    between atoms: C4_4  and  C5_5 
REMARK    3  A    between atoms: C4_4  and  N5_14 
REMARK    4  A    between atoms: C5_5  and  N1_6 
REMARK       I    between atoms: N5_14  and  C7_16 
REMARK    5  A    between atoms: C7_16  and  C8_18 
REMARK    6  A    between atoms: C8_18  and  N6_19 
REMARK    7  A    between atoms: C8_18  and  C9_23 
REMARK    8  A    between atoms: C9_23  and  C10_24 
ROOT
HETATM    1  N5  UNL     1     107.353  22.910  21.791  1.00  0.00    -0.353 N 
ATOM      2  H5  UNL     1     106.828  22.053  21.965  1.00  0.00     0.163 HD
HETATM    3  C7  UNL     1     108.458  23.190  22.610  1.00  0.00     0.248 C 
HETATM    4  O1  UNL     1     109.109  24.234  22.406  1.00  0.00    -0.271 OA
ENDROOT
BRANCH   1   5
HETATM    5  C4  UNL     1     106.912  23.786  20.696  1.00  0.00     0.109 C 
BRANCH   5   6
HETATM    6  C2  UNL     1     105.515  23.463  20.359  1.00  0.00     0.002 C 
HETATM    7  C1  UNL     1     105.120  22.027  20.516  1.00  0.00     0.011 C 
HETATM    8  C3  UNL     1     105.044  24.048  19.045  1.00  0.00     0.011 C 
ENDBRANCH   5   6
BRANCH   5   9
HETATM    9  C5  UNL     1     107.962  23.756  19.676  1.00  0.00     0.196 C 
BRANCH   9  10
HETATM   10  N1  UNL     1     108.484  25.013  19.214  1.00  0.00    -0.217 N 
HETATM   11  N2  UNL     1     107.910  25.800  18.305  1.00  0.00    -0.277 N 
HETATM   12  C6  UNL     1     108.643  26.884  18.111  1.00  0.00     0.216 A 
ATOM     13  H2  UNL     1     107.032  25.596  17.826  1.00  0.00     0.189 HD
HETATM   14  N3  UNL     1     109.719  26.801  18.913  1.00  0.00    -0.279 N 
HETATM   15  N4  UNL     1     109.583  25.660  19.558  1.00  0.00    -0.225 N 
ATOM     16  H3  UNL     1     110.478  27.477  19.004  1.00  0.00     0.189 HD
ATOM     17  H4  UNL     1     110.251  25.315  20.248  1.00  0.00     0.210 HD
ENDBRANCH   9  10
ENDBRANCH   5   9
ENDBRANCH   1   5
BRANCH   3  18
HETATM   18  C8  UNL     1     108.850  22.270  23.692  1.00  0.00     0.275 C 
BRANCH  18  19
HETATM   19  N6  UNL     1     107.915  22.403  24.817  1.00  0.00    -0.066 N 
ATOM     20  H63 UNL     1     107.010  21.978  24.617  1.00  0.00     0.275 HD
ATOM     21  H62 UNL     1     108.181  21.819  25.609  1.00  0.00     0.275 HD
ATOM     22  H61 UNL     1     107.828  23.386  25.077  1.00  0.00     0.275 HD
ENDBRANCH  18  19
BRANCH  18  23
HETATM   23  C9  UNL     1     108.849  20.876  23.171  1.00  0.00     0.047 C 
BRANCH  23  24
HETATM   24  C10 UNL     1     110.008  20.038  23.589  1.00  0.00    -0.012 C 
HETATM   25  C11 UNL     1     111.054  20.931  24.218  1.00  0.00     0.005 C 
HETATM   26  C12 UNL     1     112.354  20.193  24.244  1.00  0.00     0.000 C 
HETATM   27  C13 UNL     1     112.160  18.706  24.147  1.00  0.00     0.000 C 
HETATM   28  C14 UNL     1     110.973  18.267  24.987  1.00  0.00     0.000 C 
HETATM   29  C15 UNL     1     109.693  18.914  24.498  1.00  0.00     0.005 C 
ENDBRANCH  23  24
ENDBRANCH  18  23
ENDBRANCH   3  18
TORSDOF 8
ENDMDL
MODEL 3
REMARK VINA RESULT: -8.620402144      1.331      1.902
REMARK  8 active torsions:
REMARK  status: ('A' for Active; 'I' for Inactive)
REMARK    1  A    between atoms: C2_2  and  C4_4 
REMARK    2  A    between atoms: C4_4  and  C5_5 
REMARK    3  A    between atoms: C4_4  and  N5_14 
REMARK    4  A    between atoms: C5_5  and  N1_6 
REMARK       I    between atoms: N5_14  and  C7_16 
REMARK    5  A    between atoms: C7_16  and  C8_18 
REMARK    6  A    between atoms: C8_18  and  N6_19 
REMARK    7  A    between atoms: C8_18  and  C9_23 
REMARK    8  A    between atoms: C9_23  and  C10_24 
ROOT
HETATM    1  N5  UNL     1     106.787  22.684  21.579  1.00  0.00    -0.353 N 
ATOM      2  H5  UNL     1     106.426  21.847  22.037  1.00  0.00     0.163 HD
HETATM    3  C7  UNL     1     108.044  23.168  21.974  1.00  0.00     0.248 C 
HETATM    4  O1  UNL     1     108.497  24.190  21.421  1.00  0.00    -0.271 OA
ENDROOT
BRANCH   1   5
HETATM    5  C4  UNL     1     105.963  23.320  20.541  1.00  0.00     0.109 C 
BRANCH   5   6
HETATM    6  C2  UNL     1     104.594  22.781  20.622  1.00  0.00     0.002 C 
HETATM    7  C1  UNL     1     104.480  21.346  21.036  1.00  0.00     0.011 C 
HETATM    8  C3  UNL     1     103.731  23.103  19.422  1.00  0.00     0.011 C 
ENDBRANCH   5   6
BRANCH   5   9
HETATM    9  C5  UNL     1     106.727  23.260  19.293  1.00  0.00     0.196 C 
BRANCH   9  10
HETATM   10  N1  UNL     1     106.903  24.480  18.555  1.00  0.00    -0.217 N 
HETATM   11  N2  UNL     1     107.841  25.397  18.792  1.00  0.00    -0.277 N 
HETATM   12  C6  UNL     1     107.734  26.394  17.929  1.00  0.00     0.216 A 
ATOM     13  H2  UNL     1     108.541  25.339  19.533  1.00  0.00     0.189 HD
HETATM   14  N3  UNL     1     106.703  26.120  17.111  1.00  0.00    -0.279 N 
HETATM   15  N4  UNL     1     106.232  24.959  17.524  1.00  0.00    -0.225 N 
ATOM     16  H3  UNL     1     106.358  26.687  16.337  1.00  0.00     0.189 HD
ATOM     17  H4  UNL     1     105.438  24.484  17.094  1.00  0.00     0.210 HD
ENDBRANCH   9  10
ENDBRANCH   5   9
ENDBRANCH   1   5
BRANCH   3  18
HETATM   18  C8  UNL     1     108.822  22.485  23.022  1.00  0.00     0.275 C 
BRANCH  18  19
HETATM   19  N6  UNL     1     109.414  23.479  23.926  1.00  0.00    -0.066 N 
ATOM     20  H63 UNL     1     108.749  24.209  24.182  1.00  0.00     0.275 HD
ATOM     21  H62 UNL     1     109.582  23.099  24.858  1.00  0.00     0.275 HD
ATOM     22  H61 UNL     1     110.262  23.861  23.509  1.00  0.00     0.275 HD
ENDBRANCH  18  19
BRANCH  18  23
HETATM   23  C9  UNL     1     107.926  21.561  23.770  1.00  0.00     0.047 C 
BRANCH  23  24
HETATM   24  C10 UNL     1     108.601  20.401  24.417  1.00  0.00    -0.012 C 
HETATM   25  C11 UNL     1     109.766  19.970  23.551  1.00  0.00     0.005 C 
HETATM   26  C12 UNL     1     110.169  18.587  23.953  1.00  0.00     0.000 C 
HETATM   27  C13 UNL     1     109.707  18.247  25.342  1.00  0.00     0.000 C 
HETATM   28  C14 UNL     1     109.887  19.435  26.271  1.00  0.00     0.000 C 
HETATM   29  C15 UNL     1     109.061  20.618  25.806  1.00  0.00     0.005 C 
ENDBRANCH  23  24
ENDBRANCH  18  23
ENDBRANCH   3  18
TORSDOF 8
ENDMDL
MODEL 4
REMARK VINA RESULT: -8.154807134      2.117      3.945
REMARK  8 active torsions:
REMARK  status: ('A' for Active; 'I' for Inactive)
REMARK    1  A    between atoms: C2_2  and  C4_4 
REMARK    2  A    between atoms: C4_4  and  C5_5 
REMARK    3  A    between atoms: C4_4  and  N5_14 
REMARK    4  A    between atoms: C5_5  and  N1_6 
REMARK       I    between atoms: N5_14  and  C7_16 
REMARK    5  A    between atoms: C7_16  and  C8_18 
REMARK    6  A    between atoms: C8_18  and  N6_19 
REMARK    7  A    between atoms: C8_18  and  C9_23 
REMARK    8  A    between atoms: C9_23  and  C10_24 
ROOT
HETATM    1  N5  UNL     1     107.236  23.363  21.793  1.00  0.00    -0.353 N 
ATOM      2  H5  UNL     1     107.054  24.238  22.284  1.00  0.00     0.163 HD
HETATM    3  C7  UNL     1     108.020  22.392  22.434  1.00  0.00     0.248 C 
HETATM    4  O1  UNL     1     108.250  21.317  21.844  1.00  0.00    -0.271 OA
ENDROOT
BRANCH   1   5
HETATM    5  C4  UNL     1     106.664  23.187  20.451  1.00  0.00     0.109 C 
BRANCH   5   6
HETATM    6  C2  UNL     1     107.447  23.981  19.489  1.00  0.00     0.002 C 
HETATM    7  C1  UNL     1     108.786  24.452  19.968  1.00  0.00     0.011 C 
HETATM    8  C3  UNL     1     106.661  25.080  18.809  1.00  0.00     0.011 C 
ENDBRANCH   5   6
BRANCH   5   9
HETATM    9  C5  UNL     1     105.216  23.365  20.577  1.00  0.00     0.196 C 
BRANCH   9  10
HETATM   10  N1  UNL     1     104.394  22.186  20.606  1.00  0.00    -0.217 N 
HETATM   11  N2  UNL     1     103.629  21.804  21.627  1.00  0.00    -0.277 N 
HETATM   12  C6  UNL     1     102.996  20.681  21.328  1.00  0.00     0.216 A 
ATOM     13  H2  UNL     1     103.543  22.304  22.512  1.00  0.00     0.189 HD
HETATM   14  N3  UNL     1     103.358  20.325  20.082  1.00  0.00    -0.279 N 
HETATM   15  N4  UNL     1     104.200  21.259  19.686  1.00  0.00    -0.225 N 
ATOM     16  H3  UNL     1     103.047  19.508  19.557  1.00  0.00     0.189 HD
ATOM     17  H4  UNL     1     104.650  21.264  18.771  1.00  0.00     0.210 HD
ENDBRANCH   9  10
ENDBRANCH   5   9
ENDBRANCH   1   5
BRANCH   3  18
HETATM   18  C8  UNL     1     108.566  22.630  23.782  1.00  0.00     0.275 C 
BRANCH  18  19
HETATM   19  N6  UNL     1     107.675  22.036  24.788  1.00  0.00    -0.066 N 
ATOM     20  H63 UNL     1     106.923  21.494  24.363  1.00  0.00     0.275 HD
ATOM     21  H62 UNL     1     108.127  21.281  25.303  1.00  0.00     0.275 HD
ATOM     22  H61 UNL     1     107.321  22.765  25.406  1.00  0.00     0.275 HD
ENDBRANCH  18  19
BRANCH  18  23
HETATM   23  C9  UNL     1     109.927  22.034  23.869  1.00  0.00     0.047 C 
BRANCH  23  24
HETATM   24  C10 UNL     1     110.033  20.800  24.696  1.00  0.00    -0.012 C 
HETATM   25  C11 UNL     1     110.118  19.602  23.776  1.00  0.00     0.005 C 
HETATM   26  C12 UNL     1     109.797  18.374  24.566  1.00  0.00     0.000 C 
HETATM   27  C13 UNL     1     109.995  18.584  26.041  1.00  0.00     0.000 C 
HETATM   28  C14 UNL     1     111.251  19.398  26.300  1.00  0.00     0.000 C 
HETATM   29  C15 UNL     1     111.151  20.770  25.665  1.00  0.00     0.005 C 
ENDBRANCH  23  24
ENDBRANCH  18  23
ENDBRANCH   3  18
TORSDOF 8
ENDMDL
MODEL 5
REMARK VINA RESULT: -8.034103526      2.347      4.085
REMARK  8 active torsions:
REMARK  status: ('A' for Active; 'I' for Inactive)
REMARK    1  A    between atoms: C2_2  and  C4_4 
REMARK    2  A    between atoms: C4_4  and  C5_5 
REMARK    3  A    between atoms: C4_4  and  N5_14 
REMARK    4  A    between atoms: C5_5  and  N1_6 
REMARK       I    between atoms: N5_14  and  C7_16 
REMARK    5  A    between atoms: C7_16  and  C8_18 
REMARK    6  A    between atoms: C8_18  and  N6_19 
REMARK    7  A    between atoms: C8_18  and  C9_23 
REMARK    8  A    between atoms: C9_23  and  C10_24 
ROOT
HETATM    1  N5  UNL     1     106.452  22.593  21.557  1.00  0.00    -0.353 N 
ATOM      2  H5  UNL     1     105.712  22.509  22.254  1.00  0.00     0.163 HD
HETATM    3  C7  UNL     1     107.782  22.644  22.002  1.00  0.00     0.248 C 
HETATM    4  O1  UNL     1     108.696  22.745  21.160  1.00  0.00    -0.271 OA
ENDROOT
BRANCH   1   5
HETATM    5  C4  UNL     1     106.069  22.653  20.139  1.00  0.00     0.109 C 
BRANCH   5   6
HETATM    6  C2  UNL     1     105.930  24.064  19.741  1.00  0.00     0.002 C 
HETATM    7  C1  UNL     1     104.831  24.363  18.768  1.00  0.00     0.011 C 
HETATM    8  C3  UNL     1     107.233  24.730  19.359  1.00  0.00     0.011 C 
ENDBRANCH   5   6
BRANCH   5   9
HETATM    9  C5  UNL     1     104.970  21.703  19.953  1.00  0.00     0.196 C 
BRANCH   9  10
HETATM   10  N1  UNL     1     103.940  21.664  20.954  1.00  0.00    -0.217 N 
HETATM   11  N2  UNL     1     103.744  20.672  21.822  1.00  0.00    -0.277 N 
HETATM   12  C6  UNL     1     102.719  20.952  22.611  1.00  0.00     0.216 A 
ATOM     13  H2  UNL     1     104.302  19.820  21.871  1.00  0.00     0.189 HD
HETATM   14  N3  UNL     1     102.237  22.154  22.249  1.00  0.00    -0.279 N 
HETATM   15  N4  UNL     1     103.002  22.546  21.249  1.00  0.00    -0.225 N 
ATOM     16  H3  UNL     1     101.450  22.656  22.660  1.00  0.00     0.189 HD
ATOM     17  H4  UNL     1     102.882  23.432  20.757  1.00  0.00     0.210 HD
ENDBRANCH   9  10
ENDBRANCH   5   9
ENDBRANCH   1   5
BRANCH   3  18
HETATM   18  C8  UNL     1     108.101  22.579  23.439  1.00  0.00     0.275 C 
BRANCH  18  19
HETATM   19  N6  UNL     1     107.223  21.602  24.097  1.00  0.00    -0.066 N 
ATOM     20  H63 UNL     1     106.677  22.022  24.850  1.00  0.00     0.275 HD
ATOM     21  H62 UNL     1     106.450  21.315  23.497  1.00  0.00     0.275 HD
ATOM     22  H61 UNL     1     107.774  20.808  24.421  1.00  0.00     0.275 HD
ENDBRANCH  18  19
BRANCH  18  23
HETATM   23  C9  UNL     1     109.530  22.195  23.604  1.00  0.00     0.047 C 
BRANCH  23  24
HETATM   24  C10 UNL     1     109.772  20.969  24.414  1.00  0.00    -0.012 C 
HETATM   25  C11 UNL     1     110.026  19.808  23.477  1.00  0.00     0.005 C 
HETATM   26  C12 UNL     1     109.846  18.535  24.240  1.00  0.00     0.000 C 
HETATM   27  C13 UNL     1     109.986  18.741  25.722  1.00  0.00     0.000 C 
HETATM   28  C14 UNL     1     111.124  19.701  26.022  1.00  0.00     0.000 C 
HETATM   29  C15 UNL     1     110.865  21.061  25.408  1.00  0.00     0.005 C 
ENDBRANCH  23  24
ENDBRANCH  18  23
ENDBRANCH   3  18
TORSDOF 8
ENDMDL
