MODEL 1
REMARK VINA RESULT: -9.169884591      0.000      0.000
REMARK  10 active torsions:
REMARK  status: ('A' for Active; 'I' for Inactive)
REMARK    1  A    between atoms: C2_2  and  C3_3 
REMARK    2  A    between atoms: C2_2  and  N3_21 
REMARK    3  A    between atoms: C3_3  and  C4_4 
REMARK    4  A    between atoms: C4_4  and  C5_5 
REMARK    5  A    between atoms: C5_5  and  C6_6 
REMARK    6  A    between atoms: C6_6  and  N1_7 
REMARK       I    between atoms: N1_7  and  C7_8 
REMARK    7  A    between atoms: C7_8  and  C8_10 
REMARK    8  A    between atoms: C26_33  and  O2_34 
REMARK    9  A    between atoms: C27_36  and  C29_38 
REMARK   10  A    between atoms: C29_38  and  O3_39 
ROOT
HETATM    1  N3  UNL     1     -12.433  15.507  27.583  1.00  0.00    -0.392 N 
ATOM      2  H3  UNL     1     -12.957  16.309  27.233  1.00  0.00     0.159 HD
HETATM    3  C16 UNL     1     -11.272  15.404  27.130  1.00  0.00    -0.017 C 
HETATM    4  C17 UNL     1     -10.273  14.351  27.449  1.00  0.00     0.052 C 
HETATM    5  C18 UNL     1      -8.947  14.933  27.812  1.00  0.00     0.010 C 
HETATM    6  C19 UNL     1      -8.628  16.189  27.009  1.00  0.00    -0.009 C 
HETATM    7  C20 UNL     1      -7.162  16.281  26.899  1.00  0.00     0.006 C 
HETATM    8  C21 UNL     1      -6.639  16.843  25.638  1.00  0.00     0.010 C 
HETATM    9  C22 UNL     1      -7.655  17.732  24.911  1.00  0.00    -0.039 C 
HETATM   10  C23 UNL     1      -8.013  18.823  25.939  1.00  0.00     0.015 C 
HETATM   11  C24 UNL     1      -6.972  18.357  23.768  1.00  0.00     0.012 C 
HETATM   12  C25 UNL     1      -7.501  18.117  22.409  1.00  0.00     0.033 C 
HETATM   13  C26 UNL     1      -8.825  17.468  22.279  1.00  0.00     0.128 C 
HETATM   14  C27 UNL     1      -8.925  16.325  23.270  1.00  0.00     0.008 C 
HETATM   15  C28 UNL     1      -7.828  15.313  23.071  1.00  0.00     0.020 C 
HETATM   16  C30 UNL     1      -8.913  16.992  24.626  1.00  0.00     0.011 C 
HETATM   17  C31 UNL     1      -9.416  16.125  25.747  1.00  0.00     0.001 C 
HETATM   18  C32 UNL     1     -10.830  16.465  26.147  1.00  0.00     0.057 C 
ENDROOT
BRANCH   1  19
HETATM   19  C2  UNL     1     -13.134  14.699  28.495  1.00  0.00     0.077 C 
HETATM   20  C1  UNL     1     -14.509  15.339  28.714  1.00  0.00     0.032 C 
BRANCH  19  21
HETATM   21  C3  UNL     1     -13.427  13.338  27.869  1.00  0.00     0.025 C 
BRANCH  21  22
HETATM   22  C4  UNL     1     -13.246  12.231  28.853  1.00  0.00     0.008 C 
BRANCH  22  23
HETATM   23  C5  UNL     1     -12.396  12.542  30.030  1.00  0.00     0.060 C 
BRANCH  23  24
HETATM   24  C6  UNL     1     -13.124  12.634  31.357  1.00  0.00     0.159 C 
BRANCH  24  25
HETATM   25  N1  UNL     1     -12.964  13.873  31.964  1.00  0.00    -0.387 NA
HETATM   26  C7  UNL     1     -12.810  15.074  32.554  1.00  0.00     0.297 C 
HETATM   27  O1  UNL     1     -13.631  15.589  33.391  1.00  0.00    -0.257 OA
BRANCH  26  28
HETATM   28  C8  UNL     1     -11.623  15.985  32.289  1.00  0.00     0.130 C 
HETATM   29  C9  UNL     1     -10.886  15.526  31.057  1.00  0.00     0.055 C 
HETATM   30  C10 UNL     1      -9.479  15.953  31.313  1.00  0.00     0.120 C 
HETATM   31  C11 UNL     1      -8.470  14.937  30.810  1.00  0.00     0.046 C 
HETATM   32  C12 UNL     1      -9.272  17.309  30.642  1.00  0.00     0.046 C 
HETATM   33  N2  UNL     1      -9.315  16.130  32.722  1.00  0.00    -0.058 N 
HETATM   34  C13 UNL     1     -10.560  15.782  33.362  1.00  0.00     0.132 C 
ATOM     35  H22 UNL     1      -8.520  15.611  33.096  1.00  0.00     0.279 HD
ATOM     36  H21 UNL     1      -8.993  17.067  32.966  1.00  0.00     0.279 HD
HETATM   37  C14 UNL     1     -10.759  16.700  34.545  1.00  0.00     0.047 C 
HETATM   38  C15 UNL     1     -10.520  14.347  33.766  1.00  0.00     0.047 C 
ENDBRANCH  26  28
ENDBRANCH  24  25
ENDBRANCH  23  24
ENDBRANCH  22  23
ENDBRANCH  21  22
ENDBRANCH  19  21
ENDBRANCH   1  19
BRANCH  14  39
HETATM   39  C29 UNL     1     -10.228  15.638  22.984  1.00  0.00     0.176 C 
BRANCH  39  40
HETATM   40  O3  UNL     1     -11.144  16.612  22.585  1.00  0.00    -0.400 OA
ATOM     41  H3  UNL     1     -11.337  17.155  23.340  1.00  0.00     0.209 HD
ENDBRANCH  39  40
ENDBRANCH  14  39
BRANCH  13  42
HETATM   42  O2  UNL     1      -9.031  17.100  20.969  1.00  0.00    -0.395 OA
ATOM     43  H2  UNL     1      -9.088  17.877  20.427  1.00  0.00     0.210 HD
ENDBRANCH  13  42
TORSDOF 10
ENDMDL
MODEL 2
REMARK VINA RESULT: -8.332902631      2.056      4.611
REMARK  10 active torsions:
REMARK  status: ('A' for Active; 'I' for Inactive)
REMARK    1  A    between atoms: C2_2  and  C3_3 
REMARK    2  A    between atoms: C2_2  and  N3_21 
REMARK    3  A    between atoms: C3_3  and  C4_4 
REMARK    4  A    between atoms: C4_4  and  C5_5 
REMARK    5  A    between atoms: C5_5  and  C6_6 
REMARK    6  A    between atoms: C6_6  and  N1_7 
REMARK       I    between atoms: N1_7  and  C7_8 
REMARK    7  A    between atoms: C7_8  and  C8_10 
REMARK    8  A    between atoms: C26_33  and  O2_34 
REMARK    9  A    between atoms: C27_36  and  C29_38 
REMARK   10  A    between atoms: C29_38  and  O3_39 
ROOT
HETATM    1  N3  UNL     1      -8.003  17.429  28.792  1.00  0.00    -0.392 N 
ATOM      2  H3  UNL     1      -7.156  16.872  28.903  1.00  0.00     0.159 HD
HETATM    3  C16 UNL     1      -8.286  17.718  27.609  1.00  0.00    -0.017 C 
HETATM    4  C17 UNL     1      -9.448  18.512  27.130  1.00  0.00     0.052 C 
HETATM    5  C18 UNL     1     -10.175  17.822  26.024  1.00  0.00     0.010 C 
HETATM    6  C19 UNL     1      -9.233  17.058  25.101  1.00  0.00    -0.009 C 
HETATM    7  C20 UNL     1      -9.858  17.018  23.768  1.00  0.00     0.006 C 
HETATM    8  C21 UNL     1      -8.936  17.078  22.616  1.00  0.00     0.010 C 
HETATM    9  C22 UNL     1      -7.516  16.615  22.959  1.00  0.00    -0.039 C 
HETATM   10  C23 UNL     1      -7.700  15.181  23.492  1.00  0.00     0.015 C 
HETATM   11  C24 UNL     1      -6.742  16.566  21.710  1.00  0.00     0.012 C 
HETATM   12  C25 UNL     1      -5.522  17.393  21.598  1.00  0.00     0.033 C 
HETATM   13  C26 UNL     1      -5.002  18.038  22.825  1.00  0.00     0.128 C 
HETATM   14  C27 UNL     1      -6.156  18.615  23.618  1.00  0.00     0.008 C 
HETATM   15  C28 UNL     1      -6.954  19.603  22.811  1.00  0.00     0.020 C 
HETATM   16  C30 UNL     1      -6.944  17.410  24.078  1.00  0.00     0.011 C 
HETATM   17  C31 UNL     1      -7.887  17.685  25.217  1.00  0.00     0.001 C 
HETATM   18  C32 UNL     1      -7.343  17.209  26.541  1.00  0.00     0.057 C 
ENDROOT
BRANCH   1  19
HETATM   19  C2  UNL     1      -8.661  17.746  29.993  1.00  0.00     0.077 C 
HETATM   20  C1  UNL     1     -10.160  17.509  29.772  1.00  0.00     0.032 C 
BRANCH  19  21
HETATM   21  C3  UNL     1      -8.263  16.756  31.084  1.00  0.00     0.025 C 
BRANCH  21  22
HETATM   22  C4  UNL     1      -8.754  17.190  32.424  1.00  0.00     0.008 C 
BRANCH  22  23
HETATM   23  C5  UNL     1      -9.771  16.312  33.058  1.00  0.00     0.060 C 
BRANCH  23  24
HETATM   24  C6  UNL     1      -9.945  14.947  32.422  1.00  0.00     0.159 C 
BRANCH  24  25
HETATM   25  N1  UNL     1     -11.235  14.743  31.951  1.00  0.00    -0.387 NA
HETATM   26  C7  UNL     1     -12.487  14.544  31.496  1.00  0.00     0.297 C 
HETATM   27  O1  UNL     1     -13.552  14.940  32.087  1.00  0.00    -0.257 OA
BRANCH  26  28
HETATM   28  C8  UNL     1     -12.795  13.810  30.201  1.00  0.00     0.130 C 
HETATM   29  C9  UNL     1     -11.519  13.529  29.452  1.00  0.00     0.055 C 
HETATM   30  C10 UNL     1     -11.948  13.517  28.023  1.00  0.00     0.120 C 
HETATM   31  C11 UNL     1     -10.915  14.145  27.107  1.00  0.00     0.046 C 
HETATM   32  C12 UNL     1     -12.220  12.066  27.630  1.00  0.00     0.046 C 
HETATM   33  N2  UNL     1     -13.178  14.237  27.920  1.00  0.00    -0.058 N 
HETATM   34  C13 UNL     1     -13.509  14.743  29.230  1.00  0.00     0.132 C 
ATOM     35  H22 UNL     1     -13.149  14.969  27.210  1.00  0.00     0.279 HD
ATOM     36  H21 UNL     1     -13.928  13.680  27.510  1.00  0.00     0.279 HD
HETATM   37  C14 UNL     1     -15.010  14.697  29.391  1.00  0.00     0.047 C 
HETATM   38  C15 UNL     1     -12.971  16.127  29.372  1.00  0.00     0.047 C 
ENDBRANCH  26  28
ENDBRANCH  24  25
ENDBRANCH  23  24
ENDBRANCH  22  23
ENDBRANCH  21  22
ENDBRANCH  19  21
ENDBRANCH   1  19
BRANCH  14  39
HETATM   39  C29 UNL     1      -5.540  19.364  24.765  1.00  0.00     0.176 C 
BRANCH  39  40
HETATM   40  O3  UNL     1      -4.434  18.636  25.204  1.00  0.00    -0.400 OA
ATOM     41  H3  UNL     1      -4.620  18.329  26.083  1.00  0.00     0.209 HD
ENDBRANCH  39  40
ENDBRANCH  14  39
BRANCH  13  42
HETATM   42  O2  UNL     1      -4.033  18.955  22.486  1.00  0.00    -0.395 OA
ATOM     43  H2  UNL     1      -3.327  18.516  22.028  1.00  0.00     0.210 HD
ENDBRANCH  13  42
TORSDOF 10
ENDMDL
MODEL 3
REMARK VINA RESULT: -8.231909840      2.106      5.122
REMARK  10 active torsions:
REMARK  status: ('A' for Active; 'I' for Inactive)
REMARK    1  A    between atoms: C2_2  and  C3_3 
REMARK    2  A    between atoms: C2_2  and  N3_21 
REMARK    3  A    between atoms: C3_3  and  C4_4 
REMARK    4  A    between atoms: C4_4  and  C5_5 
REMARK    5  A    between atoms: C5_5  and  C6_6 
REMARK    6  A    between atoms: C6_6  and  N1_7 
REMARK       I    between atoms: N1_7  and  C7_8 
REMARK    7  A    between atoms: C7_8  and  C8_10 
REMARK    8  A    between atoms: C26_33  and  O2_34 
REMARK    9  A    between atoms: C27_36  and  C29_38 
REMARK   10  A    between atoms: C29_38  and  O3_39 
ROOT
HETATM    1  N3  UNL     1      -8.458  15.904  31.758  1.00  0.00    -0.392 N 
ATOM      2  H3  UNL     1      -7.864  15.091  31.596  1.00  0.00     0.159 HD
HETATM    3  C16 UNL     1      -8.931  16.420  30.721  1.00  0.00    -0.017 C 
HETATM    4  C17 UNL     1      -9.825  17.605  30.634  1.00  0.00     0.052 C 
HETATM    5  C18 UNL     1     -11.018  17.339  29.778  1.00  0.00     0.010 C 
HETATM    6  C19 UNL     1     -10.691  16.435  28.595  1.00  0.00    -0.009 C 
HETATM    7  C20 UNL     1     -11.627  16.774  27.509  1.00  0.00     0.006 C 
HETATM    8  C21 UNL     1     -11.092  16.677  26.136  1.00  0.00     0.010 C 
HETATM    9  C22 UNL     1      -9.888  15.736  26.026  1.00  0.00    -0.039 C 
HETATM   10  C23 UNL     1     -10.410  14.384  26.551  1.00  0.00     0.015 C 
HETATM   11  C24 UNL     1      -9.550  15.598  24.602  1.00  0.00     0.012 C 
HETATM   12  C25 UNL     1      -8.196  15.988  24.153  1.00  0.00     0.033 C 
HETATM   13  C26 UNL     1      -7.171  16.263  25.185  1.00  0.00     0.128 C 
HETATM   14  C27 UNL     1      -7.789  17.078  26.303  1.00  0.00     0.008 C 
HETATM   15  C28 UNL     1      -8.377  18.369  25.798  1.00  0.00     0.020 C 
HETATM   16  C30 UNL     1      -8.793  16.149  26.944  1.00  0.00     0.011 C 
HETATM   17  C31 UNL     1      -9.233  16.568  28.320  1.00  0.00     0.001 C 
HETATM   18  C32 UNL     1      -8.554  15.773  29.407  1.00  0.00     0.057 C 
ENDROOT
BRANCH   1  19
HETATM   19  C2  UNL     1      -8.612  16.261  33.109  1.00  0.00     0.077 C 
HETATM   20  C1  UNL     1      -8.172  17.722  33.252  1.00  0.00     0.032 C 
BRANCH  19  21
HETATM   21  C3  UNL     1     -10.091  16.257  33.486  1.00  0.00     0.025 C 
BRANCH  21  22
HETATM   22  C4  UNL     1     -10.542  14.903  33.922  1.00  0.00     0.008 C 
BRANCH  22  23
HETATM   23  C5  UNL     1     -11.899  14.496  33.477  1.00  0.00     0.060 C 
BRANCH  23  24
HETATM   24  C6  UNL     1     -12.671  15.540  32.695  1.00  0.00     0.159 C 
BRANCH  24  25
HETATM   25  N1  UNL     1     -13.233  15.025  31.534  1.00  0.00    -0.387 NA
HETATM   26  C7  UNL     1     -13.777  14.527  30.407  1.00  0.00     0.297 C 
HETATM   27  O1  UNL     1     -14.058  15.214  29.364  1.00  0.00    -0.257 OA
BRANCH  26  28
HETATM   28  C8  UNL     1     -14.135  13.060  30.235  1.00  0.00     0.130 C 
HETATM   29  C9  UNL     1     -14.157  12.374  31.576  1.00  0.00     0.055 C 
HETATM   30  C10 UNL     1     -13.789  10.964  31.253  1.00  0.00     0.120 C 
HETATM   31  C11 UNL     1     -12.899  10.345  32.314  1.00  0.00     0.046 C 
HETATM   32  C12 UNL     1     -15.082  10.169  31.090  1.00  0.00     0.046 C 
HETATM   33  N2  UNL     1     -13.108  10.957  29.996  1.00  0.00    -0.058 N 
HETATM   34  C13 UNL     1     -12.995  12.323  29.544  1.00  0.00     0.132 C 
ATOM     35  H22 UNL     1     -12.208  10.479  30.037  1.00  0.00     0.279 HD
ATOM     36  H21 UNL     1     -13.555  10.349  29.309  1.00  0.00     0.279 HD
HETATM   37  C14 UNL     1     -13.132  12.338  28.040  1.00  0.00     0.047 C 
HETATM   38  C15 UNL     1     -11.687  12.882  29.993  1.00  0.00     0.047 C 
ENDBRANCH  26  28
ENDBRANCH  24  25
ENDBRANCH  23  24
ENDBRANCH  22  23
ENDBRANCH  21  22
ENDBRANCH  19  21
ENDBRANCH   1  19
BRANCH  14  39
HETATM   39  C29 UNL     1      -6.663  17.431  27.232  1.00  0.00     0.176 C 
BRANCH  39  40
HETATM   40  O3  UNL     1      -6.213  18.706  26.891  1.00  0.00    -0.400 OA
ATOM     41  H3  UNL     1      -5.692  19.033  27.616  1.00  0.00     0.209 HD
ENDBRANCH  39  40
ENDBRANCH  14  39
BRANCH  13  42
HETATM   42  O2  UNL     1      -6.074  16.850  24.598  1.00  0.00    -0.395 OA
ATOM     43  H2  UNL     1      -5.606  17.366  25.244  1.00  0.00     0.210 HD
ENDBRANCH  13  42
TORSDOF 10
ENDMDL
MODEL 4
REMARK VINA RESULT: -8.153416437      4.295      9.703
REMARK  10 active torsions:
REMARK  status: ('A' for Active; 'I' for Inactive)
REMARK    1  A    between atoms: C2_2  and  C3_3 
REMARK    2  A    between atoms: C2_2  and  N3_21 
REMARK    3  A    between atoms: C3_3  and  C4_4 
REMARK    4  A    between atoms: C4_4  and  C5_5 
REMARK    5  A    between atoms: C5_5  and  C6_6 
REMARK    6  A    between atoms: C6_6  and  N1_7 
REMARK       I    between atoms: N1_7  and  C7_8 
REMARK    7  A    between atoms: C7_8  and  C8_10 
REMARK    8  A    between atoms: C26_33  and  O2_34 
REMARK    9  A    between atoms: C27_36  and  C29_38 
REMARK   10  A    between atoms: C29_38  and  O3_39 
ROOT
HETATM    1  N3  UNL     1      -8.816  15.096  24.750  1.00  0.00    -0.392 N 
ATOM      2  H3  UNL     1      -8.338  14.232  25.006  1.00  0.00     0.159 HD
HETATM    3  C16 UNL     1      -9.599  15.537  25.619  1.00  0.00    -0.017 C 
HETATM    4  C17 UNL     1     -10.432  16.765  25.538  1.00  0.00     0.052 C 
HETATM    5  C18 UNL     1     -10.282  17.619  26.754  1.00  0.00     0.010 C 
HETATM    6  C19 UNL     1     -10.110  16.792  28.023  1.00  0.00    -0.009 C 
HETATM    7  C20 UNL     1     -10.647  17.587  29.142  1.00  0.00     0.006 C 
HETATM    8  C21 UNL     1     -11.307  16.826  30.221  1.00  0.00     0.010 C 
HETATM    9  C22 UNL     1     -10.849  15.365  30.292  1.00  0.00    -0.039 C 
HETATM   10  C23 UNL     1      -9.322  15.451  30.481  1.00  0.00     0.015 C 
HETATM   11  C24 UNL     1     -11.447  14.761  31.492  1.00  0.00     0.012 C 
HETATM   12  C25 UNL     1     -12.322  13.581  31.331  1.00  0.00     0.033 C 
HETATM   13  C26 UNL     1     -12.360  12.915  30.010  1.00  0.00     0.128 C 
HETATM   14  C27 UNL     1     -12.411  13.965  28.919  1.00  0.00     0.008 C 
HETATM   15  C28 UNL     1     -13.597  14.879  29.074  1.00  0.00     0.020 C 
HETATM   16  C30 UNL     1     -11.074  14.665  28.999  1.00  0.00     0.011 C 
HETATM   17  C31 UNL     1     -10.714  15.455  27.771  1.00  0.00     0.001 C 
HETATM   18  C32 UNL     1      -9.720  14.733  26.895  1.00  0.00     0.057 C 
ENDROOT
BRANCH   1  19
HETATM   19  C2  UNL     1      -8.486  15.596  23.478  1.00  0.00     0.077 C 
HETATM   20  C1  UNL     1      -9.788  16.054  22.812  1.00  0.00     0.032 C 
BRANCH  19  21
HETATM   21  C3  UNL     1      -7.647  16.864  23.617  1.00  0.00     0.025 C 
BRANCH  21  22
HETATM   22  C4  UNL     1      -7.889  17.808  22.487  1.00  0.00     0.008 C 
BRANCH  22  23
HETATM   23  C5  UNL     1      -6.700  18.550  21.996  1.00  0.00     0.060 C 
BRANCH  23  24
HETATM   24  C6  UNL     1      -6.080  19.520  22.982  1.00  0.00     0.159 C 
BRANCH  24  25
HETATM   25  N1  UNL     1      -4.760  19.203  23.277  1.00  0.00    -0.387 NA
HETATM   26  C7  UNL     1      -3.480  18.898  23.564  1.00  0.00     0.297 C 
HETATM   27  O1  UNL     1      -2.622  19.718  24.042  1.00  0.00    -0.257 OA
BRANCH  26  28
HETATM   28  C8  UNL     1      -2.886  17.516  23.346  1.00  0.00     0.130 C 
HETATM   29  C9  UNL     1      -1.569  17.402  24.069  1.00  0.00     0.055 C 
HETATM   30  C10 UNL     1      -0.803  16.419  23.247  1.00  0.00     0.120 C 
HETATM   31  C11 UNL     1       0.669  16.774  23.150  1.00  0.00     0.046 C 
HETATM   32  C12 UNL     1      -0.996  15.038  23.870  1.00  0.00     0.046 C 
HETATM   33  N2  UNL     1      -1.374  16.392  21.937  1.00  0.00    -0.058 N 
HETATM   34  C13 UNL     1      -2.442  17.362  21.896  1.00  0.00     0.132 C 
ATOM     35  H22 UNL     1      -0.682  16.537  21.201  1.00  0.00     0.279 HD
ATOM     36  H21 UNL     1      -1.677  15.459  21.658  1.00  0.00     0.279 HD
HETATM   37  C14 UNL     1      -3.542  16.820  21.016  1.00  0.00     0.047 C 
HETATM   38  C15 UNL     1      -1.907  18.660  21.392  1.00  0.00     0.047 C 
ENDBRANCH  26  28
ENDBRANCH  24  25
ENDBRANCH  23  24
ENDBRANCH  22  23
ENDBRANCH  21  22
ENDBRANCH  19  21
ENDBRANCH   1  19
BRANCH  14  39
HETATM   39  C29 UNL     1     -12.586  13.217  27.628  1.00  0.00     0.176 C 
BRANCH  39  40
HETATM   40  O3  UNL     1     -11.849  12.036  27.718  1.00  0.00    -0.400 OA
ATOM     41  H3  UNL     1     -12.460  11.310  27.672  1.00  0.00     0.209 HD
ENDBRANCH  39  40
ENDBRANCH  14  39
BRANCH  13  42
HETATM   42  O2  UNL     1     -13.402  12.016  29.978  1.00  0.00    -0.395 OA
ATOM     43  H2  UNL     1     -14.029  12.281  29.315  1.00  0.00     0.210 HD
ENDBRANCH  13  42
TORSDOF 10
ENDMDL
MODEL 5
REMARK VINA RESULT: -8.111724916      2.850      5.362
REMARK  10 active torsions:
REMARK  status: ('A' for Active; 'I' for Inactive)
REMARK    1  A    between atoms: C2_2  and  C3_3 
REMARK    2  A    between atoms: C2_2  and  N3_21 
REMARK    3  A    between atoms: C3_3  and  C4_4 
REMARK    4  A    between atoms: C4_4  and  C5_5 
REMARK    5  A    between atoms: C5_5  and  C6_6 
REMARK    6  A    between atoms: C6_6  and  N1_7 
REMARK       I    between atoms: N1_7  and  C7_8 
REMARK    7  A    between atoms: C7_8  and  C8_10 
REMARK    8  A    between atoms: C26_33  and  O2_34 
REMARK    9  A    between atoms: C27_36  and  C29_38 
REMARK   10  A    between atoms: C29_38  and  O3_39 
ROOT
HETATM    1  N3  UNL     1      -8.568  15.414  31.714  1.00  0.00    -0.392 N 
ATOM      2  H3  UNL     1      -8.022  14.585  31.480  1.00  0.00     0.159 HD
HETATM    3  C16 UNL     1      -8.999  16.051  30.728  1.00  0.00    -0.017 C 
HETATM    4  C17 UNL     1      -9.819  17.291  30.747  1.00  0.00     0.052 C 
HETATM    5  C18 UNL     1     -11.017  17.179  29.864  1.00  0.00     0.010 C 
HETATM    6  C19 UNL     1     -10.733  16.369  28.604  1.00  0.00    -0.009 C 
HETATM    7  C20 UNL     1     -11.636  16.863  27.550  1.00  0.00     0.006 C 
HETATM    8  C21 UNL     1     -11.094  16.862  26.176  1.00  0.00     0.010 C 
HETATM    9  C22 UNL     1      -9.948  15.863  25.985  1.00  0.00    -0.039 C 
HETATM   10  C23 UNL     1     -10.555  14.503  26.380  1.00  0.00     0.015 C 
HETATM   11  C24 UNL     1      -9.604  15.836  24.555  1.00  0.00     0.012 C 
HETATM   12  C25 UNL     1      -8.225  16.183  24.151  1.00  0.00     0.033 C 
HETATM   13  C26 UNL     1      -7.196  16.299  25.208  1.00  0.00     0.128 C 
HETATM   14  C27 UNL     1      -7.775  17.044  26.394  1.00  0.00     0.008 C 
HETATM   15  C28 UNL     1      -8.279  18.409  26.008  1.00  0.00     0.020 C 
HETATM   16  C30 UNL     1      -8.840  16.122  26.942  1.00  0.00     0.011 C 
HETATM   17  C31 UNL     1      -9.267  16.438  28.349  1.00  0.00     0.001 C 
HETATM   18  C32 UNL     1      -8.648  15.507  29.361  1.00  0.00     0.057 C 
ENDROOT
BRANCH   1  19
HETATM   19  C2  UNL     1      -8.714  15.654  33.091  1.00  0.00     0.077 C 
HETATM   20  C1  UNL     1      -8.996  17.150  33.271  1.00  0.00     0.032 C 
BRANCH  19  21
HETATM   21  C3  UNL     1      -9.964  14.951  33.615  1.00  0.00     0.025 C 
BRANCH  21  22
HETATM   22  C4  UNL     1     -11.092  15.909  33.805  1.00  0.00     0.008 C 
BRANCH  22  23
HETATM   23  C5  UNL     1     -12.396  15.499  33.224  1.00  0.00     0.060 C 
BRANCH  23  24
HETATM   24  C6  UNL     1     -12.319  14.506  32.081  1.00  0.00     0.159 C 
BRANCH  24  25
HETATM   25  N1  UNL     1     -12.953  13.306  32.379  1.00  0.00    -0.387 NA
HETATM   26  C7  UNL     1     -13.568  12.144  32.666  1.00  0.00     0.297 C 
HETATM   27  O1  UNL     1     -14.674  11.755  32.153  1.00  0.00    -0.257 OA
BRANCH  26  28
HETATM   28  C8  UNL     1     -13.016  11.133  33.658  1.00  0.00     0.130 C 
HETATM   29  C9  UNL     1     -13.933   9.941  33.744  1.00  0.00     0.055 C 
HETATM   30  C10 UNL     1     -13.734   9.447  35.138  1.00  0.00     0.120 C 
HETATM   31  C11 UNL     1     -15.024   8.952  35.762  1.00  0.00     0.046 C 
HETATM   32  C12 UNL     1     -12.684   8.338  35.095  1.00  0.00     0.046 C 
HETATM   33  N2  UNL     1     -13.206  10.520  35.921  1.00  0.00    -0.058 N 
HETATM   34  C13 UNL     1     -13.114  11.685  35.075  1.00  0.00     0.132 C 
ATOM     35  H22 UNL     1     -13.744  10.691  36.770  1.00  0.00     0.279 HD
ATOM     36  H21 UNL     1     -12.319  10.284  36.366  1.00  0.00     0.279 HD
HETATM   37  C14 UNL     1     -11.883  12.464  35.472  1.00  0.00     0.047 C 
HETATM   38  C15 UNL     1     -14.359  12.493  35.216  1.00  0.00     0.047 C 
ENDBRANCH  26  28
ENDBRANCH  24  25
ENDBRANCH  23  24
ENDBRANCH  22  23
ENDBRANCH  21  22
ENDBRANCH  19  21
ENDBRANCH   1  19
BRANCH  14  39
HETATM   39  C29 UNL     1      -6.639  17.240  27.357  1.00  0.00     0.176 C 
BRANCH  39  40
HETATM   40  O3  UNL     1      -6.085  18.496  27.112  1.00  0.00    -0.400 OA
ATOM     41  H3  UNL     1      -5.474  18.685  27.815  1.00  0.00     0.209 HD
ENDBRANCH  39  40
ENDBRANCH  14  39
BRANCH  13  42
HETATM   42  O2  UNL     1      -6.059  16.870  24.683  1.00  0.00    -0.395 OA
ATOM     43  H2  UNL     1      -6.001  17.776  24.962  1.00  0.00     0.210 HD
ENDBRANCH  13  42
TORSDOF 10
ENDMDL
