MODEL 1
REMARK VINA RESULT: -7.756376171      0.000      0.000
REMARK  9 active torsions:
REMARK  status: ('A' for Active; 'I' for Inactive)
REMARK    1  A    between atoms: N1_1  and  C1_5 
REMARK    2  A    between atoms: C1_5  and  C2_6 
REMARK    3  A    between atoms: C2_6  and  N2_7 
REMARK    4  A    between atoms: N2_7  and  C3_9 
REMARK    5  A    between atoms: C4_14  and  C5_15 
REMARK    6  A    between atoms: C6_20  and  N7_21 
REMARK       I    between atoms: N7_21  and  C7_23 
REMARK    7  A    between atoms: C7_23  and  C8_25 
REMARK    8  A    between atoms: C9_29  and  N8_30 
REMARK    9  A    between atoms: N8_30  and  N9_32 
ROOT
HETATM    1  C3  UNL     1      73.462  68.969  96.232  1.00  0.00     0.694 A 
HETATM    2  N3  UNL     1      74.705  69.292  95.893  1.00  0.00    -0.132 N 
ATOM      3  H3  UNL     1      75.149  70.069  96.382  1.00  0.00     0.205 HD
HETATM    4  N4  UNL     1      75.402  68.663  94.956  1.00  0.00    -0.280 N 
ATOM      5  H4  UNL     1      76.355  68.957  94.740  1.00  0.00     0.188 HD
HETATM    6  C4  UNL     1      74.842  67.637  94.296  1.00  0.00     0.130 A 
HETATM    7  C9  UNL     1      73.559  67.275  94.618  1.00  0.00     0.166 A 
HETATM    8  N10 UNL     1      72.877  67.939  95.582  1.00  0.00    -0.172 N 
ATOM      9  H10 UNL     1      71.924  67.662  95.816  1.00  0.00     0.186 HD
ENDROOT
BRANCH   6  10
HETATM   10  C5  UNL     1      75.556  66.902  93.252  1.00  0.00     0.124 A 
HETATM   11  N5  UNL     1      75.428  67.068  91.948  1.00  0.00    -0.290 N 
HETATM   12  N6  UNL     1      76.107  66.365  91.140  1.00  0.00    -0.279 N 
ATOM     13  H5  UNL     1      74.778  67.767  91.589  1.00  0.00     0.188 HD
HETATM   14  C6  UNL     1      76.954  65.454  91.635  1.00  0.00     0.168 A 
ATOM     15  H6  UNL     1      76.009  66.491  90.132  1.00  0.00     0.189 HD
HETATM   16  S1  UNL     1      76.725  65.660  93.318  1.00  0.00    -0.031 SA
BRANCH  14  17
HETATM   17  N7  UNL     1      77.740  64.637  90.981  1.00  0.00    -0.297 N 
HETATM   18  C7  UNL     1      78.665  63.886  91.718  1.00  0.00     0.324 C 
HETATM   19  O1  UNL     1      78.328  62.798  92.221  1.00  0.00    -0.260 OA
ATOM     20  H7  UNL     1      77.680  64.548  89.967  1.00  0.00     0.171 HD
BRANCH  18  21
HETATM   21  C8  UNL     1      80.015  64.375  91.894  1.00  0.00     0.270 C 
HETATM   22  O2  UNL     1      81.028  63.760  91.449  1.00  0.00    -0.640 OA
HETATM   23  O3  UNL     1      80.298  65.569  92.571  1.00  0.00    -0.640 OA
ENDBRANCH  18  21
ENDBRANCH  14  17
ENDBRANCH   6  10
BRANCH   7  24
HETATM   24  N8  UNL     1      73.025  66.284  93.979  1.00  0.00    -0.290 N 
ATOM     25  H8  UNL     1      73.596  65.666  93.403  1.00  0.00     0.188 HD
BRANCH  24  26
HETATM   26  N9  UNL     1      71.647  66.082  94.098  1.00  0.00    -0.344 N 
ATOM     27  H92 UNL     1      71.085  66.729  94.652  1.00  0.00     0.176 HD
ATOM     28  H91 UNL     1      71.231  65.282  93.622  1.00  0.00     0.176 HD
ENDBRANCH  24  26
ENDBRANCH   7  24
BRANCH   1  29
HETATM   29  N2  UNL     1      72.775  69.571  97.140  1.00  0.00    -0.223 N 
ATOM     30  H2  UNL     1      72.554  69.069  97.999  1.00  0.00     0.177 HD
BRANCH  29  31
HETATM   31  C2  UNL     1      72.311  70.914  96.994  1.00  0.00     0.165 C 
BRANCH  31  32
HETATM   32  C1  UNL     1      73.513  71.842  96.811  1.00  0.00     0.249 C 
BRANCH  32  33
HETATM   33  N1  UNL     1      73.163  73.192  97.215  1.00  0.00    -0.078 N 
ATOM     34  H13 UNL     1      72.198  73.424  96.980  1.00  0.00     0.274 HD
ATOM     35  H12 UNL     1      73.095  73.282  98.229  1.00  0.00     0.274 HD
ATOM     36  H11 UNL     1      73.825  73.858  96.815  1.00  0.00     0.274 HD
ENDBRANCH  32  33
ENDBRANCH  31  32
ENDBRANCH  29  31
ENDBRANCH   1  29
TORSDOF 9
ENDMDL
MODEL 2
REMARK VINA RESULT: -7.482185509      1.690      2.083
REMARK  9 active torsions:
REMARK  status: ('A' for Active; 'I' for Inactive)
REMARK    1  A    between atoms: N1_1  and  C1_5 
REMARK    2  A    between atoms: C1_5  and  C2_6 
REMARK    3  A    between atoms: C2_6  and  N2_7 
REMARK    4  A    between atoms: N2_7  and  C3_9 
REMARK    5  A    between atoms: C4_14  and  C5_15 
REMARK    6  A    between atoms: C6_20  and  N7_21 
REMARK       I    between atoms: N7_21  and  C7_23 
REMARK    7  A    between atoms: C7_23  and  C8_25 
REMARK    8  A    between atoms: C9_29  and  N8_30 
REMARK    9  A    between atoms: N8_30  and  N9_32 
ROOT
HETATM    1  C3  UNL     1      74.985  69.149  96.491  1.00  0.00     0.694 A 
HETATM    2  N3  UNL     1      75.800  68.209  96.956  1.00  0.00    -0.132 N 
ATOM      3  H3  UNL     1      76.108  68.277  97.925  1.00  0.00     0.205 HD
HETATM    4  N4  UNL     1      76.238  67.186  96.232  1.00  0.00    -0.280 N 
ATOM      5  H4  UNL     1      76.863  66.494  96.645  1.00  0.00     0.188 HD
HETATM    6  C4  UNL     1      75.849  67.072  94.951  1.00  0.00     0.130 A 
HETATM    7  C9  UNL     1      75.007  68.024  94.437  1.00  0.00     0.166 A 
HETATM    8  N10 UNL     1      74.580  69.054  95.205  1.00  0.00    -0.172 N 
ATOM      9  H10 UNL     1      73.952  69.757  94.815  1.00  0.00     0.186 HD
ENDROOT
BRANCH   6  10
HETATM   10  C5  UNL     1      76.294  65.969  94.100  1.00  0.00     0.124 A 
HETATM   11  N5  UNL     1      75.631  65.443  93.087  1.00  0.00    -0.290 N 
HETATM   12  N6  UNL     1      76.127  64.484  92.421  1.00  0.00    -0.279 N 
ATOM     13  H5  UNL     1      74.713  65.811  92.837  1.00  0.00     0.188 HD
HETATM   14  C6  UNL     1      77.333  64.018  92.766  1.00  0.00     0.168 A 
ATOM     15  H6  UNL     1      75.616  64.075  91.638  1.00  0.00     0.189 HD
HETATM   16  S1  UNL     1      77.717  65.027  94.093  1.00  0.00    -0.031 SA
BRANCH  14  17
HETATM   17  N7  UNL     1      78.016  63.046  92.216  1.00  0.00    -0.297 N 
HETATM   18  C7  UNL     1      79.263  62.725  92.769  1.00  0.00     0.324 C 
HETATM   19  O1  UNL     1      79.337  61.931  93.724  1.00  0.00    -0.260 OA
ATOM     20  H7  UNL     1      77.652  62.538  91.410  1.00  0.00     0.171 HD
BRANCH  18  21
HETATM   21  C8  UNL     1      80.467  63.318  92.227  1.00  0.00     0.270 C 
HETATM   22  O2  UNL     1      80.612  64.569  92.095  1.00  0.00    -0.640 OA
HETATM   23  O3  UNL     1      81.560  62.548  91.810  1.00  0.00    -0.640 OA
ENDBRANCH  18  21
ENDBRANCH  14  17
ENDBRANCH   6  10
BRANCH   7  24
HETATM   24  N8  UNL     1      74.635  67.908  93.203  1.00  0.00    -0.290 N 
ATOM     25  H8  UNL     1      73.821  67.346  92.953  1.00  0.00     0.188 HD
BRANCH  24  26
HETATM   26  N9  UNL     1      75.377  68.571  92.220  1.00  0.00    -0.344 N 
ATOM     27  H92 UNL     1      76.141  68.087  91.747  1.00  0.00     0.176 HD
ATOM     28  H91 UNL     1      75.132  69.536  91.996  1.00  0.00     0.176 HD
ENDBRANCH  24  26
ENDBRANCH   7  24
BRANCH   1  29
HETATM   29  N2  UNL     1      74.553  70.145  97.183  1.00  0.00    -0.223 N 
ATOM     30  H2  UNL     1      74.155  69.964  98.104  1.00  0.00     0.177 HD
BRANCH  29  31
HETATM   31  C2  UNL     1      74.610  71.493  96.716  1.00  0.00     0.165 C 
BRANCH  31  32
HETATM   32  C1  UNL     1      73.208  72.100  96.769  1.00  0.00     0.249 C 
BRANCH  32  33
HETATM   33  N1  UNL     1      73.269  73.443  97.318  1.00  0.00    -0.078 N 
ATOM     34  H13 UNL     1      72.340  73.827  97.493  1.00  0.00     0.274 HD
ATOM     35  H12 UNL     1      73.614  73.448  98.279  1.00  0.00     0.274 HD
ATOM     36  H11 UNL     1      73.823  74.045  96.709  1.00  0.00     0.274 HD
ENDBRANCH  32  33
ENDBRANCH  31  32
ENDBRANCH  29  31
ENDBRANCH   1  29
TORSDOF 9
ENDMDL
MODEL 3
REMARK VINA RESULT: -7.391959348      1.678      2.198
REMARK  9 active torsions:
REMARK  status: ('A' for Active; 'I' for Inactive)
REMARK    1  A    between atoms: N1_1  and  C1_5 
REMARK    2  A    between atoms: C1_5  and  C2_6 
REMARK    3  A    between atoms: C2_6  and  N2_7 
REMARK    4  A    between atoms: N2_7  and  C3_9 
REMARK    5  A    between atoms: C4_14  and  C5_15 
REMARK    6  A    between atoms: C6_20  and  N7_21 
REMARK       I    between atoms: N7_21  and  C7_23 
REMARK    7  A    between atoms: C7_23  and  C8_25 
REMARK    8  A    between atoms: C9_29  and  N8_30 
REMARK    9  A    between atoms: N8_30  and  N9_32 
ROOT
HETATM    1  C3  UNL     1      74.424  69.145  96.260  1.00  0.00     0.694 A 
HETATM    2  N3  UNL     1      75.413  68.522  96.890  1.00  0.00    -0.132 N 
ATOM      3  H3  UNL     1      75.616  68.792  97.852  1.00  0.00     0.205 HD
HETATM    4  N4  UNL     1      76.153  67.567  96.340  1.00  0.00    -0.280 N 
ATOM      5  H4  UNL     1      76.900  67.124  96.874  1.00  0.00     0.188 HD
HETATM    6  C4  UNL     1      75.908  67.192  95.074  1.00  0.00     0.130 A 
HETATM    7  C9  UNL     1      74.895  67.814  94.392  1.00  0.00     0.166 A 
HETATM    8  N10 UNL     1      74.159  68.783  94.986  1.00  0.00    -0.172 N 
ATOM      9  H10 UNL     1      73.405  69.240  94.471  1.00  0.00     0.186 HD
ENDROOT
BRANCH   6  10
HETATM   10  C5  UNL     1      76.687  66.147  94.410  1.00  0.00     0.124 A 
HETATM   11  N5  UNL     1      77.976  65.908  94.569  1.00  0.00    -0.290 N 
HETATM   12  N6  UNL     1      78.541  64.967  93.933  1.00  0.00    -0.279 N 
ATOM     13  H5  UNL     1      78.522  66.484  95.210  1.00  0.00     0.188 HD
HETATM   14  C6  UNL     1      77.805  64.224  93.098  1.00  0.00     0.168 A 
ATOM     15  H6  UNL     1      79.537  64.781  94.054  1.00  0.00     0.189 HD
HETATM   16  S1  UNL     1      76.263  64.945  93.275  1.00  0.00    -0.031 SA
BRANCH  14  17
HETATM   17  N7  UNL     1      78.188  63.217  92.356  1.00  0.00    -0.297 N 
HETATM   18  C7  UNL     1      79.385  62.571  92.692  1.00  0.00     0.324 C 
HETATM   19  O1  UNL     1      79.387  61.656  93.535  1.00  0.00    -0.260 OA
ATOM     20  H7  UNL     1      77.632  62.910  91.557  1.00  0.00     0.171 HD
BRANCH  18  21
HETATM   21  C8  UNL     1      80.622  62.970  92.057  1.00  0.00     0.270 C 
HETATM   22  O2  UNL     1      80.820  64.142  91.622  1.00  0.00    -0.640 OA
HETATM   23  O3  UNL     1      81.694  62.084  91.878  1.00  0.00    -0.640 OA
ENDBRANCH  18  21
ENDBRANCH  14  17
ENDBRANCH   6  10
BRANCH   7  24
HETATM   24  N8  UNL     1      74.664  67.447  93.173  1.00  0.00    -0.290 N 
ATOM     25  H8  UNL     1      74.248  66.537  92.971  1.00  0.00     0.188 HD
BRANCH  24  26
HETATM   26  N9  UNL     1      74.998  68.327  92.139  1.00  0.00    -0.344 N 
ATOM     27  H92 UNL     1      75.698  68.058  91.449  1.00  0.00     0.176 HD
ATOM     28  H91 UNL     1      74.525  69.231  92.100  1.00  0.00     0.176 HD
ENDBRANCH  24  26
ENDBRANCH   7  24
BRANCH   1  29
HETATM   29  N2  UNL     1      73.698  70.072  96.783  1.00  0.00    -0.223 N 
ATOM     30  H2  UNL     1      72.847  69.806  97.277  1.00  0.00     0.177 HD
BRANCH  29  31
HETATM   31  C2  UNL     1      74.037  71.456  96.701  1.00  0.00     0.165 C 
BRANCH  31  32
HETATM   32  C1  UNL     1      72.789  72.295  96.982  1.00  0.00     0.249 C 
BRANCH  32  33
HETATM   33  N1  UNL     1      73.172  73.637  97.381  1.00  0.00    -0.078 N 
ATOM     34  H13 UNL     1      73.842  73.631  98.150  1.00  0.00     0.274 HD
ATOM     35  H12 UNL     1      73.756  74.093  96.680  1.00  0.00     0.274 HD
ATOM     36  H11 UNL     1      72.341  74.186  97.603  1.00  0.00     0.274 HD
ENDBRANCH  32  33
ENDBRANCH  31  32
ENDBRANCH  29  31
ENDBRANCH   1  29
TORSDOF 9
ENDMDL
MODEL 4
REMARK VINA RESULT: -7.247663584      1.375      1.616
REMARK  9 active torsions:
REMARK  status: ('A' for Active; 'I' for Inactive)
REMARK    1  A    between atoms: N1_1  and  C1_5 
REMARK    2  A    between atoms: C1_5  and  C2_6 
REMARK    3  A    between atoms: C2_6  and  N2_7 
REMARK    4  A    between atoms: N2_7  and  C3_9 
REMARK    5  A    between atoms: C4_14  and  C5_15 
REMARK    6  A    between atoms: C6_20  and  N7_21 
REMARK       I    between atoms: N7_21  and  C7_23 
REMARK    7  A    between atoms: C7_23  and  C8_25 
REMARK    8  A    between atoms: C9_29  and  N8_30 
REMARK    9  A    between atoms: N8_30  and  N9_32 
ROOT
HETATM    1  C3  UNL     1      73.940  69.495  96.676  1.00  0.00     0.694 A 
HETATM    2  N3  UNL     1      75.231  69.313  96.928  1.00  0.00    -0.132 N 
ATOM      3  H3  UNL     1      75.661  69.874  97.663  1.00  0.00     0.205 HD
HETATM    4  N4  UNL     1      75.996  68.445  96.278  1.00  0.00    -0.280 N 
ATOM      5  H4  UNL     1      76.983  68.350  96.517  1.00  0.00     0.188 HD
HETATM    6  C4  UNL     1      75.457  67.694  95.304  1.00  0.00     0.130 A 
HETATM    7  C9  UNL     1      74.126  67.854  95.016  1.00  0.00     0.166 A 
HETATM    8  N10 UNL     1      73.376  68.749  95.700  1.00  0.00    -0.172 N 
ATOM      9  H10 UNL     1      72.386  68.861  95.480  1.00  0.00     0.186 HD
ENDROOT
BRANCH   6  10
HETATM   10  C5  UNL     1      76.244  66.719  94.550  1.00  0.00     0.124 A 
HETATM   11  N5  UNL     1      77.303  66.060  94.985  1.00  0.00    -0.290 N 
HETATM   12  N6  UNL     1      77.904  65.236  94.231  1.00  0.00    -0.279 N 
ATOM     13  H5  UNL     1      77.640  66.216  95.935  1.00  0.00     0.188 HD
HETATM   14  C6  UNL     1      77.444  65.048  92.988  1.00  0.00     0.168 A 
ATOM     15  H6  UNL     1      78.723  64.726  94.565  1.00  0.00     0.189 HD
HETATM   16  S1  UNL     1      76.106  66.114  92.959  1.00  0.00    -0.031 SA
BRANCH  14  17
HETATM   17  N7  UNL     1      77.912  64.252  92.061  1.00  0.00    -0.297 N 
HETATM   18  C7  UNL     1      78.949  63.376  92.409  1.00  0.00     0.324 C 
HETATM   19  O1  UNL     1      78.687  62.267  92.911  1.00  0.00    -0.260 OA
ATOM     20  H7  UNL     1      77.534  64.268  91.114  1.00  0.00     0.171 HD
BRANCH  18  21
HETATM   21  C8  UNL     1      80.325  63.762  92.186  1.00  0.00     0.270 C 
HETATM   22  O2  UNL     1      80.741  64.943  92.369  1.00  0.00    -0.640 OA
HETATM   23  O3  UNL     1      81.298  62.852  91.750  1.00  0.00    -0.640 OA
ENDBRANCH  18  21
ENDBRANCH  14  17
ENDBRANCH   6  10
BRANCH   7  24
HETATM   24  N8  UNL     1      73.613  67.126  94.076  1.00  0.00    -0.290 N 
ATOM     25  H8  UNL     1      74.101  66.996  93.190  1.00  0.00     0.188 HD
BRANCH  24  26
HETATM   26  N9  UNL     1      72.373  66.522  94.307  1.00  0.00    -0.344 N 
ATOM     27  H92 UNL     1      72.141  66.177  95.238  1.00  0.00     0.176 HD
ATOM     28  H91 UNL     1      71.721  66.441  93.526  1.00  0.00     0.176 HD
ENDBRANCH  24  26
ENDBRANCH   7  24
BRANCH   1  29
HETATM   29  N2  UNL     1      73.188  70.334  97.300  1.00  0.00    -0.223 N 
ATOM     30  H2  UNL     1      72.864  70.096  98.237  1.00  0.00     0.177 HD
BRANCH  29  31
HETATM   31  C2  UNL     1      72.790  71.583  96.734  1.00  0.00     0.165 C 
BRANCH  31  32
HETATM   32  C1  UNL     1      73.805  72.657  97.127  1.00  0.00     0.249 C 
BRANCH  32  33
HETATM   33  N1  UNL     1      73.117  73.885  97.482  1.00  0.00    -0.078 N 
ATOM     34  H13 UNL     1      73.294  74.631  96.809  1.00  0.00     0.274 HD
ATOM     35  H12 UNL     1      72.107  73.808  97.356  1.00  0.00     0.274 HD
ATOM     36  H11 UNL     1      73.363  74.161  98.433  1.00  0.00     0.274 HD
ENDBRANCH  32  33
ENDBRANCH  31  32
ENDBRANCH  29  31
ENDBRANCH   1  29
TORSDOF 9
ENDMDL
MODEL 5
REMARK VINA RESULT: -7.224941503      3.765      8.065
REMARK  9 active torsions:
REMARK  status: ('A' for Active; 'I' for Inactive)
REMARK    1  A    between atoms: N1_1  and  C1_5 
REMARK    2  A    between atoms: C1_5  and  C2_6 
REMARK    3  A    between atoms: C2_6  and  N2_7 
REMARK    4  A    between atoms: N2_7  and  C3_9 
REMARK    5  A    between atoms: C4_14  and  C5_15 
REMARK    6  A    between atoms: C6_20  and  N7_21 
REMARK       I    between atoms: N7_21  and  C7_23 
REMARK    7  A    between atoms: C7_23  and  C8_25 
REMARK    8  A    between atoms: C9_29  and  N8_30 
REMARK    9  A    between atoms: N8_30  and  N9_32 
ROOT
HETATM    1  C3  UNL     1      79.075  65.534  89.849  1.00  0.00     0.694 A 
HETATM    2  N3  UNL     1      78.900  66.829  90.088  1.00  0.00    -0.132 N 
ATOM      3  H3  UNL     1      79.517  67.492  89.619  1.00  0.00     0.205 HD
HETATM    4  N4  UNL     1      77.970  67.311  90.903  1.00  0.00    -0.280 N 
ATOM      5  H4  UNL     1      77.884  68.317  91.047  1.00  0.00     0.188 HD
HETATM    6  C4  UNL     1      77.145  66.461  91.536  1.00  0.00     0.130 A 
HETATM    7  C9  UNL     1      77.296  65.117  91.313  1.00  0.00     0.166 A 
HETATM    8  N10 UNL     1      78.256  64.661  90.474  1.00  0.00    -0.172 N 
ATOM      9  H10 UNL     1      78.360  63.659  90.313  1.00  0.00     0.186 HD
ENDROOT
BRANCH   6  10
HETATM   10  C5  UNL     1      76.100  66.927  92.446  1.00  0.00     0.124 A 
HETATM   11  N5  UNL     1      74.969  67.519  92.106  1.00  0.00    -0.290 N 
HETATM   12  N6  UNL     1      74.138  67.879  92.994  1.00  0.00    -0.279 N 
ATOM     13  H5  UNL     1      74.763  67.687  91.121  1.00  0.00     0.188 HD
HETATM   14  C6  UNL     1      74.430  67.647  94.279  1.00  0.00     0.168 A 
ATOM     15  H6  UNL     1      73.264  68.337  92.733  1.00  0.00     0.189 HD
HETATM   16  S1  UNL     1      75.956  66.886  94.147  1.00  0.00    -0.031 SA
BRANCH  14  17
HETATM   17  N7  UNL     1      73.716  67.935  95.338  1.00  0.00    -0.297 N 
HETATM   18  C7  UNL     1      74.277  68.793  96.294  1.00  0.00     0.324 C 
HETATM   19  O1  UNL     1      74.168  70.027  96.165  1.00  0.00    -0.260 OA
ATOM     20  H7  UNL     1      72.782  67.547  95.465  1.00  0.00     0.171 HD
BRANCH  18  21
HETATM   21  C8  UNL     1      74.981  68.246  97.431  1.00  0.00     0.270 C 
HETATM   22  O2  UNL     1      74.468  67.380  98.200  1.00  0.00    -0.640 OA
HETATM   23  O3  UNL     1      76.286  68.634  97.764  1.00  0.00    -0.640 OA
ENDBRANCH  18  21
ENDBRANCH  14  17
ENDBRANCH   6  10
BRANCH   7  24
HETATM   24  N8  UNL     1      76.497  64.303  91.925  1.00  0.00    -0.290 N 
ATOM     25  H8  UNL     1      75.501  64.509  92.003  1.00  0.00     0.188 HD
BRANCH  24  26
HETATM   26  N9  UNL     1      77.032  63.135  92.476  1.00  0.00    -0.344 N 
ATOM     27  H92 UNL     1      77.372  62.394  91.864  1.00  0.00     0.176 HD
ATOM     28  H91 UNL     1      77.071  63.052  93.493  1.00  0.00     0.176 HD
ENDBRANCH  24  26
ENDBRANCH   7  24
BRANCH   1  29
HETATM   29  N2  UNL     1      79.973  65.055  89.060  1.00  0.00    -0.223 N 
ATOM     30  H2  UNL     1      80.638  64.377  89.431  1.00  0.00     0.177 HD
BRANCH  29  31
HETATM   31  C2  UNL     1      80.077  65.434  87.688  1.00  0.00     0.165 C 
BRANCH  31  32
HETATM   32  C1  UNL     1      80.836  66.759  87.590  1.00  0.00     0.249 C 
BRANCH  32  33
HETATM   33  N1  UNL     1      81.476  66.870  86.292  1.00  0.00    -0.078 N 
ATOM     34  H13 UNL     1      82.180  67.607  86.274  1.00  0.00     0.274 HD
ATOM     35  H12 UNL     1      82.087  66.076  86.097  1.00  0.00     0.274 HD
ATOM     36  H11 UNL     1      80.771  66.997  85.565  1.00  0.00     0.274 HD
ENDBRANCH  32  33
ENDBRANCH  31  32
ENDBRANCH  29  31
ENDBRANCH   1  29
TORSDOF 9
ENDMDL
