MODEL 1
REMARK VINA RESULT: -8.974531575      0.000      0.000
REMARK  7 active torsions:
REMARK  status: ('A' for Active; 'I' for Inactive)
REMARK    1  A    between atoms: N1_2  and  C2_4 
REMARK    2  A    between atoms: C3_7  and  N3_8 
REMARK    3  A    between atoms: C4_13  and  N5_14 
REMARK    4  A    between atoms: N5_14  and  C5_16 
REMARK    5  A    between atoms: C5_16  and  C6_17 
REMARK    6  A    between atoms: C6_17  and  N6_18 
REMARK    7  A    between atoms: C10_28  and  C11_29 
ROOT
HETATM    1  C6  UNL     1      75.083  66.916  91.738  1.00  0.00     0.141 C 
ENDROOT
BRANCH   1   2
HETATM    2  C5  UNL     1      75.050  67.865  92.917  1.00  0.00     0.157 C 
BRANCH   2   3
HETATM    3  N5  UNL     1      74.032  67.454  93.862  1.00  0.00    -0.224 N 
ATOM      4  H5  UNL     1      73.329  66.757  93.615  1.00  0.00     0.177 HD
BRANCH   3   5
HETATM    5  C4  UNL     1      74.050  68.010  95.044  1.00  0.00     0.707 A 
HETATM    6  N4  UNL     1      73.331  67.524  96.073  1.00  0.00    -0.022 N 
HETATM    7  C3  UNL     1      73.335  68.081  97.297  1.00  0.00     0.705 A 
ATOM      8  H4  UNL     1      72.758  66.695  95.917  1.00  0.00     0.203 HD
HETATM    9  N2  UNL     1      74.098  69.171  97.482  1.00  0.00    -0.022 N 
HETATM   10  C2  UNL     1      74.840  69.695  96.468  1.00  0.00     0.706 A 
ATOM     11  H2  UNL     1      74.122  69.616  98.399  1.00  0.00     0.203 HD
HETATM   12  N14 UNL     1      74.805  69.108  95.268  1.00  0.00    -0.022 N 
ATOM     13  H14 UNL     1      75.360  69.497  94.506  1.00  0.00     0.203 HD
BRANCH   7  14
HETATM   14  N3  UNL     1      72.643  67.614  98.291  1.00  0.00    -0.234 N 
ATOM     15  H32 UNL     1      72.506  68.124  99.164  1.00  0.00     0.174 HD
ATOM     16  H31 UNL     1      72.208  66.695  98.209  1.00  0.00     0.174 HD
ENDBRANCH   7  14
BRANCH  10  17
HETATM   17  N1  UNL     1      75.548  70.747  96.725  1.00  0.00    -0.229 N 
HETATM   18  C1  UNL     1      74.874  71.895  97.286  1.00  0.00     0.165 C 
ATOM     19  H1  UNL     1      76.551  70.764  96.537  1.00  0.00     0.177 HD
ENDBRANCH  10  17
ENDBRANCH   3   5
ENDBRANCH   2   3
ENDBRANCH   1   2
BRANCH   1  20
HETATM   20  N6  UNL     1      76.438  66.621  91.405  1.00  0.00    -0.374 N 
HETATM   21  C7  UNL     1      77.111  65.601  91.778  1.00  0.00     0.119 A 
HETATM   22  N7  UNL     1      76.593  64.645  92.566  1.00  0.00    -0.338 N 
HETATM   23  C10 UNL     1      78.431  65.523  91.323  1.00  0.00     0.095 A 
HETATM   24  C8  UNL     1      77.350  63.593  92.928  1.00  0.00     0.183 A 
ATOM     25  H7  UNL     1      75.628  64.716  92.889  1.00  0.00     0.168 HD
HETATM   26  N8  UNL     1      78.636  63.485  92.504  1.00  0.00    -0.340 N 
HETATM   27  C9  UNL     1      79.168  64.425  91.722  1.00  0.00     0.135 A 
ATOM     28  H8  UNL     1      79.197  62.681  92.785  1.00  0.00     0.167 HD
HETATM   29  N9  UNL     1      80.516  64.367  91.244  1.00  0.00    -0.082 NA
ATOM     30  H6  UNL     1      76.919  67.293  90.806  1.00  0.00     0.161 HD
BRANCH  23  31
HETATM   31  C11 UNL     1      78.976  66.572  90.468  1.00  0.00     0.148 A 
HETATM   32  N10 UNL     1      78.903  67.910  90.653  1.00  0.00    -0.269 N 
HETATM   33  N11 UNL     1      79.517  68.544  89.667  1.00  0.00    -0.007 NA
ATOM     34  H10 UNL     1      78.440  68.366  91.439  1.00  0.00     0.185 HD
HETATM   35  N12 UNL     1      79.993  67.618  88.836  1.00  0.00    -0.007 NA
HETATM   36  N13 UNL     1      79.665  66.422  89.321  1.00  0.00    -0.269 N 
ATOM     37  H13 UNL     1      79.901  65.529  88.890  1.00  0.00     0.185 HD
ENDBRANCH  23  31
ENDBRANCH   1  20
TORSDOF 7
ENDMDL
MODEL 2
REMARK VINA RESULT: -8.896499783      1.275      1.661
REMARK  7 active torsions:
REMARK  status: ('A' for Active; 'I' for Inactive)
REMARK    1  A    between atoms: N1_2  and  C2_4 
REMARK    2  A    between atoms: C3_7  and  N3_8 
REMARK    3  A    between atoms: C4_13  and  N5_14 
REMARK    4  A    between atoms: N5_14  and  C5_16 
REMARK    5  A    between atoms: C5_16  and  C6_17 
REMARK    6  A    between atoms: C6_17  and  N6_18 
REMARK    7  A    between atoms: C10_28  and  C11_29 
ROOT
HETATM    1  C6  UNL     1      75.227  66.757  91.204  1.00  0.00     0.141 C 
ENDROOT
BRANCH   1   2
HETATM    2  C5  UNL     1      75.124  68.078  91.936  1.00  0.00     0.157 C 
BRANCH   2   3
HETATM    3  N5  UNL     1      74.307  67.930  93.124  1.00  0.00    -0.224 N 
ATOM      4  H5  UNL     1      73.293  67.835  93.062  1.00  0.00     0.177 HD
BRANCH   3   5
HETATM    5  C4  UNL     1      74.920  67.921  94.278  1.00  0.00     0.707 A 
HETATM    6  N4  UNL     1      75.873  67.019  94.574  1.00  0.00    -0.022 N 
HETATM    7  C3  UNL     1      76.516  66.993  95.755  1.00  0.00     0.705 A 
ATOM      8  H4  UNL     1      76.119  66.323  93.870  1.00  0.00     0.203 HD
HETATM    9  N2  UNL     1      76.178  67.919  96.667  1.00  0.00    -0.022 N 
HETATM   10  C2  UNL     1      75.219  68.850  96.408  1.00  0.00     0.706 A 
ATOM     11  H2  UNL     1      76.648  67.926  97.572  1.00  0.00     0.203 HD
HETATM   12  N14 UNL     1      74.607  68.837  95.221  1.00  0.00    -0.022 N 
ATOM     13  H14 UNL     1      73.888  69.533  95.022  1.00  0.00     0.203 HD
BRANCH   7  14
HETATM   14  N3  UNL     1      77.436  66.123  96.043  1.00  0.00    -0.234 N 
ATOM     15  H32 UNL     1      77.475  65.193  95.628  1.00  0.00     0.174 HD
ATOM     16  H31 UNL     1      78.161  66.369  96.717  1.00  0.00     0.174 HD
ENDBRANCH   7  14
BRANCH  10  17
HETATM   17  N1  UNL     1      74.950  69.708  97.338  1.00  0.00    -0.229 N 
HETATM   18  C1  UNL     1      75.249  71.099  97.082  1.00  0.00     0.165 C 
ATOM     19  H1  UNL     1      74.539  69.412  98.224  1.00  0.00     0.177 HD
ENDBRANCH  10  17
ENDBRANCH   3   5
ENDBRANCH   2   3
ENDBRANCH   1   2
BRANCH   1  20
HETATM   20  N6  UNL     1      76.600  66.446  90.979  1.00  0.00    -0.374 N 
HETATM   21  C7  UNL     1      77.271  65.508  91.531  1.00  0.00     0.119 A 
HETATM   22  N7  UNL     1      76.731  64.670  92.430  1.00  0.00    -0.338 N 
HETATM   23  C10 UNL     1      78.612  65.393  91.152  1.00  0.00     0.095 A 
HETATM   24  C8  UNL     1      77.486  63.701  92.980  1.00  0.00     0.183 A 
ATOM     25  H7  UNL     1      75.751  64.767  92.697  1.00  0.00     0.168 HD
HETATM   26  N8  UNL     1      78.792  63.560  92.634  1.00  0.00    -0.340 N 
HETATM   27  C9  UNL     1      79.346  64.383  91.743  1.00  0.00     0.135 A 
ATOM     28  H8  UNL     1      79.352  62.820  93.057  1.00  0.00     0.167 HD
HETATM   29  N9  UNL     1      80.716  64.285  91.340  1.00  0.00    -0.082 NA
ATOM     30  H6  UNL     1      77.098  67.031  90.308  1.00  0.00     0.161 HD
BRANCH  23  31
HETATM   31  C11 UNL     1      79.180  66.314  90.174  1.00  0.00     0.148 A 
HETATM   32  N10 UNL     1      79.092  67.664  90.161  1.00  0.00    -0.269 N 
HETATM   33  N11 UNL     1      79.737  68.156  89.115  1.00  0.00    -0.007 NA
ATOM     34  H10 UNL     1      78.599  68.223  90.857  1.00  0.00     0.185 HD
HETATM   35  N12 UNL     1      80.247  67.125  88.443  1.00  0.00    -0.007 NA
HETATM   36  N13 UNL     1      79.910  66.008  89.084  1.00  0.00    -0.269 N 
ATOM     37  H13 UNL     1      80.165  65.065  88.795  1.00  0.00     0.185 HD
ENDBRANCH  23  31
ENDBRANCH   1  20
TORSDOF 7
ENDMDL
MODEL 3
REMARK VINA RESULT: -8.524325247      1.292      2.467
REMARK  7 active torsions:
REMARK  status: ('A' for Active; 'I' for Inactive)
REMARK    1  A    between atoms: N1_2  and  C2_4 
REMARK    2  A    between atoms: C3_7  and  N3_8 
REMARK    3  A    between atoms: C4_13  and  N5_14 
REMARK    4  A    between atoms: N5_14  and  C5_16 
REMARK    5  A    between atoms: C5_16  and  C6_17 
REMARK    6  A    between atoms: C6_17  and  N6_18 
REMARK    7  A    between atoms: C10_28  and  C11_29 
ROOT
HETATM    1  C6  UNL     1      75.369  66.671  91.294  1.00  0.00     0.141 C 
ENDROOT
BRANCH   1   2
HETATM    2  C5  UNL     1      75.308  67.923  92.141  1.00  0.00     0.157 C 
BRANCH   2   3
HETATM    3  N5  UNL     1      75.597  67.607  93.525  1.00  0.00    -0.224 N 
ATOM      4  H5  UNL     1      76.546  67.390  93.832  1.00  0.00     0.177 HD
BRANCH   3   5
HETATM    5  C4  UNL     1      74.597  67.610  94.364  1.00  0.00     0.707 A 
HETATM    6  N4  UNL     1      74.730  68.041  95.632  1.00  0.00    -0.022 N 
HETATM    7  C3  UNL     1      73.713  68.053  96.513  1.00  0.00     0.705 A 
ATOM      8  H4  UNL     1      75.644  68.373  95.939  1.00  0.00     0.203 HD
HETATM    9  N2  UNL     1      72.517  67.611  96.087  1.00  0.00    -0.022 N 
HETATM   10  C2  UNL     1      72.340  67.168  94.813  1.00  0.00     0.706 A 
ATOM     11  H2  UNL     1      71.727  67.609  96.731  1.00  0.00     0.203 HD
HETATM   12  N14 UNL     1      73.379  67.174  93.973  1.00  0.00    -0.022 N 
ATOM     13  H14 UNL     1      73.251  66.843  93.017  1.00  0.00     0.203 HD
BRANCH   7  14
HETATM   14  N3  UNL     1      73.838  68.467  97.736  1.00  0.00    -0.234 N 
ATOM     15  H32 UNL     1      73.082  68.425  98.420  1.00  0.00     0.174 HD
ATOM     16  H31 UNL     1      74.730  68.856  98.043  1.00  0.00     0.174 HD
ENDBRANCH   7  14
BRANCH  10  17
HETATM   17  N1  UNL     1      71.159  66.758  94.479  1.00  0.00    -0.229 N 
HETATM   18  C1  UNL     1      71.033  65.423  93.941  1.00  0.00     0.165 C 
ATOM     19  H1  UNL     1      70.342  67.359  94.592  1.00  0.00     0.177 HD
ENDBRANCH  10  17
ENDBRANCH   3   5
ENDBRANCH   2   3
ENDBRANCH   1   2
BRANCH   1  20
HETATM   20  N6  UNL     1      76.732  66.342  91.030  1.00  0.00    -0.374 N 
HETATM   21  C7  UNL     1      77.412  65.409  91.578  1.00  0.00     0.119 A 
HETATM   22  N7  UNL     1      76.894  64.593  92.510  1.00  0.00    -0.338 N 
HETATM   23  C10 UNL     1      78.739  65.275  91.159  1.00  0.00     0.095 A 
HETATM   24  C8  UNL     1      77.659  63.627  93.053  1.00  0.00     0.183 A 
ATOM     25  H7  UNL     1      75.924  64.703  92.805  1.00  0.00     0.168 HD
HETATM   26  N8  UNL     1      78.951  63.467  92.668  1.00  0.00    -0.340 N 
HETATM   27  C9  UNL     1      79.483  64.269  91.745  1.00  0.00     0.135 A 
ATOM     28  H8  UNL     1      79.518  62.730  93.087  1.00  0.00     0.167 HD
HETATM   29  N9  UNL     1      80.838  64.151  91.299  1.00  0.00    -0.082 NA
ATOM     30  H6  UNL     1      77.213  66.910  90.333  1.00  0.00     0.161 HD
BRANCH  23  31
HETATM   31  C11 UNL     1      79.283  66.172  90.145  1.00  0.00     0.148 A 
HETATM   32  N10 UNL     1      79.209  67.523  90.111  1.00  0.00    -0.269 N 
HETATM   33  N11 UNL     1      79.823  67.989  89.036  1.00  0.00    -0.007 NA
ATOM     34  H10 UNL     1      78.746  68.099  90.814  1.00  0.00     0.185 HD
HETATM   35  N12 UNL     1      80.300  66.941  88.365  1.00  0.00    -0.007 NA
HETATM   36  N13 UNL     1      79.972  65.840  89.037  1.00  0.00    -0.269 N 
ATOM     37  H13 UNL     1      80.208  64.888  88.756  1.00  0.00     0.185 HD
ENDBRANCH  23  31
ENDBRANCH   1  20
TORSDOF 7
ENDMDL
MODEL 4
REMARK VINA RESULT: -8.405324649      1.155      1.769
REMARK  7 active torsions:
REMARK  status: ('A' for Active; 'I' for Inactive)
REMARK    1  A    between atoms: N1_2  and  C2_4 
REMARK    2  A    between atoms: C3_7  and  N3_8 
REMARK    3  A    between atoms: C4_13  and  N5_14 
REMARK    4  A    between atoms: N5_14  and  C5_16 
REMARK    5  A    between atoms: C5_16  and  C6_17 
REMARK    6  A    between atoms: C6_17  and  N6_18 
REMARK    7  A    between atoms: C10_28  and  C11_29 
ROOT
HETATM    1  C6  UNL     1      75.492  66.494  91.084  1.00  0.00     0.141 C 
ENDROOT
BRANCH   1   2
HETATM    2  C5  UNL     1      75.438  67.821  91.810  1.00  0.00     0.157 C 
BRANCH   2   3
HETATM    3  N5  UNL     1      75.662  67.626  93.228  1.00  0.00    -0.224 N 
ATOM      4  H5  UNL     1      76.603  67.522  93.606  1.00  0.00     0.177 HD
BRANCH   3   5
HETATM    5  C4  UNL     1      74.611  67.589  94.003  1.00  0.00     0.707 A 
HETATM    6  N4  UNL     1      73.561  66.788  93.745  1.00  0.00    -0.022 N 
HETATM    7  C3  UNL     1      72.470  66.733  94.529  1.00  0.00     0.705 A 
ATOM      8  H4  UNL     1      73.595  66.194  92.916  1.00  0.00     0.203 HD
HETATM    9  N2  UNL     1      72.447  67.523  95.617  1.00  0.00    -0.022 N 
HETATM   10  C2  UNL     1      73.488  68.347  95.914  1.00  0.00     0.706 A 
ATOM     11  H2  UNL     1      71.634  67.504  96.232  1.00  0.00     0.203 HD
HETATM   12  N14 UNL     1      74.551  68.368  95.105  1.00  0.00    -0.022 N 
ATOM     13  H14 UNL     1      75.334  68.984  95.325  1.00  0.00     0.203 HD
BRANCH   7  14
HETATM   14  N3  UNL     1      71.456  65.962  94.283  1.00  0.00    -0.234 N 
ATOM     15  H32 UNL     1      70.558  66.051  94.760  1.00  0.00     0.174 HD
ATOM     16  H31 UNL     1      71.546  65.228  93.581  1.00  0.00     0.174 HD
ENDBRANCH   7  14
BRANCH  10  17
HETATM   17  N1  UNL     1      73.390  69.077  96.979  1.00  0.00    -0.229 N 
HETATM   18  C1  UNL     1      74.024  70.375  96.969  1.00  0.00     0.165 C 
ATOM     19  H1  UNL     1      72.882  68.745  97.798  1.00  0.00     0.177 HD
ENDBRANCH  10  17
ENDBRANCH   3   5
ENDBRANCH   2   3
ENDBRANCH   1   2
BRANCH   1  20
HETATM   20  N6  UNL     1      76.853  66.130  90.862  1.00  0.00    -0.374 N 
HETATM   21  C7  UNL     1      77.526  65.260  91.513  1.00  0.00     0.119 A 
HETATM   22  N7  UNL     1      77.002  64.557  92.530  1.00  0.00    -0.338 N 
HETATM   23  C10 UNL     1      78.853  65.071  91.114  1.00  0.00     0.095 A 
HETATM   24  C8  UNL     1      77.759  63.654  93.180  1.00  0.00     0.183 A 
ATOM     25  H7  UNL     1      76.032  64.706  92.809  1.00  0.00     0.168 HD
HETATM   26  N8  UNL     1      79.051  63.444  92.818  1.00  0.00    -0.340 N 
HETATM   27  C9  UNL     1      79.590  64.133  91.811  1.00  0.00     0.135 A 
ATOM     28  H8  UNL     1      79.613  62.755  93.318  1.00  0.00     0.167 HD
HETATM   29  N9  UNL     1      80.944  63.957  91.385  1.00  0.00    -0.082 NA
ATOM     30  H6  UNL     1      77.339  66.613  90.106  1.00  0.00     0.161 HD
BRANCH  23  31
HETATM   31  C11 UNL     1      79.404  65.845  90.008  1.00  0.00     0.148 A 
HETATM   32  N10 UNL     1      79.478  67.192  89.897  1.00  0.00    -0.269 N 
HETATM   33  N11 UNL     1      80.045  67.527  88.749  1.00  0.00    -0.007 NA
ATOM     34  H10 UNL     1      79.145  67.853  90.597  1.00  0.00     0.185 HD
HETATM   35  N12 UNL     1      80.342  66.397  88.108  1.00  0.00    -0.007 NA
HETATM   36  N13 UNL     1      79.954  65.378  88.871  1.00  0.00    -0.269 N 
ATOM     37  H13 UNL     1      80.057  64.392  88.631  1.00  0.00     0.185 HD
ENDBRANCH  23  31
ENDBRANCH   1  20
TORSDOF 7
ENDMDL
MODEL 5
REMARK VINA RESULT: -8.333470417      1.012      1.012
REMARK  7 active torsions:
REMARK  status: ('A' for Active; 'I' for Inactive)
REMARK    1  A    between atoms: N1_2  and  C2_4 
REMARK    2  A    between atoms: C3_7  and  N3_8 
REMARK    3  A    between atoms: C4_13  and  N5_14 
REMARK    4  A    between atoms: N5_14  and  C5_16 
REMARK    5  A    between atoms: C5_16  and  C6_17 
REMARK    6  A    between atoms: C6_17  and  N6_18 
REMARK    7  A    between atoms: C10_28  and  C11_29 
ROOT
HETATM    1  C6  UNL     1      75.038  66.777  91.682  1.00  0.00     0.141 C 
ENDROOT
BRANCH   1   2
HETATM    2  C5  UNL     1      74.921  67.813  92.779  1.00  0.00     0.157 C 
BRANCH   2   3
HETATM    3  N5  UNL     1      73.890  67.429  93.722  1.00  0.00    -0.224 N 
ATOM      4  H5  UNL     1      73.020  66.997  93.410  1.00  0.00     0.177 HD
BRANCH   3   5
HETATM    5  C4  UNL     1      74.117  67.658  94.988  1.00  0.00     0.707 A 
HETATM    6  N4  UNL     1      73.125  67.696  95.896  1.00  0.00    -0.022 N 
HETATM    7  C3  UNL     1      73.337  67.929  97.204  1.00  0.00     0.705 A 
ATOM      8  H4  UNL     1      72.169  67.541  95.578  1.00  0.00     0.203 HD
HETATM    9  N2  UNL     1      74.605  68.130  97.601  1.00  0.00    -0.022 N 
HETATM   10  C2  UNL     1      75.637  68.100  96.715  1.00  0.00     0.706 A 
ATOM     11  H2  UNL     1      74.798  68.309  98.586  1.00  0.00     0.203 HD
HETATM   12  N14 UNL     1      75.379  67.864  95.426  1.00  0.00    -0.022 N 
ATOM     13  H14 UNL     1      76.149  67.840  94.758  1.00  0.00     0.203 HD
BRANCH   7  14
HETATM   14  N3  UNL     1      72.382  67.967  98.082  1.00  0.00    -0.234 N 
ATOM     15  H32 UNL     1      71.725  67.201  98.225  1.00  0.00     0.174 HD
ATOM     16  H31 UNL     1      72.273  68.798  98.665  1.00  0.00     0.174 HD
ENDBRANCH   7  14
BRANCH  10  17
HETATM   17  N1  UNL     1      76.829  68.303  97.176  1.00  0.00    -0.229 N 
HETATM   18  C1  UNL     1      77.203  69.658  97.510  1.00  0.00     0.165 C 
ATOM     19  H1  UNL     1      77.484  67.531  97.299  1.00  0.00     0.177 HD
ENDBRANCH  10  17
ENDBRANCH   3   5
ENDBRANCH   2   3
ENDBRANCH   1   2
BRANCH   1  20
HETATM   20  N6  UNL     1      76.417  66.535  91.405  1.00  0.00    -0.374 N 
HETATM   21  C7  UNL     1      77.112  65.540  91.804  1.00  0.00     0.119 A 
HETATM   22  N7  UNL     1      76.599  64.563  92.569  1.00  0.00    -0.338 N 
HETATM   23  C10 UNL     1      78.452  65.514  91.405  1.00  0.00     0.095 A 
HETATM   24  C8  UNL     1      77.380  63.539  92.960  1.00  0.00     0.183 A 
ATOM     25  H7  UNL     1      75.619  64.596  92.852  1.00  0.00     0.168 HD
HETATM   26  N8  UNL     1      78.685  63.482  92.590  1.00  0.00    -0.340 N 
HETATM   27  C9  UNL     1      79.213  64.443  91.832  1.00  0.00     0.135 A 
ATOM     28  H8  UNL     1      79.264  62.699  92.893  1.00  0.00     0.167 HD
HETATM   29  N9  UNL     1      80.581  64.439  91.410  1.00  0.00    -0.082 NA
ATOM     30  H6  UNL     1      76.896  67.226  90.828  1.00  0.00     0.161 HD
BRANCH  23  31
HETATM   31  C11 UNL     1      78.991  66.585  90.575  1.00  0.00     0.148 A 
HETATM   32  N10 UNL     1      78.963  67.916  90.820  1.00  0.00    -0.269 N 
HETATM   33  N11 UNL     1      79.555  68.577  89.838  1.00  0.00    -0.007 NA
ATOM     34  H10 UNL     1      78.546  68.347  91.644  1.00  0.00     0.185 HD
HETATM   35  N12 UNL     1      79.970  67.676  88.948  1.00  0.00    -0.007 NA
HETATM   36  N13 UNL     1      79.629  66.469  89.394  1.00  0.00    -0.269 N 
ATOM     37  H13 UNL     1      79.821  65.590  88.915  1.00  0.00     0.185 HD
ENDBRANCH  23  31
ENDBRANCH   1  20
TORSDOF 7
ENDMDL
