MODEL 1
REMARK VINA RESULT: -7.860918021      0.000      0.000
REMARK  16 active torsions:
REMARK  status: ('A' for Active; 'I' for Inactive)
REMARK    1  A    between atoms: O1_2  and  C2_3 
REMARK    2  A    between atoms: C2_3  and  C5_19 
REMARK    3  A    between atoms: N1_4  and  N2_6 
REMARK       I    between atoms: N2_6  and  C3_8 
REMARK       I    between atoms: C3_8  and  N3_10 
REMARK    4  A    between atoms: N3_10  and  S1_12 
REMARK    5  A    between atoms: S1_12  and  N4_15 
REMARK    6  A    between atoms: N4_15  and  O4_17 
REMARK    7  A    between atoms: C5_19  and  O5_20 
REMARK    8  A    between atoms: C5_19  and  C6_22 
REMARK    9  A    between atoms: C9_30  and  O8_31 
REMARK   10  A    between atoms: C9_30  and  N6_33 
REMARK   11  A    between atoms: C11_37  and  N8_38 
REMARK   12  A    between atoms: C13_45  and  S2_46 
REMARK   13  A    between atoms: S2_46  and  S3_47 
REMARK   14  A    between atoms: S3_47  and  C14_48 
REMARK   15  A    between atoms: C15_49  and  S4_50 
REMARK   16  A    between atoms: S4_50  and  S5_51 
ROOT
HETATM    1  C6  UNL     1       7.057  30.125  25.994  1.00  0.00     0.180 C 
HETATM    2  O6  UNL     1       7.841  29.748  27.079  1.00  0.00    -0.344 OA
HETATM    3  C7  UNL     1       9.180  29.883  26.888  1.00  0.00     0.411 C 
HETATM    4  N5  UNL     1       9.536  28.849  25.881  1.00  0.00    -0.014 N 
ATOM      5  H51 UNL     1       9.153  27.917  26.039  1.00  0.00     0.283 HD
ATOM      6  H52 UNL     1      10.506  28.533  25.883  1.00  0.00     0.283 HD
HETATM    7  C8  UNL     1       9.090  29.527  24.692  1.00  0.00     0.346 C 
HETATM    8  O7  UNL     1       9.533  30.859  24.841  1.00  0.00    -0.299 OA
HETATM    9  C9  UNL     1       9.673  31.100  26.191  1.00  0.00     0.313 C 
HETATM   10  C13 UNL     1       7.575  29.593  24.704  1.00  0.00     0.147 C 
ENDROOT
BRANCH   1  11
HETATM   11  C5  UNL     1       5.627  29.676  26.331  1.00  0.00     0.224 C 
BRANCH  11  12
HETATM   12  C2  UNL     1       4.832  30.778  26.927  1.00  0.00     0.164 C 
HETATM   13  N1  UNL     1       5.326  31.731  27.523  1.00  0.00    -0.277 N 
ATOM     14  H1  UNL     1       4.550  32.323  27.820  1.00  0.00     0.189 HD
BRANCH  12  15
HETATM   15  O1  UNL     1       3.421  30.765  26.823  1.00  0.00    -0.341 OA
HETATM   16  C1  UNL     1       2.814  30.228  25.636  1.00  0.00     0.211 C 
ENDBRANCH  12  15
BRANCH  13  17
HETATM   17  N2  UNL     1       6.434  32.319  27.946  1.00  0.00    -0.249 N 
HETATM   18  C3  UNL     1       6.872  32.096  29.302  1.00  0.00     0.347 C 
HETATM   19  O2  UNL     1       6.200  31.359  30.036  1.00  0.00    -0.245 OA
HETATM   20  N3  UNL     1       8.042  32.711  29.768  1.00  0.00    -0.250 N 
ATOM     21  H3  UNL     1       8.583  33.318  29.150  1.00  0.00     0.182 HD
ATOM     22  H2  UNL     1       6.971  32.922  27.322  1.00  0.00     0.192 HD
BRANCH  20  23
HETATM   23  S1  UNL     1       8.561  32.442  31.378  1.00  0.00     0.129 S 
HETATM   24  C4  UNL     1       7.503  33.347  32.480  1.00  0.00     0.162 C 
HETATM   25  O3  UNL     1       9.989  32.795  31.577  1.00  0.00    -0.227 OA
BRANCH  23  26
HETATM   26  N4  UNL     1       8.408  30.915  31.749  1.00  0.00    -0.211 N 
ATOM     27  H4  UNL     1       8.946  30.193  31.271  1.00  0.00     0.205 HD
BRANCH  26  28
HETATM   28  O4  UNL     1       7.511  30.603  32.751  1.00  0.00    -0.281 OA
ATOM     29  H4  UNL     1       7.869  30.464  33.620  1.00  0.00     0.245 HD
ENDBRANCH  26  28
ENDBRANCH  23  26
ENDBRANCH  20  23
ENDBRANCH  13  17
ENDBRANCH  11  12
BRANCH  11  30
HETATM   30  O5  UNL     1       5.714  28.712  27.366  1.00  0.00    -0.385 OA
ATOM     31  H5  UNL     1       4.901  28.223  27.298  1.00  0.00     0.210 HD
ENDBRANCH  11  30
ENDBRANCH   1  11
BRANCH  10  32
HETATM   32  S2  UNL     1       6.894  28.092  24.076  1.00  0.00    -0.079 SA
BRANCH  32  33
HETATM   33  S3  UNL     1       7.585  27.371  22.258  1.00  0.00    -0.037 SA
BRANCH  33  34
HETATM   34  C14 UNL     1       7.719  28.686  21.064  1.00  0.00     0.106 A 
HETATM   35  C15 UNL     1       8.656  29.553  20.763  1.00  0.00     0.113 A 
HETATM   36  C17 UNL     1       7.821  30.129  19.727  1.00  0.00     0.266 A 
HETATM   37  O10 UNL     1       7.899  31.058  18.871  1.00  0.00    -0.267 OA
HETATM   38  N10 UNL     1       6.833  29.184  20.072  1.00  0.00    -0.315 N 
ATOM     39  H10 UNL     1       5.891  28.957  19.751  1.00  0.00     0.170 HD
BRANCH  35  40
HETATM   40  S4  UNL     1      10.316  30.000  21.284  1.00  0.00    -0.050 SA
BRANCH  40  41
HETATM   41  S5  UNL     1      11.565  28.306  21.450  1.00  0.00    -0.097 SA
HETATM   42  C16 UNL     1      11.777  27.813  23.198  1.00  0.00     0.103 C 
ENDBRANCH  40  41
ENDBRANCH  35  40
ENDBRANCH  33  34
ENDBRANCH  32  33
ENDBRANCH  10  32
BRANCH   9  43
HETATM   43  O8  UNL     1       9.053  32.268  26.636  1.00  0.00    -0.345 OA
ATOM     44  H8  UNL     1       9.674  32.946  26.879  1.00  0.00     0.215 HD
ENDBRANCH   9  43
BRANCH   9  45
HETATM   45  N6  UNL     1      11.094  31.310  26.489  1.00  0.00    -0.234 N 
HETATM   46  C10 UNL     1      11.994  31.158  25.497  1.00  0.00     0.210 A 
HETATM   47  N7  UNL     1      13.314  31.332  25.687  1.00  0.00    -0.188 N 
HETATM   48  C11 UNL     1      13.779  31.671  26.902  1.00  0.00     0.680 A 
ATOM     49  H7  UNL     1      13.962  31.207  24.910  1.00  0.00     0.185 HD
HETATM   50  N9  UNL     1      12.884  31.823  27.893  1.00  0.00    -0.141 N 
HETATM   51  C12 UNL     1      11.546  31.647  27.703  1.00  0.00     0.346 A 
ATOM     52  H9  UNL     1      13.219  32.079  28.822  1.00  0.00     0.189 HD
HETATM   53  O9  UNL     1      10.787  31.810  28.687  1.00  0.00    -0.246 OA
BRANCH  48  54
HETATM   54  N8  UNL     1      15.063  31.845  27.107  1.00  0.00    -0.234 N 
ATOM     55  H82 UNL     1      15.420  32.165  28.007  1.00  0.00     0.174 HD
ATOM     56  H81 UNL     1      15.740  31.661  26.366  1.00  0.00     0.174 HD
ENDBRANCH  48  54
ENDBRANCH   9  45
TORSDOF 16
ENDMDL
MODEL 2
REMARK VINA RESULT: -7.767001180      1.512      2.155
REMARK  16 active torsions:
REMARK  status: ('A' for Active; 'I' for Inactive)
REMARK    1  A    between atoms: O1_2  and  C2_3 
REMARK    2  A    between atoms: C2_3  and  C5_19 
REMARK    3  A    between atoms: N1_4  and  N2_6 
REMARK       I    between atoms: N2_6  and  C3_8 
REMARK       I    between atoms: C3_8  and  N3_10 
REMARK    4  A    between atoms: N3_10  and  S1_12 
REMARK    5  A    between atoms: S1_12  and  N4_15 
REMARK    6  A    between atoms: N4_15  and  O4_17 
REMARK    7  A    between atoms: C5_19  and  O5_20 
REMARK    8  A    between atoms: C5_19  and  C6_22 
REMARK    9  A    between atoms: C9_30  and  O8_31 
REMARK   10  A    between atoms: C9_30  and  N6_33 
REMARK   11  A    between atoms: C11_37  and  N8_38 
REMARK   12  A    between atoms: C13_45  and  S2_46 
REMARK   13  A    between atoms: S2_46  and  S3_47 
REMARK   14  A    between atoms: S3_47  and  C14_48 
REMARK   15  A    between atoms: C15_49  and  S4_50 
REMARK   16  A    between atoms: S4_50  and  S5_51 
ROOT
HETATM    1  C6  UNL     1       6.920  30.416  26.386  1.00  0.00     0.180 C 
HETATM    2  O6  UNL     1       7.704  30.207  27.516  1.00  0.00    -0.344 OA
HETATM    3  C7  UNL     1       9.044  30.255  27.296  1.00  0.00     0.411 C 
HETATM    4  N5  UNL     1       9.348  29.047  26.486  1.00  0.00    -0.014 N 
ATOM      5  H51 UNL     1       8.934  28.172  26.808  1.00  0.00     0.283 HD
ATOM      6  H52 UNL     1      10.306  28.699  26.538  1.00  0.00     0.283 HD
HETATM    7  C8  UNL     1       8.912  29.520  25.198  1.00  0.00     0.346 C 
HETATM    8  O7  UNL     1       9.406  30.840  25.106  1.00  0.00    -0.299 OA
HETATM    9  C9  UNL     1       9.572  31.310  26.391  1.00  0.00     0.313 C 
HETATM   10  C13 UNL     1       7.402  29.645  25.208  1.00  0.00     0.147 C 
ENDROOT
BRANCH   1  11
HETATM   11  C5  UNL     1       5.479  30.090  26.806  1.00  0.00     0.224 C 
BRANCH  11  12
HETATM   12  C2  UNL     1       4.736  31.307  27.212  1.00  0.00     0.164 C 
HETATM   13  N1  UNL     1       5.256  32.272  27.767  1.00  0.00    -0.277 N 
ATOM     14  H1  UNL     1       4.513  32.953  27.925  1.00  0.00     0.189 HD
BRANCH  12  15
HETATM   15  O1  UNL     1       3.346  31.402  26.963  1.00  0.00    -0.341 OA
HETATM   16  C1  UNL     1       2.807  30.787  25.781  1.00  0.00     0.211 C 
ENDBRANCH  12  15
BRANCH  13  17
HETATM   17  N2  UNL     1       6.368  32.805  28.248  1.00  0.00    -0.249 N 
HETATM   18  C3  UNL     1       6.828  32.405  29.555  1.00  0.00     0.347 C 
HETATM   19  O2  UNL     1       6.171  31.573  30.194  1.00  0.00    -0.245 OA
HETATM   20  N3  UNL     1       8.003  32.961  30.081  1.00  0.00    -0.250 N 
ATOM     21  H3  UNL     1       8.531  33.647  29.542  1.00  0.00     0.182 HD
ATOM     22  H2  UNL     1       6.892  33.489  27.702  1.00  0.00     0.192 HD
BRANCH  20  23
HETATM   23  S1  UNL     1       8.548  32.482  31.634  1.00  0.00     0.129 S 
HETATM   24  C4  UNL     1       7.543  33.275  32.863  1.00  0.00     0.162 C 
HETATM   25  O3  UNL     1       9.990  32.768  31.838  1.00  0.00    -0.227 OA
BRANCH  23  26
HETATM   26  N4  UNL     1       8.356  30.926  31.820  1.00  0.00    -0.211 N 
ATOM     27  H4  UNL     1       8.886  30.252  31.267  1.00  0.00     0.205 HD
BRANCH  26  28
HETATM   28  O4  UNL     1       7.437  30.519  32.765  1.00  0.00    -0.281 OA
ATOM     29  H4  UNL     1       7.729  30.502  33.669  1.00  0.00     0.245 HD
ENDBRANCH  26  28
ENDBRANCH  23  26
ENDBRANCH  20  23
ENDBRANCH  13  17
ENDBRANCH  11  12
BRANCH  11  30
HETATM   30  O5  UNL     1       5.543  29.312  27.989  1.00  0.00    -0.385 OA
ATOM     31  H5  UNL     1       6.391  29.525  28.361  1.00  0.00     0.210 HD
ENDBRANCH  11  30
ENDBRANCH   1  11
BRANCH  10  32
HETATM   32  S2  UNL     1       6.658  28.085  24.860  1.00  0.00    -0.079 SA
BRANCH  32  33
HETATM   33  S3  UNL     1       7.215  27.081  23.132  1.00  0.00    -0.037 SA
BRANCH  33  34
HETATM   34  C14 UNL     1       8.987  26.921  23.036  1.00  0.00     0.106 A 
HETATM   35  C15 UNL     1       9.917  27.497  22.312  1.00  0.00     0.113 A 
HETATM   36  C17 UNL     1      10.944  26.710  22.966  1.00  0.00     0.266 A 
HETATM   37  O10 UNL     1      12.203  26.583  22.912  1.00  0.00    -0.267 OA
HETATM   38  N10 UNL     1       9.922  26.108  23.730  1.00  0.00    -0.315 N 
ATOM     39  H10 UNL     1       9.875  25.398  24.461  1.00  0.00     0.170 HD
BRANCH  35  40
HETATM   40  S4  UNL     1      10.065  28.739  21.023  1.00  0.00    -0.050 SA
BRANCH  40  41
HETATM   41  S5  UNL     1       8.638  30.277  21.254  1.00  0.00    -0.097 SA
HETATM   42  C16 UNL     1       7.528  30.368  19.804  1.00  0.00     0.103 C 
ENDBRANCH  40  41
ENDBRANCH  35  40
ENDBRANCH  33  34
ENDBRANCH  32  33
ENDBRANCH  10  32
BRANCH   9  43
HETATM   43  O8  UNL     1       9.002  32.561  26.625  1.00  0.00    -0.345 OA
ATOM     44  H8  UNL     1       9.286  33.219  26.001  1.00  0.00     0.215 HD
ENDBRANCH   9  43
BRANCH   9  45
HETATM   45  N6  UNL     1      11.004  31.514  26.638  1.00  0.00    -0.234 N 
HETATM   46  C10 UNL     1      11.886  31.128  25.696  1.00  0.00     0.210 A 
HETATM   47  N7  UNL     1      13.215  31.281  25.845  1.00  0.00    -0.188 N 
HETATM   48  C11 UNL     1      13.706  31.836  26.966  1.00  0.00     0.680 A 
ATOM     49  H7  UNL     1      13.849  30.975  25.107  1.00  0.00     0.185 HD
HETATM   50  N9  UNL     1      12.827  32.222  27.908  1.00  0.00    -0.141 N 
HETATM   51  C12 UNL     1      11.481  32.069  27.760  1.00  0.00     0.346 A 
ATOM     52  H9  UNL     1      13.182  32.645  28.765  1.00  0.00     0.189 HD
HETATM   53  O9  UNL     1      10.740  32.458  28.692  1.00  0.00    -0.246 OA
BRANCH  48  54
HETATM   54  N8  UNL     1      14.997  31.993  27.129  1.00  0.00    -0.234 N 
ATOM     55  H82 UNL     1      15.669  31.599  26.471  1.00  0.00     0.174 HD
ATOM     56  H81 UNL     1      15.364  32.517  27.924  1.00  0.00     0.174 HD
ENDBRANCH  48  54
ENDBRANCH   9  45
TORSDOF 16
ENDMDL
MODEL 3
REMARK VINA RESULT: -7.668826219      4.113      6.840
REMARK  16 active torsions:
REMARK  status: ('A' for Active; 'I' for Inactive)
REMARK    1  A    between atoms: O1_2  and  C2_3 
REMARK    2  A    between atoms: C2_3  and  C5_19 
REMARK    3  A    between atoms: N1_4  and  N2_6 
REMARK       I    between atoms: N2_6  and  C3_8 
REMARK       I    between atoms: C3_8  and  N3_10 
REMARK    4  A    between atoms: N3_10  and  S1_12 
REMARK    5  A    between atoms: S1_12  and  N4_15 
REMARK    6  A    between atoms: N4_15  and  O4_17 
REMARK    7  A    between atoms: C5_19  and  O5_20 
REMARK    8  A    between atoms: C5_19  and  C6_22 
REMARK    9  A    between atoms: C9_30  and  O8_31 
REMARK   10  A    between atoms: C9_30  and  N6_33 
REMARK   11  A    between atoms: C11_37  and  N8_38 
REMARK   12  A    between atoms: C13_45  and  S2_46 
REMARK   13  A    between atoms: S2_46  and  S3_47 
REMARK   14  A    between atoms: S3_47  and  C14_48 
REMARK   15  A    between atoms: C15_49  and  S4_50 
REMARK   16  A    between atoms: S4_50  and  S5_51 
ROOT
HETATM    1  C6  UNL     1       8.701  31.727  30.391  1.00  0.00     0.180 C 
HETATM    2  O6  UNL     1       8.602  30.390  30.020  1.00  0.00    -0.344 OA
HETATM    3  C7  UNL     1       8.983  30.124  28.742  1.00  0.00     0.411 C 
HETATM    4  N5  UNL     1       7.943  30.756  27.888  1.00  0.00    -0.014 N 
ATOM      5  H51 UNL     1       6.974  30.587  28.158  1.00  0.00     0.283 HD
ATOM      6  H52 UNL     1       7.830  30.364  26.953  1.00  0.00     0.283 HD
HETATM    7  C8  UNL     1       8.393  32.122  27.955  1.00  0.00     0.346 C 
HETATM    8  O7  UNL     1       9.795  32.055  27.804  1.00  0.00    -0.299 OA
HETATM    9  C9  UNL     1      10.195  30.801  28.213  1.00  0.00     0.313 C 
HETATM   10  C13 UNL     1       8.154  32.648  29.357  1.00  0.00     0.147 C 
ENDROOT
BRANCH   1  11
HETATM   11  C5  UNL     1       8.012  31.837  31.760  1.00  0.00     0.224 C 
BRANCH  11  12
HETATM   12  C2  UNL     1       8.965  31.608  32.874  1.00  0.00     0.164 C 
HETATM   13  N1  UNL     1       9.474  30.519  33.125  1.00  0.00    -0.277 N 
ATOM     14  H1  UNL     1      10.079  30.660  33.934  1.00  0.00     0.189 HD
BRANCH  12  15
HETATM   15  O1  UNL     1       9.332  32.682  33.719  1.00  0.00    -0.341 OA
HETATM   16  C1  UNL     1       9.068  34.029  33.290  1.00  0.00     0.211 C 
ENDBRANCH  12  15
BRANCH  13  17
HETATM   17  N2  UNL     1       9.574  29.241  32.794  1.00  0.00    -0.249 N 
HETATM   18  C3  UNL     1      10.865  28.710  32.432  1.00  0.00     0.347 C 
HETATM   19  O2  UNL     1      11.848  29.463  32.441  1.00  0.00    -0.245 OA
HETATM   20  N3  UNL     1      10.989  27.359  32.077  1.00  0.00    -0.250 N 
ATOM     21  H3  UNL     1      10.168  26.753  32.073  1.00  0.00     0.182 HD
ATOM     22  H2  UNL     1       8.749  28.641  32.795  1.00  0.00     0.192 HD
BRANCH  20  23
HETATM   23  S1  UNL     1      12.525  26.731  31.651  1.00  0.00     0.129 S 
HETATM   24  C4  UNL     1      12.293  25.268  30.672  1.00  0.00     0.162 C 
HETATM   25  O3  UNL     1      13.375  26.465  32.838  1.00  0.00    -0.227 OA
BRANCH  23  26
HETATM   26  N4  UNL     1      13.303  27.766  30.748  1.00  0.00    -0.211 N 
ATOM     27  H4  UNL     1      14.281  27.998  30.924  1.00  0.00     0.205 HD
BRANCH  26  28
HETATM   28  O4  UNL     1      12.599  28.342  29.710  1.00  0.00    -0.281 OA
ATOM     29  H4  UNL     1      12.377  27.781  28.977  1.00  0.00     0.245 HD
ENDBRANCH  26  28
ENDBRANCH  23  26
ENDBRANCH  20  23
ENDBRANCH  13  17
ENDBRANCH  11  12
BRANCH  11  30
HETATM   30  O5  UNL     1       7.093  30.763  31.864  1.00  0.00    -0.385 OA
ATOM     31  H5  UNL     1       6.283  31.116  31.514  1.00  0.00     0.210 HD
ENDBRANCH  11  30
ENDBRANCH   1  11
BRANCH  10  32
HETATM   32  S2  UNL     1       6.492  33.211  29.524  1.00  0.00    -0.079 SA
BRANCH  32  33
HETATM   33  S3  UNL     1       4.956  31.821  29.419  1.00  0.00    -0.037 SA
BRANCH  33  34
HETATM   34  C14 UNL     1       4.221  31.810  27.797  1.00  0.00     0.106 A 
HETATM   35  C15 UNL     1       3.409  32.617  27.158  1.00  0.00     0.113 A 
HETATM   36  C17 UNL     1       3.433  31.755  25.992  1.00  0.00     0.266 A 
HETATM   37  O10 UNL     1       2.920  31.732  24.835  1.00  0.00    -0.267 OA
HETATM   38  N10 UNL     1       4.306  30.906  26.704  1.00  0.00    -0.315 N 
ATOM     39  H10 UNL     1       4.788  30.027  26.516  1.00  0.00     0.170 HD
BRANCH  35  40
HETATM   40  S4  UNL     1       2.535  34.163  27.427  1.00  0.00    -0.050 SA
BRANCH  40  41
HETATM   41  S5  UNL     1       0.448  33.869  27.549  1.00  0.00    -0.097 SA
HETATM   42  C16 UNL     1      -0.061  32.370  26.635  1.00  0.00     0.103 C 
ENDBRANCH  40  41
ENDBRANCH  35  40
ENDBRANCH  33  34
ENDBRANCH  32  33
ENDBRANCH  10  32
BRANCH   9  43
HETATM   43  O8  UNL     1      11.256  30.803  29.120  1.00  0.00    -0.345 OA
ATOM     44  H8  UNL     1      11.721  31.631  29.143  1.00  0.00     0.215 HD
ENDBRANCH   9  43
BRANCH   9  45
HETATM   45  N6  UNL     1      10.715  30.069  27.053  1.00  0.00    -0.234 N 
HETATM   46  C10 UNL     1      10.198  28.858  26.765  1.00  0.00     0.210 A 
HETATM   47  N7  UNL     1      10.619  28.123  25.720  1.00  0.00    -0.188 N 
HETATM   48  C11 UNL     1      11.590  28.591  24.917  1.00  0.00     0.680 A 
ATOM     49  H7  UNL     1      10.201  27.211  25.537  1.00  0.00     0.185 HD
HETATM   50  N9  UNL     1      12.108  29.798  25.202  1.00  0.00    -0.141 N 
HETATM   51  C12 UNL     1      11.683  30.545  26.260  1.00  0.00     0.346 A 
ATOM     52  H9  UNL     1      12.846  30.169  24.604  1.00  0.00     0.189 HD
HETATM   53  O9  UNL     1      12.226  31.659  26.447  1.00  0.00    -0.246 OA
BRANCH  48  54
HETATM   54  N8  UNL     1      12.013  27.889  23.894  1.00  0.00    -0.234 N 
ATOM     55  H82 UNL     1      11.388  27.269  23.378  1.00  0.00     0.174 HD
ATOM     56  H81 UNL     1      12.984  27.945  23.586  1.00  0.00     0.174 HD
ENDBRANCH  48  54
ENDBRANCH   9  45
TORSDOF 16
ENDMDL
MODEL 4
REMARK VINA RESULT: -7.572315966      3.102      6.064
REMARK  16 active torsions:
REMARK  status: ('A' for Active; 'I' for Inactive)
REMARK    1  A    between atoms: O1_2  and  C2_3 
REMARK    2  A    between atoms: C2_3  and  C5_19 
REMARK    3  A    between atoms: N1_4  and  N2_6 
REMARK       I    between atoms: N2_6  and  C3_8 
REMARK       I    between atoms: C3_8  and  N3_10 
REMARK    4  A    between atoms: N3_10  and  S1_12 
REMARK    5  A    between atoms: S1_12  and  N4_15 
REMARK    6  A    between atoms: N4_15  and  O4_17 
REMARK    7  A    between atoms: C5_19  and  O5_20 
REMARK    8  A    between atoms: C5_19  and  C6_22 
REMARK    9  A    between atoms: C9_30  and  O8_31 
REMARK   10  A    between atoms: C9_30  and  N6_33 
REMARK   11  A    between atoms: C11_37  and  N8_38 
REMARK   12  A    between atoms: C13_45  and  S2_46 
REMARK   13  A    between atoms: S2_46  and  S3_47 
REMARK   14  A    between atoms: S3_47  and  C14_48 
REMARK   15  A    between atoms: C15_49  and  S4_50 
REMARK   16  A    between atoms: S4_50  and  S5_51 
ROOT
HETATM    1  C6  UNL     1       7.838  30.576  28.213  1.00  0.00     0.180 C 
HETATM    2  O6  UNL     1       8.890  29.675  28.080  1.00  0.00    -0.344 OA
HETATM    3  C7  UNL     1       9.115  29.246  26.810  1.00  0.00     0.411 C 
HETATM    4  N5  UNL     1       7.943  28.397  26.473  1.00  0.00    -0.014 N 
ATOM      5  H51 UNL     1       7.661  27.717  27.179  1.00  0.00     0.283 HD
ATOM      6  H52 UNL     1       8.089  27.695  25.747  1.00  0.00     0.283 HD
HETATM    7  C8  UNL     1       6.989  29.434  26.173  1.00  0.00     0.346 C 
HETATM    8  O7  UNL     1       7.701  30.373  25.395  1.00  0.00    -0.299 OA
HETATM    9  C9  UNL     1       9.038  30.239  25.706  1.00  0.00     0.313 C 
HETATM   10  C13 UNL     1       6.627  30.152  27.458  1.00  0.00     0.147 C 
ENDROOT
BRANCH   1  11
HETATM   11  C5  UNL     1       7.612  30.740  29.724  1.00  0.00     0.224 C 
BRANCH  11  12
HETATM   12  C2  UNL     1       8.174  32.018  30.227  1.00  0.00     0.164 C 
HETATM   13  N1  UNL     1       9.376  32.270  30.259  1.00  0.00    -0.277 N 
ATOM     14  H1  UNL     1       9.466  33.209  30.648  1.00  0.00     0.189 HD
BRANCH  12  15
HETATM   15  O1  UNL     1       7.308  33.029  30.705  1.00  0.00    -0.341 OA
HETATM   16  C1  UNL     1       7.515  33.555  32.027  1.00  0.00     0.211 C 
ENDBRANCH  12  15
BRANCH  13  17
HETATM   17  N2  UNL     1      10.603  31.845  30.005  1.00  0.00    -0.249 N 
HETATM   18  C3  UNL     1      11.269  32.301  28.810  1.00  0.00     0.347 C 
HETATM   19  O2  UNL     1      10.675  33.079  28.052  1.00  0.00    -0.245 OA
HETATM   20  N3  UNL     1      12.568  31.860  28.523  1.00  0.00    -0.250 N 
ATOM     21  H3  UNL     1      13.043  31.216  29.157  1.00  0.00     0.182 HD
ATOM     22  H2  UNL     1      11.072  31.204  30.645  1.00  0.00     0.192 HD
BRANCH  20  23
HETATM   23  S1  UNL     1      13.357  32.405  27.103  1.00  0.00     0.129 S 
HETATM   24  C4  UNL     1      14.725  31.328  26.758  1.00  0.00     0.162 C 
HETATM   25  O3  UNL     1      13.789  33.822  27.207  1.00  0.00    -0.227 OA
BRANCH  23  26
HETATM   26  N4  UNL     1      12.378  32.311  25.868  1.00  0.00    -0.211 N 
ATOM     27  H4  UNL     1      12.250  31.439  25.355  1.00  0.00     0.205 HD
BRANCH  26  28
HETATM   28  O4  UNL     1      11.705  33.462  25.516  1.00  0.00    -0.281 OA
ATOM     29  H4  UNL     1      10.783  33.508  25.741  1.00  0.00     0.245 HD
ENDBRANCH  26  28
ENDBRANCH  23  26
ENDBRANCH  20  23
ENDBRANCH  13  17
ENDBRANCH  11  12
BRANCH  11  30
HETATM   30  O5  UNL     1       8.375  29.743  30.381  1.00  0.00    -0.385 OA
ATOM     31  H5  UNL     1       7.891  28.940  30.226  1.00  0.00     0.210 HD
ENDBRANCH  11  30
ENDBRANCH   1  11
BRANCH  10  32
HETATM   32  S2  UNL     1       5.364  29.271  28.316  1.00  0.00    -0.079 SA
BRANCH  32  33
HETATM   33  S3  UNL     1       4.376  27.738  27.328  1.00  0.00    -0.037 SA
BRANCH  33  34
HETATM   34  C14 UNL     1       3.131  28.388  26.232  1.00  0.00     0.106 A 
HETATM   35  C15 UNL     1       2.833  29.590  25.801  1.00  0.00     0.113 A 
HETATM   36  C17 UNL     1       1.737  29.061  25.013  1.00  0.00     0.266 A 
HETATM   37  O10 UNL     1       0.847  29.505  24.230  1.00  0.00    -0.267 OA
HETATM   38  N10 UNL     1       2.082  27.780  25.493  1.00  0.00    -0.315 N 
ATOM     39  H10 UNL     1       1.731  26.830  25.365  1.00  0.00     0.170 HD
BRANCH  35  40
HETATM   40  S4  UNL     1       3.405  31.283  25.984  1.00  0.00    -0.050 SA
BRANCH  40  41
HETATM   41  S5  UNL     1       1.824  32.592  26.480  1.00  0.00    -0.097 SA
HETATM   42  C16 UNL     1       2.380  33.886  27.645  1.00  0.00     0.103 C 
ENDBRANCH  40  41
ENDBRANCH  35  40
ENDBRANCH  33  34
ENDBRANCH  32  33
ENDBRANCH  10  32
BRANCH   9  43
HETATM   43  O8  UNL     1       9.681  31.440  26.011  1.00  0.00    -0.345 OA
ATOM     44  H8  UNL     1       9.812  31.992  25.249  1.00  0.00     0.215 HD
ENDBRANCH   9  43
BRANCH   9  45
HETATM   45  N6  UNL     1       9.750  29.738  24.526  1.00  0.00    -0.234 N 
HETATM   46  C10 UNL     1       9.076  29.613  23.366  1.00  0.00     0.210 A 
HETATM   47  N7  UNL     1       9.656  29.161  22.239  1.00  0.00    -0.188 N 
HETATM   48  C11 UNL     1      10.954  28.814  22.244  1.00  0.00     0.680 A 
ATOM     49  H7  UNL     1       9.110  29.083  21.381  1.00  0.00     0.185 HD
HETATM   50  N9  UNL     1      11.629  28.936  23.401  1.00  0.00    -0.141 N 
HETATM   51  C12 UNL     1      11.044  29.394  24.544  1.00  0.00     0.346 A 
ATOM     52  H9  UNL     1      12.614  28.677  23.423  1.00  0.00     0.189 HD
HETATM   53  O9  UNL     1      11.753  29.474  25.574  1.00  0.00    -0.246 OA
BRANCH  48  54
HETATM   54  N8  UNL     1      11.536  28.371  21.156  1.00  0.00    -0.234 N 
ATOM     55  H82 UNL     1      11.454  27.396  20.867  1.00  0.00     0.174 HD
ATOM     56  H81 UNL     1      12.089  28.995  20.568  1.00  0.00     0.174 HD
ENDBRANCH  48  54
ENDBRANCH   9  45
TORSDOF 16
ENDMDL
MODEL 5
REMARK VINA RESULT: -7.532938160      3.578      6.293
REMARK  16 active torsions:
REMARK  status: ('A' for Active; 'I' for Inactive)
REMARK    1  A    between atoms: O1_2  and  C2_3 
REMARK    2  A    between atoms: C2_3  and  C5_19 
REMARK    3  A    between atoms: N1_4  and  N2_6 
REMARK       I    between atoms: N2_6  and  C3_8 
REMARK       I    between atoms: C3_8  and  N3_10 
REMARK    4  A    between atoms: N3_10  and  S1_12 
REMARK    5  A    between atoms: S1_12  and  N4_15 
REMARK    6  A    between atoms: N4_15  and  O4_17 
REMARK    7  A    between atoms: C5_19  and  O5_20 
REMARK    8  A    between atoms: C5_19  and  C6_22 
REMARK    9  A    between atoms: C9_30  and  O8_31 
REMARK   10  A    between atoms: C9_30  and  N6_33 
REMARK   11  A    between atoms: C11_37  and  N8_38 
REMARK   12  A    between atoms: C13_45  and  S2_46 
REMARK   13  A    between atoms: S2_46  and  S3_47 
REMARK   14  A    between atoms: S3_47  and  C14_48 
REMARK   15  A    between atoms: C15_49  and  S4_50 
REMARK   16  A    between atoms: S4_50  and  S5_51 
ROOT
HETATM    1  C6  UNL     1       8.715  31.749  30.364  1.00  0.00     0.180 C 
HETATM    2  O6  UNL     1       8.647  30.404  30.017  1.00  0.00    -0.344 OA
HETATM    3  C7  UNL     1       9.013  30.126  28.737  1.00  0.00     0.411 C 
HETATM    4  N5  UNL     1       7.942  30.714  27.891  1.00  0.00    -0.014 N 
ATOM      5  H51 UNL     1       6.982  30.523  28.181  1.00  0.00     0.283 HD
ATOM      6  H52 UNL     1       7.823  30.304  26.965  1.00  0.00     0.283 HD
HETATM    7  C8  UNL     1       8.354  32.094  27.928  1.00  0.00     0.346 C 
HETATM    8  O7  UNL     1       9.755  32.062  27.752  1.00  0.00    -0.299 OA
HETATM    9  C9  UNL     1      10.197  30.827  28.175  1.00  0.00     0.313 C 
HETATM   10  C13 UNL     1       8.125  32.636  29.325  1.00  0.00     0.147 C 
ENDROOT
BRANCH   1  11
HETATM   11  C5  UNL     1       8.047  31.863  31.743  1.00  0.00     0.224 C 
BRANCH  11  12
HETATM   12  C2  UNL     1       9.015  31.630  32.842  1.00  0.00     0.164 C 
HETATM   13  N1  UNL     1       9.527  30.540  33.082  1.00  0.00    -0.277 N 
ATOM     14  H1  UNL     1      10.143  30.677  33.884  1.00  0.00     0.189 HD
BRANCH  12  15
HETATM   15  O1  UNL     1       9.395  32.700  33.686  1.00  0.00    -0.341 OA
HETATM   16  C1  UNL     1       8.994  34.037  33.339  1.00  0.00     0.211 C 
ENDBRANCH  12  15
BRANCH  13  17
HETATM   17  N2  UNL     1       9.621  29.263  32.746  1.00  0.00    -0.249 N 
HETATM   18  C3  UNL     1      10.908  28.729  32.374  1.00  0.00     0.347 C 
HETATM   19  O2  UNL     1      11.893  29.480  32.380  1.00  0.00    -0.245 OA
HETATM   20  N3  UNL     1      11.027  27.380  32.013  1.00  0.00    -0.250 N 
ATOM     21  H3  UNL     1      10.204  26.776  32.011  1.00  0.00     0.182 HD
ATOM     22  H2  UNL     1       8.795  28.665  32.749  1.00  0.00     0.192 HD
BRANCH  20  23
HETATM   23  S1  UNL     1      12.558  26.749  31.574  1.00  0.00     0.129 S 
HETATM   24  C4  UNL     1      12.317  25.261  30.637  1.00  0.00     0.162 C 
HETATM   25  O3  UNL     1      13.431  26.518  32.752  1.00  0.00    -0.227 OA
BRANCH  23  26
HETATM   26  N4  UNL     1      13.314  27.765  30.632  1.00  0.00    -0.211 N 
ATOM     27  H4  UNL     1      14.312  27.948  30.736  1.00  0.00     0.205 HD
BRANCH  26  28
HETATM   28  O4  UNL     1      12.561  28.394  29.661  1.00  0.00    -0.281 OA
ATOM     29  H4  UNL     1      13.010  28.638  28.860  1.00  0.00     0.245 HD
ENDBRANCH  26  28
ENDBRANCH  23  26
ENDBRANCH  20  23
ENDBRANCH  13  17
ENDBRANCH  11  12
BRANCH  11  30
HETATM   30  O5  UNL     1       7.124  30.795  31.860  1.00  0.00    -0.385 OA
ATOM     31  H5  UNL     1       6.531  31.074  32.548  1.00  0.00     0.210 HD
ENDBRANCH  11  30
ENDBRANCH   1  11
BRANCH  10  32
HETATM   32  S2  UNL     1       6.451  33.156  29.512  1.00  0.00    -0.079 SA
BRANCH  32  33
HETATM   33  S3  UNL     1       4.947  31.735  29.365  1.00  0.00    -0.037 SA
BRANCH  33  34
HETATM   34  C14 UNL     1       4.218  31.749  27.740  1.00  0.00     0.106 A 
HETATM   35  C15 UNL     1       4.260  30.932  26.715  1.00  0.00     0.113 A 
HETATM   36  C17 UNL     1       3.390  31.807  25.953  1.00  0.00     0.266 A 
HETATM   37  O10 UNL     1       2.862  31.833  24.803  1.00  0.00    -0.267 OA
HETATM   38  N10 UNL     1       3.364  32.666  27.072  1.00  0.00    -0.315 N 
ATOM     39  H10 UNL     1       2.924  33.558  27.302  1.00  0.00     0.170 HD
BRANCH  35  40
HETATM   40  S4  UNL     1       5.006  29.365  26.251  1.00  0.00    -0.050 SA
BRANCH  40  41
HETATM   41  S5  UNL     1       5.136  28.046  27.895  1.00  0.00    -0.097 SA
HETATM   42  C16 UNL     1       6.763  27.215  27.945  1.00  0.00     0.103 C 
ENDBRANCH  40  41
ENDBRANCH  35  40
ENDBRANCH  33  34
ENDBRANCH  32  33
ENDBRANCH  10  32
BRANCH   9  43
HETATM   43  O8  UNL     1      11.272  30.874  29.064  1.00  0.00    -0.345 OA
ATOM     44  H8  UNL     1      11.981  31.427  28.757  1.00  0.00     0.215 HD
ENDBRANCH   9  43
BRANCH   9  45
HETATM   45  N6  UNL     1      10.717  30.090  27.019  1.00  0.00    -0.234 N 
HETATM   46  C10 UNL     1      10.221  28.865  26.754  1.00  0.00     0.210 A 
HETATM   47  N7  UNL     1      10.643  28.124  25.714  1.00  0.00    -0.188 N 
HETATM   48  C11 UNL     1      11.594  28.600  24.892  1.00  0.00     0.680 A 
ATOM     49  H7  UNL     1      10.242  27.201  25.549  1.00  0.00     0.185 HD
HETATM   50  N9  UNL     1      12.091  29.822  25.154  1.00  0.00    -0.141 N 
HETATM   51  C12 UNL     1      11.665  30.574  26.207  1.00  0.00     0.346 A 
ATOM     52  H9  UNL     1      12.814  30.199  24.541  1.00  0.00     0.189 HD
HETATM   53  O9  UNL     1      12.187  31.702  26.371  1.00  0.00    -0.246 OA
BRANCH  48  54
HETATM   54  N8  UNL     1      12.019  27.893  23.873  1.00  0.00    -0.234 N 
ATOM     55  H82 UNL     1      11.682  28.068  22.926  1.00  0.00     0.174 HD
ATOM     56  H81 UNL     1      12.701  27.145  24.003  1.00  0.00     0.174 HD
ENDBRANCH  48  54
ENDBRANCH   9  45
TORSDOF 16
ENDMDL
