MODEL 1
REMARK VINA RESULT: -3.706356729      0.000      0.000
REMARK  4 active torsions:
REMARK  status: ('A' for Active; 'I' for Inactive)
REMARK    1  A    between atoms: C2_2  and  N1_3 
REMARK    2  A    between atoms: C2_2  and  C3_7 
REMARK    3  A    between atoms: C3_7  and  N2_9 
REMARK    4  A    between atoms: N2_9  and  C5_11 
ROOT
HETATM    1  N2  UNL     1      22.209  10.877  28.718  1.00  0.00    -0.217 N 
ATOM      2  H2  UNL     1      22.545  10.979  29.676  1.00  0.00     0.178 HD
ENDROOT
BRANCH   1   3
HETATM    3  C3  UNL     1      23.188  10.807  27.675  1.00  0.00     0.125 C 
HETATM    4  C4  UNL     1      23.900  12.160  27.640  1.00  0.00     0.035 C 
BRANCH   3   5
HETATM    5  C2  UNL     1      24.248   9.761  27.931  1.00  0.00     0.202 C 
HETATM    6  C1  UNL     1      25.186   9.698  26.764  1.00  0.00     0.042 C 
BRANCH   5   7
HETATM    7  N1  UNL     1      23.611   8.467  28.179  1.00  0.00    -0.073 N 
ATOM      8  H13 UNL     1      22.798   8.330  27.578  1.00  0.00     0.274 HD
ATOM      9  H12 UNL     1      24.188   7.697  27.842  1.00  0.00     0.274 HD
ATOM     10  H11 UNL     1      23.371   8.350  29.163  1.00  0.00     0.274 HD
ENDBRANCH   5   7
ENDBRANCH   3   5
ENDBRANCH   1   3
BRANCH   1  11
HETATM   11  C5  UNL     1      20.936  10.822  28.538  1.00  0.00     0.710 A 
HETATM   12  N3  UNL     1      20.222   9.703  28.711  1.00  0.00    -0.115 N 
HETATM   13  N4  UNL     1      18.964   9.999  28.443  1.00  0.00    -0.213 N 
ATOM     14  H3  UNL     1      20.583   8.792  28.996  1.00  0.00     0.207 HD
HETATM   15  N5  UNL     1      18.864  11.266  28.110  1.00  0.00    -0.213 N 
ATOM     16  H4  UNL     1      18.185   9.342  28.489  1.00  0.00     0.210 HD
HETATM   17  N6  UNL     1      20.078  11.778  28.166  1.00  0.00    -0.115 N 
ATOM     18  H5  UNL     1      18.009  11.761  27.855  1.00  0.00     0.210 HD
ATOM     19  H6  UNL     1      20.322  12.747  27.959  1.00  0.00     0.207 HD
ENDBRANCH   1  11
TORSDOF 4
ENDMDL
MODEL 2
REMARK VINA RESULT: -3.676520412      0.053      1.075
REMARK  4 active torsions:
REMARK  status: ('A' for Active; 'I' for Inactive)
REMARK    1  A    between atoms: C2_2  and  N1_3 
REMARK    2  A    between atoms: C2_2  and  C3_7 
REMARK    3  A    between atoms: C3_7  and  N2_9 
REMARK    4  A    between atoms: N2_9  and  C5_11 
ROOT
HETATM    1  N2  UNL     1      22.230  10.924  28.691  1.00  0.00    -0.217 N 
ATOM      2  H2  UNL     1      22.576  11.143  29.625  1.00  0.00     0.178 HD
ENDROOT
BRANCH   1   3
HETATM    3  C3  UNL     1      23.194  10.814  27.636  1.00  0.00     0.125 C 
HETATM    4  C4  UNL     1      23.903  12.165  27.537  1.00  0.00     0.035 C 
BRANCH   3   5
HETATM    5  C2  UNL     1      24.258   9.780  27.917  1.00  0.00     0.202 C 
HETATM    6  C1  UNL     1      25.205   9.704  26.757  1.00  0.00     0.042 C 
BRANCH   5   7
HETATM    7  N1  UNL     1      23.628   8.485  28.181  1.00  0.00    -0.073 N 
ATOM      8  H13 UNL     1      22.936   8.254  27.468  1.00  0.00     0.274 HD
ATOM      9  H12 UNL     1      24.279   7.715  28.025  1.00  0.00     0.274 HD
ATOM     10  H11 UNL     1      23.225   8.449  29.117  1.00  0.00     0.274 HD
ENDBRANCH   5   7
ENDBRANCH   3   5
ENDBRANCH   1   3
BRANCH   1  11
HETATM   11  C5  UNL     1      20.961  10.768  28.548  1.00  0.00     0.710 A 
HETATM   12  N3  UNL     1      20.141  11.757  28.173  1.00  0.00    -0.115 N 
HETATM   13  N4  UNL     1      18.921  11.255  28.128  1.00  0.00    -0.213 N 
ATOM     14  H3  UNL     1      20.409  12.718  27.961  1.00  0.00     0.207 HD
HETATM   15  N5  UNL     1      18.948   9.984  28.462  1.00  0.00    -0.213 N 
ATOM     16  H4  UNL     1      18.082  11.776  27.873  1.00  0.00     0.210 HD
HETATM   17  N6  UNL     1      20.204   9.679  28.722  1.00  0.00    -0.115 N 
ATOM     18  H5  UNL     1      18.149   9.353  28.511  1.00  0.00     0.210 HD
ATOM     19  H6  UNL     1      20.544   8.761  29.010  1.00  0.00     0.207 HD
ENDBRANCH   1  11
TORSDOF 4
ENDMDL
MODEL 3
REMARK VINA RESULT: -3.499042035      0.965      1.089
REMARK  4 active torsions:
REMARK  status: ('A' for Active; 'I' for Inactive)
REMARK    1  A    between atoms: C2_2  and  N1_3 
REMARK    2  A    between atoms: C2_2  and  C3_7 
REMARK    3  A    between atoms: C3_7  and  N2_9 
REMARK    4  A    between atoms: N2_9  and  C5_11 
ROOT
HETATM    1  N2  UNL     1      22.220  10.790  28.630  1.00  0.00    -0.217 N 
ATOM      2  H2  UNL     1      22.602  10.599  29.556  1.00  0.00     0.178 HD
ENDROOT
BRANCH   1   3
HETATM    3  C3  UNL     1      23.149  11.073  27.576  1.00  0.00     0.125 C 
HETATM    4  C4  UNL     1      23.601  12.522  27.757  1.00  0.00     0.035 C 
BRANCH   3   5
HETATM    5  C2  UNL     1      24.391  10.215  27.640  1.00  0.00     0.202 C 
HETATM    6  C1  UNL     1      24.019   8.818  28.035  1.00  0.00     0.042 C 
BRANCH   5   7
HETATM    7  N1  UNL     1      25.346  10.803  28.581  1.00  0.00    -0.073 N 
ATOM      8  H13 UNL     1      25.918  11.520  28.134  1.00  0.00     0.274 HD
ATOM      9  H12 UNL     1      24.876  11.384  29.275  1.00  0.00     0.274 HD
ATOM     10  H11 UNL     1      25.924  10.088  29.023  1.00  0.00     0.274 HD
ENDBRANCH   5   7
ENDBRANCH   3   5
ENDBRANCH   1   3
BRANCH   1  11
HETATM   11  C5  UNL     1      20.941  10.757  28.495  1.00  0.00     0.710 A 
HETATM   12  N3  UNL     1      20.212   9.655  28.704  1.00  0.00    -0.115 N 
HETATM   13  N4  UNL     1      18.951   9.973  28.477  1.00  0.00    -0.213 N 
ATOM     14  H3  UNL     1      20.565   8.740  28.985  1.00  0.00     0.207 HD
HETATM   15  N5  UNL     1      18.865  11.238  28.134  1.00  0.00    -0.213 N 
ATOM     16  H4  UNL     1      18.162   9.332  28.557  1.00  0.00     0.210 HD
HETATM   17  N6  UNL     1      20.089  11.727  28.143  1.00  0.00    -0.115 N 
ATOM     18  H5  UNL     1      18.011  11.747  27.904  1.00  0.00     0.210 HD
ATOM     19  H6  UNL     1      20.345  12.689  27.918  1.00  0.00     0.207 HD
ENDBRANCH   1  11
TORSDOF 4
ENDMDL
MODEL 4
REMARK VINA RESULT: -3.492727097      1.728      2.354
REMARK  4 active torsions:
REMARK  status: ('A' for Active; 'I' for Inactive)
REMARK    1  A    between atoms: C2_2  and  N1_3 
REMARK    2  A    between atoms: C2_2  and  C3_7 
REMARK    3  A    between atoms: C3_7  and  N2_9 
REMARK    4  A    between atoms: N2_9  and  C5_11 
ROOT
HETATM    1  N2  UNL     1      22.053  11.461  28.586  1.00  0.00    -0.217 N 
ATOM      2  H2  UNL     1      22.610  11.011  29.313  1.00  0.00     0.178 HD
ENDROOT
BRANCH   1   3
HETATM    3  C3  UNL     1      22.699  12.445  27.769  1.00  0.00     0.125 C 
HETATM    4  C4  UNL     1      24.065  12.721  28.399  1.00  0.00     0.035 C 
BRANCH   3   5
HETATM    5  C2  UNL     1      22.957  11.963  26.360  1.00  0.00     0.202 C 
HETATM    6  C1  UNL     1      24.379  12.247  25.983  1.00  0.00     0.042 C 
BRANCH   5   7
HETATM    7  N1  UNL     1      22.018  12.607  25.441  1.00  0.00    -0.073 N 
ATOM      8  H13 UNL     1      22.497  13.248  24.807  1.00  0.00     0.274 HD
ATOM      9  H12 UNL     1      21.656  11.946  24.753  1.00  0.00     0.274 HD
ATOM     10  H11 UNL     1      21.263  13.075  25.943  1.00  0.00     0.274 HD
ENDBRANCH   5   7
ENDBRANCH   3   5
ENDBRANCH   1   3
BRANCH   1  11
HETATM   11  C5  UNL     1      20.823  11.102  28.472  1.00  0.00     0.710 A 
HETATM   12  N3  UNL     1      19.825  11.970  28.264  1.00  0.00    -0.115 N 
HETATM   13  N4  UNL     1      18.708  11.269  28.198  1.00  0.00    -0.213 N 
ATOM     14  H3  UNL     1      19.912  12.982  28.172  1.00  0.00     0.207 HD
HETATM   15  N5  UNL     1      18.971   9.992  28.358  1.00  0.00    -0.213 N 
ATOM     16  H4  UNL     1      17.779  11.661  28.047  1.00  0.00     0.210 HD
HETATM   17  N6  UNL     1      20.274   9.883  28.527  1.00  0.00    -0.115 N 
ATOM     18  H5  UNL     1      18.295   9.228  28.352  1.00  0.00     0.210 HD
ATOM     19  H6  UNL     1      20.782   9.011  28.677  1.00  0.00     0.207 HD
ENDBRANCH   1  11
TORSDOF 4
ENDMDL
MODEL 5
REMARK VINA RESULT: -3.472711037      1.001      1.544
REMARK  4 active torsions:
REMARK  status: ('A' for Active; 'I' for Inactive)
REMARK    1  A    between atoms: C2_2  and  N1_3 
REMARK    2  A    between atoms: C2_2  and  C3_7 
REMARK    3  A    between atoms: C3_7  and  N2_9 
REMARK    4  A    between atoms: N2_9  and  C5_11 
ROOT
HETATM    1  N2  UNL     1      22.254  10.965  28.610  1.00  0.00    -0.217 N 
ATOM      2  H2  UNL     1      22.655  10.967  29.548  1.00  0.00     0.178 HD
ENDROOT
BRANCH   1   3
HETATM    3  C3  UNL     1      23.147  11.164  27.507  1.00  0.00     0.125 C 
HETATM    4  C4  UNL     1      23.566  12.634  27.531  1.00  0.00     0.035 C 
BRANCH   3   5
HETATM    5  C2  UNL     1      24.412  10.345  27.619  1.00  0.00     0.202 C 
HETATM    6  C1  UNL     1      24.067   8.931  27.976  1.00  0.00     0.042 C 
BRANCH   5   7
HETATM    7  N1  UNL     1      25.301  10.948  28.612  1.00  0.00    -0.073 N 
ATOM      8  H13 UNL     1      25.804  11.748  28.227  1.00  0.00     0.274 HD
ATOM      9  H12 UNL     1      24.774  11.429  29.342  1.00  0.00     0.274 HD
ATOM     10  H11 UNL     1      25.943  10.260  29.007  1.00  0.00     0.274 HD
ENDBRANCH   5   7
ENDBRANCH   3   5
ENDBRANCH   1   3
BRANCH   1  11
HETATM   11  C5  UNL     1      20.985  10.783  28.506  1.00  0.00     0.710 A 
HETATM   12  N3  UNL     1      20.136  11.752  28.143  1.00  0.00    -0.115 N 
HETATM   13  N4  UNL     1      18.925  11.226  28.140  1.00  0.00    -0.213 N 
ATOM     14  H3  UNL     1      20.378  12.716  27.913  1.00  0.00     0.207 HD
HETATM   15  N5  UNL     1      18.986   9.961  28.487  1.00  0.00    -0.213 N 
ATOM     16  H4  UNL     1      18.069  11.729  27.903  1.00  0.00     0.210 HD
HETATM   17  N6  UNL     1      20.254   9.682  28.714  1.00  0.00    -0.115 N 
ATOM     18  H5  UNL     1      18.200   9.315  28.566  1.00  0.00     0.210 HD
ATOM     19  H6  UNL     1      20.619   8.774  29.002  1.00  0.00     0.207 HD
ENDBRANCH   1  11
TORSDOF 4
ENDMDL
