MODEL 1
REMARK VINA RESULT: -2.958787544      0.000      0.000
REMARK  3 active torsions:
REMARK  status: ('A' for Active; 'I' for Inactive)
REMARK    1  A    between atoms: C2_2  and  N1_3 
REMARK    2  A    between atoms: C2_2  and  C3_7 
REMARK    3  A    between atoms: N3_14  and  O1_16 
ROOT
HETATM    1  C3  UNL     1      22.761  11.637  26.992  1.00  0.00     0.315 C 
HETATM    2  N2  UNL     1      21.573  12.356  27.329  1.00  0.00    -0.052 N 
ATOM      3  H21 UNL     1      20.811  12.101  26.701  1.00  0.00     0.279 HD
ATOM      4  H22 UNL     1      21.673  13.343  27.088  1.00  0.00     0.279 HD
HETATM    5  C4  UNL     1      21.165  12.213  28.699  1.00  0.00     0.242 C 
HETATM    6  C5  UNL     1      20.709  10.766  28.891  1.00  0.00     0.105 C 
HETATM    7  C6  UNL     1      21.866   9.914  28.507  1.00  0.00     0.100 C 
HETATM    8  N3  UNL     1      21.837   8.644  28.779  1.00  0.00    -0.257 N 
ATOM      9  H3  UNL     1      21.025   8.245  29.250  1.00  0.00     0.195 HD
HETATM   10  N4  UNL     1      22.980  10.514  27.851  1.00  0.00    -0.349 N 
ATOM     11  H4  UNL     1      23.921  10.147  27.993  1.00  0.00     0.163 HD
ENDROOT
BRANCH   1  12
HETATM   12  C2  UNL     1      23.923  12.606  26.983  1.00  0.00     0.229 C 
HETATM   13  C1  UNL     1      24.924  12.205  28.039  1.00  0.00     0.043 C 
BRANCH  12  14
HETATM   14  N1  UNL     1      24.523  12.582  25.684  1.00  0.00    -0.072 N 
ATOM     15  H13 UNL     1      24.700  11.629  25.367  1.00  0.00     0.274 HD
ATOM     16  H12 UNL     1      23.865  12.866  24.959  1.00  0.00     0.274 HD
ATOM     17  H11 UNL     1      25.370  13.149  25.669  1.00  0.00     0.274 HD
ENDBRANCH  12  14
ENDBRANCH   1  12
BRANCH   8  18
HETATM   18  O1  UNL     1      22.892   7.836  28.436  1.00  0.00    -0.288 OA
ATOM     19  H1  UNL     1      23.036   7.015  28.890  1.00  0.00     0.244 HD
ENDBRANCH   8  18
TORSDOF 3
ENDMDL
MODEL 2
REMARK VINA RESULT: -2.899005489      2.094      2.472
REMARK  3 active torsions:
REMARK  status: ('A' for Active; 'I' for Inactive)
REMARK    1  A    between atoms: C2_2  and  N1_3 
REMARK    2  A    between atoms: C2_2  and  C3_7 
REMARK    3  A    between atoms: N3_14  and  O1_16 
ROOT
HETATM    1  C3  UNL     1      22.569  12.342  27.635  1.00  0.00     0.315 C 
HETATM    2  N2  UNL     1      23.628  11.517  28.124  1.00  0.00    -0.052 N 
ATOM      3  H21 UNL     1      23.758  11.660  29.126  1.00  0.00     0.279 HD
ATOM      4  H22 UNL     1      24.529  11.853  27.783  1.00  0.00     0.279 HD
HETATM    5  C4  UNL     1      23.470  10.119  27.832  1.00  0.00     0.242 C 
HETATM    6  C5  UNL     1      22.285   9.612  28.654  1.00  0.00     0.105 C 
HETATM    7  C6  UNL     1      21.121  10.451  28.263  1.00  0.00     0.100 C 
HETATM    8  N3  UNL     1      19.929  10.102  28.643  1.00  0.00    -0.257 N 
ATOM      9  H3  UNL     1      19.803   9.259  29.204  1.00  0.00     0.195 HD
HETATM   10  N4  UNL     1      21.344  11.620  27.478  1.00  0.00    -0.349 N 
ATOM     11  H4  UNL     1      20.638  11.937  26.813  1.00  0.00     0.163 HD
ENDROOT
BRANCH   1  12
HETATM   12  C2  UNL     1      23.029  13.005  26.355  1.00  0.00     0.229 C 
HETATM   13  C1  UNL     1      24.528  12.878  26.231  1.00  0.00     0.043 C 
BRANCH  12  14
HETATM   14  N1  UNL     1      22.376  12.367  25.254  1.00  0.00    -0.072 N 
ATOM     15  H13 UNL     1      22.257  11.366  25.413  1.00  0.00     0.274 HD
ATOM     16  H12 UNL     1      21.392  12.630  25.194  1.00  0.00     0.274 HD
ATOM     17  H11 UNL     1      22.872  12.556  24.383  1.00  0.00     0.274 HD
ENDBRANCH  12  14
ENDBRANCH   1  12
BRANCH   8  18
HETATM   18  O1  UNL     1      18.839  10.859  28.295  1.00  0.00    -0.288 OA
ATOM     19  H1  UNL     1      18.122  10.473  27.805  1.00  0.00     0.244 HD
ENDBRANCH   8  18
TORSDOF 3
ENDMDL
MODEL 3
REMARK VINA RESULT: -2.898796681      2.632      3.922
REMARK  3 active torsions:
REMARK  status: ('A' for Active; 'I' for Inactive)
REMARK    1  A    between atoms: C2_2  and  N1_3 
REMARK    2  A    between atoms: C2_2  and  C3_7 
REMARK    3  A    between atoms: N3_14  and  O1_16 
ROOT
HETATM    1  C3  UNL     1      23.259  11.525  26.697  1.00  0.00     0.315 C 
HETATM    2  N2  UNL     1      23.899  11.752  27.955  1.00  0.00    -0.052 N 
ATOM      3  H21 UNL     1      23.765  10.952  28.573  1.00  0.00     0.279 HD
ATOM      4  H22 UNL     1      23.399  12.466  28.486  1.00  0.00     0.279 HD
HETATM    5  C4  UNL     1      25.293  12.085  27.856  1.00  0.00     0.242 C 
HETATM    6  C5  UNL     1      26.026  10.837  27.363  1.00  0.00     0.105 C 
HETATM    7  C6  UNL     1      25.394  10.471  26.068  1.00  0.00     0.100 C 
HETATM    8  N3  UNL     1      25.959   9.576  25.315  1.00  0.00    -0.257 N 
ATOM      9  H3  UNL     1      26.827   9.134  25.618  1.00  0.00     0.195 HD
HETATM   10  N4  UNL     1      24.181  11.113  25.684  1.00  0.00    -0.349 N 
ATOM     11  H4  UNL     1      23.973  11.277  24.698  1.00  0.00     0.163 HD
ENDROOT
BRANCH   1  12
HETATM   12  C2  UNL     1      22.487  12.770  26.320  1.00  0.00     0.229 C 
HETATM   13  C1  UNL     1      22.387  12.866  24.817  1.00  0.00     0.043 C 
BRANCH  12  14
HETATM   14  N1  UNL     1      21.185  12.691  26.907  1.00  0.00    -0.072 N 
ATOM     15  H13 UNL     1      20.458  12.577  26.202  1.00  0.00     0.274 HD
ATOM     16  H12 UNL     1      21.049  11.815  27.410  1.00  0.00     0.274 HD
ATOM     17  H11 UNL     1      21.010  13.501  27.503  1.00  0.00     0.274 HD
ENDBRANCH  12  14
ENDBRANCH   1  12
BRANCH   8  18
HETATM   18  O1  UNL     1      25.396   9.220  24.115  1.00  0.00    -0.288 OA
ATOM     19  H1  UNL     1      25.925   8.820  23.436  1.00  0.00     0.244 HD
ENDBRANCH   8  18
TORSDOF 3
ENDMDL
MODEL 4
REMARK VINA RESULT: -2.883945006      2.127      2.619
REMARK  3 active torsions:
REMARK  status: ('A' for Active; 'I' for Inactive)
REMARK    1  A    between atoms: C2_2  and  N1_3 
REMARK    2  A    between atoms: C2_2  and  C3_7 
REMARK    3  A    between atoms: N3_14  and  O1_16 
ROOT
HETATM    1  C3  UNL     1      22.770  11.102  27.419  1.00  0.00     0.315 C 
HETATM    2  N2  UNL     1      23.046  12.484  27.659  1.00  0.00    -0.052 N 
ATOM      3  H21 UNL     1      22.731  13.052  26.872  1.00  0.00     0.279 HD
ATOM      4  H22 UNL     1      24.049  12.661  27.610  1.00  0.00     0.279 HD
HETATM    5  C4  UNL     1      22.507  12.988  28.891  1.00  0.00     0.242 C 
HETATM    6  C5  UNL     1      20.984  13.001  28.752  1.00  0.00     0.105 C 
HETATM    7  C6  UNL     1      20.586  11.603  28.439  1.00  0.00     0.100 C 
HETATM    8  N3  UNL     1      19.329  11.276  28.483  1.00  0.00    -0.257 N 
ATOM      9  H3  UNL     1      18.631  11.977  28.729  1.00  0.00     0.195 HD
HETATM   10  N4  UNL     1      21.594  10.655  28.100  1.00  0.00    -0.349 N 
ATOM     11  H4  UNL     1      21.479   9.670  28.341  1.00  0.00     0.163 HD
ENDROOT
BRANCH   1  12
HETATM   12  C2  UNL     1      24.000  10.298  27.778  1.00  0.00     0.229 C 
HETATM   13  C1  UNL     1      23.596   8.887  28.131  1.00  0.00     0.043 C 
BRANCH  12  14
HETATM   14  N1  UNL     1      24.889  10.303  26.657  1.00  0.00    -0.072 N 
ATOM     15  H13 UNL     1      25.251   9.371  26.457  1.00  0.00     0.274 HD
ATOM     16  H12 UNL     1      24.391  10.466  25.781  1.00  0.00     0.274 HD
ATOM     17  H11 UNL     1      25.640  10.979  26.797  1.00  0.00     0.274 HD
ENDBRANCH  12  14
ENDBRANCH   1  12
BRANCH   8  18
HETATM   18  O1  UNL     1      18.935   9.992  28.199  1.00  0.00    -0.288 OA
ATOM     19  H1  UNL     1      19.025   9.306  28.850  1.00  0.00     0.244 HD
ENDBRANCH   8  18
TORSDOF 3
ENDMDL
MODEL 5
REMARK VINA RESULT: -2.819509773      2.298      4.313
REMARK  3 active torsions:
REMARK  status: ('A' for Active; 'I' for Inactive)
REMARK    1  A    between atoms: C2_2  and  N1_3 
REMARK    2  A    between atoms: C2_2  and  C3_7 
REMARK    3  A    between atoms: N3_14  and  O1_16 
ROOT
HETATM    1  C3  UNL     1      22.337  10.990  27.721  1.00  0.00     0.315 C 
HETATM    2  N2  UNL     1      23.639  11.303  28.220  1.00  0.00    -0.052 N 
ATOM      3  H21 UNL     1      24.340  10.698  27.792  1.00  0.00     0.279 HD
ATOM      4  H22 UNL     1      23.728  11.009  29.193  1.00  0.00     0.279 HD
HETATM    5  C4  UNL     1      24.010  12.683  28.077  1.00  0.00     0.242 C 
HETATM    6  C5  UNL     1      24.183  12.957  26.582  1.00  0.00     0.105 C 
HETATM    7  C6  UNL     1      22.886  12.605  25.945  1.00  0.00     0.100 C 
HETATM    8  N3  UNL     1      22.673  12.944  24.709  1.00  0.00    -0.257 N 
ATOM      9  H3  UNL     1      23.394  13.444  24.190  1.00  0.00     0.195 HD
HETATM   10  N4  UNL     1      21.907  11.905  26.708  1.00  0.00    -0.349 N 
ATOM     11  H4  UNL     1      20.913  12.054  26.534  1.00  0.00     0.163 HD
ENDROOT
BRANCH   1  12
HETATM   12  C2  UNL     1      21.380  10.916  28.891  1.00  0.00     0.229 C 
HETATM   13  C1  UNL     1      20.342  12.004  28.764  1.00  0.00     0.043 C 
BRANCH  12  14
HETATM   14  N1  UNL     1      20.761   9.626  28.889  1.00  0.00    -0.072 N 
ATOM     15  H13 UNL     1      19.799   9.669  28.554  1.00  0.00     0.274 HD
ATOM     16  H12 UNL     1      21.149   9.022  28.165  1.00  0.00     0.274 HD
ATOM     17  H11 UNL     1      20.821   9.197  29.813  1.00  0.00     0.274 HD
ENDBRANCH  12  14
ENDBRANCH   1  12
BRANCH   8  18
HETATM   18  O1  UNL     1      21.485  12.631  24.098  1.00  0.00    -0.288 OA
ATOM     19  H1  UNL     1      20.892  13.319  23.820  1.00  0.00     0.244 HD
ENDBRANCH   8  18
TORSDOF 3
ENDMDL
