MODEL 1
REMARK VINA RESULT: -7.928725152      0.000      0.000
REMARK  15 active torsions:
REMARK  status: ('A' for Active; 'I' for Inactive)
REMARK    1  A    between atoms: C2_2  and  C3_3 
REMARK    2  A    between atoms: C3_3  and  N1_4 
REMARK    3  A    between atoms: N1_4  and  S1_6 
REMARK    4  A    between atoms: S1_6  and  N2_9 
REMARK       I    between atoms: N2_9  and  C4_11 
REMARK    5  A    between atoms: C4_11  and  C5_13 
REMARK    6  A    between atoms: C14_25  and  C15_26 
REMARK    7  A    between atoms: C15_26  and  C16_27 
REMARK       I    between atoms: C16_27  and  N4_29 
REMARK    8  A    between atoms: N4_29  and  C17_31 
REMARK    9  A    between atoms: C17_31  and  C18_32 
REMARK   10  A    between atoms: C18_32  and  N5_33 
REMARK   11  A    between atoms: N5_33  and  C20_35 
REMARK   12  A    between atoms: C20_35  and  C21_36 
REMARK   13  A    between atoms: C21_36  and  N6_37 
REMARK   14  A    between atoms: N6_37  and  C22_39 
REMARK   15  A    between atoms: C22_39  and  C23_40 
ROOT
HETATM    1  C5  UNL     1      13.025  22.842   5.666  1.00  0.00     0.087 C 
HETATM    2  C6  UNL     1      12.039  21.852   6.188  1.00  0.00     0.015 C 
HETATM    3  C7  UNL     1      10.819  22.626   6.645  1.00  0.00     0.007 C 
HETATM    4  C8  UNL     1      11.028  24.041   6.185  1.00  0.00    -0.001 C 
HETATM    5  C9  UNL     1      10.307  25.079   7.008  1.00  0.00    -0.002 C 
HETATM    6  C10 UNL     1       9.514  24.353   8.057  1.00  0.00     0.033 C 
HETATM    7  C11 UNL     1       8.489  25.179   8.753  1.00  0.00    -0.019 C 
HETATM    8  C12 UNL     1       8.275  26.493   8.799  1.00  0.00    -0.019 C 
HETATM    9  C13 UNL     1       7.441  27.541   9.341  1.00  0.00     0.270 C 
HETATM   10  N3  UNL     1       8.629  28.408   9.248  1.00  0.00    -0.055 N 
ATOM     11  H31 UNL     1       9.220  28.595  10.057  1.00  0.00     0.279 HD
ATOM     12  H32 UNL     1       8.547  29.416   9.117  1.00  0.00     0.279 HD
HETATM   13  C14 UNL     1       9.082  27.494   8.125  1.00  0.00     0.174 C 
HETATM   14  C27 UNL     1      10.566  27.187   8.415  1.00  0.00     0.053 C 
HETATM   15  C28 UNL     1      11.133  26.213   7.422  1.00  0.00    -0.007 C 
HETATM   16  C29 UNL     1      12.517  25.871   7.914  1.00  0.00     0.006 C 
HETATM   17  C30 UNL     1      12.976  24.479   7.544  1.00  0.00     0.011 C 
HETATM   18  C31 UNL     1      12.529  24.171   6.167  1.00  0.00    -0.028 C 
HETATM   19  C32 UNL     1      12.988  25.201   5.149  1.00  0.00     0.016 C 
ENDROOT
BRANCH  13  20
HETATM   20  C15 UNL     1       8.841  28.228   6.908  1.00  0.00     0.090 C 
BRANCH  20  21
HETATM   21  C16 UNL     1       8.130  27.643   5.775  1.00  0.00     0.240 C 
HETATM   22  O4  UNL     1       8.687  27.151   4.787  1.00  0.00    -0.269 OA
HETATM   23  N4  UNL     1       6.684  27.609   5.756  1.00  0.00    -0.356 N 
ATOM     24  H4  UNL     1       6.191  27.999   6.558  1.00  0.00     0.162 HD
BRANCH  23  25
HETATM   25  C17 UNL     1       5.904  27.070   4.697  1.00  0.00     0.153 C 
BRANCH  25  26
HETATM   26  C18 UNL     1       4.686  26.367   5.209  1.00  0.00     0.291 C 
BRANCH  26  27
HETATM   27  N5  UNL     1       4.047  25.576   4.182  1.00  0.00     0.087 N 
HETATM   28  C19 UNL     1       3.399  24.427   4.792  1.00  0.00     0.310 C 
BRANCH  27  29
HETATM   29  C20 UNL     1       5.017  25.092   3.242  1.00  0.00     0.291 C 
BRANCH  29  30
HETATM   30  C21 UNL     1       5.276  23.621   3.284  1.00  0.00     0.149 C 
BRANCH  30  31
HETATM   31  N6  UNL     1       6.604  23.252   3.593  1.00  0.00    -0.399 N 
ATOM     32  H6  UNL     1       6.824  22.282   3.816  1.00  0.00     0.158 HD
BRANCH  31  33
HETATM   33  C22 UNL     1       7.623  24.223   3.592  1.00  0.00     0.088 C 
BRANCH  33  34
HETATM   34  C23 UNL     1       8.741  24.062   2.623  1.00  0.00     0.223 C 
HETATM   35  C24 UNL     1       9.464  22.772   3.005  1.00  0.00     0.040 C 
HETATM   36  C25 UNL     1      10.909  22.982   2.680  1.00  0.00     0.030 C 
HETATM   37  C26 UNL     1      10.889  24.387   2.073  1.00  0.00     0.233 C 
HETATM   38  N7  UNL     1       9.831  25.015   2.852  1.00  0.00    -0.066 N 
ATOM     39  H72 UNL     1       9.627  25.987   2.620  1.00  0.00     0.278 HD
ATOM     40  H71 UNL     1      10.054  25.208   3.828  1.00  0.00     0.278 HD
ENDBRANCH  33  34
ENDBRANCH  31  33
ENDBRANCH  30  31
ENDBRANCH  29  30
ENDBRANCH  27  29
ENDBRANCH  26  27
ENDBRANCH  25  26
ENDBRANCH  23  25
ENDBRANCH  20  21
ENDBRANCH  13  20
BRANCH   1  41
HETATM   41  C4  UNL     1      14.373  22.452   6.062  1.00  0.00     0.237 C 
HETATM   42  N2  UNL     1      14.724  21.571   7.112  1.00  0.00    -0.237 N 
ATOM     43  H2  UNL     1      13.970  21.156   7.660  1.00  0.00     0.183 HD
HETATM   44  O3  UNL     1      15.374  22.933   5.420  1.00  0.00    -0.272 OA
BRANCH  42  45
HETATM   45  S1  UNL     1      16.341  21.155   7.526  1.00  0.00     0.321 S 
HETATM   46  O1  UNL     1      17.079  22.335   8.105  1.00  0.00    -0.182 OA
HETATM   47  O2  UNL     1      16.372  20.016   8.531  1.00  0.00    -0.182 OA
BRANCH  45  48
HETATM   48  N1  UNL     1      17.161  20.592   6.116  1.00  0.00    -0.302 N 
ATOM     49  H1  UNL     1      18.050  20.958   5.776  1.00  0.00     0.173 HD
BRANCH  48  50
HETATM   50  C3  UNL     1      16.411  19.527   5.483  1.00  0.00     0.133 C 
BRANCH  50  51
HETATM   51  C2  UNL     1      16.382  19.789   3.991  1.00  0.00     0.016 C 
HETATM   52  C1  UNL     1      14.948  19.877   3.500  1.00  0.00     0.006 C 
ENDBRANCH  50  51
ENDBRANCH  48  50
ENDBRANCH  45  48
ENDBRANCH  42  45
ENDBRANCH   1  41
TORSDOF 15
ENDMDL
MODEL 2
REMARK VINA RESULT: -7.523591693      1.488      1.899
REMARK  15 active torsions:
REMARK  status: ('A' for Active; 'I' for Inactive)
REMARK    1  A    between atoms: C2_2  and  C3_3 
REMARK    2  A    between atoms: C3_3  and  N1_4 
REMARK    3  A    between atoms: N1_4  and  S1_6 
REMARK    4  A    between atoms: S1_6  and  N2_9 
REMARK       I    between atoms: N2_9  and  C4_11 
REMARK    5  A    between atoms: C4_11  and  C5_13 
REMARK    6  A    between atoms: C14_25  and  C15_26 
REMARK    7  A    between atoms: C15_26  and  C16_27 
REMARK       I    between atoms: C16_27  and  N4_29 
REMARK    8  A    between atoms: N4_29  and  C17_31 
REMARK    9  A    between atoms: C17_31  and  C18_32 
REMARK   10  A    between atoms: C18_32  and  N5_33 
REMARK   11  A    between atoms: N5_33  and  C20_35 
REMARK   12  A    between atoms: C20_35  and  C21_36 
REMARK   13  A    between atoms: C21_36  and  N6_37 
REMARK   14  A    between atoms: N6_37  and  C22_39 
REMARK   15  A    between atoms: C22_39  and  C23_40 
ROOT
HETATM    1  C5  UNL     1      13.037  22.738   5.650  1.00  0.00     0.087 C 
HETATM    2  C6  UNL     1      12.033  21.765   6.169  1.00  0.00     0.015 C 
HETATM    3  C7  UNL     1      10.828  22.560   6.629  1.00  0.00     0.007 C 
HETATM    4  C8  UNL     1      11.064  23.972   6.175  1.00  0.00    -0.001 C 
HETATM    5  C9  UNL     1      10.362  25.020   7.003  1.00  0.00    -0.002 C 
HETATM    6  C10 UNL     1       9.555  24.305   8.049  1.00  0.00     0.033 C 
HETATM    7  C11 UNL     1       8.547  25.147   8.748  1.00  0.00    -0.019 C 
HETATM    8  C12 UNL     1       8.357  26.465   8.800  1.00  0.00    -0.019 C 
HETATM    9  C13 UNL     1       7.543  27.526   9.347  1.00  0.00     0.270 C 
HETATM   10  N3  UNL     1       8.747  28.371   9.257  1.00  0.00    -0.055 N 
ATOM     11  H31 UNL     1       9.342  28.544  10.067  1.00  0.00     0.279 HD
ATOM     12  H32 UNL     1       8.684  29.381   9.130  1.00  0.00     0.279 HD
HETATM   13  C14 UNL     1       9.183  27.453   8.130  1.00  0.00     0.174 C 
HETATM   14  C27 UNL     1      10.661  27.118   8.418  1.00  0.00     0.053 C 
HETATM   15  C28 UNL     1      11.209  26.137   7.421  1.00  0.00    -0.007 C 
HETATM   16  C29 UNL     1      12.586  25.767   7.910  1.00  0.00     0.006 C 
HETATM   17  C30 UNL     1      13.019  24.368   7.535  1.00  0.00     0.011 C 
HETATM   18  C31 UNL     1      12.566  24.074   6.156  1.00  0.00    -0.028 C 
HETATM   19  C32 UNL     1      13.044  25.101   5.143  1.00  0.00     0.016 C 
ENDROOT
BRANCH  13  20
HETATM   20  C15 UNL     1       8.955  28.197   6.916  1.00  0.00     0.090 C 
BRANCH  20  21
HETATM   21  C16 UNL     1       8.209  27.640   5.792  1.00  0.00     0.240 C 
HETATM   22  O4  UNL     1       8.734  27.206   4.759  1.00  0.00    -0.269 OA
HETATM   23  N4  UNL     1       6.766  27.565   5.835  1.00  0.00    -0.356 N 
ATOM     24  H4  UNL     1       6.299  27.907   6.675  1.00  0.00     0.162 HD
BRANCH  23  25
HETATM   25  C17 UNL     1       5.952  27.049   4.790  1.00  0.00     0.153 C 
BRANCH  25  26
HETATM   26  C18 UNL     1       4.691  26.442   5.318  1.00  0.00     0.291 C 
BRANCH  26  27
HETATM   27  N5  UNL     1       4.021  25.635   4.323  1.00  0.00     0.087 N 
HETATM   28  C19 UNL     1       3.368  24.512   4.972  1.00  0.00     0.310 C 
BRANCH  27  29
HETATM   29  C20 UNL     1       4.967  25.114   3.378  1.00  0.00     0.291 C 
BRANCH  29  30
HETATM   30  C21 UNL     1       5.205  23.641   3.453  1.00  0.00     0.149 C 
BRANCH  30  31
HETATM   31  N6  UNL     1       6.562  23.252   3.505  1.00  0.00    -0.399 N 
ATOM     32  H6  UNL     1       6.808  22.263   3.522  1.00  0.00     0.158 HD
BRANCH  31  33
HETATM   33  C22 UNL     1       7.574  24.230   3.532  1.00  0.00     0.088 C 
BRANCH  33  34
HETATM   34  C23 UNL     1       8.720  24.076   2.596  1.00  0.00     0.223 C 
HETATM   35  C24 UNL     1       9.423  22.775   2.981  1.00  0.00     0.040 C 
HETATM   36  C25 UNL     1      10.879  22.979   2.704  1.00  0.00     0.030 C 
HETATM   37  C26 UNL     1      10.887  24.394   2.118  1.00  0.00     0.233 C 
HETATM   38  N7  UNL     1       9.809  25.017   2.872  1.00  0.00    -0.066 N 
ATOM     39  H72 UNL     1       9.618  25.994   2.649  1.00  0.00     0.278 HD
ATOM     40  H71 UNL     1      10.003  25.194   3.858  1.00  0.00     0.278 HD
ENDBRANCH  33  34
ENDBRANCH  31  33
ENDBRANCH  30  31
ENDBRANCH  29  30
ENDBRANCH  27  29
ENDBRANCH  26  27
ENDBRANCH  25  26
ENDBRANCH  23  25
ENDBRANCH  20  21
ENDBRANCH  13  20
BRANCH   1  41
HETATM   41  C4  UNL     1      14.377  22.322   6.044  1.00  0.00     0.237 C 
HETATM   42  N2  UNL     1      14.710  21.381   7.048  1.00  0.00    -0.237 N 
ATOM     43  H2  UNL     1      13.946  20.939   7.559  1.00  0.00     0.183 HD
HETATM   44  O3  UNL     1      15.390  22.835   5.445  1.00  0.00    -0.272 OA
BRANCH  42  45
HETATM   45  S1  UNL     1      16.319  20.937   7.461  1.00  0.00     0.321 S 
HETATM   46  O1  UNL     1      17.052  20.364   6.274  1.00  0.00    -0.182 OA
HETATM   47  O2  UNL     1      17.097  22.132   7.988  1.00  0.00    -0.182 OA
BRANCH  45  48
HETATM   48  N1  UNL     1      16.278  19.774   8.735  1.00  0.00    -0.302 N 
ATOM     49  H1  UNL     1      15.427  19.377   9.132  1.00  0.00     0.173 HD
BRANCH  48  50
HETATM   50  C3  UNL     1      17.621  19.439   9.162  1.00  0.00     0.133 C 
BRANCH  50  51
HETATM   51  C2  UNL     1      17.548  18.897  10.575  1.00  0.00     0.016 C 
HETATM   52  C1  UNL     1      18.692  19.445  11.409  1.00  0.00     0.006 C 
ENDBRANCH  50  51
ENDBRANCH  48  50
ENDBRANCH  45  48
ENDBRANCH  42  45
ENDBRANCH   1  41
TORSDOF 15
ENDMDL
MODEL 3
REMARK VINA RESULT: -7.397422470      1.144      3.199
REMARK  15 active torsions:
REMARK  status: ('A' for Active; 'I' for Inactive)
REMARK    1  A    between atoms: C2_2  and  C3_3 
REMARK    2  A    between atoms: C3_3  and  N1_4 
REMARK    3  A    between atoms: N1_4  and  S1_6 
REMARK    4  A    between atoms: S1_6  and  N2_9 
REMARK       I    between atoms: N2_9  and  C4_11 
REMARK    5  A    between atoms: C4_11  and  C5_13 
REMARK    6  A    between atoms: C14_25  and  C15_26 
REMARK    7  A    between atoms: C15_26  and  C16_27 
REMARK       I    between atoms: C16_27  and  N4_29 
REMARK    8  A    between atoms: N4_29  and  C17_31 
REMARK    9  A    between atoms: C17_31  and  C18_32 
REMARK   10  A    between atoms: C18_32  and  N5_33 
REMARK   11  A    between atoms: N5_33  and  C20_35 
REMARK   12  A    between atoms: C20_35  and  C21_36 
REMARK   13  A    between atoms: C21_36  and  N6_37 
REMARK   14  A    between atoms: N6_37  and  C22_39 
REMARK   15  A    between atoms: C22_39  and  C23_40 
ROOT
HETATM    1  C5  UNL     1      13.122  22.736   5.683  1.00  0.00     0.087 C 
HETATM    2  C6  UNL     1      12.150  21.754   6.244  1.00  0.00     0.015 C 
HETATM    3  C7  UNL     1      10.912  22.524   6.654  1.00  0.00     0.007 C 
HETATM    4  C8  UNL     1      11.099  23.919   6.128  1.00  0.00    -0.001 C 
HETATM    5  C9  UNL     1      10.350  24.981   6.896  1.00  0.00    -0.002 C 
HETATM    6  C10 UNL     1       9.562  24.291   7.972  1.00  0.00     0.033 C 
HETATM    7  C11 UNL     1       8.516  25.129   8.619  1.00  0.00    -0.019 C 
HETATM    8  C12 UNL     1       8.276  26.439   8.601  1.00  0.00    -0.019 C 
HETATM    9  C13 UNL     1       7.417  27.496   9.086  1.00  0.00     0.270 C 
HETATM   10  N3  UNL     1       8.589  28.380   8.960  1.00  0.00    -0.055 N 
ATOM     11  H31 UNL     1       9.170  28.617   9.764  1.00  0.00     0.279 HD
ATOM     12  H32 UNL     1       8.489  29.379   8.780  1.00  0.00     0.279 HD
HETATM   13  C14 UNL     1       9.070  27.422   7.886  1.00  0.00     0.174 C 
HETATM   14  C27 UNL     1      10.557  27.159   8.202  1.00  0.00     0.053 C 
HETATM   15  C28 UNL     1      11.150  26.150   7.261  1.00  0.00    -0.007 C 
HETATM   16  C29 UNL     1      12.536  25.858   7.779  1.00  0.00     0.006 C 
HETATM   17  C30 UNL     1      13.025  24.460   7.480  1.00  0.00     0.011 C 
HETATM   18  C31 UNL     1      12.596  24.078   6.115  1.00  0.00    -0.028 C 
HETATM   19  C32 UNL     1      13.044  25.067   5.054  1.00  0.00     0.016 C 
ENDROOT
BRANCH  13  20
HETATM   20  C15 UNL     1       8.825  28.093   6.633  1.00  0.00     0.090 C 
BRANCH  20  21
HETATM   21  C16 UNL     1       8.199  27.419   5.500  1.00  0.00     0.240 C 
HETATM   22  O4  UNL     1       7.103  26.848   5.552  1.00  0.00    -0.269 OA
HETATM   23  N4  UNL     1       8.855  27.388   4.212  1.00  0.00    -0.356 N 
ATOM     24  H4  UNL     1       9.757  27.856   4.129  1.00  0.00     0.162 HD
BRANCH  23  25
HETATM   25  C17 UNL     1       8.332  26.751   3.054  1.00  0.00     0.153 C 
BRANCH  25  26
HETATM   26  C18 UNL     1       8.854  25.357   2.904  1.00  0.00     0.291 C 
BRANCH  26  27
HETATM   27  N5  UNL     1       7.844  24.366   3.199  1.00  0.00     0.087 N 
HETATM   28  C19 UNL     1       8.269  23.076   2.684  1.00  0.00     0.310 C 
BRANCH  27  29
HETATM   29  C20 UNL     1       6.602  24.710   2.567  1.00  0.00     0.291 C 
BRANCH  29  30
HETATM   30  C21 UNL     1       5.371  24.229   3.264  1.00  0.00     0.149 C 
BRANCH  30  31
HETATM   31  N6  UNL     1       4.980  24.991   4.388  1.00  0.00    -0.399 N 
ATOM     32  H6  UNL     1       5.381  24.790   5.303  1.00  0.00     0.158 HD
BRANCH  31  33
HETATM   33  C22 UNL     1       4.038  26.026   4.244  1.00  0.00     0.088 C 
BRANCH  33  34
HETATM   34  C23 UNL     1       3.585  26.735   5.471  1.00  0.00     0.223 C 
HETATM   35  C24 UNL     1       3.900  28.215   5.259  1.00  0.00     0.040 C 
HETATM   36  C25 UNL     1       4.237  28.776   6.605  1.00  0.00     0.030 C 
HETATM   37  C26 UNL     1       4.030  27.557   7.509  1.00  0.00     0.233 C 
HETATM   38  N7  UNL     1       4.450  26.478   6.626  1.00  0.00    -0.066 N 
ATOM     39  H72 UNL     1       4.397  25.538   7.019  1.00  0.00     0.278 HD
ATOM     40  H71 UNL     1       5.449  26.429   6.430  1.00  0.00     0.278 HD
ENDBRANCH  33  34
ENDBRANCH  31  33
ENDBRANCH  30  31
ENDBRANCH  29  30
ENDBRANCH  27  29
ENDBRANCH  26  27
ENDBRANCH  25  26
ENDBRANCH  23  25
ENDBRANCH  20  21
ENDBRANCH  13  20
BRANCH   1  41
HETATM   41  C4  UNL     1      14.473  22.392   6.108  1.00  0.00     0.237 C 
HETATM   42  N2  UNL     1      14.832  21.528   7.169  1.00  0.00    -0.237 N 
ATOM     43  H2  UNL     1      14.081  21.091   7.703  1.00  0.00     0.183 HD
HETATM   44  O3  UNL     1      15.471  22.903   5.483  1.00  0.00    -0.272 OA
BRANCH  42  45
HETATM   45  S1  UNL     1      16.453  21.167   7.616  1.00  0.00     0.321 S 
HETATM   46  O1  UNL     1      17.129  22.362   8.239  1.00  0.00    -0.182 OA
HETATM   47  O2  UNL     1      16.503  20.008   8.598  1.00  0.00    -0.182 OA
BRANCH  45  48
HETATM   48  N1  UNL     1      17.331  20.667   6.217  1.00  0.00    -0.302 N 
ATOM     49  H1  UNL     1      18.166  21.129   5.860  1.00  0.00     0.173 HD
BRANCH  48  50
HETATM   50  C3  UNL     1      16.716  19.499   5.621  1.00  0.00     0.133 C 
BRANCH  50  51
HETATM   51  C2  UNL     1      16.529  19.765   4.142  1.00  0.00     0.016 C 
HETATM   52  C1  UNL     1      15.078  19.553   3.748  1.00  0.00     0.006 C 
ENDBRANCH  50  51
ENDBRANCH  48  50
ENDBRANCH  45  48
ENDBRANCH  42  45
ENDBRANCH   1  41
TORSDOF 15
ENDMDL
MODEL 4
REMARK VINA RESULT: -7.339683322      3.297     10.912
REMARK  15 active torsions:
REMARK  status: ('A' for Active; 'I' for Inactive)
REMARK    1  A    between atoms: C2_2  and  C3_3 
REMARK    2  A    between atoms: C3_3  and  N1_4 
REMARK    3  A    between atoms: N1_4  and  S1_6 
REMARK    4  A    between atoms: S1_6  and  N2_9 
REMARK       I    between atoms: N2_9  and  C4_11 
REMARK    5  A    between atoms: C4_11  and  C5_13 
REMARK    6  A    between atoms: C14_25  and  C15_26 
REMARK    7  A    between atoms: C15_26  and  C16_27 
REMARK       I    between atoms: C16_27  and  N4_29 
REMARK    8  A    between atoms: N4_29  and  C17_31 
REMARK    9  A    between atoms: C17_31  and  C18_32 
REMARK   10  A    between atoms: C18_32  and  N5_33 
REMARK   11  A    between atoms: N5_33  and  C20_35 
REMARK   12  A    between atoms: C20_35  and  C21_36 
REMARK   13  A    between atoms: C21_36  and  N6_37 
REMARK   14  A    between atoms: N6_37  and  C22_39 
REMARK   15  A    between atoms: C22_39  and  C23_40 
ROOT
HETATM    1  C5  UNL     1      12.908  23.059   5.794  1.00  0.00     0.087 C 
HETATM    2  C6  UNL     1      12.176  21.914   6.408  1.00  0.00     0.015 C 
HETATM    3  C7  UNL     1      13.034  20.679   6.230  1.00  0.00     0.007 C 
HETATM    4  C8  UNL     1      14.353  21.163   5.700  1.00  0.00    -0.001 C 
HETATM    5  C9  UNL     1      15.115  20.142   4.891  1.00  0.00    -0.002 C 
HETATM    6  C10 UNL     1      14.317  18.869   4.903  1.00  0.00     0.033 C 
HETATM    7  C11 UNL     1      15.054  17.663   4.438  1.00  0.00    -0.019 C 
HETATM    8  C12 UNL     1      16.212  17.508   3.798  1.00  0.00    -0.019 C 
HETATM    9  C13 UNL     1      17.139  16.553   3.235  1.00  0.00     0.270 C 
HETATM   10  N3  UNL     1      17.518  17.618   2.290  1.00  0.00    -0.055 N 
ATOM     11  H31 UNL     1      17.137  17.657   1.345  1.00  0.00     0.279 HD
ATOM     12  H32 UNL     1      18.451  17.662   1.878  1.00  0.00     0.279 HD
HETATM   13  C14 UNL     1      17.077  18.591   3.367  1.00  0.00     0.174 C 
HETATM   14  C27 UNL     1      16.207  19.641   2.644  1.00  0.00     0.053 C 
HETATM   15  C28 UNL     1      15.623  20.632   3.610  1.00  0.00    -0.007 C 
HETATM   16  C29 UNL     1      14.670  21.484   2.810  1.00  0.00     0.006 C 
HETATM   17  C30 UNL     1      13.503  22.020   3.608  1.00  0.00     0.011 C 
HETATM   18  C31 UNL     1      13.978  22.417   4.954  1.00  0.00    -0.028 C 
HETATM   19  C32 UNL     1      15.129  23.407   4.909  1.00  0.00     0.016 C 
ENDROOT
BRANCH  13  20
HETATM   20  C15 UNL     1      18.294  19.106   3.944  1.00  0.00     0.090 C 
BRANCH  20  21
HETATM   21  C16 UNL     1      18.559  19.047   5.379  1.00  0.00     0.240 C 
HETATM   22  O4  UNL     1      18.524  20.028   6.131  1.00  0.00    -0.269 OA
HETATM   23  N4  UNL     1      18.885  17.789   6.013  1.00  0.00    -0.356 N 
ATOM     24  H4  UNL     1      18.914  16.956   5.425  1.00  0.00     0.162 HD
BRANCH  23  25
HETATM   25  C17 UNL     1      19.166  17.631   7.397  1.00  0.00     0.153 C 
BRANCH  25  26
HETATM   26  C18 UNL     1      18.710  16.301   7.908  1.00  0.00     0.291 C 
BRANCH  26  27
HETATM   27  N5  UNL     1      18.762  16.229   9.350  1.00  0.00     0.087 N 
HETATM   28  C19 UNL     1      17.781  15.266   9.820  1.00  0.00     0.310 C 
BRANCH  27  29
HETATM   29  C20 UNL     1      18.447  17.503   9.930  1.00  0.00     0.291 C 
BRANCH  29  30
HETATM   30  C21 UNL     1      17.066  17.633  10.486  1.00  0.00     0.149 C 
BRANCH  30  31
HETATM   31  N6  UNL     1      16.315  18.720   9.985  1.00  0.00    -0.399 N 
ATOM     32  H6  UNL     1      15.368  18.884  10.325  1.00  0.00     0.158 HD
BRANCH  31  33
HETATM   33  C22 UNL     1      16.874  19.576   9.018  1.00  0.00     0.088 C 
BRANCH  33  34
HETATM   34  C23 UNL     1      16.752  21.045   9.229  1.00  0.00     0.223 C 
HETATM   35  C24 UNL     1      15.258  21.342   9.345  1.00  0.00     0.040 C 
HETATM   36  C25 UNL     1      15.048  22.702   8.756  1.00  0.00     0.030 C 
HETATM   37  C26 UNL     1      16.480  23.106   8.392  1.00  0.00     0.233 C 
HETATM   38  N7  UNL     1      17.049  21.818   8.021  1.00  0.00    -0.066 N 
ATOM     39  H72 UNL     1      18.027  21.833   7.733  1.00  0.00     0.278 HD
ATOM     40  H71 UNL     1      16.711  21.420   7.145  1.00  0.00     0.278 HD
ENDBRANCH  33  34
ENDBRANCH  31  33
ENDBRANCH  30  31
ENDBRANCH  29  30
ENDBRANCH  27  29
ENDBRANCH  26  27
ENDBRANCH  25  26
ENDBRANCH  23  25
ENDBRANCH  20  21
ENDBRANCH  13  20
BRANCH   1  41
HETATM   41  C4  UNL     1      11.967  23.933   5.104  1.00  0.00     0.237 C 
HETATM   42  N2  UNL     1      10.693  23.577   4.603  1.00  0.00    -0.237 N 
ATOM     43  H2  UNL     1      10.382  22.613   4.729  1.00  0.00     0.183 HD
HETATM   44  O3  UNL     1      12.287  25.161   4.908  1.00  0.00    -0.272 OA
BRANCH  42  45
HETATM   45  S1  UNL     1       9.632  24.665   3.796  1.00  0.00     0.321 S 
HETATM   46  O1  UNL     1      10.025  24.842   2.351  1.00  0.00    -0.182 OA
HETATM   47  O2  UNL     1       8.196  24.172   3.856  1.00  0.00    -0.182 OA
BRANCH  45  48
HETATM   48  N1  UNL     1       9.665  26.191   4.599  1.00  0.00    -0.302 N 
ATOM     49  H1  UNL     1      10.221  26.992   4.301  1.00  0.00     0.173 HD
BRANCH  48  50
HETATM   50  C3  UNL     1       8.792  26.177   5.755  1.00  0.00     0.133 C 
BRANCH  50  51
HETATM   51  C2  UNL     1       9.649  26.297   6.998  1.00  0.00     0.016 C 
HETATM   52  C1  UNL     1       9.608  25.006   7.793  1.00  0.00     0.006 C 
ENDBRANCH  50  51
ENDBRANCH  48  50
ENDBRANCH  45  48
ENDBRANCH  42  45
ENDBRANCH   1  41
TORSDOF 15
ENDMDL
MODEL 5
REMARK VINA RESULT: -7.298824172      3.507     11.021
REMARK  15 active torsions:
REMARK  status: ('A' for Active; 'I' for Inactive)
REMARK    1  A    between atoms: C2_2  and  C3_3 
REMARK    2  A    between atoms: C3_3  and  N1_4 
REMARK    3  A    between atoms: N1_4  and  S1_6 
REMARK    4  A    between atoms: S1_6  and  N2_9 
REMARK       I    between atoms: N2_9  and  C4_11 
REMARK    5  A    between atoms: C4_11  and  C5_13 
REMARK    6  A    between atoms: C14_25  and  C15_26 
REMARK    7  A    between atoms: C15_26  and  C16_27 
REMARK       I    between atoms: C16_27  and  N4_29 
REMARK    8  A    between atoms: N4_29  and  C17_31 
REMARK    9  A    between atoms: C17_31  and  C18_32 
REMARK   10  A    between atoms: C18_32  and  N5_33 
REMARK   11  A    between atoms: N5_33  and  C20_35 
REMARK   12  A    between atoms: C20_35  and  C21_36 
REMARK   13  A    between atoms: C21_36  and  N6_37 
REMARK   14  A    between atoms: N6_37  and  C22_39 
REMARK   15  A    between atoms: C22_39  and  C23_40 
ROOT
HETATM    1  C5  UNL     1      12.843  23.023   5.691  1.00  0.00     0.087 C 
HETATM    2  C6  UNL     1      12.104  21.873   6.287  1.00  0.00     0.015 C 
HETATM    3  C7  UNL     1      13.014  20.664   6.216  1.00  0.00     0.007 C 
HETATM    4  C8  UNL     1      14.353  21.178   5.770  1.00  0.00    -0.001 C 
HETATM    5  C9  UNL     1      15.207  20.159   5.056  1.00  0.00    -0.002 C 
HETATM    6  C10 UNL     1      14.452  18.860   5.051  1.00  0.00     0.033 C 
HETATM    7  C11 UNL     1      15.262  17.666   4.684  1.00  0.00    -0.019 C 
HETATM    8  C12 UNL     1      16.469  17.532   4.139  1.00  0.00    -0.019 C 
HETATM    9  C13 UNL     1      17.467  16.593   3.679  1.00  0.00     0.270 C 
HETATM   10  N3  UNL     1      17.882  17.640   2.730  1.00  0.00    -0.055 N 
ATOM     11  H31 UNL     1      17.573  17.636   1.758  1.00  0.00     0.279 HD
ATOM     12  H32 UNL     1      18.841  17.704   2.388  1.00  0.00     0.279 HD
HETATM   13  C14 UNL     1      17.329  18.631   3.737  1.00  0.00     0.174 C 
HETATM   14  C27 UNL     1      16.483  19.626   2.916  1.00  0.00     0.053 C 
HETATM   15  C28 UNL     1      15.795  20.626   3.800  1.00  0.00    -0.007 C 
HETATM   16  C29 UNL     1      14.878  21.418   2.903  1.00  0.00     0.006 C 
HETATM   17  C30 UNL     1      13.637  21.938   3.593  1.00  0.00     0.011 C 
HETATM   18  C31 UNL     1      13.994  22.393   4.956  1.00  0.00    -0.028 C 
HETATM   19  C32 UNL     1      15.113  23.421   4.964  1.00  0.00     0.016 C 
ENDROOT
BRANCH  13  20
HETATM   20  C15 UNL     1      18.481  19.205   4.386  1.00  0.00     0.090 C 
BRANCH  20  21
HETATM   21  C16 UNL     1      18.564  19.351   5.836  1.00  0.00     0.240 C 
HETATM   22  O4  UNL     1      18.790  18.417   6.615  1.00  0.00    -0.269 OA
HETATM   23  N4  UNL     1      18.380  20.645   6.454  1.00  0.00    -0.356 N 
ATOM     24  H4  UNL     1      18.200  21.441   5.842  1.00  0.00     0.162 HD
BRANCH  23  25
HETATM   25  C17 UNL     1      18.433  20.887   7.854  1.00  0.00     0.153 C 
BRANCH  25  26
HETATM   26  C18 UNL     1      17.129  21.399   8.377  1.00  0.00     0.291 C 
BRANCH  26  27
HETATM   27  N5  UNL     1      16.379  20.370   9.061  1.00  0.00     0.087 N 
HETATM   28  C19 UNL     1      15.169  20.947   9.622  1.00  0.00     0.310 C 
BRANCH  27  29
HETATM   29  C20 UNL     1      17.149  19.818  10.139  1.00  0.00     0.291 C 
BRANCH  29  30
HETATM   30  C21 UNL     1      17.100  18.330  10.268  1.00  0.00     0.149 C 
BRANCH  30  31
HETATM   31  N6  UNL     1      17.884  17.619   9.332  1.00  0.00    -0.399 N 
ATOM     32  H6  UNL     1      17.914  17.921   8.359  1.00  0.00     0.158 HD
BRANCH  31  33
HETATM   33  C22 UNL     1      18.623  16.494   9.743  1.00  0.00     0.088 C 
BRANCH  33  34
HETATM   34  C23 UNL     1      18.899  15.433   8.737  1.00  0.00     0.223 C 
HETATM   35  C24 UNL     1      20.395  15.499   8.437  1.00  0.00     0.040 C 
HETATM   36  C25 UNL     1      20.559  15.117   6.999  1.00  0.00     0.030 C 
HETATM   37  C26 UNL     1      19.115  14.803   6.597  1.00  0.00     0.233 C 
HETATM   38  N7  UNL     1      18.381  15.765   7.406  1.00  0.00    -0.066 N 
ATOM     39  H72 UNL     1      17.367  15.745   7.308  1.00  0.00     0.278 HD
ATOM     40  H71 UNL     1      18.473  16.741   7.126  1.00  0.00     0.278 HD
ENDBRANCH  33  34
ENDBRANCH  31  33
ENDBRANCH  30  31
ENDBRANCH  29  30
ENDBRANCH  27  29
ENDBRANCH  26  27
ENDBRANCH  25  26
ENDBRANCH  23  25
ENDBRANCH  20  21
ENDBRANCH  13  20
BRANCH   1  41
HETATM   41  C4  UNL     1      11.930  23.842   4.903  1.00  0.00     0.237 C 
HETATM   42  N2  UNL     1      10.634  23.481   4.466  1.00  0.00    -0.237 N 
ATOM     43  H2  UNL     1      10.285  22.556   4.719  1.00  0.00     0.183 HD
HETATM   44  O3  UNL     1      12.299  25.018   4.546  1.00  0.00    -0.272 OA
BRANCH  42  45
HETATM   45  S1  UNL     1       9.608  24.501   3.535  1.00  0.00     0.321 S 
HETATM   46  O1  UNL     1      10.095  24.617   2.113  1.00  0.00    -0.182 OA
HETATM   47  O2  UNL     1       8.182  23.976   3.523  1.00  0.00    -0.182 OA
BRANCH  45  48
HETATM   48  N1  UNL     1       9.552  26.065   4.260  1.00  0.00    -0.302 N 
ATOM     49  H1  UNL     1       9.981  26.903   3.867  1.00  0.00     0.173 HD
BRANCH  48  50
HETATM   50  C3  UNL     1       8.813  26.023   5.505  1.00  0.00     0.133 C 
BRANCH  50  51
HETATM   51  C2  UNL     1       9.780  26.293   6.640  1.00  0.00     0.016 C 
HETATM   52  C1  UNL     1       9.770  25.139   7.626  1.00  0.00     0.006 C 
ENDBRANCH  50  51
ENDBRANCH  48  50
ENDBRANCH  45  48
ENDBRANCH  42  45
ENDBRANCH   1  41
TORSDOF 15
ENDMDL
