MODEL 1
REMARK VINA RESULT: -4.263931819      0.000      0.000
REMARK  3 active torsions:
REMARK  status: ('A' for Active; 'I' for Inactive)
REMARK    1  A    between atoms: C3_3  and  C4_4 
REMARK    2  A    between atoms: C4_4  and  C5_5 
REMARK    3  A    between atoms: C9_16  and  N5_17 
ROOT
HETATM    1  C5  UNL     1      27.841  31.542  23.288  1.00  0.00     0.088 A 
HETATM    2  N1  UNL     1      27.409  32.023  22.066  1.00  0.00    -0.332 N 
ATOM      3  H1  UNL     1      28.009  31.896  21.250  1.00  0.00     0.168 HD
HETATM    4  C6  UNL     1      26.248  32.643  21.911  1.00  0.00     0.147 A 
HETATM    5  N2  UNL     1      25.751  33.159  20.686  1.00  0.00    -0.080 NA
HETATM    6  C7  UNL     1      25.472  32.789  23.047  1.00  0.00     0.105 A 
HETATM    7  N3  UNL     1      24.271  33.405  22.987  1.00  0.00    -0.348 N 
ATOM      8  H3  UNL     1      23.956  33.760  22.084  1.00  0.00     0.167 HD
HETATM    9  C8  UNL     1      23.472  33.576  24.049  1.00  0.00     0.182 A 
HETATM   10  N4  UNL     1      23.854  33.124  25.247  1.00  0.00    -0.337 N 
ATOM     11  H4  UNL     1      23.248  33.251  26.058  1.00  0.00     0.168 HD
HETATM   12  C9  UNL     1      25.063  32.488  25.383  1.00  0.00     0.129 A 
HETATM   13  C10 UNL     1      25.876  32.313  24.307  1.00  0.00     0.110 A 
HETATM   14  N6  UNL     1      27.096  31.679  24.395  1.00  0.00    -0.336 N 
HETATM   15  C11 UNL     1      27.504  31.211  25.677  1.00  0.00     0.158 C 
ENDROOT
BRANCH   1  16
HETATM   16  C4  UNL     1      29.169  30.861  23.312  1.00  0.00     0.103 C 
BRANCH  16  17
HETATM   17  C3  UNL     1      30.233  31.708  22.725  1.00  0.00    -0.024 C 
HETATM   18  C2  UNL     1      30.410  32.949  23.048  1.00  0.00    -0.035 C 
HETATM   19  C1  UNL     1      29.649  33.769  24.008  1.00  0.00     0.036 C 
ENDBRANCH  16  17
ENDBRANCH   1  16
BRANCH  12  20
HETATM   20  N5  UNL     1      25.386  32.067  26.549  1.00  0.00    -0.384 N 
ATOM     21  H52 UNL     1      24.764  32.172  27.350  1.00  0.00     0.157 HD
ATOM     22  H51 UNL     1      26.297  31.621  26.656  1.00  0.00     0.157 HD
ENDBRANCH  12  20
TORSDOF 3
ENDMDL
MODEL 2
REMARK VINA RESULT: -4.086912804      9.664     11.562
REMARK  3 active torsions:
REMARK  status: ('A' for Active; 'I' for Inactive)
REMARK    1  A    between atoms: C3_3  and  C4_4 
REMARK    2  A    between atoms: C4_4  and  C5_5 
REMARK    3  A    between atoms: C9_16  and  N5_17 
ROOT
HETATM    1  C5  UNL     1      30.023  26.849  16.332  1.00  0.00     0.088 A 
HETATM    2  N1  UNL     1      29.534  25.914  17.225  1.00  0.00    -0.332 N 
ATOM      3  H1  UNL     1      28.533  25.903  17.423  1.00  0.00     0.168 HD
HETATM    4  C6  UNL     1      30.313  25.032  17.834  1.00  0.00     0.147 A 
HETATM    5  N2  UNL     1      29.871  24.049  18.759  1.00  0.00    -0.080 NA
HETATM    6  C7  UNL     1      31.661  25.087  17.531  1.00  0.00     0.105 A 
HETATM    7  N3  UNL     1      32.532  24.225  18.101  1.00  0.00    -0.348 N 
ATOM      8  H3  UNL     1      32.168  23.537  18.760  1.00  0.00     0.167 HD
HETATM    9  C8  UNL     1      33.848  24.226  17.848  1.00  0.00     0.182 A 
HETATM   10  N4  UNL     1      34.358  25.114  16.989  1.00  0.00    -0.337 N 
ATOM     11  H4  UNL     1      35.360  25.117  16.792  1.00  0.00     0.168 HD
HETATM   12  C9  UNL     1      33.533  26.020  16.372  1.00  0.00     0.129 A 
HETATM   13  C10 UNL     1      32.196  26.022  16.628  1.00  0.00     0.110 A 
HETATM   14  N6  UNL     1      31.329  26.911  16.032  1.00  0.00    -0.336 N 
HETATM   15  C11 UNL     1      31.881  27.864  15.128  1.00  0.00     0.158 C 
ENDROOT
BRANCH   1  16
HETATM   16  C4  UNL     1      29.029  27.777  15.718  1.00  0.00     0.103 C 
BRANCH  16  17
HETATM   17  C3  UNL     1      27.660  27.212  15.739  1.00  0.00    -0.024 C 
HETATM   18  C2  UNL     1      26.600  27.912  15.490  1.00  0.00    -0.035 C 
HETATM   19  C1  UNL     1      26.500  29.343  15.151  1.00  0.00     0.036 C 
ENDBRANCH  16  17
ENDBRANCH   1  16
BRANCH  12  20
HETATM   20  N5  UNL     1      34.065  26.850  15.555  1.00  0.00    -0.384 N 
ATOM     21  H52 UNL     1      34.709  27.576  15.868  1.00  0.00     0.157 HD
ATOM     22  H51 UNL     1      33.821  26.765  14.568  1.00  0.00     0.157 HD
ENDBRANCH  12  20
TORSDOF 3
ENDMDL
MODEL 3
REMARK VINA RESULT: -3.920556671      0.984      1.462
REMARK  3 active torsions:
REMARK  status: ('A' for Active; 'I' for Inactive)
REMARK    1  A    between atoms: C3_3  and  C4_4 
REMARK    2  A    between atoms: C4_4  and  C5_5 
REMARK    3  A    between atoms: C9_16  and  N5_17 
ROOT
HETATM    1  C5  UNL     1      28.247  33.287  23.316  1.00  0.00     0.088 A 
HETATM    2  N1  UNL     1      27.741  33.435  22.038  1.00  0.00    -0.332 N 
ATOM      3  H1  UNL     1      28.395  33.557  21.264  1.00  0.00     0.168 HD
HETATM    4  C6  UNL     1      26.442  33.426  21.778  1.00  0.00     0.147 A 
HETATM    5  N2  UNL     1      25.862  33.573  20.490  1.00  0.00    -0.080 NA
HETATM    6  C7  UNL     1      25.598  33.256  22.860  1.00  0.00     0.105 A 
HETATM    7  N3  UNL     1      24.258  33.230  22.692  1.00  0.00    -0.348 N 
ATOM      8  H3  UNL     1      23.887  33.340  21.748  1.00  0.00     0.167 HD
HETATM    9  C8  UNL     1      23.388  33.068  23.698  1.00  0.00     0.182 A 
HETATM   10  N4  UNL     1      23.838  32.920  24.948  1.00  0.00    -0.337 N 
ATOM     11  H4  UNL     1      23.179  32.795  25.717  1.00  0.00     0.168 HD
HETATM   12  C9  UNL     1      25.188  32.937  25.194  1.00  0.00     0.129 A 
HETATM   13  C10 UNL     1      26.074  33.102  24.174  1.00  0.00     0.110 A 
HETATM   14  N6  UNL     1      27.437  33.123  24.373  1.00  0.00    -0.336 N 
HETATM   15  C11 UNL     1      27.910  32.979  25.708  1.00  0.00     0.158 C 
ENDROOT
BRANCH   1  16
HETATM   16  C4  UNL     1      29.732  33.314  23.459  1.00  0.00     0.103 C 
BRANCH  16  17
HETATM   17  C3  UNL     1      30.378  32.206  22.718  1.00  0.00    -0.024 C 
HETATM   18  C2  UNL     1      30.206  30.959  23.016  1.00  0.00    -0.035 C 
HETATM   19  C1  UNL     1      29.385  30.373  24.092  1.00  0.00     0.036 C 
ENDBRANCH  16  17
ENDBRANCH   1  16
BRANCH  12  20
HETATM   20  N5  UNL     1      25.574  32.788  26.406  1.00  0.00    -0.384 N 
ATOM     21  H52 UNL     1      24.926  32.526  27.149  1.00  0.00     0.157 HD
ATOM     22  H51 UNL     1      26.561  32.944  26.611  1.00  0.00     0.157 HD
ENDBRANCH  12  20
TORSDOF 3
ENDMDL
MODEL 4
REMARK VINA RESULT: -3.805239195      1.027      2.920
REMARK  3 active torsions:
REMARK  status: ('A' for Active; 'I' for Inactive)
REMARK    1  A    between atoms: C3_3  and  C4_4 
REMARK    2  A    between atoms: C4_4  and  C5_5 
REMARK    3  A    between atoms: C9_16  and  N5_17 
ROOT
HETATM    1  C5  UNL     1      27.952  31.307  23.513  1.00  0.00     0.088 A 
HETATM    2  N1  UNL     1      28.021  30.964  24.850  1.00  0.00    -0.332 N 
ATOM      3  H1  UNL     1      28.835  30.444  25.181  1.00  0.00     0.168 HD
HETATM    4  C6  UNL     1      27.073  31.283  25.720  1.00  0.00     0.147 A 
HETATM    5  N2  UNL     1      27.087  30.960  27.102  1.00  0.00    -0.080 NA
HETATM    6  C7  UNL     1      25.993  31.988  25.222  1.00  0.00     0.105 A 
HETATM    7  N3  UNL     1      24.979  32.359  26.034  1.00  0.00    -0.348 N 
ATOM      8  H3  UNL     1      25.032  32.105  27.020  1.00  0.00     0.167 HD
HETATM    9  C8  UNL     1      23.906  33.044  25.614  1.00  0.00     0.182 A 
HETATM   10  N4  UNL     1      23.804  33.395  24.328  1.00  0.00    -0.337 N 
ATOM     11  H4  UNL     1      22.989  33.917  24.004  1.00  0.00     0.168 HD
HETATM   12  C9  UNL     1      24.796  33.050  23.445  1.00  0.00     0.129 A 
HETATM   13  C10 UNL     1      25.886  32.354  23.869  1.00  0.00     0.110 A 
HETATM   14  N6  UNL     1      26.908  31.989  23.020  1.00  0.00    -0.336 N 
HETATM   15  C11 UNL     1      26.787  32.354  21.648  1.00  0.00     0.158 C 
ENDROOT
BRANCH   1  16
HETATM   16  C4  UNL     1      29.095  30.884  22.650  1.00  0.00     0.103 C 
BRANCH  16  17
HETATM   17  C3  UNL     1      30.350  31.581  23.017  1.00  0.00    -0.024 C 
HETATM   18  C2  UNL     1      30.594  32.813  22.706  1.00  0.00    -0.035 C 
HETATM   19  C1  UNL     1      29.745  33.760  21.961  1.00  0.00     0.036 C 
ENDBRANCH  16  17
ENDBRANCH   1  16
BRANCH  12  20
HETATM   20  N5  UNL     1      24.658  33.410  22.224  1.00  0.00    -0.384 N 
ATOM     21  H52 UNL     1      24.101  32.868  21.563  1.00  0.00     0.157 HD
ATOM     22  H51 UNL     1      25.129  34.264  21.926  1.00  0.00     0.157 HD
ENDBRANCH  12  20
TORSDOF 3
ENDMDL
MODEL 5
REMARK VINA RESULT: -3.715748974      1.774      5.267
REMARK  3 active torsions:
REMARK  status: ('A' for Active; 'I' for Inactive)
REMARK    1  A    between atoms: C3_3  and  C4_4 
REMARK    2  A    between atoms: C4_4  and  C5_5 
REMARK    3  A    between atoms: C9_16  and  N5_17 
ROOT
HETATM    1  C5  UNL     1      26.278  33.272  24.539  1.00  0.00     0.088 A 
HETATM    2  N1  UNL     1      26.098  32.274  25.479  1.00  0.00    -0.332 N 
ATOM      3  H1  UNL     1      25.274  32.309  26.080  1.00  0.00     0.168 HD
HETATM    4  C6  UNL     1      26.953  31.273  25.631  1.00  0.00     0.147 A 
HETATM    5  N2  UNL     1      26.824  30.220  26.575  1.00  0.00    -0.080 NA
HETATM    6  C7  UNL     1      28.052  31.269  24.792  1.00  0.00     0.105 A 
HETATM    7  N3  UNL     1      28.977  30.287  24.871  1.00  0.00    -0.348 N 
ATOM      8  H3  UNL     1      28.842  29.552  25.565  1.00  0.00     0.167 HD
HETATM    9  C8  UNL     1      30.062  30.226  24.087  1.00  0.00     0.182 A 
HETATM   10  N4  UNL     1      30.270  31.172  23.166  1.00  0.00    -0.337 N 
ATOM     11  H4  UNL     1      31.094  31.129  22.566  1.00  0.00     0.168 HD
HETATM   12  C9  UNL     1      29.372  32.202  23.029  1.00  0.00     0.129 A 
HETATM   13  C10 UNL     1      28.270  32.266  23.825  1.00  0.00     0.110 A 
HETATM   14  N6  UNL     1      27.341  33.278  23.723  1.00  0.00    -0.336 N 
HETATM   15  C11 UNL     1      27.575  34.291  22.748  1.00  0.00     0.158 C 
ENDROOT
BRANCH   1  16
HETATM   16  C4  UNL     1      25.231  34.335  24.479  1.00  0.00     0.103 C 
BRANCH  16  17
HETATM   17  C3  UNL     1      23.907  33.785  24.106  1.00  0.00    -0.024 C 
HETATM   18  C2  UNL     1      23.724  33.004  23.091  1.00  0.00    -0.035 C 
HETATM   19  C1  UNL     1      24.717  32.506  22.120  1.00  0.00     0.036 C 
ENDBRANCH  16  17
ENDBRANCH   1  16
BRANCH  12  20
HETATM   20  N5  UNL     1      29.610  33.083  22.132  1.00  0.00    -0.384 N 
ATOM     21  H52 UNL     1      29.378  32.928  21.150  1.00  0.00     0.157 HD
ATOM     22  H51 UNL     1      30.045  33.957  22.429  1.00  0.00     0.157 HD
ENDBRANCH  12  20
TORSDOF 3
ENDMDL
