MODEL 1
REMARK VINA RESULT: -7.159314464      0.000      0.000
REMARK  5 active torsions:
REMARK  status: ('A' for Active; 'I' for Inactive)
REMARK    1  A    between atoms: C10_10  and  C11_11 
REMARK    2  A    between atoms: C11_11  and  O1_12 
REMARK    3  A    between atoms: C11_11  and  C12_14 
REMARK    4  A    between atoms: C12_14  and  C13_15 
REMARK    5  A    between atoms: C15_17  and  O2_18 
ROOT
HETATM    1  C1  UNL     1      38.970  21.307  14.899  1.00  0.00     0.022 C 
HETATM    2  C2  UNL     1      39.491  22.503  15.110  1.00  0.00    -0.018 C 
HETATM    3  C3  UNL     1      39.632  23.017  16.466  1.00  0.00     0.042 C 
HETATM    4  C4  UNL     1      39.442  24.492  16.638  1.00  0.00     0.018 C 
HETATM    5  C5  UNL     1      39.400  25.346  15.451  1.00  0.00     0.005 C 
HETATM    6  C6  UNL     1      38.111  25.258  14.610  1.00  0.00     0.021 C 
HETATM    7  C7  UNL     1      38.991  25.468  13.405  1.00  0.00     0.030 C 
HETATM    8  C8  UNL     1      39.282  26.904  13.150  1.00  0.00     0.009 C 
HETATM    9  C9  UNL     1      40.015  27.518  14.312  1.00  0.00     0.009 C 
HETATM   10  C10 UNL     1      39.652  26.794  15.615  1.00  0.00     0.026 C 
HETATM   11  C15 UNL     1      40.092  24.788  14.231  1.00  0.00     0.134 C 
HETATM   12  C16 UNL     1      39.941  23.350  14.025  1.00  0.00     0.190 C 
HETATM   13  O3  UNL     1      40.192  22.815  12.921  1.00  0.00    -0.289 OA
ENDROOT
BRANCH  10  14
HETATM   14  C11 UNL     1      40.435  27.321  16.745  1.00  0.00     0.123 C 
BRANCH  14  15
HETATM   15  O1  UNL     1      41.810  27.237  16.263  1.00  0.00    -0.395 OA
ATOM     16  H1  UNL     1      41.925  28.057  15.795  1.00  0.00     0.210 HD
ENDBRANCH  14  15
BRANCH  14  17
HETATM   17  C12 UNL     1      40.317  28.832  16.915  1.00  0.00     0.032 C 
BRANCH  17  18
HETATM   18  C13 UNL     1      39.497  29.125  18.161  1.00  0.00    -0.002 C 
HETATM   19  C14 UNL     1      40.245  30.183  18.950  1.00  0.00     0.005 C 
ENDBRANCH  17  18
ENDBRANCH  14  17
ENDBRANCH  10  14
BRANCH  11  20
HETATM   20  O2  UNL     1      41.370  25.211  13.979  1.00  0.00    -0.380 OA
ATOM     21  H2  UNL     1      42.016  24.551  13.757  1.00  0.00     0.211 HD
ENDBRANCH  11  20
TORSDOF 5
ENDMDL
MODEL 2
REMARK VINA RESULT: -7.013251297      1.937      2.270
REMARK  5 active torsions:
REMARK  status: ('A' for Active; 'I' for Inactive)
REMARK    1  A    between atoms: C10_10  and  C11_11 
REMARK    2  A    between atoms: C11_11  and  O1_12 
REMARK    3  A    between atoms: C11_11  and  C12_14 
REMARK    4  A    between atoms: C12_14  and  C13_15 
REMARK    5  A    between atoms: C15_17  and  O2_18 
ROOT
HETATM    1  C1  UNL     1      40.910  22.204  15.140  1.00  0.00     0.022 C 
HETATM    2  C2  UNL     1      40.571  23.442  15.452  1.00  0.00    -0.018 C 
HETATM    3  C3  UNL     1      39.717  23.706  16.603  1.00  0.00     0.042 C 
HETATM    4  C4  UNL     1      38.762  24.851  16.471  1.00  0.00     0.018 C 
HETATM    5  C5  UNL     1      38.917  25.779  15.351  1.00  0.00     0.005 C 
HETATM    6  C6  UNL     1      38.491  25.238  13.972  1.00  0.00     0.021 C 
HETATM    7  C7  UNL     1      39.619  26.059  13.403  1.00  0.00     0.030 C 
HETATM    8  C8  UNL     1      39.239  27.478  13.172  1.00  0.00     0.009 C 
HETATM    9  C9  UNL     1      38.850  28.146  14.464  1.00  0.00     0.009 C 
HETATM   10  C10 UNL     1      38.288  27.115  15.450  1.00  0.00     0.026 C 
HETATM   11  C15 UNL     1      40.304  25.852  14.762  1.00  0.00     0.134 C 
HETATM   12  C16 UNL     1      41.020  24.582  14.680  1.00  0.00     0.190 C 
HETATM   13  O3  UNL     1      42.029  24.442  13.951  1.00  0.00    -0.289 OA
ENDROOT
BRANCH  10  14
HETATM   14  C11 UNL     1      37.993  27.738  16.752  1.00  0.00     0.123 C 
BRANCH  14  15
HETATM   15  O1  UNL     1      39.265  28.351  17.121  1.00  0.00    -0.395 OA
ATOM     16  H1  UNL     1      39.008  29.212  17.431  1.00  0.00     0.210 HD
ENDBRANCH  14  15
BRANCH  14  17
HETATM   17  C12 UNL     1      37.130  28.989  16.645  1.00  0.00     0.032 C 
BRANCH  17  18
HETATM   18  C13 UNL     1      35.672  28.599  16.838  1.00  0.00    -0.002 C 
HETATM   19  C14 UNL     1      35.491  28.255  18.304  1.00  0.00     0.005 C 
ENDBRANCH  17  18
ENDBRANCH  14  17
ENDBRANCH  10  14
BRANCH  11  20
HETATM   20  O2  UNL     1      41.117  26.873  15.179  1.00  0.00    -0.380 OA
ATOM     21  H2  UNL     1      41.539  27.399  14.510  1.00  0.00     0.211 HD
ENDBRANCH  11  20
TORSDOF 5
ENDMDL
MODEL 3
REMARK VINA RESULT: -6.952328770      4.070      5.967
REMARK  5 active torsions:
REMARK  status: ('A' for Active; 'I' for Inactive)
REMARK    1  A    between atoms: C10_10  and  C11_11 
REMARK    2  A    between atoms: C11_11  and  O1_12 
REMARK    3  A    between atoms: C11_11  and  C12_14 
REMARK    4  A    between atoms: C12_14  and  C13_15 
REMARK    5  A    between atoms: C15_17  and  O2_18 
ROOT
HETATM    1  C1  UNL     1      39.552  26.066  15.150  1.00  0.00     0.022 C 
HETATM    2  C2  UNL     1      39.790  25.723  16.403  1.00  0.00    -0.018 C 
HETATM    3  C3  UNL     1      41.125  25.308  16.814  1.00  0.00     0.042 C 
HETATM    4  C4  UNL     1      41.194  24.246  17.867  1.00  0.00     0.018 C 
HETATM    5  C5  UNL     1      39.977  23.890  18.597  1.00  0.00     0.005 C 
HETATM    6  C6  UNL     1      38.942  23.065  17.805  1.00  0.00     0.021 C 
HETATM    7  C7  UNL     1      37.889  23.819  18.575  1.00  0.00     0.030 C 
HETATM    8  C8  UNL     1      37.618  23.225  19.911  1.00  0.00     0.009 C 
HETATM    9  C9  UNL     1      38.854  23.247  20.768  1.00  0.00     0.009 C 
HETATM   10  C10 UNL     1      40.113  23.190  19.893  1.00  0.00     0.026 C 
HETATM   11  C15 UNL     1      38.915  24.960  18.641  1.00  0.00     0.134 C 
HETATM   12  C16 UNL     1      38.755  25.738  17.416  1.00  0.00     0.190 C 
HETATM   13  O3  UNL     1      37.733  26.432  17.208  1.00  0.00    -0.289 OA
ENDROOT
BRANCH  10  14
HETATM   14  C11 UNL     1      41.330  23.308  20.714  1.00  0.00     0.123 C 
BRANCH  14  15
HETATM   15  O1  UNL     1      41.333  24.715  21.102  1.00  0.00    -0.395 OA
ATOM     16  H1  UNL     1      42.165  24.813  21.550  1.00  0.00     0.210 HD
ENDBRANCH  14  15
BRANCH  14  17
HETATM   17  C12 UNL     1      41.200  22.665  22.090  1.00  0.00     0.032 C 
BRANCH  17  18
HETATM   18  C13 UNL     1      42.466  22.945  22.886  1.00  0.00    -0.002 C 
HETATM   19  C14 UNL     1      42.935  21.621  23.459  1.00  0.00     0.005 C 
ENDBRANCH  17  18
ENDBRANCH  14  17
ENDBRANCH  10  14
BRANCH  11  20
HETATM   20  O2  UNL     1      38.856  25.747  19.760  1.00  0.00    -0.380 OA
ATOM     21  H2  UNL     1      38.614  26.658  19.645  1.00  0.00     0.211 HD
ENDBRANCH  11  20
TORSDOF 5
ENDMDL
MODEL 4
REMARK VINA RESULT: -6.950992627      3.701      5.632
REMARK  5 active torsions:
REMARK  status: ('A' for Active; 'I' for Inactive)
REMARK    1  A    between atoms: C10_10  and  C11_11 
REMARK    2  A    between atoms: C11_11  and  O1_12 
REMARK    3  A    between atoms: C11_11  and  C12_14 
REMARK    4  A    between atoms: C12_14  and  C13_15 
REMARK    5  A    between atoms: C15_17  and  O2_18 
ROOT
HETATM    1  C1  UNL     1      41.463  28.739  14.895  1.00  0.00     0.022 C 
HETATM    2  C2  UNL     1      40.620  28.404  15.856  1.00  0.00    -0.018 C 
HETATM    3  C3  UNL     1      40.786  27.151  16.580  1.00  0.00     0.042 C 
HETATM    4  C4  UNL     1      39.528  26.460  17.005  1.00  0.00     0.018 C 
HETATM    5  C5  UNL     1      38.259  27.181  16.921  1.00  0.00     0.005 C 
HETATM    6  C6  UNL     1      37.695  27.375  15.499  1.00  0.00     0.021 C 
HETATM    7  C7  UNL     1      37.178  28.704  15.984  1.00  0.00     0.030 C 
HETATM    8  C8  UNL     1      35.873  28.593  16.689  1.00  0.00     0.009 C 
HETATM    9  C9  UNL     1      35.997  27.724  17.911  1.00  0.00     0.009 C 
HETATM   10  C10 UNL     1      37.116  26.692  17.723  1.00  0.00     0.026 C 
HETATM   11  C15 UNL     1      38.369  28.685  16.954  1.00  0.00     0.134 C 
HETATM   12  C16 UNL     1      39.506  29.249  16.232  1.00  0.00     0.190 C 
HETATM   13  O3  UNL     1      39.551  30.461  15.922  1.00  0.00    -0.289 OA
ENDROOT
BRANCH  10  14
HETATM   14  C11 UNL     1      37.312  25.899  18.949  1.00  0.00     0.123 C 
BRANCH  14  15
HETATM   15  O1  UNL     1      37.586  26.915  19.960  1.00  0.00    -0.395 OA
ATOM     16  H1  UNL     1      36.881  26.792  20.586  1.00  0.00     0.210 HD
ENDBRANCH  14  15
BRANCH  14  17
HETATM   17  C12 UNL     1      36.019  25.321  19.512  1.00  0.00     0.032 C 
BRANCH  17  18
HETATM   18  C13 UNL     1      36.267  23.882  19.938  1.00  0.00    -0.002 C 
HETATM   19  C14 UNL     1      34.921  23.288  20.307  1.00  0.00     0.005 C 
ENDBRANCH  17  18
ENDBRANCH  14  17
ENDBRANCH  10  14
BRANCH  11  20
HETATM   20  O2  UNL     1      38.165  29.309  18.157  1.00  0.00    -0.380 OA
ATOM     21  H2  UNL     1      38.201  28.774  18.941  1.00  0.00     0.211 HD
ENDBRANCH  11  20
TORSDOF 5
ENDMDL
MODEL 5
REMARK VINA RESULT: -6.918089340      1.827      5.338
REMARK  5 active torsions:
REMARK  status: ('A' for Active; 'I' for Inactive)
REMARK    1  A    between atoms: C10_10  and  C11_11 
REMARK    2  A    between atoms: C11_11  and  O1_12 
REMARK    3  A    between atoms: C11_11  and  C12_14 
REMARK    4  A    between atoms: C12_14  and  C13_15 
REMARK    5  A    between atoms: C15_17  and  O2_18 
ROOT
HETATM    1  C1  UNL     1      38.250  29.398  13.969  1.00  0.00     0.022 C 
HETATM    2  C2  UNL     1      39.089  28.418  14.254  1.00  0.00    -0.018 C 
HETATM    3  C3  UNL     1      39.370  27.378  13.273  1.00  0.00     0.042 C 
HETATM    4  C4  UNL     1      39.607  26.003  13.815  1.00  0.00     0.018 C 
HETATM    5  C5  UNL     1      39.810  25.832  15.254  1.00  0.00     0.005 C 
HETATM    6  C6  UNL     1      38.548  25.981  16.128  1.00  0.00     0.021 C 
HETATM    7  C7  UNL     1      39.452  26.592  17.167  1.00  0.00     0.030 C 
HETATM    8  C8  UNL     1      40.138  25.572  18.003  1.00  0.00     0.009 C 
HETATM    9  C9  UNL     1      41.016  24.689  17.159  1.00  0.00     0.009 C 
HETATM   10  C10 UNL     1      40.462  24.593  15.731  1.00  0.00     0.026 C 
HETATM   11  C15 UNL     1      40.314  27.053  15.983  1.00  0.00     0.134 C 
HETATM   12  C16 UNL     1      39.761  28.327  15.533  1.00  0.00     0.190 C 
HETATM   13  O3  UNL     1      39.851  29.364  16.230  1.00  0.00    -0.289 OA
ENDROOT
BRANCH  10  14
HETATM   14  C11 UNL     1      41.363  23.810  14.868  1.00  0.00     0.123 C 
BRANCH  14  15
HETATM   15  O1  UNL     1      42.609  23.783  15.628  1.00  0.00    -0.395 OA
ATOM     16  H1  UNL     1      42.626  22.901  15.983  1.00  0.00     0.210 HD
ENDBRANCH  14  15
BRANCH  14  17
HETATM   17  C12 UNL     1      41.043  22.320  14.851  1.00  0.00     0.032 C 
BRANCH  17  18
HETATM   18  C13 UNL     1      39.551  22.133  15.082  1.00  0.00    -0.002 C 
HETATM   19  C14 UNL     1      38.918  21.875  13.728  1.00  0.00     0.005 C 
ENDBRANCH  17  18
ENDBRANCH  14  17
ENDBRANCH  10  14
BRANCH  11  20
HETATM   20  O2  UNL     1      41.660  27.134  16.225  1.00  0.00    -0.380 OA
ATOM     21  H2  UNL     1      42.092  26.362  16.570  1.00  0.00     0.211 HD
ENDBRANCH  11  20
TORSDOF 5
ENDMDL
