MODEL 1
REMARK VINA RESULT: -5.093639826      0.000      0.000
REMARK  6 active torsions:
REMARK  status: ('A' for Active; 'I' for Inactive)
REMARK    1  A    between atoms: N1_1  and  C1_4 
REMARK    2  A    between atoms: N4_10  and  C3_11 
REMARK    3  A    between atoms: C3_11  and  C4_12 
REMARK    4  A    between atoms: C4_12  and  C5_13 
REMARK    5  A    between atoms: C5_13  and  N5_14 
REMARK    6  A    between atoms: C5_13  and  N6_18 
ROOT
HETATM    1  C3  UNL     1      83.673 -15.587  65.210  1.00  0.00     0.172 C 
ENDROOT
BRANCH   1   2
HETATM    2  N4  UNL     1      82.701 -15.625  64.133  1.00  0.00    -0.123 N 
HETATM    3  C1  UNL     1      81.999 -16.690  63.679  1.00  0.00     0.693 A 
HETATM    4  N2  UNL     1      81.210 -16.287  62.670  1.00  0.00    -0.185 N 
HETATM    5  C2  UNL     1      81.415 -14.957  62.483  1.00  0.00     0.215 A 
ATOM      6  H2  UNL     1      80.570 -16.876  62.137  1.00  0.00     0.185 HD
HETATM    7  N3  UNL     1      82.323 -14.591  63.387  1.00  0.00    -0.279 N 
ATOM      8  H3  UNL     1      82.682 -13.641  63.493  1.00  0.00     0.188 HD
BRANCH   3   9
HETATM    9  N1  UNL     1      82.055 -17.891  64.118  1.00  0.00    -0.233 N 
ATOM     10  H12 UNL     1      81.842 -18.744  63.599  1.00  0.00     0.174 HD
ATOM     11  H11 UNL     1      82.330 -18.147  65.066  1.00  0.00     0.174 HD
ENDBRANCH   3   9
ENDBRANCH   1   2
BRANCH   1  12
HETATM   12  C4  UNL     1      84.438 -14.285  65.202  1.00  0.00     0.084 C 
BRANCH  12  13
HETATM   13  C5  UNL     1      84.019 -13.348  66.274  1.00  0.00     0.379 C 
BRANCH  13  14
HETATM   14  N5  UNL     1      84.124 -11.963  65.942  1.00  0.00    -0.050 N 
ATOM     15  H53 UNL     1      85.082 -11.737  65.677  1.00  0.00     0.276 HD
ATOM     16  H52 UNL     1      83.645 -11.776  65.060  1.00  0.00     0.276 HD
ATOM     17  H51 UNL     1      83.797 -11.320  66.663  1.00  0.00     0.276 HD
ENDBRANCH  13  14
BRANCH  13  18
HETATM   18  N6  UNL     1      84.774 -13.577  67.499  1.00  0.00    -0.050 N 
ATOM     19  H63 UNL     1      85.771 -13.406  67.364  1.00  0.00     0.276 HD
ATOM     20  H62 UNL     1      84.586 -12.856  68.196  1.00  0.00     0.276 HD
ATOM     21  H61 UNL     1      84.601 -14.511  67.869  1.00  0.00     0.276 HD
ENDBRANCH  13  18
ENDBRANCH  12  13
ENDBRANCH   1  12
TORSDOF 6
ENDMDL
MODEL 2
REMARK VINA RESULT: -5.049590071      0.872      2.044
REMARK  6 active torsions:
REMARK  status: ('A' for Active; 'I' for Inactive)
REMARK    1  A    between atoms: N1_1  and  C1_4 
REMARK    2  A    between atoms: N4_10  and  C3_11 
REMARK    3  A    between atoms: C3_11  and  C4_12 
REMARK    4  A    between atoms: C4_12  and  C5_13 
REMARK    5  A    between atoms: C5_13  and  N5_14 
REMARK    6  A    between atoms: C5_13  and  N6_18 
ROOT
HETATM    1  C3  UNL     1      83.324 -14.273  64.386  1.00  0.00     0.172 C 
ENDROOT
BRANCH   1   2
HETATM    2  N4  UNL     1      82.581 -15.446  63.967  1.00  0.00    -0.123 N 
HETATM    3  C1  UNL     1      81.674 -15.547  62.966  1.00  0.00     0.693 A 
HETATM    4  N2  UNL     1      81.225 -16.811  62.917  1.00  0.00    -0.185 N 
HETATM    5  C2  UNL     1      81.851 -17.516  63.895  1.00  0.00     0.215 A 
ATOM      6  H2  UNL     1      80.535 -17.177  62.262  1.00  0.00     0.185 HD
HETATM    7  N3  UNL     1      82.665 -16.658  64.509  1.00  0.00    -0.279 N 
ATOM      8  H3  UNL     1      83.272 -16.898  65.293  1.00  0.00     0.188 HD
BRANCH   3   9
HETATM    9  N1  UNL     1      81.290 -14.611  62.181  1.00  0.00    -0.233 N 
ATOM     10  H12 UNL     1      80.438 -14.594  61.620  1.00  0.00     0.174 HD
ATOM     11  H11 UNL     1      81.805 -13.746  62.019  1.00  0.00     0.174 HD
ENDBRANCH   3   9
ENDBRANCH   1   2
BRANCH   1  12
HETATM   12  C4  UNL     1      84.213 -14.589  65.566  1.00  0.00     0.084 C 
BRANCH  12  13
HETATM   13  C5  UNL     1      84.731 -13.381  66.256  1.00  0.00     0.379 C 
BRANCH  13  14
HETATM   14  N5  UNL     1      84.715 -13.445  67.682  1.00  0.00    -0.050 N 
ATOM     15  H53 UNL     1      83.759 -13.357  68.027  1.00  0.00     0.276 HD
ATOM     16  H52 UNL     1      84.931 -14.392  67.994  1.00  0.00     0.276 HD
ATOM     17  H51 UNL     1      85.322 -12.773  68.152  1.00  0.00     0.276 HD
ENDBRANCH  13  14
BRANCH  13  18
HETATM   18  N6  UNL     1      83.999 -12.188  65.849  1.00  0.00    -0.050 N 
ATOM     19  H63 UNL     1      83.269 -12.408  65.171  1.00  0.00     0.276 HD
ATOM     20  H62 UNL     1      83.410 -11.834  66.603  1.00  0.00     0.276 HD
ATOM     21  H61 UNL     1      84.632 -11.470  65.498  1.00  0.00     0.276 HD
ENDBRANCH  13  18
ENDBRANCH  12  13
ENDBRANCH   1  12
TORSDOF 6
ENDMDL
MODEL 3
REMARK VINA RESULT: -5.012654367      1.362      4.649
REMARK  6 active torsions:
REMARK  status: ('A' for Active; 'I' for Inactive)
REMARK    1  A    between atoms: N1_1  and  C1_4 
REMARK    2  A    between atoms: N4_10  and  C3_11 
REMARK    3  A    between atoms: C3_11  and  C4_12 
REMARK    4  A    between atoms: C4_12  and  C5_13 
REMARK    5  A    between atoms: C5_13  and  N5_14 
REMARK    6  A    between atoms: C5_13  and  N6_18 
ROOT
HETATM    1  C3  UNL     1      83.933 -15.109  64.147  1.00  0.00     0.172 C 
ENDROOT
BRANCH   1   2
HETATM    2  N4  UNL     1      84.232 -14.144  65.187  1.00  0.00    -0.123 N 
HETATM    3  C1  UNL     1      84.957 -14.330  66.316  1.00  0.00     0.693 A 
HETATM    4  N2  UNL     1      84.988 -13.177  67.003  1.00  0.00    -0.185 N 
HETATM    5  C2  UNL     1      84.277 -12.254  66.304  1.00  0.00     0.215 A 
ATOM      6  H2  UNL     1      85.461 -13.021  67.893  1.00  0.00     0.185 HD
HETATM    7  N3  UNL     1      83.835 -12.875  65.211  1.00  0.00    -0.279 N 
ATOM      8  H3  UNL     1      83.267 -12.434  64.487  1.00  0.00     0.188 HD
BRANCH   3   9
HETATM    9  N1  UNL     1      85.529 -15.412  66.691  1.00  0.00    -0.233 N 
ATOM     10  H12 UNL     1      85.985 -15.585  67.588  1.00  0.00     0.174 HD
ATOM     11  H11 UNL     1      85.598 -16.256  66.123  1.00  0.00     0.174 HD
ENDBRANCH   3   9
ENDBRANCH   1   2
BRANCH   1  12
HETATM   12  C4  UNL     1      82.687 -15.896  64.481  1.00  0.00     0.084 C 
BRANCH  12  13
HETATM   13  C5  UNL     1      81.908 -16.305  63.286  1.00  0.00     0.379 C 
BRANCH  13  14
HETATM   14  N5  UNL     1      81.084 -15.286  62.722  1.00  0.00    -0.050 N 
ATOM     15  H53 UNL     1      81.637 -14.683  62.113  1.00  0.00     0.276 HD
ATOM     16  H52 UNL     1      80.442 -15.690  62.039  1.00  0.00     0.276 HD
ATOM     17  H51 UNL     1      80.567 -14.723  63.399  1.00  0.00     0.276 HD
ENDBRANCH  13  14
BRANCH  13  18
HETATM   18  N6  UNL     1      81.066 -17.459  63.575  1.00  0.00    -0.050 N 
ATOM     19  H63 UNL     1      80.924 -18.038  62.747  1.00  0.00     0.276 HD
ATOM     20  H62 UNL     1      81.552 -18.140  64.160  1.00  0.00     0.276 HD
ATOM     21  H61 UNL     1      80.179 -17.172  63.989  1.00  0.00     0.276 HD
ENDBRANCH  13  18
ENDBRANCH  12  13
ENDBRANCH   1  12
TORSDOF 6
ENDMDL
MODEL 4
REMARK VINA RESULT: -4.943562686      0.876      1.789
REMARK  6 active torsions:
REMARK  status: ('A' for Active; 'I' for Inactive)
REMARK    1  A    between atoms: N1_1  and  C1_4 
REMARK    2  A    between atoms: N4_10  and  C3_11 
REMARK    3  A    between atoms: C3_11  and  C4_12 
REMARK    4  A    between atoms: C4_12  and  C5_13 
REMARK    5  A    between atoms: C5_13  and  N5_14 
REMARK    6  A    between atoms: C5_13  and  N6_18 
ROOT
HETATM    1  C3  UNL     1      83.436 -14.055  64.264  1.00  0.00     0.172 C 
ENDROOT
BRANCH   1   2
HETATM    2  N4  UNL     1      82.713 -15.277  63.965  1.00  0.00    -0.123 N 
HETATM    3  C1  UNL     1      81.761 -15.473  63.021  1.00  0.00     0.693 A 
HETATM    4  N2  UNL     1      81.353 -16.751  63.082  1.00  0.00    -0.185 N 
HETATM    5  C2  UNL     1      82.052 -17.368  64.071  1.00  0.00     0.215 A 
ATOM      6  H2  UNL     1      80.644 -17.183  62.489  1.00  0.00     0.185 HD
HETATM    7  N3  UNL     1      82.865 -16.444  64.582  1.00  0.00    -0.279 N 
ATOM      8  H3  UNL     1      83.519 -16.612  65.347  1.00  0.00     0.188 HD
BRANCH   3   9
HETATM    9  N1  UNL     1      81.306 -14.606  62.196  1.00  0.00    -0.233 N 
ATOM     10  H12 UNL     1      80.759 -14.790  61.355  1.00  0.00     0.174 HD
ATOM     11  H11 UNL     1      81.440 -13.599  62.285  1.00  0.00     0.174 HD
ENDBRANCH   3   9
ENDBRANCH   1   2
BRANCH   1  12
HETATM   12  C4  UNL     1      84.249 -14.205  65.528  1.00  0.00     0.084 C 
BRANCH  12  13
HETATM   13  C5  UNL     1      83.997 -13.133  66.523  1.00  0.00     0.379 C 
BRANCH  13  14
HETATM   14  N5  UNL     1      84.284 -11.809  66.074  1.00  0.00    -0.050 N 
ATOM     15  H53 UNL     1      85.251 -11.567  66.290  1.00  0.00     0.276 HD
ATOM     16  H52 UNL     1      84.317 -11.784  65.054  1.00  0.00     0.276 HD
ATOM     17  H51 UNL     1      83.654 -11.087  66.423  1.00  0.00     0.276 HD
ENDBRANCH  13  14
BRANCH  13  18
HETATM   18  N6  UNL     1      84.748 -13.366  67.751  1.00  0.00    -0.050 N 
ATOM     19  H63 UNL     1      84.586 -14.304  68.118  1.00  0.00     0.276 HD
ATOM     20  H62 UNL     1      85.749 -13.440  67.569  1.00  0.00     0.276 HD
ATOM     21  H61 UNL     1      84.544 -12.650  68.448  1.00  0.00     0.276 HD
ENDBRANCH  13  18
ENDBRANCH  12  13
ENDBRANCH   1  12
TORSDOF 6
ENDMDL
MODEL 5
REMARK VINA RESULT: -4.942251746      1.405      4.979
REMARK  6 active torsions:
REMARK  status: ('A' for Active; 'I' for Inactive)
REMARK    1  A    between atoms: N1_1  and  C1_4 
REMARK    2  A    between atoms: N4_10  and  C3_11 
REMARK    3  A    between atoms: C3_11  and  C4_12 
REMARK    4  A    between atoms: C4_12  and  C5_13 
REMARK    5  A    between atoms: C5_13  and  N5_14 
REMARK    6  A    between atoms: C5_13  and  N6_18 
ROOT
HETATM    1  C3  UNL     1      82.990 -14.834  64.341  1.00  0.00     0.172 C 
ENDROOT
BRANCH   1   2
HETATM    2  N4  UNL     1      84.035 -14.569  65.311  1.00  0.00    -0.123 N 
HETATM    3  C1  UNL     1      84.395 -13.377  65.845  1.00  0.00     0.693 A 
HETATM    4  N2  UNL     1      85.408 -13.579  66.702  1.00  0.00    -0.185 N 
HETATM    5  C2  UNL     1      85.693 -14.907  66.711  1.00  0.00     0.215 A 
ATOM      6  H2  UNL     1      85.881 -12.861  67.251  1.00  0.00     0.185 HD
HETATM    7  N3  UNL     1      84.841 -15.474  65.857  1.00  0.00    -0.279 N 
ATOM      8  H3  UNL     1      84.812 -16.473  65.649  1.00  0.00     0.188 HD
BRANCH   3   9
HETATM    9  N1  UNL     1      83.874 -12.234  65.595  1.00  0.00    -0.233 N 
ATOM     10  H12 UNL     1      83.827 -11.432  66.224  1.00  0.00     0.174 HD
ATOM     11  H11 UNL     1      83.432 -11.983  64.711  1.00  0.00     0.174 HD
ENDBRANCH   3   9
ENDBRANCH   1   2
BRANCH   1  12
HETATM   12  C4  UNL     1      82.583 -16.289  64.369  1.00  0.00     0.084 C 
BRANCH  12  13
HETATM   13  C5  UNL     1      81.762 -16.695  63.201  1.00  0.00     0.379 C 
BRANCH  13  14
HETATM   14  N5  UNL     1      80.983 -15.652  62.616  1.00  0.00    -0.050 N 
ATOM     15  H53 UNL     1      80.147 -16.041  62.179  1.00  0.00     0.276 HD
ATOM     16  H52 UNL     1      80.553 -15.083  63.346  1.00  0.00     0.276 HD
ATOM     17  H51 UNL     1      81.482 -15.058  61.955  1.00  0.00     0.276 HD
ENDBRANCH  13  14
BRANCH  13  18
HETATM   18  N6  UNL     1      80.864 -17.791  63.544  1.00  0.00    -0.050 N 
ATOM     19  H63 UNL     1      79.913 -17.614  63.220  1.00  0.00     0.276 HD
ATOM     20  H62 UNL     1      81.064 -18.626  62.993  1.00  0.00     0.276 HD
ATOM     21  H61 UNL     1      80.889 -17.988  64.545  1.00  0.00     0.276 HD
ENDBRANCH  13  18
ENDBRANCH  12  13
ENDBRANCH   1  12
TORSDOF 6
ENDMDL
