MODEL 1
REMARK VINA RESULT: -4.738769806      0.000      0.000
REMARK  4 active torsions:
REMARK  status: ('A' for Active; 'I' for Inactive)
REMARK    1  A    between atoms: C3_8  and  S1_9 
REMARK    2  A    between atoms: S1_9  and  C4_10 
REMARK    3  A    between atoms: C4_10  and  N4_11 
REMARK    4  A    between atoms: C4_10  and  N5_15 
ROOT
HETATM    1  S1  UNL     1      84.569 -14.802  65.079  1.00  0.00    -0.048 SA
ENDROOT
BRANCH   1   2
HETATM    2  C3  UNL     1      83.234 -15.687  64.330  1.00  0.00     0.116 A 
HETATM    3  C1  UNL     1      82.300 -15.092  63.481  1.00  0.00     0.151 A 
HETATM    4  N1  UNL     1      82.265 -13.731  63.104  1.00  0.00    -0.080 NA
HETATM    5  N2  UNL     1      81.427 -16.011  63.073  1.00  0.00    -0.339 N 
HETATM    6  C2  UNL     1      81.792 -17.172  63.647  1.00  0.00     0.182 A 
ATOM      7  H2  UNL     1      80.636 -15.863  62.447  1.00  0.00     0.167 HD
HETATM    8  N3  UNL     1      82.888 -16.972  64.409  1.00  0.00    -0.344 N 
ATOM      9  H3  UNL     1      83.372 -17.685  64.954  1.00  0.00     0.167 HD
ENDBRANCH   1   2
BRANCH   1  10
HETATM   10  C4  UNL     1      83.947 -13.558  66.277  1.00  0.00     0.446 C 
BRANCH  10  11
HETATM   11  N4  UNL     1      83.953 -12.299  65.578  1.00  0.00    -0.041 N 
ATOM     12  H43 UNL     1      84.578 -12.283  64.773  1.00  0.00     0.277 HD
ATOM     13  H42 UNL     1      83.090 -12.113  65.067  1.00  0.00     0.277 HD
ATOM     14  H41 UNL     1      84.172 -11.591  66.279  1.00  0.00     0.277 HD
ENDBRANCH  10  11
BRANCH  10  15
HETATM   15  N5  UNL     1      84.777 -13.598  67.439  1.00  0.00    -0.041 N 
ATOM     16  H53 UNL     1      85.606 -14.178  67.308  1.00  0.00     0.277 HD
ATOM     17  H52 UNL     1      85.254 -12.712  67.611  1.00  0.00     0.277 HD
ATOM     18  H51 UNL     1      84.208 -13.898  68.231  1.00  0.00     0.277 HD
ENDBRANCH  10  15
ENDBRANCH   1  10
TORSDOF 4
ENDMDL
MODEL 2
REMARK VINA RESULT: -4.541986096      1.340      1.592
REMARK  4 active torsions:
REMARK  status: ('A' for Active; 'I' for Inactive)
REMARK    1  A    between atoms: C3_8  and  S1_9 
REMARK    2  A    between atoms: S1_9  and  C4_10 
REMARK    3  A    between atoms: C4_10  and  N4_11 
REMARK    4  A    between atoms: C4_10  and  N5_15 
ROOT
HETATM    1  S1  UNL     1      83.927 -14.457  64.897  1.00  0.00    -0.048 SA
ENDROOT
BRANCH   1   2
HETATM    2  C3  UNL     1      82.836 -15.668  64.214  1.00  0.00     0.116 A 
HETATM    3  C1  UNL     1      81.882 -15.377  63.237  1.00  0.00     0.151 A 
HETATM    4  N1  UNL     1      81.636 -14.110  62.665  1.00  0.00    -0.080 NA
HETATM    5  N2  UNL     1      81.223 -16.489  62.920  1.00  0.00    -0.339 N 
HETATM    6  C2  UNL     1      81.741 -17.475  63.676  1.00  0.00     0.182 A 
ATOM      7  H2  UNL     1      80.470 -16.577  62.238  1.00  0.00     0.167 HD
HETATM    8  N3  UNL     1      82.719 -16.973  64.459  1.00  0.00    -0.344 N 
ATOM      9  H3  UNL     1      83.277 -17.504  65.128  1.00  0.00     0.167 HD
ENDBRANCH   1   2
BRANCH   1  10
HETATM   10  C4  UNL     1      85.145 -15.230  66.033  1.00  0.00     0.446 C 
BRANCH  10  11
HETATM   11  N4  UNL     1      85.297 -14.312  67.132  1.00  0.00    -0.041 N 
ATOM     12  H43 UNL     1      85.694 -14.739  67.968  1.00  0.00     0.277 HD
ATOM     13  H42 UNL     1      86.031 -13.619  66.987  1.00  0.00     0.277 HD
ATOM     14  H41 UNL     1      84.374 -13.901  67.283  1.00  0.00     0.277 HD
ENDBRANCH  10  11
BRANCH  10  15
HETATM   15  N5  UNL     1      86.344 -15.486  65.301  1.00  0.00    -0.041 N 
ATOM     16  H53 UNL     1      86.323 -15.087  64.363  1.00  0.00     0.277 HD
ATOM     17  H52 UNL     1      87.142 -14.959  65.657  1.00  0.00     0.277 HD
ATOM     18  H51 UNL     1      86.509 -16.493  65.296  1.00  0.00     0.277 HD
ENDBRANCH  10  15
ENDBRANCH   1  10
TORSDOF 4
ENDMDL
MODEL 3
REMARK VINA RESULT: -4.507304438      1.547      4.278
REMARK  4 active torsions:
REMARK  status: ('A' for Active; 'I' for Inactive)
REMARK    1  A    between atoms: C3_8  and  S1_9 
REMARK    2  A    between atoms: S1_9  and  C4_10 
REMARK    3  A    between atoms: C4_10  and  N4_11 
REMARK    4  A    between atoms: C4_10  and  N5_15 
ROOT
HETATM    1  S1  UNL     1      82.645 -14.800  64.035  1.00  0.00    -0.048 SA
ENDROOT
BRANCH   1   2
HETATM    2  C3  UNL     1      83.968 -14.652  65.198  1.00  0.00     0.116 A 
HETATM    3  C1  UNL     1      84.384 -13.432  65.735  1.00  0.00     0.151 A 
HETATM    4  N1  UNL     1      83.840 -12.162  65.438  1.00  0.00    -0.080 NA
HETATM    5  N2  UNL     1      85.390 -13.643  66.580  1.00  0.00    -0.339 N 
HETATM    6  C2  UNL     1      85.617 -14.970  66.588  1.00  0.00     0.182 A 
ATOM      7  H2  UNL     1      85.892 -12.936  67.118  1.00  0.00     0.167 HD
HETATM    8  N3  UNL     1      84.752 -15.578  65.748  1.00  0.00    -0.344 N 
ATOM      9  H3  UNL     1      84.706 -16.580  65.565  1.00  0.00     0.167 HD
ENDBRANCH   1   2
BRANCH   1  10
HETATM   10  C4  UNL     1      82.621 -16.468  63.270  1.00  0.00     0.446 C 
BRANCH  10  11
HETATM   11  N4  UNL     1      81.841 -16.339  62.066  1.00  0.00    -0.041 N 
ATOM     12  H43 UNL     1      82.332 -16.649  61.227  1.00  0.00     0.277 HD
ATOM     13  H42 UNL     1      81.068 -17.001  62.007  1.00  0.00     0.277 HD
ATOM     14  H41 UNL     1      81.546 -15.363  62.028  1.00  0.00     0.277 HD
ENDBRANCH  10  11
BRANCH  10  15
HETATM   15  N5  UNL     1      82.095 -17.393  64.223  1.00  0.00    -0.041 N 
ATOM     16  H53 UNL     1      82.285 -17.115  65.185  1.00  0.00     0.277 HD
ATOM     17  H52 UNL     1      81.076 -17.371  64.271  1.00  0.00     0.277 HD
ATOM     18  H51 UNL     1      82.458 -18.322  64.004  1.00  0.00     0.277 HD
ENDBRANCH  10  15
ENDBRANCH   1  10
TORSDOF 4
ENDMDL
MODEL 4
REMARK VINA RESULT: -4.388879851      0.858      1.957
REMARK  4 active torsions:
REMARK  status: ('A' for Active; 'I' for Inactive)
REMARK    1  A    between atoms: C3_8  and  S1_9 
REMARK    2  A    between atoms: S1_9  and  C4_10 
REMARK    3  A    between atoms: C4_10  and  N4_11 
REMARK    4  A    between atoms: C4_10  and  N5_15 
ROOT
HETATM    1  S1  UNL     1      84.079 -15.352  64.893  1.00  0.00    -0.048 SA
ENDROOT
BRANCH   1   2
HETATM    2  C3  UNL     1      82.719 -15.403  63.766  1.00  0.00     0.116 A 
HETATM    3  C1  UNL     1      81.913 -16.529  63.586  1.00  0.00     0.151 A 
HETATM    4  N1  UNL     1      82.057 -17.770  64.246  1.00  0.00    -0.080 NA
HETATM    5  N2  UNL     1      80.974 -16.259  62.682  1.00  0.00    -0.339 N 
HETATM    6  C2  UNL     1      81.171 -14.988  62.288  1.00  0.00     0.182 A 
ATOM      7  H2  UNL     1      80.247 -16.894  62.351  1.00  0.00     0.167 HD
HETATM    8  N3  UNL     1      82.230 -14.472  62.947  1.00  0.00    -0.344 N 
ATOM      9  H3  UNL     1      82.595 -13.526  62.838  1.00  0.00     0.167 HD
ENDBRANCH   1   2
BRANCH   1  10
HETATM   10  C4  UNL     1      83.950 -13.909  66.020  1.00  0.00     0.446 C 
BRANCH  10  11
HETATM   11  N4  UNL     1      84.081 -12.743  65.184  1.00  0.00    -0.041 N 
ATOM     12  H43 UNL     1      83.652 -12.850  64.266  1.00  0.00     0.277 HD
ATOM     13  H42 UNL     1      83.514 -11.954  65.493  1.00  0.00     0.277 HD
ATOM     14  H41 UNL     1      85.080 -12.537  65.147  1.00  0.00     0.277 HD
ENDBRANCH  10  11
BRANCH  10  15
HETATM   15  N5  UNL     1      84.953 -14.034  67.029  1.00  0.00    -0.041 N 
ATOM     16  H53 UNL     1      85.882 -14.196  66.640  1.00  0.00     0.277 HD
ATOM     17  H52 UNL     1      85.152 -13.150  67.497  1.00  0.00     0.277 HD
ATOM     18  H51 UNL     1      84.666 -14.767  67.679  1.00  0.00     0.277 HD
ENDBRANCH  10  15
ENDBRANCH   1  10
TORSDOF 4
ENDMDL
MODEL 5
REMARK VINA RESULT: -4.362719245      1.617      2.153
REMARK  4 active torsions:
REMARK  status: ('A' for Active; 'I' for Inactive)
REMARK    1  A    between atoms: C3_8  and  S1_9 
REMARK    2  A    between atoms: S1_9  and  C4_10 
REMARK    3  A    between atoms: C4_10  and  N4_11 
REMARK    4  A    between atoms: C4_10  and  N5_15 
ROOT
HETATM    1  S1  UNL     1      83.910 -13.032  65.195  1.00  0.00    -0.048 SA
ENDROOT
BRANCH   1   2
HETATM    2  C3  UNL     1      83.416 -14.680  64.791  1.00  0.00     0.116 A 
HETATM    3  C1  UNL     1      84.314 -15.741  64.663  1.00  0.00     0.151 A 
HETATM    4  N1  UNL     1      85.716 -15.669  64.821  1.00  0.00    -0.080 NA
HETATM    5  N2  UNL     1      83.645 -16.851  64.362  1.00  0.00    -0.339 N 
HETATM    6  C2  UNL     1      82.344 -16.513  64.297  1.00  0.00     0.182 A 
ATOM      7  H2  UNL     1      84.041 -17.779  64.209  1.00  0.00     0.167 HD
HETATM    8  N3  UNL     1      82.209 -15.195  64.558  1.00  0.00    -0.344 N 
ATOM      9  H3  UNL     1      81.330 -14.680  64.575  1.00  0.00     0.167 HD
ENDBRANCH   1   2
BRANCH   1  10
HETATM   10  C4  UNL     1      84.102 -12.825  67.009  1.00  0.00     0.446 C 
BRANCH  10  11
HETATM   11  N4  UNL     1      84.629 -11.499  67.201  1.00  0.00    -0.041 N 
ATOM     12  H43 UNL     1      85.362 -11.251  66.538  1.00  0.00     0.277 HD
ATOM     13  H42 UNL     1      83.976 -10.759  66.944  1.00  0.00     0.277 HD
ATOM     14  H41 UNL     1      84.930 -11.456  68.176  1.00  0.00     0.277 HD
ENDBRANCH  10  11
BRANCH  10  15
HETATM   15  N5  UNL     1      84.939 -13.875  67.496  1.00  0.00    -0.041 N 
ATOM     16  H53 UNL     1      85.909 -13.772  67.200  1.00  0.00     0.277 HD
ATOM     17  H52 UNL     1      85.095 -13.818  68.503  1.00  0.00     0.277 HD
ATOM     18  H51 UNL     1      84.533 -14.768  67.211  1.00  0.00     0.277 HD
ENDBRANCH  10  15
ENDBRANCH   1  10
TORSDOF 4
ENDMDL
