MODEL 1
REMARK VINA RESULT: -6.399072138      0.000      0.000
REMARK  8 active torsions:
REMARK  status: ('A' for Active; 'I' for Inactive)
REMARK    1  A    between atoms: N1_1  and  C1_4 
REMARK    2  A    between atoms: C2_7  and  N3_8 
REMARK    3  A    between atoms: N3_8  and  C3_10 
REMARK    4  A    between atoms: C3_10  and  C4_11 
REMARK    5  A    between atoms: C4_11  and  N4_12 
REMARK    6  A    between atoms: N5_16  and  C8_17 
REMARK    7  A    between atoms: C13_25  and  N7_26 
REMARK    8  A    between atoms: N7_26  and  N8_28 
ROOT
HETATM    1  C1  UNL     1      13.862  23.390 108.619  1.00  0.00     0.679 A 
HETATM    2  N2  UNL     1      14.017  22.545 107.584  1.00  0.00    -0.176 N 
ATOM      3  H2  UNL     1      13.206  22.311 107.011  1.00  0.00     0.186 HD
HETATM    4  C2  UNL     1      15.206  21.999 107.281  1.00  0.00     0.132 A 
HETATM    5  C11 UNL     1      16.335  22.300 108.050  1.00  0.00     0.069 A 
HETATM    6  C12 UNL     1      17.563  21.748 107.753  1.00  0.00     0.125 A 
HETATM    7  N6  UNL     1      18.588  22.097 108.549  1.00  0.00    -0.199 N 
ATOM      8  H6  UNL     1      19.512  21.710 108.362  1.00  0.00     0.183 HD
HETATM    9  C13 UNL     1      18.432  22.945 109.586  1.00  0.00     0.697 A 
HETATM   10  N9  UNL     1      17.240  23.492 109.888  1.00  0.00    -0.174 N 
ATOM     11  H9  UNL     1      17.139  24.131 110.677  1.00  0.00     0.186 HD
HETATM   12  C14 UNL     1      16.181  23.167 109.113  1.00  0.00     0.152 A 
HETATM   13  N10 UNL     1      14.951  23.671 109.348  1.00  0.00    -0.175 N 
ATOM     14  H10 UNL     1      14.843  24.309 110.136  1.00  0.00     0.186 HD
ENDROOT
BRANCH   4  15
HETATM   15  N3  UNL     1      15.399  21.188 106.304  1.00  0.00    -0.373 N 
ATOM     16  H3  UNL     1      16.284  21.260 105.803  1.00  0.00     0.161 HD
BRANCH  15  17
HETATM   17  C3  UNL     1      14.469  20.190 105.862  1.00  0.00     0.141 C 
BRANCH  17  18
HETATM   18  C4  UNL     1      15.239  18.906 105.603  1.00  0.00     0.141 C 
BRANCH  18  19
HETATM   19  N4  UNL     1      15.030  18.511 104.262  1.00  0.00    -0.390 N 
HETATM   20  C5  UNL     1      15.501  17.236 103.879  1.00  0.00     0.123 C 
HETATM   21  C6  UNL     1      14.449  16.142 104.002  1.00  0.00     0.040 C 
HETATM   22  C7  UNL     1      13.436  16.209 102.896  1.00  0.00     0.127 C 
HETATM   23  N5  UNL     1      13.811  17.222 101.938  1.00  0.00    -0.354 N 
HETATM   24  C9  UNL     1      13.904  18.636 102.151  1.00  0.00     0.169 C 
HETATM   25  C10 UNL     1      13.914  19.039 103.591  1.00  0.00     0.078 C 
BRANCH  23  26
HETATM   26  C8  UNL     1      14.127  16.781 100.626  1.00  0.00     0.351 C 
HETATM   27  O1  UNL     1      14.522  15.620 100.388  1.00  0.00    -0.284 OA
ENDBRANCH  23  26
ENDBRANCH  18  19
ENDBRANCH  17  18
ENDBRANCH  15  17
ENDBRANCH   4  15
BRANCH   1  28
HETATM   28  N1  UNL     1      12.714  23.927 108.924  1.00  0.00    -0.234 N 
ATOM     29  H12 UNL     1      12.195  24.459 108.225  1.00  0.00     0.174 HD
ATOM     30  H11 UNL     1      12.295  23.842 109.850  1.00  0.00     0.174 HD
ENDBRANCH   1  28
BRANCH   9  31
HETATM   31  N7  UNL     1      19.439  23.255 110.324  1.00  0.00    -0.138 N 
ATOM     32  H7  UNL     1      20.385  23.233 109.943  1.00  0.00     0.205 HD
BRANCH  31  33
HETATM   33  N8  UNL     1      19.222  23.620 111.641  1.00  0.00    -0.331 N 
ATOM     34  H82 UNL     1      18.450  24.247 111.867  1.00  0.00     0.177 HD
ATOM     35  H81 UNL     1      19.840  23.254 112.366  1.00  0.00     0.177 HD
ENDBRANCH  31  33
ENDBRANCH   9  31
TORSDOF 8
ENDMDL
MODEL 2
REMARK VINA RESULT: -6.042796437      0.786      1.442
REMARK  8 active torsions:
REMARK  status: ('A' for Active; 'I' for Inactive)
REMARK    1  A    between atoms: N1_1  and  C1_4 
REMARK    2  A    between atoms: C2_7  and  N3_8 
REMARK    3  A    between atoms: N3_8  and  C3_10 
REMARK    4  A    between atoms: C3_10  and  C4_11 
REMARK    5  A    between atoms: C4_11  and  N4_12 
REMARK    6  A    between atoms: N5_16  and  C8_17 
REMARK    7  A    between atoms: C13_25  and  N7_26 
REMARK    8  A    between atoms: N7_26  and  N8_28 
ROOT
HETATM    1  C1  UNL     1      13.900  23.504 108.750  1.00  0.00     0.679 A 
HETATM    2  N2  UNL     1      14.032  22.670 107.703  1.00  0.00    -0.176 N 
ATOM      3  H2  UNL     1      13.211  22.451 107.138  1.00  0.00     0.186 HD
HETATM    4  C2  UNL     1      15.212  22.117 107.377  1.00  0.00     0.132 A 
HETATM    5  C11 UNL     1      16.354  22.399 108.134  1.00  0.00     0.069 A 
HETATM    6  C12 UNL     1      17.573  21.839 107.813  1.00  0.00     0.125 A 
HETATM    7  N6  UNL     1      18.611  22.169 108.598  1.00  0.00    -0.199 N 
ATOM      8  H6  UNL     1      19.530  21.776 108.394  1.00  0.00     0.183 HD
HETATM    9  C13 UNL     1      18.478  23.006 109.649  1.00  0.00     0.697 A 
HETATM   10  N9  UNL     1      17.295  23.559 109.973  1.00  0.00    -0.174 N 
ATOM     11  H9  UNL     1      17.211  24.189 110.771  1.00  0.00     0.186 HD
HETATM   12  C14 UNL     1      16.223  23.254 109.209  1.00  0.00     0.152 A 
HETATM   13  N10 UNL     1      15.001  23.765 109.467  1.00  0.00    -0.175 N 
ATOM     14  H10 UNL     1      14.909  24.395 110.264  1.00  0.00     0.186 HD
ENDROOT
BRANCH   4  15
HETATM   15  N3  UNL     1      15.384  21.317 106.387  1.00  0.00    -0.373 N 
ATOM     16  H3  UNL     1      16.147  21.524 105.744  1.00  0.00     0.161 HD
BRANCH  15  17
HETATM   17  C3  UNL     1      14.588  20.156 106.115  1.00  0.00     0.141 C 
BRANCH  17  18
HETATM   18  C4  UNL     1      15.485  19.103 105.486  1.00  0.00     0.141 C 
BRANCH  18  19
HETATM   19  N4  UNL     1      14.723  18.341 104.572  1.00  0.00    -0.390 N 
HETATM   20  C5  UNL     1      13.751  19.023 103.808  1.00  0.00     0.123 C 
HETATM   21  C6  UNL     1      14.267  19.490 102.453  1.00  0.00     0.040 C 
HETATM   22  C7  UNL     1      14.384  18.358 101.475  1.00  0.00     0.127 C 
HETATM   23  N5  UNL     1      13.850  17.145 102.050  1.00  0.00    -0.354 N 
HETATM   24  C9  UNL     1      14.345  16.424 103.184  1.00  0.00     0.169 C 
HETATM   25  C10 UNL     1      15.318  17.192 104.023  1.00  0.00     0.078 C 
BRANCH  23  26
HETATM   26  C8  UNL     1      12.701  16.590 101.429  1.00  0.00     0.351 C 
HETATM   27  O1  UNL     1      11.951  17.262 100.689  1.00  0.00    -0.284 OA
ENDBRANCH  23  26
ENDBRANCH  18  19
ENDBRANCH  17  18
ENDBRANCH  15  17
ENDBRANCH   4  15
BRANCH   1  28
HETATM   28  N1  UNL     1      12.761  24.047 109.078  1.00  0.00    -0.234 N 
ATOM     29  H12 UNL     1      12.008  24.111 108.393  1.00  0.00     0.174 HD
ATOM     30  H11 UNL     1      12.577  24.423 110.008  1.00  0.00     0.174 HD
ENDBRANCH   1  28
BRANCH   9  31
HETATM   31  N7  UNL     1      19.498  23.298 110.376  1.00  0.00    -0.138 N 
ATOM     32  H7  UNL     1      20.442  23.217 109.999  1.00  0.00     0.205 HD
BRANCH  31  33
HETATM   33  N8  UNL     1      19.297  23.724 111.677  1.00  0.00    -0.331 N 
ATOM     34  H82 UNL     1      18.751  23.146 112.316  1.00  0.00     0.177 HD
ATOM     35  H81 UNL     1      19.700  24.612 111.976  1.00  0.00     0.177 HD
ENDBRANCH  31  33
ENDBRANCH   9  31
TORSDOF 8
ENDMDL
MODEL 3
REMARK VINA RESULT: -5.932294372      4.353      6.852
REMARK  8 active torsions:
REMARK  status: ('A' for Active; 'I' for Inactive)
REMARK    1  A    between atoms: N1_1  and  C1_4 
REMARK    2  A    between atoms: C2_7  and  N3_8 
REMARK    3  A    between atoms: N3_8  and  C3_10 
REMARK    4  A    between atoms: C3_10  and  C4_11 
REMARK    5  A    between atoms: C4_11  and  N4_12 
REMARK    6  A    between atoms: N5_16  and  C8_17 
REMARK    7  A    between atoms: C13_25  and  N7_26 
REMARK    8  A    between atoms: N7_26  and  N8_28 
ROOT
HETATM    1  C1  UNL     1      20.194  26.470 109.982  1.00  0.00     0.679 A 
HETATM    2  N2  UNL     1      19.787  25.233 109.644  1.00  0.00    -0.176 N 
ATOM      3  H2  UNL     1      19.833  24.948 108.665  1.00  0.00     0.186 HD
HETATM    4  C2  UNL     1      19.323  24.362 110.554  1.00  0.00     0.132 A 
HETATM    5  C11 UNL     1      19.248  24.726 111.903  1.00  0.00     0.069 A 
HETATM    6  C12 UNL     1      18.773  23.844 112.850  1.00  0.00     0.125 A 
HETATM    7  N6  UNL     1      18.739  24.284 114.118  1.00  0.00    -0.199 N 
ATOM      8  H6  UNL     1      18.394  23.661 114.848  1.00  0.00     0.183 HD
HETATM    9  C13 UNL     1      19.147  25.525 114.457  1.00  0.00     0.697 A 
HETATM   10  N9  UNL     1      19.612  26.397 113.543  1.00  0.00    -0.174 N 
ATOM     11  H9  UNL     1      19.917  27.331 113.816  1.00  0.00     0.186 HD
HETATM   12  C14 UNL     1      19.664  25.995 112.254  1.00  0.00     0.152 A 
HETATM   13  N10 UNL     1      20.117  26.807 111.277  1.00  0.00    -0.175 N 
ATOM     14  H10 UNL     1      20.421  27.744 111.542  1.00  0.00     0.186 HD
ENDROOT
BRANCH   4  15
HETATM   15  N3  UNL     1      18.925  23.173 110.276  1.00  0.00    -0.373 N 
ATOM     16  H3  UNL     1      18.438  22.658 111.009  1.00  0.00     0.161 HD
BRANCH  15  17
HETATM   17  C3  UNL     1      19.111  22.512 109.017  1.00  0.00     0.141 C 
BRANCH  17  18
HETATM   18  C4  UNL     1      18.161  23.138 108.009  1.00  0.00     0.141 C 
BRANCH  18  19
HETATM   19  N4  UNL     1      16.909  22.487 108.098  1.00  0.00    -0.390 N 
HETATM   20  C5  UNL     1      16.117  22.752 109.237  1.00  0.00     0.123 C 
HETATM   21  C6  UNL     1      15.123  23.887 109.030  1.00  0.00     0.040 C 
HETATM   22  C7  UNL     1      13.951  23.464 108.193  1.00  0.00     0.127 C 
HETATM   23  N5  UNL     1      14.023  22.048 107.915  1.00  0.00    -0.354 N 
HETATM   24  C9  UNL     1      15.019  21.356 107.153  1.00  0.00     0.169 C 
HETATM   25  C10 UNL     1      16.259  22.153 106.897  1.00  0.00     0.078 C 
BRANCH  23  26
HETATM   26  C8  UNL     1      12.993  21.234 108.454  1.00  0.00     0.351 C 
HETATM   27  O1  UNL     1      13.022  20.808 109.629  1.00  0.00    -0.284 OA
ENDBRANCH  23  26
ENDBRANCH  18  19
ENDBRANCH  17  18
ENDBRANCH  15  17
ENDBRANCH   4  15
BRANCH   1  28
HETATM   28  N1  UNL     1      20.646  27.326 109.108  1.00  0.00    -0.234 N 
ATOM     29  H12 UNL     1      21.625  27.297 108.822  1.00  0.00     0.174 HD
ATOM     30  H11 UNL     1      20.058  28.044 108.685  1.00  0.00     0.174 HD
ENDBRANCH   1  28
BRANCH   9  31
HETATM   31  N7  UNL     1      19.099  25.909 115.683  1.00  0.00    -0.138 N 
ATOM     32  H7  UNL     1      18.457  25.464 116.339  1.00  0.00     0.205 HD
BRANCH  31  33
HETATM   33  N8  UNL     1      19.930  26.933 116.101  1.00  0.00    -0.331 N 
ATOM     34  H82 UNL     1      20.255  27.623 115.424  1.00  0.00     0.177 HD
ATOM     35  H81 UNL     1      20.204  26.981 117.083  1.00  0.00     0.177 HD
ENDBRANCH  31  33
ENDBRANCH   9  31
TORSDOF 8
ENDMDL
MODEL 4
REMARK VINA RESULT: -5.912129330      4.446      8.834
REMARK  8 active torsions:
REMARK  status: ('A' for Active; 'I' for Inactive)
REMARK    1  A    between atoms: N1_1  and  C1_4 
REMARK    2  A    between atoms: C2_7  and  N3_8 
REMARK    3  A    between atoms: N3_8  and  C3_10 
REMARK    4  A    between atoms: C3_10  and  C4_11 
REMARK    5  A    between atoms: C4_11  and  N4_12 
REMARK    6  A    between atoms: N5_16  and  C8_17 
REMARK    7  A    between atoms: C13_25  and  N7_26 
REMARK    8  A    between atoms: N7_26  and  N8_28 
ROOT
HETATM    1  C1  UNL     1      13.277  23.540 108.820  1.00  0.00     0.679 A 
HETATM    2  N2  UNL     1      14.451  23.813 109.419  1.00  0.00    -0.176 N 
ATOM      3  H2  UNL     1      14.502  24.597 110.070  1.00  0.00     0.186 HD
HETATM    4  C2  UNL     1      15.556  23.086 109.187  1.00  0.00     0.132 A 
HETATM    5  C11 UNL     1      15.515  22.007 108.298  1.00  0.00     0.069 A 
HETATM    6  C12 UNL     1      16.640  21.251 108.049  1.00  0.00     0.125 A 
HETATM    7  N6  UNL     1      16.502  20.236 107.181  1.00  0.00    -0.199 N 
ATOM      8  H6  UNL     1      17.312  19.653 106.970  1.00  0.00     0.183 HD
HETATM    9  C13 UNL     1      15.326  19.962 106.580  1.00  0.00     0.697 A 
HETATM   10  N9  UNL     1      14.219  20.691 106.814  1.00  0.00    -0.174 N 
ATOM     11  H9  UNL     1      13.337  20.471 106.351  1.00  0.00     0.186 HD
HETATM   12  C14 UNL     1      14.313  21.723 107.681  1.00  0.00     0.152 A 
HETATM   13  N10 UNL     1      13.251  22.504 107.970  1.00  0.00    -0.175 N 
ATOM     14  H10 UNL     1      12.366  22.290 107.510  1.00  0.00     0.186 HD
ENDROOT
BRANCH   4  15
HETATM   15  N3  UNL     1      16.694  23.312 109.737  1.00  0.00    -0.373 N 
ATOM     16  H3  UNL     1      17.433  23.691 109.145  1.00  0.00     0.161 HD
BRANCH  15  17
HETATM   17  C3  UNL     1      17.010  23.072 111.115  1.00  0.00     0.141 C 
BRANCH  17  18
HETATM   18  C4  UNL     1      18.488  22.736 111.211  1.00  0.00     0.141 C 
BRANCH  18  19
HETATM   19  N4  UNL     1      19.236  23.930 111.090  1.00  0.00    -0.390 N 
HETATM   20  C5  UNL     1      19.631  24.321 109.792  1.00  0.00     0.123 C 
HETATM   21  C6  UNL     1      18.650  25.276 109.124  1.00  0.00     0.040 C 
HETATM   22  C7  UNL     1      18.752  26.667 109.681  1.00  0.00     0.127 C 
HETATM   23  N5  UNL     1      19.849  26.750 110.617  1.00  0.00    -0.354 N 
HETATM   24  C9  UNL     1      19.983  26.069 111.870  1.00  0.00     0.169 C 
HETATM   25  C10 UNL     1      19.030  24.931 112.055  1.00  0.00     0.078 C 
BRANCH  23  26
HETATM   26  C8  UNL     1      20.929  27.602 110.268  1.00  0.00     0.351 C 
HETATM   27  O1  UNL     1      22.002  27.619 110.907  1.00  0.00    -0.284 OA
ENDBRANCH  23  26
ENDBRANCH  18  19
ENDBRANCH  17  18
ENDBRANCH  15  17
ENDBRANCH   4  15
BRANCH   1  28
HETATM   28  N1  UNL     1      12.197  24.237 109.036  1.00  0.00    -0.234 N 
ATOM     29  H12 UNL     1      12.245  25.255 109.083  1.00  0.00     0.174 HD
ATOM     30  H11 UNL     1      11.281  23.808 109.165  1.00  0.00     0.174 HD
ENDBRANCH   1  28
BRANCH   9  31
HETATM   31  N7  UNL     1      15.235  18.979 105.755  1.00  0.00    -0.138 N 
ATOM     32  H7  UNL     1      15.569  18.052 106.017  1.00  0.00     0.205 HD
BRANCH  31  33
HETATM   33  N8  UNL     1      14.677  19.197 104.508  1.00  0.00    -0.331 N 
ATOM     34  H82 UNL     1      14.007  19.957 104.383  1.00  0.00     0.177 HD
ATOM     35  H81 UNL     1      14.945  18.592 103.731  1.00  0.00     0.177 HD
ENDBRANCH  31  33
ENDBRANCH   9  31
TORSDOF 8
ENDMDL
MODEL 5
REMARK VINA RESULT: -5.896780929      4.764      7.035
REMARK  8 active torsions:
REMARK  status: ('A' for Active; 'I' for Inactive)
REMARK    1  A    between atoms: N1_1  and  C1_4 
REMARK    2  A    between atoms: C2_7  and  N3_8 
REMARK    3  A    between atoms: N3_8  and  C3_10 
REMARK    4  A    between atoms: C3_10  and  C4_11 
REMARK    5  A    between atoms: C4_11  and  N4_12 
REMARK    6  A    between atoms: N5_16  and  C8_17 
REMARK    7  A    between atoms: C13_25  and  N7_26 
REMARK    8  A    between atoms: N7_26  and  N8_28 
ROOT
HETATM    1  C1  UNL     1      20.208  26.614 109.861  1.00  0.00     0.679 A 
HETATM    2  N2  UNL     1      19.810  25.422 109.380  1.00  0.00    -0.176 N 
ATOM      3  H2  UNL     1      19.870  25.250 108.376  1.00  0.00     0.186 HD
HETATM    4  C2  UNL     1      19.337  24.453 110.180  1.00  0.00     0.132 A 
HETATM    5  C11 UNL     1      19.243  24.662 111.560  1.00  0.00     0.069 A 
HETATM    6  C12 UNL     1      18.759  23.677 112.395  1.00  0.00     0.125 A 
HETATM    7  N6  UNL     1      18.706  23.972 113.704  1.00  0.00    -0.199 N 
ATOM      8  H6  UNL     1      18.354  23.270 114.354  1.00  0.00     0.183 HD
HETATM    9  C13 UNL     1      19.105  25.167 114.186  1.00  0.00     0.697 A 
HETATM   10  N9  UNL     1      19.580  26.137 113.383  1.00  0.00    -0.174 N 
ATOM     11  H9  UNL     1      19.877  27.035 113.764  1.00  0.00     0.186 HD
HETATM   12  C14 UNL     1      19.650  25.883 112.058  1.00  0.00     0.152 A 
HETATM   13  N10 UNL     1      20.112  26.802 111.184  1.00  0.00    -0.175 N 
ATOM     14  H10 UNL     1      20.410  27.703 111.558  1.00  0.00     0.186 HD
ENDROOT
BRANCH   4  15
HETATM   15  N3  UNL     1      18.946  23.302 109.764  1.00  0.00    -0.373 N 
ATOM     16  H3  UNL     1      18.452  22.706 110.427  1.00  0.00     0.161 HD
BRANCH  15  17
HETATM   17  C3  UNL     1      19.151  22.788 108.441  1.00  0.00     0.141 C 
BRANCH  17  18
HETATM   18  C4  UNL     1      17.989  21.868 108.106  1.00  0.00     0.141 C 
BRANCH  18  19
HETATM   19  N4  UNL     1      16.778  22.546 108.370  1.00  0.00    -0.390 N 
HETATM   20  C5  UNL     1      15.862  22.682 107.303  1.00  0.00     0.123 C 
HETATM   21  C6  UNL     1      14.825  21.568 107.253  1.00  0.00     0.040 C 
HETATM   22  C7  UNL     1      13.771  21.734 108.309  1.00  0.00     0.127 C 
HETATM   23  N5  UNL     1      13.958  22.984 109.008  1.00  0.00    -0.354 N 
HETATM   24  C9  UNL     1      15.066  23.367 109.831  1.00  0.00     0.169 C 
HETATM   25  C10 UNL     1      16.272  22.496 109.680  1.00  0.00     0.078 C 
BRANCH  23  26
HETATM   26  C8  UNL     1      12.932  23.955 108.874  1.00  0.00     0.351 C 
HETATM   27  O1  UNL     1      12.016  24.082 109.714  1.00  0.00    -0.284 OA
ENDBRANCH  23  26
ENDBRANCH  18  19
ENDBRANCH  17  18
ENDBRANCH  15  17
ENDBRANCH   4  15
BRANCH   1  28
HETATM   28  N1  UNL     1      20.669  27.564 109.096  1.00  0.00    -0.234 N 
ATOM     29  H12 UNL     1      21.339  27.348 108.359  1.00  0.00     0.174 HD
ATOM     30  H11 UNL     1      20.388  28.539 109.199  1.00  0.00     0.174 HD
ENDBRANCH   1  28
BRANCH   9  31
HETATM   31  N7  UNL     1      19.040  25.410 115.447  1.00  0.00    -0.138 N 
ATOM     32  H7  UNL     1      18.872  24.653 116.111  1.00  0.00     0.205 HD
BRANCH  31  33
HETATM   33  N8  UNL     1      19.201  26.710 115.892  1.00  0.00    -0.331 N 
ATOM     34  H82 UNL     1      18.697  27.465 115.427  1.00  0.00     0.177 HD
ATOM     35  H81 UNL     1      19.822  26.891 116.680  1.00  0.00     0.177 HD
ENDBRANCH  31  33
ENDBRANCH   9  31
TORSDOF 8
ENDMDL
