MODEL 1
REMARK VINA RESULT: -7.218061380      0.000      0.000
REMARK  14 active torsions:
REMARK  status: ('A' for Active; 'I' for Inactive)
REMARK    1  A    between atoms: C2_2  and  C3_3 
REMARK    2  A    between atoms: C3_3  and  C4_4 
REMARK    3  A    between atoms: C4_4  and  N1_5 
REMARK    4  A    between atoms: C4_4  and  C20_34 
REMARK    5  A    between atoms: C6_10  and  N3_11 
REMARK    6  A    between atoms: N3_11  and  C7_13 
REMARK    7  A    between atoms: C7_13  and  C8_14 
REMARK    8  A    between atoms: C8_14  and  C9_15 
REMARK    9  A    between atoms: C9_15  and  C10_16 
REMARK   10  A    between atoms: C12_20  and  N5_21 
REMARK   11  A    between atoms: N5_21  and  C13_23 
REMARK   12  A    between atoms: C13_23  and  C14_24 
REMARK       I    between atoms: C20_34  and  N7_36 
REMARK   13  A    between atoms: N7_36  and  C21_38 
REMARK   14  A    between atoms: C21_38  and  C22_39 
ROOT
HETATM    1  N1  UNL     1      39.107  21.790  37.392  1.00  0.00    -0.211 N 
ATOM      2  H1  UNL     1      39.565  21.455  38.238  1.00  0.00     0.178 HD
HETATM    3  C5  UNL     1      37.938  21.318  37.205  1.00  0.00     0.708 A 
HETATM    4  N2  UNL     1      37.390  20.438  38.096  1.00  0.00    -0.021 N 
ATOM      5  H2  UNL     1      37.940  20.173  38.913  1.00  0.00     0.203 HD
HETATM    6  C6  UNL     1      36.172  19.907  37.957  1.00  0.00     0.707 A 
HETATM    7  N4  UNL     1      35.421  20.235  36.895  1.00  0.00    -0.022 N 
ATOM      8  H4  UNL     1      34.489  19.840  36.770  1.00  0.00     0.203 HD
HETATM    9  C12 UNL     1      35.937  21.107  35.991  1.00  0.00     0.707 A 
HETATM   10  N6  UNL     1      37.185  21.641  36.150  1.00  0.00    -0.021 N 
ATOM     11  H6  UNL     1      37.545  22.295  35.455  1.00  0.00     0.203 HD
ENDROOT
BRANCH   1  12
HETATM   12  C4  UNL     1      39.872  22.690  36.637  1.00  0.00     0.195 C 
BRANCH  12  13
HETATM   13  C3  UNL     1      39.770  24.131  37.100  1.00  0.00     0.061 C 
BRANCH  13  14
HETATM   14  C2  UNL     1      39.794  24.230  38.581  1.00  0.00    -0.034 C 
HETATM   15  C1  UNL     1      39.795  25.377  39.234  1.00  0.00     0.007 C 
ENDBRANCH  13  14
ENDBRANCH  12  13
BRANCH  12  16
HETATM   16  C20 UNL     1      41.294  22.242  36.600  1.00  0.00     0.241 C 
HETATM   17  O1  UNL     1      41.647  21.379  37.445  1.00  0.00    -0.271 OA
HETATM   18  N7  UNL     1      42.236  22.726  35.689  1.00  0.00    -0.358 N 
ATOM     19  H7  UNL     1      41.958  23.426  35.002  1.00  0.00     0.162 HD
BRANCH  18  20
HETATM   20  C21 UNL     1      43.594  22.249  35.707  1.00  0.00     0.137 C 
BRANCH  20  21
HETATM   21  C22 UNL     1      44.001  21.669  34.358  1.00  0.00     0.134 C 
HETATM   22 CL3  UNL     1      44.171  22.951  33.141  1.00  0.00    -0.129 Cl
ENDBRANCH  20  21
ENDBRANCH  18  20
ENDBRANCH  12  16
ENDBRANCH   1  12
BRANCH   6  23
HETATM   23  N3  UNL     1      35.714  19.069  38.855  1.00  0.00    -0.225 N 
ATOM     24  H3  UNL     1      36.134  19.024  39.784  1.00  0.00     0.177 HD
BRANCH  23  25
HETATM   25  C7  UNL     1      34.601  18.205  38.507  1.00  0.00     0.138 C 
BRANCH  25  26
HETATM   26  C8  UNL     1      33.463  18.555  39.423  1.00  0.00     0.020 C 
BRANCH  26  27
HETATM   27  C9  UNL     1      34.012  18.835  40.792  1.00  0.00     0.001 C 
BRANCH  27  28
HETATM   28  C10 UNL     1      33.706  17.680  41.719  1.00  0.00    -0.004 C 
HETATM   29  C11 UNL     1      34.986  17.348  42.485  1.00  0.00     0.005 C 
ENDBRANCH  27  28
ENDBRANCH  26  27
ENDBRANCH  25  26
ENDBRANCH  23  25
ENDBRANCH   6  23
BRANCH   9  30
HETATM   30  N5  UNL     1      35.255  21.449  34.958  1.00  0.00    -0.221 N 
ATOM     31  H5  UNL     1      34.544  22.176  35.034  1.00  0.00     0.178 HD
BRANCH  30  32
HETATM   32  C13 UNL     1      35.494  20.804  33.692  1.00  0.00     0.178 C 
BRANCH  32  33
HETATM   33  C14 UNL     1      34.501  21.333  32.717  1.00  0.00    -0.018 A 
HETATM   34  C15 UNL     1      33.947  22.587  32.826  1.00  0.00     0.012 A 
HETATM   35  C16 UNL     1      33.033  23.006  31.886  1.00  0.00     0.024 A 
HETATM   36  C17 UNL     1      32.639  22.217  30.822  1.00  0.00     0.035 A 
HETATM   37 CL1  UNL     1      31.475  22.769  29.637  1.00  0.00    -0.084 Cl
HETATM   38  C18 UNL     1      33.208  20.968  30.736  1.00  0.00     0.048 A 
HETATM   39  C19 UNL     1      34.115  20.534  31.658  1.00  0.00     0.043 A 
HETATM   40 CL2  UNL     1      34.812  18.920  31.494  1.00  0.00    -0.084 Cl
ENDBRANCH  32  33
ENDBRANCH  30  32
ENDBRANCH   9  30
TORSDOF 14
ENDMDL
MODEL 2
REMARK VINA RESULT: -7.206343362      4.148      6.519
REMARK  14 active torsions:
REMARK  status: ('A' for Active; 'I' for Inactive)
REMARK    1  A    between atoms: C2_2  and  C3_3 
REMARK    2  A    between atoms: C3_3  and  C4_4 
REMARK    3  A    between atoms: C4_4  and  N1_5 
REMARK    4  A    between atoms: C4_4  and  C20_34 
REMARK    5  A    between atoms: C6_10  and  N3_11 
REMARK    6  A    between atoms: N3_11  and  C7_13 
REMARK    7  A    between atoms: C7_13  and  C8_14 
REMARK    8  A    between atoms: C8_14  and  C9_15 
REMARK    9  A    between atoms: C9_15  and  C10_16 
REMARK   10  A    between atoms: C12_20  and  N5_21 
REMARK   11  A    between atoms: N5_21  and  C13_23 
REMARK   12  A    between atoms: C13_23  and  C14_24 
REMARK       I    between atoms: C20_34  and  N7_36 
REMARK   13  A    between atoms: N7_36  and  C21_38 
REMARK   14  A    between atoms: C21_38  and  C22_39 
ROOT
HETATM    1  N1  UNL     1      38.326  22.278  37.026  1.00  0.00    -0.211 N 
ATOM      2  H1  UNL     1      37.559  22.811  36.617  1.00  0.00     0.178 HD
HETATM    3  C5  UNL     1      37.988  21.138  37.484  1.00  0.00     0.708 A 
HETATM    4  N2  UNL     1      36.691  20.712  37.408  1.00  0.00    -0.021 N 
ATOM      5  H2  UNL     1      36.005  21.329  36.974  1.00  0.00     0.203 HD
HETATM    6  C6  UNL     1      36.273  19.530  37.870  1.00  0.00     0.707 A 
HETATM    7  N4  UNL     1      37.150  18.694  38.446  1.00  0.00    -0.022 N 
ATOM      8  H4  UNL     1      36.851  17.788  38.806  1.00  0.00     0.203 HD
HETATM    9  C12 UNL     1      38.446  19.088  38.537  1.00  0.00     0.707 A 
HETATM   10  N6  UNL     1      38.856  20.301  38.057  1.00  0.00    -0.021 N 
ATOM     11  H6  UNL     1      39.837  20.569  38.139  1.00  0.00     0.203 HD
ENDROOT
BRANCH   1  12
HETATM   12  C4  UNL     1      39.568  22.928  36.986  1.00  0.00     0.195 C 
BRANCH  12  13
HETATM   13  C3  UNL     1      39.880  23.744  38.226  1.00  0.00     0.061 C 
BRANCH  13  14
HETATM   14  C2  UNL     1      39.418  25.148  38.085  1.00  0.00    -0.034 C 
HETATM   15  C1  UNL     1      39.766  26.115  38.912  1.00  0.00     0.007 C 
ENDBRANCH  13  14
ENDBRANCH  12  13
BRANCH  12  16
HETATM   16  C20 UNL     1      40.650  21.939  36.713  1.00  0.00     0.241 C 
HETATM   17  O1  UNL     1      41.421  21.653  37.666  1.00  0.00    -0.271 OA
HETATM   18  N7  UNL     1      40.846  21.326  35.474  1.00  0.00    -0.358 N 
ATOM     19  H7  UNL     1      40.226  21.553  34.696  1.00  0.00     0.162 HD
BRANCH  18  20
HETATM   20  C21 UNL     1      41.911  20.378  35.278  1.00  0.00     0.137 C 
BRANCH  20  21
HETATM   21  C22 UNL     1      43.058  20.983  34.479  1.00  0.00     0.134 C 
HETATM   22 CL3  UNL     1      44.121  21.949  35.523  1.00  0.00    -0.129 Cl
ENDBRANCH  20  21
ENDBRANCH  18  20
ENDBRANCH  12  16
ENDBRANCH   1  12
BRANCH   6  23
HETATM   23  N3  UNL     1      35.011  19.191  37.761  1.00  0.00    -0.225 N 
ATOM     24  H3  UNL     1      34.405  19.660  37.088  1.00  0.00     0.177 HD
BRANCH  23  25
HETATM   25  C7  UNL     1      34.490  18.139  38.615  1.00  0.00     0.138 C 
BRANCH  25  26
HETATM   26  C8  UNL     1      33.349  18.725  39.397  1.00  0.00     0.020 C 
BRANCH  26  27
HETATM   27  C9  UNL     1      33.724  18.756  40.850  1.00  0.00     0.001 C 
BRANCH  27  28
HETATM   28  C10 UNL     1      34.984  17.949  41.077  1.00  0.00    -0.004 C 
HETATM   29  C11 UNL     1      34.846  17.243  42.425  1.00  0.00     0.005 C 
ENDBRANCH  27  28
ENDBRANCH  26  27
ENDBRANCH  25  26
ENDBRANCH  23  25
ENDBRANCH   6  23
BRANCH   9  30
HETATM   30  N5  UNL     1      39.320  18.321  39.082  1.00  0.00    -0.221 N 
ATOM     31  H5  UNL     1      40.051  18.719  39.671  1.00  0.00     0.178 HD
BRANCH  30  32
HETATM   32  C13 UNL     1      39.267  16.899  38.861  1.00  0.00     0.178 C 
BRANCH  32  33
HETATM   33  C14 UNL     1      40.648  16.436  38.551  1.00  0.00    -0.018 A 
HETATM   34  C15 UNL     1      41.490  15.914  39.505  1.00  0.00     0.012 A 
HETATM   35  C16 UNL     1      42.755  15.509  39.142  1.00  0.00     0.024 A 
HETATM   36  C17 UNL     1      43.226  15.602  37.846  1.00  0.00     0.035 A 
HETATM   37 CL1  UNL     1      44.838  15.080  37.405  1.00  0.00    -0.084 Cl
HETATM   38  C18 UNL     1      42.365  16.127  36.912  1.00  0.00     0.048 A 
HETATM   39  C19 UNL     1      41.108  16.535  37.251  1.00  0.00     0.043 A 
HETATM   40 CL2  UNL     1      40.047  17.200  36.007  1.00  0.00    -0.084 Cl
ENDBRANCH  32  33
ENDBRANCH  30  32
ENDBRANCH   9  30
TORSDOF 14
ENDMDL
MODEL 3
REMARK VINA RESULT: -7.197283115      1.464      1.991
REMARK  14 active torsions:
REMARK  status: ('A' for Active; 'I' for Inactive)
REMARK    1  A    between atoms: C2_2  and  C3_3 
REMARK    2  A    between atoms: C3_3  and  C4_4 
REMARK    3  A    between atoms: C4_4  and  N1_5 
REMARK    4  A    between atoms: C4_4  and  C20_34 
REMARK    5  A    between atoms: C6_10  and  N3_11 
REMARK    6  A    between atoms: N3_11  and  C7_13 
REMARK    7  A    between atoms: C7_13  and  C8_14 
REMARK    8  A    between atoms: C8_14  and  C9_15 
REMARK    9  A    between atoms: C9_15  and  C10_16 
REMARK   10  A    between atoms: C12_20  and  N5_21 
REMARK   11  A    between atoms: N5_21  and  C13_23 
REMARK   12  A    between atoms: C13_23  and  C14_24 
REMARK       I    between atoms: C20_34  and  N7_36 
REMARK   13  A    between atoms: N7_36  and  C21_38 
REMARK   14  A    between atoms: C21_38  and  C22_39 
ROOT
HETATM    1  N1  UNL     1      39.019  21.560  38.022  1.00  0.00    -0.211 N 
ATOM      2  H1  UNL     1      39.369  21.115  38.870  1.00  0.00     0.178 HD
HETATM    3  C5  UNL     1      37.880  21.137  37.638  1.00  0.00     0.708 A 
HETATM    4  N2  UNL     1      37.222  20.166  38.341  1.00  0.00    -0.021 N 
ATOM      5  H2  UNL     1      37.667  19.793  39.179  1.00  0.00     0.203 HD
HETATM    6  C6  UNL     1      36.029  19.679  37.990  1.00  0.00     0.707 A 
HETATM    7  N4  UNL     1      35.415  20.150  36.894  1.00  0.00    -0.022 N 
ATOM      8  H4  UNL     1      34.504  19.791  36.608  1.00  0.00     0.203 HD
HETATM    9  C12 UNL     1      36.042  21.115  36.174  1.00  0.00     0.707 A 
HETATM   10  N6  UNL     1      37.264  21.601  36.548  1.00  0.00    -0.021 N 
ATOM     11  H6  UNL     1      37.709  22.328  35.987  1.00  0.00     0.203 HD
ENDROOT
BRANCH   1  12
HETATM   12  C4  UNL     1      39.875  22.530  37.483  1.00  0.00     0.195 C 
BRANCH  12  13
HETATM   13  C3  UNL     1      40.167  23.688  38.419  1.00  0.00     0.061 C 
BRANCH  13  14
HETATM   14  C2  UNL     1      39.475  24.927  37.986  1.00  0.00    -0.034 C 
HETATM   15  C1  UNL     1      39.475  26.044  38.689  1.00  0.00     0.007 C 
ENDBRANCH  13  14
ENDBRANCH  12  13
BRANCH  12  16
HETATM   16  C20 UNL     1      41.139  21.891  37.016  1.00  0.00     0.241 C 
HETATM   17  O1  UNL     1      41.428  20.767  37.503  1.00  0.00    -0.271 OA
HETATM   18  N7  UNL     1      42.002  22.468  36.083  1.00  0.00    -0.358 N 
ATOM     19  H7  UNL     1      41.775  23.380  35.684  1.00  0.00     0.162 HD
BRANCH  18  20
HETATM   20  C21 UNL     1      43.207  21.796  35.674  1.00  0.00     0.137 C 
BRANCH  20  21
HETATM   21  C22 UNL     1      44.180  22.754  34.999  1.00  0.00     0.134 C 
HETATM   22 CL3  UNL     1      43.809  22.923  33.270  1.00  0.00    -0.129 Cl
ENDBRANCH  20  21
ENDBRANCH  18  20
ENDBRANCH  12  16
ENDBRANCH   1  12
BRANCH   6  23
HETATM   23  N3  UNL     1      35.460  18.747  38.715  1.00  0.00    -0.225 N 
ATOM     24  H3  UNL     1      35.948  18.344  39.516  1.00  0.00     0.177 HD
BRANCH  23  25
HETATM   25  C7  UNL     1      34.127  18.296  38.361  1.00  0.00     0.138 C 
BRANCH  25  26
HETATM   26  C8  UNL     1      33.229  18.603  39.527  1.00  0.00     0.020 C 
BRANCH  26  27
HETATM   27  C9  UNL     1      34.071  18.750  40.760  1.00  0.00     0.001 C 
BRANCH  27  28
HETATM   28  C10 UNL     1      33.726  17.663  41.754  1.00  0.00    -0.004 C 
HETATM   29  C11 UNL     1      34.994  17.337  42.543  1.00  0.00     0.005 C 
ENDBRANCH  27  28
ENDBRANCH  26  27
ENDBRANCH  25  26
ENDBRANCH  23  25
ENDBRANCH   6  23
BRANCH   9  30
HETATM   30  N5  UNL     1      35.494  21.593  35.116  1.00  0.00    -0.221 N 
ATOM     31  H5  UNL     1      35.522  22.597  34.936  1.00  0.00     0.178 HD
BRANCH  30  32
HETATM   32  C13 UNL     1      34.838  20.713  34.183  1.00  0.00     0.178 C 
BRANCH  32  33
HETATM   33  C14 UNL     1      35.493  20.886  32.857  1.00  0.00    -0.018 A 
HETATM   34  C15 UNL     1      36.530  20.092  32.430  1.00  0.00     0.012 A 
HETATM   35  C16 UNL     1      37.086  20.314  31.190  1.00  0.00     0.024 A 
HETATM   36  C17 UNL     1      36.646  21.312  30.342  1.00  0.00     0.035 A 
HETATM   37 CL1  UNL     1      37.366  21.578  28.768  1.00  0.00    -0.084 Cl
HETATM   38  C18 UNL     1      35.608  22.092  30.792  1.00  0.00     0.048 A 
HETATM   39  C19 UNL     1      35.044  21.888  32.018  1.00  0.00     0.043 A 
HETATM   40 CL2  UNL     1      33.712  22.922  32.542  1.00  0.00    -0.084 Cl
ENDBRANCH  32  33
ENDBRANCH  30  32
ENDBRANCH   9  30
TORSDOF 14
ENDMDL
MODEL 4
REMARK VINA RESULT: -7.172904875      5.517     10.655
REMARK  14 active torsions:
REMARK  status: ('A' for Active; 'I' for Inactive)
REMARK    1  A    between atoms: C2_2  and  C3_3 
REMARK    2  A    between atoms: C3_3  and  C4_4 
REMARK    3  A    between atoms: C4_4  and  N1_5 
REMARK    4  A    between atoms: C4_4  and  C20_34 
REMARK    5  A    between atoms: C6_10  and  N3_11 
REMARK    6  A    between atoms: N3_11  and  C7_13 
REMARK    7  A    between atoms: C7_13  and  C8_14 
REMARK    8  A    between atoms: C8_14  and  C9_15 
REMARK    9  A    between atoms: C9_15  and  C10_16 
REMARK   10  A    between atoms: C12_20  and  N5_21 
REMARK   11  A    between atoms: N5_21  and  C13_23 
REMARK   12  A    between atoms: C13_23  and  C14_24 
REMARK       I    between atoms: C20_34  and  N7_36 
REMARK   13  A    between atoms: N7_36  and  C21_38 
REMARK   14  A    between atoms: C21_38  and  C22_39 
ROOT
HETATM    1  N1  UNL     1      42.750  20.665  35.375  1.00  0.00    -0.211 N 
ATOM      2  H1  UNL     1      42.889  19.880  36.010  1.00  0.00     0.178 HD
HETATM    3  C5  UNL     1      43.821  21.115  34.852  1.00  0.00     0.708 A 
HETATM    4  N2  UNL     1      45.032  20.554  35.151  1.00  0.00    -0.021 N 
ATOM      5  H2  UNL     1      45.053  19.768  35.800  1.00  0.00     0.203 HD
HETATM    6  C6  UNL     1      46.191  20.979  34.639  1.00  0.00     0.707 A 
HETATM    7  N4  UNL     1      46.199  22.010  33.781  1.00  0.00    -0.022 N 
ATOM      8  H4  UNL     1      47.072  22.351  33.379  1.00  0.00     0.203 HD
HETATM    9  C12 UNL     1      45.012  22.589  33.463  1.00  0.00     0.707 A 
HETATM   10  N6  UNL     1      43.837  22.140  33.997  1.00  0.00    -0.021 N 
ATOM     11  H6  UNL     1      42.960  22.594  33.738  1.00  0.00     0.203 HD
ENDROOT
BRANCH   1  12
HETATM   12  C4  UNL     1      41.413  21.061  35.229  1.00  0.00     0.195 C 
BRANCH  12  13
HETATM   13  C3  UNL     1      40.470  19.934  34.852  1.00  0.00     0.061 C 
BRANCH  13  14
HETATM   14  C2  UNL     1      39.996  20.064  33.452  1.00  0.00    -0.034 C 
HETATM   15  C1  UNL     1      40.787  20.369  32.441  1.00  0.00     0.007 C 
ENDBRANCH  13  14
ENDBRANCH  12  13
BRANCH  12  16
HETATM   16  C20 UNL     1      40.949  21.752  36.467  1.00  0.00     0.241 C 
HETATM   17  O1  UNL     1      41.662  21.626  37.497  1.00  0.00    -0.271 OA
HETATM   18  N7  UNL     1      39.783  22.517  36.538  1.00  0.00    -0.358 N 
ATOM     19  H7  UNL     1      39.200  22.624  35.707  1.00  0.00     0.162 HD
BRANCH  18  20
HETATM   20  C21 UNL     1      39.393  23.159  37.765  1.00  0.00     0.137 C 
BRANCH  20  21
HETATM   21  C22 UNL     1      39.505  24.675  37.663  1.00  0.00     0.134 C 
HETATM   22 CL3  UNL     1      39.772  25.401  39.262  1.00  0.00    -0.129 Cl
ENDBRANCH  20  21
ENDBRANCH  18  20
ENDBRANCH  12  16
ENDBRANCH   1  12
BRANCH   6  23
HETATM   23  N3  UNL     1      47.313  20.391  34.974  1.00  0.00    -0.225 N 
ATOM     24  H3  UNL     1      48.008  20.883  35.536  1.00  0.00     0.177 HD
BRANCH  23  25
HETATM   25  C7  UNL     1      47.552  19.029  34.532  1.00  0.00     0.138 C 
BRANCH  25  26
HETATM   26  C8  UNL     1      48.822  19.038  33.730  1.00  0.00     0.020 C 
BRANCH  26  27
HETATM   27  C9  UNL     1      48.525  18.533  32.348  1.00  0.00     0.001 C 
BRANCH  27  28
HETATM   28  C10 UNL     1      49.196  19.417  31.319  1.00  0.00    -0.004 C 
HETATM   29  C11 UNL     1      49.206  18.658  29.993  1.00  0.00     0.005 C 
ENDBRANCH  27  28
ENDBRANCH  26  27
ENDBRANCH  25  26
ENDBRANCH  23  25
ENDBRANCH   6  23
BRANCH   9  30
HETATM   30  N5  UNL     1      44.972  23.580  32.647  1.00  0.00    -0.221 N 
ATOM     31  H5  UNL     1      45.717  24.276  32.654  1.00  0.00     0.178 HD
BRANCH  30  32
HETATM   32  C13 UNL     1      43.875  23.709  31.724  1.00  0.00     0.178 C 
BRANCH  32  33
HETATM   33  C14 UNL     1      44.372  24.437  30.525  1.00  0.00    -0.018 A 
HETATM   34  C15 UNL     1      45.678  24.847  30.392  1.00  0.00     0.012 A 
HETATM   35  C16 UNL     1      46.064  25.519  29.253  1.00  0.00     0.024 A 
HETATM   36  C17 UNL     1      45.189  25.805  28.222  1.00  0.00     0.035 A 
HETATM   37 CL1  UNL     1      45.699  26.660  26.782  1.00  0.00    -0.084 Cl
HETATM   38  C18 UNL     1      43.890  25.385  28.380  1.00  0.00     0.048 A 
HETATM   39  C19 UNL     1      43.488  24.719  29.500  1.00  0.00     0.043 A 
HETATM   40 CL2  UNL     1      41.805  24.203  29.646  1.00  0.00    -0.084 Cl
ENDBRANCH  32  33
ENDBRANCH  30  32
ENDBRANCH   9  30
TORSDOF 14
ENDMDL
MODEL 5
REMARK VINA RESULT: -7.018459887      1.025      1.416
REMARK  14 active torsions:
REMARK  status: ('A' for Active; 'I' for Inactive)
REMARK    1  A    between atoms: C2_2  and  C3_3 
REMARK    2  A    between atoms: C3_3  and  C4_4 
REMARK    3  A    between atoms: C4_4  and  N1_5 
REMARK    4  A    between atoms: C4_4  and  C20_34 
REMARK    5  A    between atoms: C6_10  and  N3_11 
REMARK    6  A    between atoms: N3_11  and  C7_13 
REMARK    7  A    between atoms: C7_13  and  C8_14 
REMARK    8  A    between atoms: C8_14  and  C9_15 
REMARK    9  A    between atoms: C9_15  and  C10_16 
REMARK   10  A    between atoms: C12_20  and  N5_21 
REMARK   11  A    between atoms: N5_21  and  C13_23 
REMARK   12  A    between atoms: C13_23  and  C14_24 
REMARK       I    between atoms: C20_34  and  N7_36 
REMARK   13  A    between atoms: N7_36  and  C21_38 
REMARK   14  A    between atoms: C21_38  and  C22_39 
ROOT
HETATM    1  N1  UNL     1      38.928  21.820  37.528  1.00  0.00    -0.211 N 
ATOM      2  H1  UNL     1      39.309  21.702  38.466  1.00  0.00     0.178 HD
HETATM    3  C5  UNL     1      37.853  21.172  37.312  1.00  0.00     0.708 A 
HETATM    4  N2  UNL     1      37.296  20.397  38.291  1.00  0.00    -0.021 N 
ATOM      5  H2  UNL     1      37.763  20.354  39.196  1.00  0.00     0.203 HD
HETATM    6  C6  UNL     1      36.173  19.693  38.127  1.00  0.00     0.707 A 
HETATM    7  N4  UNL     1      35.532  19.728  36.949  1.00  0.00    -0.022 N 
ATOM      8  H4  UNL     1      34.673  19.197  36.803  1.00  0.00     0.203 HD
HETATM    9  C12 UNL     1      36.059  20.489  35.956  1.00  0.00     0.707 A 
HETATM   10  N6  UNL     1      37.210  21.203  36.142  1.00  0.00    -0.021 N 
ATOM     11  H6  UNL     1      37.581  21.767  35.377  1.00  0.00     0.203 HD
ENDROOT
BRANCH   1  12
HETATM   12  C4  UNL     1      39.679  22.668  36.702  1.00  0.00     0.195 C 
BRANCH  12  13
HETATM   13  C3  UNL     1      39.574  24.138  37.063  1.00  0.00     0.061 C 
BRANCH  13  14
HETATM   14  C2  UNL     1      39.767  24.357  38.518  1.00  0.00    -0.034 C 
HETATM   15  C1  UNL     1      39.656  25.537  39.098  1.00  0.00     0.007 C 
ENDBRANCH  13  14
ENDBRANCH  12  13
BRANCH  12  16
HETATM   16  C20 UNL     1      41.103  22.226  36.679  1.00  0.00     0.241 C 
HETATM   17  O1  UNL     1      41.476  21.441  37.589  1.00  0.00    -0.271 OA
HETATM   18  N7  UNL     1      42.026  22.633  35.713  1.00  0.00    -0.358 N 
ATOM     19  H7  UNL     1      41.732  23.269  34.973  1.00  0.00     0.162 HD
BRANCH  18  20
HETATM   20  C21 UNL     1      43.387  22.167  35.749  1.00  0.00     0.137 C 
BRANCH  20  21
HETATM   21  C22 UNL     1      43.836  21.647  34.389  1.00  0.00     0.134 C 
HETATM   22 CL3  UNL     1      43.721  22.917  33.153  1.00  0.00    -0.129 Cl
ENDBRANCH  20  21
ENDBRANCH  18  20
ENDBRANCH  12  16
ENDBRANCH   1  12
BRANCH   6  23
HETATM   23  N3  UNL     1      35.700  18.971  39.114  1.00  0.00    -0.225 N 
ATOM     24  H3  UNL     1      35.968  19.172  40.078  1.00  0.00     0.177 HD
BRANCH  23  25
HETATM   25  C7  UNL     1      34.790  17.881  38.814  1.00  0.00     0.138 C 
BRANCH  25  26
HETATM   26  C8  UNL     1      33.486  18.189  39.496  1.00  0.00     0.020 C 
BRANCH  26  27
HETATM   27  C9  UNL     1      33.773  18.731  40.866  1.00  0.00     0.001 C 
BRANCH  27  28
HETATM   28  C10 UNL     1      33.619  17.636  41.899  1.00  0.00    -0.004 C 
HETATM   29  C11 UNL     1      34.998  17.370  42.502  1.00  0.00     0.005 C 
ENDBRANCH  27  28
ENDBRANCH  26  27
ENDBRANCH  25  26
ENDBRANCH  23  25
ENDBRANCH   6  23
BRANCH   9  30
HETATM   30  N5  UNL     1      35.482  20.551  34.811  1.00  0.00    -0.221 N 
ATOM     31  H5  UNL     1      35.309  19.697  34.280  1.00  0.00     0.178 HD
BRANCH  30  32
HETATM   32  C13 UNL     1      35.078  21.826  34.276  1.00  0.00     0.178 C 
BRANCH  32  33
HETATM   33  C14 UNL     1      34.558  21.598  32.900  1.00  0.00    -0.018 A 
HETATM   34  C15 UNL     1      34.434  20.344  32.350  1.00  0.00     0.012 A 
HETATM   35  C16 UNL     1      33.947  20.212  31.068  1.00  0.00     0.024 A 
HETATM   36  C17 UNL     1      33.571  21.295  30.297  1.00  0.00     0.035 A 
HETATM   37 CL1  UNL     1      32.953  21.108  28.670  1.00  0.00    -0.084 Cl
HETATM   38  C18 UNL     1      33.705  22.538  30.870  1.00  0.00     0.048 A 
HETATM   39  C19 UNL     1      34.186  22.689  32.138  1.00  0.00     0.043 A 
HETATM   40 CL2  UNL     1      34.335  24.311  32.821  1.00  0.00    -0.084 Cl
ENDBRANCH  32  33
ENDBRANCH  30  32
ENDBRANCH   9  30
TORSDOF 14
ENDMDL
