MODEL 1
REMARK VINA RESULT: -5.102346824      0.000      0.000
REMARK  2 active torsions:
REMARK  status: ('A' for Active; 'I' for Inactive)
REMARK    1  A    between atoms: C3_3  and  C4_4 
REMARK    2  A    between atoms: C5_6  and  N1_8 
ROOT
HETATM    1  C1  UNL     1       9.752  33.710  25.832  1.00  0.00     0.012 C 
HETATM    2  C2  UNL     1       9.689  32.762  25.086  1.00  0.00    -0.115 C 
HETATM    3  C3  UNL     1       9.623  31.585  24.189  1.00  0.00     0.130 C 
ENDROOT
BRANCH   3   4
HETATM    4  C4  UNL     1      10.713  30.603  24.537  1.00  0.00     0.198 A 
HETATM    5  O1  UNL     1      10.140  29.258  24.738  1.00  0.00    -0.342 OA
HETATM    6  C5  UNL     1      11.144  29.524  23.732  1.00  0.00     0.248 A 
HETATM    7  C6  UNL     1      10.638  29.188  22.358  1.00  0.00     0.081 C 
BRANCH   6   8
HETATM    8  N1  UNL     1      12.412  28.885  24.038  1.00  0.00    -0.045 N 
ATOM      9  H13 UNL     1      12.271  27.876  24.081  1.00  0.00     0.278 HD
ATOM     10  H12 UNL     1      13.025  28.965  23.227  1.00  0.00     0.278 HD
ATOM     11  H11 UNL     1      12.924  29.182  24.869  1.00  0.00     0.278 HD
ENDBRANCH   6   8
ENDBRANCH   3   4
TORSDOF 2
ENDMDL
MODEL 2
REMARK VINA RESULT: -5.060775839      2.104      2.156
REMARK  2 active torsions:
REMARK  status: ('A' for Active; 'I' for Inactive)
REMARK    1  A    between atoms: C3_3  and  C4_4 
REMARK    2  A    between atoms: C5_6  and  N1_8 
ROOT
HETATM    1  C1  UNL     1       7.790  33.843  24.980  1.00  0.00     0.012 C 
HETATM    2  C2  UNL     1       8.486  32.927  24.612  1.00  0.00    -0.115 C 
HETATM    3  C3  UNL     1       9.334  31.792  24.181  1.00  0.00     0.130 C 
ENDROOT
BRANCH   3   4
HETATM    4  C4  UNL     1       9.832  31.028  25.383  1.00  0.00     0.198 A 
HETATM    5  O1  UNL     1      10.348  29.710  24.968  1.00  0.00    -0.342 OA
HETATM    6  C5  UNL     1      11.177  30.682  25.645  1.00  0.00     0.248 A 
HETATM    7  C6  UNL     1      12.366  31.057  24.807  1.00  0.00     0.081 C 
BRANCH   6   8
HETATM    8  N1  UNL     1      11.541  30.257  26.985  1.00  0.00    -0.045 N 
ATOM      9  H13 UNL     1      12.557  30.271  27.070  1.00  0.00     0.278 HD
ATOM     10  H12 UNL     1      11.277  30.987  27.646  1.00  0.00     0.278 HD
ATOM     11  H11 UNL     1      11.194  29.361  27.328  1.00  0.00     0.278 HD
ENDBRANCH   6   8
ENDBRANCH   3   4
TORSDOF 2
ENDMDL
MODEL 3
REMARK VINA RESULT: -5.049566385      1.456      1.744
REMARK  2 active torsions:
REMARK  status: ('A' for Active; 'I' for Inactive)
REMARK    1  A    between atoms: C3_3  and  C4_4 
REMARK    2  A    between atoms: C5_6  and  N1_8 
ROOT
HETATM    1  C1  UNL     1       9.210  32.452  24.585  1.00  0.00     0.012 C 
HETATM    2  C2  UNL     1       9.545  31.320  24.326  1.00  0.00    -0.115 C 
HETATM    3  C3  UNL     1       9.978  29.938  24.017  1.00  0.00     0.130 C 
ENDROOT
BRANCH   3   4
HETATM    4  C4  UNL     1      11.432  29.926  23.615  1.00  0.00     0.198 A 
HETATM    5  O1  UNL     1      12.050  28.638  23.985  1.00  0.00    -0.342 OA
HETATM    6  C5  UNL     1      12.009  29.107  22.618  1.00  0.00     0.248 A 
HETATM    7  C6  UNL     1      11.275  28.139  21.734  1.00  0.00     0.081 C 
BRANCH   6   8
HETATM    8  N1  UNL     1      13.328  29.444  22.112  1.00  0.00    -0.045 N 
ATOM      9  H13 UNL     1      13.870  28.588  22.009  1.00  0.00     0.278 HD
ATOM     10  H12 UNL     1      13.242  29.742  21.140  1.00  0.00     0.278 HD
ATOM     11  H11 UNL     1      13.888  30.130  22.618  1.00  0.00     0.278 HD
ENDBRANCH   6   8
ENDBRANCH   3   4
TORSDOF 2
ENDMDL
MODEL 4
REMARK VINA RESULT: -5.048397194      1.626      1.745
REMARK  2 active torsions:
REMARK  status: ('A' for Active; 'I' for Inactive)
REMARK    1  A    between atoms: C3_3  and  C4_4 
REMARK    2  A    between atoms: C5_6  and  N1_8 
ROOT
HETATM    1  C1  UNL     1      10.717  33.479  26.065  1.00  0.00     0.012 C 
HETATM    2  C2  UNL     1      10.557  32.473  25.417  1.00  0.00    -0.115 C 
HETATM    3  C3  UNL     1      10.365  31.224  24.643  1.00  0.00     0.130 C 
ENDROOT
BRANCH   3   4
HETATM    4  C4  UNL     1      11.199  30.114  25.231  1.00  0.00     0.198 A 
HETATM    5  O1  UNL     1      11.451  29.075  24.214  1.00  0.00    -0.342 OA
HETATM    6  C5  UNL     1      12.525  29.791  24.865  1.00  0.00     0.248 A 
HETATM    7  C6  UNL     1      13.371  30.527  23.865  1.00  0.00     0.081 C 
BRANCH   6   8
HETATM    8  N1  UNL     1      13.305  28.935  25.742  1.00  0.00    -0.045 N 
ATOM      9  H13 UNL     1      13.266  29.311  26.689  1.00  0.00     0.278 HD
ATOM     10  H12 UNL     1      12.813  28.049  25.861  1.00  0.00     0.278 HD
ATOM     11  H11 UNL     1      14.277  28.742  25.503  1.00  0.00     0.278 HD
ENDBRANCH   6   8
ENDBRANCH   3   4
TORSDOF 2
ENDMDL
MODEL 5
REMARK VINA RESULT: -4.951204771      2.082      4.388
REMARK  2 active torsions:
REMARK  status: ('A' for Active; 'I' for Inactive)
REMARK    1  A    between atoms: C3_3  and  C4_4 
REMARK    2  A    between atoms: C5_6  and  N1_8 
ROOT
HETATM    1  C1  UNL     1      11.875  27.258  21.111  1.00  0.00     0.012 C 
HETATM    2  C2  UNL     1      11.976  27.976  22.076  1.00  0.00    -0.115 C 
HETATM    3  C3  UNL     1      12.076  28.856  23.264  1.00  0.00     0.130 C 
ENDROOT
BRANCH   3   4
HETATM    4  C4  UNL     1      10.799  29.640  23.440  1.00  0.00     0.198 A 
HETATM    5  O1  UNL     1      10.269  29.447  24.803  1.00  0.00    -0.342 OA
HETATM    6  C5  UNL     1      10.621  30.753  24.293  1.00  0.00     0.248 A 
HETATM    7  C6  UNL     1      11.682  31.398  25.139  1.00  0.00     0.081 C 
BRANCH   6   8
HETATM    8  N1  UNL     1       9.458  31.601  24.103  1.00  0.00    -0.045 N 
ATOM      9  H13 UNL     1       9.763  32.499  23.728  1.00  0.00     0.278 HD
ATOM     10  H12 UNL     1       8.908  31.238  23.324  1.00  0.00     0.278 HD
ATOM     11  H11 UNL     1       8.837  31.768  24.894  1.00  0.00     0.278 HD
ENDBRANCH   6   8
ENDBRANCH   3   4
TORSDOF 2
ENDMDL
