MODEL 1
REMARK VINA RESULT: -9.342085910      0.000      0.000
REMARK  18 active torsions:
REMARK  status: ('A' for Active; 'I' for Inactive)
REMARK    1  A    between atoms: C3_3  and  N1_4 
REMARK    2  A    between atoms: N1_4  and  C4_5 
REMARK    3  A    between atoms: N1_4  and  C26_45 
REMARK    4  A    between atoms: C4_5  and  C5_6 
REMARK    5  A    between atoms: C8_9  and  C9_10 
REMARK    6  A    between atoms: C9_10  and  N2_11 
REMARK    7  A    between atoms: C9_10  and  C10_15 
REMARK       I    between atoms: C10_15  and  N3_17 
REMARK    8  A    between atoms: N3_17  and  C11_18 
REMARK    9  A    between atoms: C11_18  and  C12_19 
REMARK   10  A    between atoms: C12_19  and  N4_20 
REMARK   11  A    between atoms: C13_22  and  C14_23 
REMARK   12  A    between atoms: C13_22  and  C17_28 
REMARK   13  A    between atoms: C14_23  and  C15_24 
REMARK   14  A    between atoms: C15_24  and  C16_25 
REMARK   15  A    between atoms: C17_28  and  O4_29 
REMARK   16  A    between atoms: O4_29  and  C18_30 
REMARK   17  A    between atoms: N5_38  and  N6_40 
REMARK   18  A    between atoms: C26_45  and  C27_46 
ROOT
HETATM    1  C1  UNL     1      35.100 -11.123   0.232  1.00  0.00     0.013 C 
HETATM    2  C2  UNL     1      35.494 -10.248   0.954  1.00  0.00    -0.087 C 
HETATM    3  C3  UNL     1      35.920  -9.179   1.817  1.00  0.00     0.365 C 
ENDROOT
BRANCH   3   4
HETATM    4  N1  UNL     1      36.354  -9.504   3.132  1.00  0.00     0.107 N 
BRANCH   4   5
HETATM    5  C4  UNL     1      36.496  -8.243   3.888  1.00  0.00     0.312 C 
BRANCH   5   6
HETATM    6  C5  UNL     1      36.951  -7.084   3.132  1.00  0.00    -0.030 A 
HETATM    7  C6  UNL     1      37.934  -7.201   2.145  1.00  0.00     0.009 A 
HETATM    8  C7  UNL     1      38.360  -6.164   1.357  1.00  0.00     0.010 A 
HETATM    9  C8  UNL     1      37.809  -4.872   1.502  1.00  0.00    -0.018 A 
HETATM   10  C24 UNL     1      36.857  -4.746   2.463  1.00  0.00     0.010 A 
HETATM   11  C25 UNL     1      36.425  -5.810   3.266  1.00  0.00     0.009 A 
BRANCH   9  12
HETATM   12  C9  UNL     1      38.216  -3.816   0.565  1.00  0.00     0.322 C 
BRANCH  12  13
HETATM   13  N2  UNL     1      38.175  -2.510   1.213  1.00  0.00    -0.061 N 
ATOM     14  H23 UNL     1      37.440  -1.919   0.825  1.00  0.00     0.275 HD
ATOM     15  H22 UNL     1      37.831  -2.574   2.170  1.00  0.00     0.275 HD
ATOM     16  H21 UNL     1      39.087  -2.058   1.168  1.00  0.00     0.275 HD
ENDBRANCH  12  13
BRANCH  12  17
HETATM   17  C10 UNL     1      37.541  -3.790  -0.781  1.00  0.00     0.322 C 
HETATM   18  O1  UNL     1      38.363  -4.105  -1.724  1.00  0.00    -0.255 OA
HETATM   19  N3  UNL     1      36.266  -3.484  -0.923  1.00  0.00    -0.406 NA
BRANCH  19  20
HETATM   20  C11 UNL     1      34.898  -3.158  -1.087  1.00  0.00     0.299 C 
BRANCH  20  21
HETATM   21  C12 UNL     1      34.064  -4.468  -1.180  1.00  0.00     0.126 C 
HETATM   22  N5  UNL     1      33.059  -4.581  -0.501  1.00  0.00    -0.293 N 
ATOM     23  H5  UNL     1      32.643  -5.494  -0.685  1.00  0.00     0.187 HD
BRANCH  21  24
HETATM   24  N4  UNL     1      34.546  -5.451  -2.016  1.00  0.00    -0.348 N 
HETATM   25  C13 UNL     1      34.517  -6.617  -2.300  1.00  0.00     0.013 C 
ATOM     26  H4  UNL     1      35.195  -5.003  -2.663  1.00  0.00     0.167 HD
BRANCH  25  27
HETATM   27  C14 UNL     1      33.756  -7.755  -1.712  1.00  0.00     0.065 C 
BRANCH  27  28
HETATM   28  C15 UNL     1      33.297  -8.784  -2.693  1.00  0.00     0.119 C 
BRANCH  28  29
HETATM   29  C16 UNL     1      31.983  -9.349  -2.142  1.00  0.00     0.172 C 
HETATM   30  O2  UNL     1      30.884  -9.168  -2.662  1.00  0.00    -0.648 OA
HETATM   31  O3  UNL     1      32.083 -10.123  -0.968  1.00  0.00    -0.648 OA
ENDBRANCH  28  29
ENDBRANCH  27  28
ENDBRANCH  25  27
BRANCH  25  32
HETATM   32  C17 UNL     1      35.365  -7.064  -3.520  1.00  0.00     0.228 C 
BRANCH  32  33
HETATM   33  O4  UNL     1      36.555  -6.342  -3.481  1.00  0.00    -0.343 OA
BRANCH  33  34
HETATM   34  C18 UNL     1      37.504  -6.184  -4.459  1.00  0.00     0.107 A 
HETATM   35  C19 UNL     1      38.330  -7.153  -4.925  1.00  0.00     0.043 A 
HETATM   36  C20 UNL     1      39.264  -6.883  -5.931  1.00  0.00     0.045 A 
HETATM   37  C21 UNL     1      39.404  -5.646  -6.500  1.00  0.00     0.119 A 
HETATM   38  F1  UNL     1      40.312  -5.395  -7.479  1.00  0.00    -0.206 F 
HETATM   39  C22 UNL     1      38.555  -4.647  -6.018  1.00  0.00     0.087 A 
HETATM   40  C23 UNL     1      37.641  -4.917  -5.032  1.00  0.00     0.152 A 
HETATM   41  F2  UNL     1      36.850  -3.913  -4.620  1.00  0.00    -0.203 F 
ENDBRANCH  33  34
ENDBRANCH  32  33
ENDBRANCH  25  32
ENDBRANCH  21  24
BRANCH  22  42
HETATM   42  N6  UNL     1      32.305  -3.943   0.396  1.00  0.00    -0.344 N 
ATOM     43  H62 UNL     1      32.887  -3.793   1.220  1.00  0.00     0.176 HD
ATOM     44  H61 UNL     1      31.372  -3.559   0.548  1.00  0.00     0.176 HD
ENDBRANCH  22  42
ENDBRANCH  20  21
ENDBRANCH  19  20
ENDBRANCH  12  17
ENDBRANCH   9  12
ENDBRANCH   5   6
ENDBRANCH   4   5
BRANCH   4  45
HETATM   45  C26 UNL     1      35.450 -10.258   3.949  1.00  0.00     0.312 C 
BRANCH  45  46
HETATM   46  C27 UNL     1      35.936 -11.387   4.726  1.00  0.00    -0.028 A 
HETATM   47  C28 UNL     1      35.110 -12.329   5.272  1.00  0.00     0.011 A 
HETATM   48  C29 UNL     1      35.685 -13.389   5.954  1.00  0.00     0.032 A 
HETATM   49  C30 UNL     1      37.061 -13.520   6.091  1.00  0.00     0.063 A 
HETATM   50  N7  UNL     1      37.883 -14.436   6.675  1.00  0.00    -0.307 N 
HETATM   51  C32 UNL     1      37.858 -12.559   5.530  1.00  0.00     0.063 A 
HETATM   52  C31 UNL     1      39.168 -14.069   6.500  1.00  0.00     0.325 A 
ATOM     53  H7  UNL     1      37.573 -15.273   7.168  1.00  0.00     0.170 HD
HETATM   54  O5  UNL     1      40.230 -14.630   6.887  1.00  0.00    -0.247 OA
HETATM   55  N8  UNL     1      39.149 -12.919   5.798  1.00  0.00    -0.306 N 
ATOM     56  H8  UNL     1      39.975 -12.395   5.509  1.00  0.00     0.170 HD
HETATM   57  C33 UNL     1      37.315 -11.509   4.862  1.00  0.00     0.040 A 
ENDBRANCH  45  46
ENDBRANCH   4  45
ENDBRANCH   3   4
TORSDOF 18
ENDMDL
MODEL 2
REMARK VINA RESULT: -9.235908704      3.533      5.650
REMARK  18 active torsions:
REMARK  status: ('A' for Active; 'I' for Inactive)
REMARK    1  A    between atoms: C3_3  and  N1_4 
REMARK    2  A    between atoms: N1_4  and  C4_5 
REMARK    3  A    between atoms: N1_4  and  C26_45 
REMARK    4  A    between atoms: C4_5  and  C5_6 
REMARK    5  A    between atoms: C8_9  and  C9_10 
REMARK    6  A    between atoms: C9_10  and  N2_11 
REMARK    7  A    between atoms: C9_10  and  C10_15 
REMARK       I    between atoms: C10_15  and  N3_17 
REMARK    8  A    between atoms: N3_17  and  C11_18 
REMARK    9  A    between atoms: C11_18  and  C12_19 
REMARK   10  A    between atoms: C12_19  and  N4_20 
REMARK   11  A    between atoms: C13_22  and  C14_23 
REMARK   12  A    between atoms: C13_22  and  C17_28 
REMARK   13  A    between atoms: C14_23  and  C15_24 
REMARK   14  A    between atoms: C15_24  and  C16_25 
REMARK   15  A    between atoms: C17_28  and  O4_29 
REMARK   16  A    between atoms: O4_29  and  C18_30 
REMARK   17  A    between atoms: N5_38  and  N6_40 
REMARK   18  A    between atoms: C26_45  and  C27_46 
ROOT
HETATM    1  C1  UNL     1      39.113 -11.999   6.813  1.00  0.00     0.013 C 
HETATM    2  C2  UNL     1      38.219 -11.997   6.011  1.00  0.00    -0.087 C 
HETATM    3  C3  UNL     1      37.159 -12.044   5.039  1.00  0.00     0.365 C 
ENDROOT
BRANCH   3   4
HETATM    4  N1  UNL     1      35.822 -11.858   5.488  1.00  0.00     0.107 N 
BRANCH   4   5
HETATM    5  C4  UNL     1      35.021 -11.378   4.343  1.00  0.00     0.312 C 
BRANCH   5   6
HETATM    6  C5  UNL     1      35.580 -10.266   3.584  1.00  0.00    -0.030 A 
HETATM    7  C6  UNL     1      35.822  -9.027   4.184  1.00  0.00     0.009 A 
HETATM    8  C7  UNL     1      36.403  -7.964   3.544  1.00  0.00     0.010 A 
HETATM    9  C8  UNL     1      36.804  -8.063   2.195  1.00  0.00    -0.018 A 
HETATM   10  C24 UNL     1      36.567  -9.261   1.601  1.00  0.00     0.010 A 
HETATM   11  C25 UNL     1      35.974 -10.346   2.259  1.00  0.00     0.009 A 
BRANCH   9  12
HETATM   12  C9  UNL     1      37.520  -6.936   1.581  1.00  0.00     0.322 C 
BRANCH  12  13
HETATM   13  N2  UNL     1      38.491  -6.374   2.513  1.00  0.00    -0.061 N 
ATOM     14  H23 UNL     1      39.445  -6.641   2.271  1.00  0.00     0.275 HD
ATOM     15  H22 UNL     1      38.581  -5.365   2.401  1.00  0.00     0.275 HD
ATOM     16  H21 UNL     1      38.258  -6.630   3.472  1.00  0.00     0.275 HD
ENDBRANCH  12  13
BRANCH  12  17
HETATM   17  C10 UNL     1      36.689  -5.863   0.931  1.00  0.00     0.322 C 
HETATM   18  O1  UNL     1      36.721  -4.767   1.611  1.00  0.00    -0.255 OA
HETATM   19  N3  UNL     1      36.035  -6.064  -0.197  1.00  0.00    -0.406 NA
BRANCH  19  20
HETATM   20  C11 UNL     1      35.330  -6.271  -1.407  1.00  0.00     0.299 C 
BRANCH  20  21
HETATM   21  C12 UNL     1      33.804  -6.346  -1.107  1.00  0.00     0.126 C 
HETATM   22  N5  UNL     1      33.242  -5.369  -0.646  1.00  0.00    -0.293 N 
ATOM     23  H5  UNL     1      32.256  -5.594  -0.512  1.00  0.00     0.187 HD
BRANCH  21  24
HETATM   24  N4  UNL     1      33.182  -7.549  -1.357  1.00  0.00    -0.348 N 
HETATM   25  C13 UNL     1      32.869  -8.352  -2.192  1.00  0.00     0.013 C 
ATOM     26  H4  UNL     1      32.849  -7.905  -0.461  1.00  0.00     0.167 HD
BRANCH  25  27
HETATM   27  C14 UNL     1      33.085  -8.374  -3.666  1.00  0.00     0.065 C 
BRANCH  27  28
HETATM   28  C15 UNL     1      34.436  -8.842  -4.101  1.00  0.00     0.119 C 
BRANCH  28  29
HETATM   29  C16 UNL     1      34.205  -9.772  -5.297  1.00  0.00     0.172 C 
HETATM   30  O2  UNL     1      35.085 -10.107  -6.088  1.00  0.00    -0.648 OA
HETATM   31  O3  UNL     1      32.892 -10.258  -5.464  1.00  0.00    -0.648 OA
ENDBRANCH  28  29
ENDBRANCH  27  28
ENDBRANCH  25  27
BRANCH  25  32
HETATM   32  C17 UNL     1      32.158  -9.639  -1.698  1.00  0.00     0.228 C 
BRANCH  32  33
HETATM   33  O4  UNL     1      32.830 -10.722  -2.259  1.00  0.00    -0.343 OA
BRANCH  33  34
HETATM   34  C18 UNL     1      33.307 -11.856  -1.651  1.00  0.00     0.107 A 
HETATM   35  C19 UNL     1      33.459 -12.033  -0.315  1.00  0.00     0.043 A 
HETATM   36  C20 UNL     1      33.953 -13.236   0.202  1.00  0.00     0.045 A 
HETATM   37  C21 UNL     1      34.311 -14.291  -0.593  1.00  0.00     0.119 A 
HETATM   38  F1  UNL     1      34.787 -15.457  -0.081  1.00  0.00    -0.206 F 
HETATM   39  C22 UNL     1      34.157 -14.108  -1.968  1.00  0.00     0.087 A 
HETATM   40  C23 UNL     1      33.670 -12.927  -2.470  1.00  0.00     0.152 A 
HETATM   41  F2  UNL     1      33.540 -12.820  -3.802  1.00  0.00    -0.203 F 
ENDBRANCH  33  34
ENDBRANCH  32  33
ENDBRANCH  25  32
ENDBRANCH  21  24
BRANCH  22  42
HETATM   42  N6  UNL     1      33.449  -4.110  -0.252  1.00  0.00    -0.344 N 
ATOM     43  H62 UNL     1      32.895  -3.969   0.593  1.00  0.00     0.176 HD
ATOM     44  H61 UNL     1      33.953  -3.256  -0.490  1.00  0.00     0.176 HD
ENDBRANCH  22  42
ENDBRANCH  20  21
ENDBRANCH  19  20
ENDBRANCH  12  17
ENDBRANCH   9  12
ENDBRANCH   5   6
ENDBRANCH   4   5
BRANCH   4  45
HETATM   45  C26 UNL     1      35.105 -13.028   5.901  1.00  0.00     0.312 C 
BRANCH  45  46
HETATM   46  C27 UNL     1      35.098 -14.216   5.061  1.00  0.00    -0.028 A 
HETATM   47  C28 UNL     1      34.368 -14.311   3.910  1.00  0.00     0.011 A 
HETATM   48  C29 UNL     1      34.474 -15.473   3.162  1.00  0.00     0.032 A 
HETATM   49  C30 UNL     1      35.295 -16.526   3.544  1.00  0.00     0.063 A 
HETATM   50  N7  UNL     1      35.602 -17.743   3.015  1.00  0.00    -0.307 N 
HETATM   51  C32 UNL     1      36.014 -16.394   4.702  1.00  0.00     0.063 A 
HETATM   52  C31 UNL     1      36.484 -18.376   3.814  1.00  0.00     0.325 A 
ATOM     53  H7  UNL     1      35.222 -18.118   2.146  1.00  0.00     0.170 HD
HETATM   54  O5  UNL     1      37.012 -19.515   3.693  1.00  0.00    -0.247 OA
HETATM   55  N8  UNL     1      36.734 -17.546   4.846  1.00  0.00    -0.306 N 
ATOM     56  H8  UNL     1      37.367 -17.748   5.620  1.00  0.00     0.170 HD
HETATM   57  C33 UNL     1      35.920 -15.266   5.452  1.00  0.00     0.040 A 
ENDBRANCH  45  46
ENDBRANCH   4  45
ENDBRANCH   3   4
TORSDOF 18
ENDMDL
MODEL 3
REMARK VINA RESULT: -9.234660194      3.174      5.066
REMARK  18 active torsions:
REMARK  status: ('A' for Active; 'I' for Inactive)
REMARK    1  A    between atoms: C3_3  and  N1_4 
REMARK    2  A    between atoms: N1_4  and  C4_5 
REMARK    3  A    between atoms: N1_4  and  C26_45 
REMARK    4  A    between atoms: C4_5  and  C5_6 
REMARK    5  A    between atoms: C8_9  and  C9_10 
REMARK    6  A    between atoms: C9_10  and  N2_11 
REMARK    7  A    between atoms: C9_10  and  C10_15 
REMARK       I    between atoms: C10_15  and  N3_17 
REMARK    8  A    between atoms: N3_17  and  C11_18 
REMARK    9  A    between atoms: C11_18  and  C12_19 
REMARK   10  A    between atoms: C12_19  and  N4_20 
REMARK   11  A    between atoms: C13_22  and  C14_23 
REMARK   12  A    between atoms: C13_22  and  C17_28 
REMARK   13  A    between atoms: C14_23  and  C15_24 
REMARK   14  A    between atoms: C15_24  and  C16_25 
REMARK   15  A    between atoms: C17_28  and  O4_29 
REMARK   16  A    between atoms: O4_29  and  C18_30 
REMARK   17  A    between atoms: N5_38  and  N6_40 
REMARK   18  A    between atoms: C26_45  and  C27_46 
ROOT
HETATM    1  C1  UNL     1      34.355 -15.159   3.193  1.00  0.00     0.013 C 
HETATM    2  C2  UNL     1      34.444 -13.965   3.297  1.00  0.00    -0.087 C 
HETATM    3  C3  UNL     1      34.505 -12.535   3.447  1.00  0.00     0.365 C 
ENDROOT
BRANCH   3   4
HETATM    4  N1  UNL     1      35.579 -11.980   4.197  1.00  0.00     0.107 N 
BRANCH   4   5
HETATM    5  C4  UNL     1      35.242 -10.574   4.499  1.00  0.00     0.312 C 
BRANCH   5   6
HETATM    6  C5  UNL     1      35.870  -9.564   3.658  1.00  0.00    -0.030 A 
HETATM    7  C6  UNL     1      36.396  -9.887   2.404  1.00  0.00     0.009 A 
HETATM    8  C7  UNL     1      36.942  -8.973   1.541  1.00  0.00     0.010 A 
HETATM    9  C8  UNL     1      37.005  -7.605   1.881  1.00  0.00    -0.018 A 
HETATM   10  C24 UNL     1      36.502  -7.281   3.101  1.00  0.00     0.010 A 
HETATM   11  C25 UNL     1      35.945  -8.219   3.980  1.00  0.00     0.009 A 
BRANCH   9  12
HETATM   12  C9  UNL     1      37.499  -6.646   0.883  1.00  0.00     0.322 C 
BRANCH  12  13
HETATM   13  N2  UNL     1      38.908  -6.884   0.594  1.00  0.00    -0.061 N 
ATOM     14  H23 UNL     1      39.417  -7.191   1.423  1.00  0.00     0.275 HD
ATOM     15  H22 UNL     1      39.041  -7.714   0.017  1.00  0.00     0.275 HD
ATOM     16  H21 UNL     1      39.334  -6.059   0.173  1.00  0.00     0.275 HD
ENDBRANCH  12  13
BRANCH  12  17
HETATM   17  C10 UNL     1      37.221  -5.187   1.131  1.00  0.00     0.322 C 
HETATM   18  O1  UNL     1      38.093  -4.673   1.931  1.00  0.00    -0.255 OA
HETATM   19  N3  UNL     1      36.206  -4.558   0.571  1.00  0.00    -0.406 NA
BRANCH  19  20
HETATM   20  C11 UNL     1      35.119  -3.874  -0.025  1.00  0.00     0.299 C 
BRANCH  20  21
HETATM   21  C12 UNL     1      34.507  -4.761  -1.148  1.00  0.00     0.126 C 
HETATM   22  N5  UNL     1      34.124  -4.235  -2.177  1.00  0.00    -0.293 N 
ATOM     23  H5  UNL     1      33.754  -4.958  -2.794  1.00  0.00     0.187 HD
BRANCH  21  24
HETATM   24  N4  UNL     1      34.403  -6.110  -0.885  1.00  0.00    -0.348 N 
HETATM   25  C13 UNL     1      34.114  -7.189  -1.324  1.00  0.00     0.013 C 
ATOM     26  H4  UNL     1      34.690  -6.249   0.084  1.00  0.00     0.167 HD
BRANCH  25  27
HETATM   27  C14 UNL     1      33.632  -7.607  -2.670  1.00  0.00     0.065 C 
BRANCH  27  28
HETATM   28  C15 UNL     1      34.588  -7.355  -3.791  1.00  0.00     0.119 C 
BRANCH  28  29
HETATM   29  C16 UNL     1      33.775  -6.699  -4.912  1.00  0.00     0.172 C 
HETATM   30  O2  UNL     1      33.568  -7.218  -6.008  1.00  0.00    -0.648 OA
HETATM   31  O3  UNL     1      33.243  -5.424  -4.631  1.00  0.00    -0.648 OA
ENDBRANCH  28  29
ENDBRANCH  27  28
ENDBRANCH  25  27
BRANCH  25  32
HETATM   32  C17 UNL     1      34.309  -8.405  -0.382  1.00  0.00     0.228 C 
BRANCH  32  33
HETATM   33  O4  UNL     1      34.342  -9.545  -1.182  1.00  0.00    -0.343 OA
BRANCH  33  34
HETATM   34  C18 UNL     1      33.994 -10.834  -0.868  1.00  0.00     0.107 A 
HETATM   35  C19 UNL     1      34.858 -11.837  -0.569  1.00  0.00     0.043 A 
HETATM   36  C20 UNL     1      34.395 -13.120  -0.259  1.00  0.00     0.045 A 
HETATM   37  C21 UNL     1      33.065 -13.443  -0.238  1.00  0.00     0.119 A 
HETATM   38  F1  UNL     1      32.625 -14.691   0.068  1.00  0.00    -0.206 F 
HETATM   39  C22 UNL     1      32.176 -12.411  -0.548  1.00  0.00     0.087 A 
HETATM   40  C23 UNL     1      32.635 -11.154  -0.850  1.00  0.00     0.152 A 
HETATM   41  F2  UNL     1      31.725 -10.207  -1.132  1.00  0.00    -0.203 F 
ENDBRANCH  33  34
ENDBRANCH  32  33
ENDBRANCH  25  32
ENDBRANCH  21  24
BRANCH  22  42
HETATM   42  N6  UNL     1      34.014  -3.054  -2.791  1.00  0.00    -0.344 N 
ATOM     43  H62 UNL     1      34.814  -2.493  -2.499  1.00  0.00     0.176 HD
ATOM     44  H61 UNL     1      33.426  -2.525  -3.435  1.00  0.00     0.176 HD
ENDBRANCH  22  42
ENDBRANCH  20  21
ENDBRANCH  19  20
ENDBRANCH  12  17
ENDBRANCH   9  12
ENDBRANCH   5   6
ENDBRANCH   4   5
BRANCH   4  45
HETATM   45  C26 UNL     1      35.818 -12.531   5.498  1.00  0.00     0.312 C 
BRANCH  45  46
HETATM   46  C27 UNL     1      37.180 -12.758   5.956  1.00  0.00    -0.028 A 
HETATM   47  C28 UNL     1      38.081 -11.750   6.148  1.00  0.00     0.011 A 
HETATM   48  C29 UNL     1      39.337 -12.077   6.632  1.00  0.00     0.032 A 
HETATM   49  C30 UNL     1      39.697 -13.385   6.929  1.00  0.00     0.063 A 
HETATM   50  N7  UNL     1      40.818 -13.983   7.420  1.00  0.00    -0.307 N 
HETATM   51  C32 UNL     1      38.767 -14.370   6.727  1.00  0.00     0.063 A 
HETATM   52  C31 UNL     1      40.616 -15.313   7.520  1.00  0.00     0.325 A 
ATOM     53  H7  UNL     1      41.679 -13.499   7.672  1.00  0.00     0.170 HD
HETATM   54  O5  UNL     1      41.396 -16.221   7.918  1.00  0.00    -0.247 OA
HETATM   55  N8  UNL     1      39.359 -15.545   7.096  1.00  0.00    -0.306 N 
ATOM     56  H8  UNL     1      38.914 -16.463   7.056  1.00  0.00     0.170 HD
HETATM   57  C33 UNL     1      37.532 -14.071   6.248  1.00  0.00     0.040 A 
ENDBRANCH  45  46
ENDBRANCH   4  45
ENDBRANCH   3   4
TORSDOF 18
ENDMDL
MODEL 4
REMARK VINA RESULT: -9.219456663      4.427     10.618
REMARK  18 active torsions:
REMARK  status: ('A' for Active; 'I' for Inactive)
REMARK    1  A    between atoms: C3_3  and  N1_4 
REMARK    2  A    between atoms: N1_4  and  C4_5 
REMARK    3  A    between atoms: N1_4  and  C26_45 
REMARK    4  A    between atoms: C4_5  and  C5_6 
REMARK    5  A    between atoms: C8_9  and  C9_10 
REMARK    6  A    between atoms: C9_10  and  N2_11 
REMARK    7  A    between atoms: C9_10  and  C10_15 
REMARK       I    between atoms: C10_15  and  N3_17 
REMARK    8  A    between atoms: N3_17  and  C11_18 
REMARK    9  A    between atoms: C11_18  and  C12_19 
REMARK   10  A    between atoms: C12_19  and  N4_20 
REMARK   11  A    between atoms: C13_22  and  C14_23 
REMARK   12  A    between atoms: C13_22  and  C17_28 
REMARK   13  A    between atoms: C14_23  and  C15_24 
REMARK   14  A    between atoms: C15_24  and  C16_25 
REMARK   15  A    between atoms: C17_28  and  O4_29 
REMARK   16  A    between atoms: O4_29  and  C18_30 
REMARK   17  A    between atoms: N5_38  and  N6_40 
REMARK   18  A    between atoms: C26_45  and  C27_46 
ROOT
HETATM    1  C1  UNL     1      28.851  -7.135  -8.008  1.00  0.00     0.013 C 
HETATM    2  C2  UNL     1      29.923  -6.645  -8.239  1.00  0.00    -0.087 C 
HETATM    3  C3  UNL     1      31.185  -6.013  -8.516  1.00  0.00     0.365 C 
ENDROOT
BRANCH   3   4
HETATM    4  N1  UNL     1      32.232  -6.148  -7.563  1.00  0.00     0.107 N 
BRANCH   4   5
HETATM    5  C4  UNL     1      32.498  -7.589  -7.383  1.00  0.00     0.312 C 
BRANCH   5   6
HETATM    6  C5  UNL     1      32.676  -8.048  -6.011  1.00  0.00    -0.030 A 
HETATM    7  C6  UNL     1      33.949  -8.269  -5.478  1.00  0.00     0.009 A 
HETATM    8  C7  UNL     1      34.186  -8.638  -4.180  1.00  0.00     0.010 A 
HETATM    9  C8  UNL     1      33.119  -8.821  -3.275  1.00  0.00    -0.018 A 
HETATM   10  C24 UNL     1      31.877  -8.615  -3.784  1.00  0.00     0.010 A 
HETATM   11  C25 UNL     1      31.640  -8.237  -5.112  1.00  0.00     0.009 A 
BRANCH   9  12
HETATM   12  C9  UNL     1      33.423  -9.111  -1.866  1.00  0.00     0.322 C 
BRANCH  12  13
HETATM   13  N2  UNL     1      32.280  -9.734  -1.211  1.00  0.00    -0.061 N 
ATOM     14  H23 UNL     1      31.449  -9.716  -1.802  1.00  0.00     0.275 HD
ATOM     15  H22 UNL     1      32.392 -10.745  -1.135  1.00  0.00     0.275 HD
ATOM     16  H21 UNL     1      32.107  -9.304  -0.303  1.00  0.00     0.275 HD
ENDBRANCH  12  13
BRANCH  12  17
HETATM   17  C10 UNL     1      33.994  -7.990  -1.039  1.00  0.00     0.322 C 
HETATM   18  O1  UNL     1      34.280  -8.386   0.155  1.00  0.00    -0.255 OA
HETATM   19  N3  UNL     1      34.168  -6.775  -1.523  1.00  0.00    -0.406 NA
BRANCH  19  20
HETATM   20  C11 UNL     1      34.358  -5.468  -2.033  1.00  0.00     0.299 C 
BRANCH  20  21
HETATM   21  C12 UNL     1      34.555  -4.477  -0.849  1.00  0.00     0.126 C 
HETATM   22  N5  UNL     1      33.591  -4.152  -0.181  1.00  0.00    -0.293 N 
ATOM     23  H5  UNL     1      33.900  -3.503   0.543  1.00  0.00     0.187 HD
BRANCH  21  24
HETATM   24  N4  UNL     1      35.830  -3.995  -0.651  1.00  0.00    -0.348 N 
HETATM   25  C13 UNL     1      36.927  -3.862  -1.121  1.00  0.00     0.013 C 
ATOM     26  H4  UNL     1      35.852  -3.579   0.280  1.00  0.00     0.167 HD
BRANCH  25  27
HETATM   27  C14 UNL     1      37.488  -4.266  -2.441  1.00  0.00     0.065 C 
BRANCH  27  28
HETATM   28  C15 UNL     1      37.887  -5.702  -2.546  1.00  0.00     0.119 C 
BRANCH  28  29
HETATM   29  C16 UNL     1      39.383  -5.711  -2.876  1.00  0.00     0.172 C 
HETATM   30  O2  UNL     1      40.217  -5.004  -2.312  1.00  0.00    -0.648 OA
HETATM   31  O3  UNL     1      39.792  -6.602  -3.889  1.00  0.00    -0.648 OA
ENDBRANCH  28  29
ENDBRANCH  27  28
ENDBRANCH  25  27
BRANCH  25  32
HETATM   32  C17 UNL     1      37.968  -3.093  -0.266  1.00  0.00     0.228 C 
BRANCH  32  33
HETATM   33  O4  UNL     1      38.611  -4.029   0.539  1.00  0.00    -0.343 OA
BRANCH  33  34
HETATM   34  C18 UNL     1      38.070  -4.931   1.420  1.00  0.00     0.107 A 
HETATM   35  C19 UNL     1      37.221  -4.635   2.436  1.00  0.00     0.043 A 
HETATM   36  C20 UNL     1      36.724  -5.636   3.277  1.00  0.00     0.045 A 
HETATM   37  C21 UNL     1      37.057  -6.956   3.134  1.00  0.00     0.119 A 
HETATM   38  F1  UNL     1      36.566  -7.921   3.954  1.00  0.00    -0.206 F 
HETATM   39  C22 UNL     1      37.933  -7.261   2.090  1.00  0.00     0.087 A 
HETATM   40  C23 UNL     1      38.417  -6.276   1.268  1.00  0.00     0.152 A 
HETATM   41  F2  UNL     1      39.250  -6.639   0.279  1.00  0.00    -0.203 F 
ENDBRANCH  33  34
ENDBRANCH  32  33
ENDBRANCH  25  32
ENDBRANCH  21  24
BRANCH  22  42
HETATM   42  N6  UNL     1      32.275  -4.337  -0.052  1.00  0.00    -0.344 N 
ATOM     43  H62 UNL     1      32.099  -5.330  -0.204  1.00  0.00     0.176 HD
ATOM     44  H61 UNL     1      31.400  -3.849   0.141  1.00  0.00     0.176 HD
ENDBRANCH  22  42
ENDBRANCH  20  21
ENDBRANCH  19  20
ENDBRANCH  12  17
ENDBRANCH   9  12
ENDBRANCH   5   6
ENDBRANCH   4   5
BRANCH   4  45
HETATM   45  C26 UNL     1      33.519  -5.636  -7.932  1.00  0.00     0.312 C 
BRANCH  45  46
HETATM   46  C27 UNL     1      34.100  -4.523  -7.198  1.00  0.00    -0.028 A 
HETATM   47  C28 UNL     1      34.281  -4.535  -5.844  1.00  0.00     0.011 A 
HETATM   48  C29 UNL     1      34.889  -3.438  -5.255  1.00  0.00     0.032 A 
HETATM   49  C30 UNL     1      35.317  -2.344  -5.995  1.00  0.00     0.063 A 
HETATM   50  N7  UNL     1      35.941  -1.170  -5.698  1.00  0.00    -0.307 N 
HETATM   51  C32 UNL     1      35.122  -2.368  -7.350  1.00  0.00     0.063 A 
HETATM   52  C31 UNL     1      36.132  -0.459  -6.828  1.00  0.00     0.325 A 
ATOM     53  H7  UNL     1      36.222  -0.875  -4.763  1.00  0.00     0.170 HD
HETATM   54  O5  UNL     1      36.661   0.674  -6.990  1.00  0.00    -0.247 OA
HETATM   55  N8  UNL     1      35.629  -1.196  -7.837  1.00  0.00    -0.306 N 
ATOM     56  H8  UNL     1      35.628  -0.920  -8.820  1.00  0.00     0.170 HD
HETATM   57  C33 UNL     1      34.523  -3.431  -7.947  1.00  0.00     0.040 A 
ENDBRANCH  45  46
ENDBRANCH   4  45
ENDBRANCH   3   4
TORSDOF 18
ENDMDL
MODEL 5
REMARK VINA RESULT: -9.182431820      2.830      8.322
REMARK  18 active torsions:
REMARK  status: ('A' for Active; 'I' for Inactive)
REMARK    1  A    between atoms: C3_3  and  N1_4 
REMARK    2  A    between atoms: N1_4  and  C4_5 
REMARK    3  A    between atoms: N1_4  and  C26_45 
REMARK    4  A    between atoms: C4_5  and  C5_6 
REMARK    5  A    between atoms: C8_9  and  C9_10 
REMARK    6  A    between atoms: C9_10  and  N2_11 
REMARK    7  A    between atoms: C9_10  and  C10_15 
REMARK       I    between atoms: C10_15  and  N3_17 
REMARK    8  A    between atoms: N3_17  and  C11_18 
REMARK    9  A    between atoms: C11_18  and  C12_19 
REMARK   10  A    between atoms: C12_19  and  N4_20 
REMARK   11  A    between atoms: C13_22  and  C14_23 
REMARK   12  A    between atoms: C13_22  and  C17_28 
REMARK   13  A    between atoms: C14_23  and  C15_24 
REMARK   14  A    between atoms: C15_24  and  C16_25 
REMARK   15  A    between atoms: C17_28  and  O4_29 
REMARK   16  A    between atoms: O4_29  and  C18_30 
REMARK   17  A    between atoms: N5_38  and  N6_40 
REMARK   18  A    between atoms: C26_45  and  C27_46 
ROOT
HETATM    1  C1  UNL     1      34.103  -3.766  -0.007  1.00  0.00     0.013 C 
HETATM    2  C2  UNL     1      35.194  -4.266  -0.065  1.00  0.00    -0.087 C 
HETATM    3  C3  UNL     1      36.494  -4.870  -0.184  1.00  0.00     0.365 C 
ENDROOT
BRANCH   3   4
HETATM    4  N1  UNL     1      37.633  -4.103   0.187  1.00  0.00     0.107 N 
BRANCH   4   5
HETATM    5  C4  UNL     1      38.510  -4.961   1.008  1.00  0.00     0.312 C 
BRANCH   5   6
HETATM    6  C5  UNL     1      37.855  -6.023   1.761  1.00  0.00    -0.030 A 
HETATM    7  C6  UNL     1      37.093  -5.742   2.899  1.00  0.00     0.009 A 
HETATM    8  C7  UNL     1      36.402  -6.686   3.613  1.00  0.00     0.010 A 
HETATM    9  C8  UNL     1      36.420  -8.043   3.225  1.00  0.00    -0.018 A 
HETATM   10  C24 UNL     1      37.163  -8.327   2.124  1.00  0.00     0.010 A 
HETATM   11  C25 UNL     1      37.868  -7.359   1.397  1.00  0.00     0.009 A 
BRANCH   9  12
HETATM   12  C9  UNL     1      35.579  -9.002   3.954  1.00  0.00     0.322 C 
BRANCH  12  13
HETATM   13  N2  UNL     1      34.532  -8.309   4.695  1.00  0.00    -0.061 N 
ATOM     14  H23 UNL     1      34.233  -8.839   5.513  1.00  0.00     0.275 HD
ATOM     15  H22 UNL     1      34.891  -7.482   5.172  1.00  0.00     0.275 HD
ATOM     16  H21 UNL     1      33.748  -8.082   4.084  1.00  0.00     0.275 HD
ENDBRANCH  12  13
BRANCH  12  17
HETATM   17  C10 UNL     1      36.280 -10.025   4.808  1.00  0.00     0.322 C 
HETATM   18  O1  UNL     1      36.945  -9.465   5.760  1.00  0.00    -0.255 OA
HETATM   19  N3  UNL     1      36.187 -11.320   4.574  1.00  0.00    -0.406 NA
BRANCH  19  20
HETATM   20  C11 UNL     1      36.093 -12.712   4.332  1.00  0.00     0.299 C 
BRANCH  20  21
HETATM   21  C12 UNL     1      34.949 -12.981   3.311  1.00  0.00     0.126 C 
HETATM   22  N5  UNL     1      34.125 -13.843   3.556  1.00  0.00    -0.293 N 
ATOM     23  H5  UNL     1      33.458 -13.884   2.786  1.00  0.00     0.187 HD
BRANCH  21  24
HETATM   24  N4  UNL     1      34.964 -12.233   2.154  1.00  0.00    -0.348 N 
HETATM   25  C13 UNL     1      34.565 -12.140   1.025  1.00  0.00     0.013 C 
ATOM     26  H4  UNL     1      35.559 -11.424   2.328  1.00  0.00     0.167 HD
BRANCH  25  27
HETATM   27  C14 UNL     1      33.667 -13.018   0.223  1.00  0.00     0.065 C 
BRANCH  27  28
HETATM   28  C15 UNL     1      34.366 -14.005  -0.655  1.00  0.00     0.119 C 
BRANCH  28  29
HETATM   29  C16 UNL     1      34.193 -13.502  -2.092  1.00  0.00     0.172 C 
HETATM   30  O2  UNL     1      35.106 -13.044  -2.776  1.00  0.00    -0.648 OA
HETATM   31  O3  UNL     1      32.892 -13.590  -2.630  1.00  0.00    -0.648 OA
ENDBRANCH  28  29
ENDBRANCH  27  28
ENDBRANCH  25  27
BRANCH  25  32
HETATM   32  C17 UNL     1      34.987 -10.874   0.234  1.00  0.00     0.228 C 
BRANCH  32  33
HETATM   33  O4  UNL     1      33.823 -10.294  -0.264  1.00  0.00    -0.343 OA
BRANCH  33  34
HETATM   34  C18 UNL     1      33.658  -9.492  -1.365  1.00  0.00     0.107 A 
HETATM   35  C19 UNL     1      33.088  -9.864  -2.538  1.00  0.00     0.043 A 
HETATM   36  C20 UNL     1      32.966  -8.962  -3.600  1.00  0.00     0.045 A 
HETATM   37  C21 UNL     1      33.407  -7.669  -3.528  1.00  0.00     0.119 A 
HETATM   38  F1  UNL     1      33.280  -6.799  -4.564  1.00  0.00    -0.206 F 
HETATM   39  C22 UNL     1      33.996  -7.286  -2.321  1.00  0.00     0.087 A 
HETATM   40  C23 UNL     1      34.112  -8.174  -1.282  1.00  0.00     0.152 A 
HETATM   41  F2  UNL     1      34.682  -7.738  -0.146  1.00  0.00    -0.203 F 
ENDBRANCH  33  34
ENDBRANCH  32  33
ENDBRANCH  25  32
ENDBRANCH  21  24
BRANCH  22  42
HETATM   42  N6  UNL     1      33.779 -14.754   4.469  1.00  0.00    -0.344 N 
ATOM     43  H62 UNL     1      34.349 -14.577   5.295  1.00  0.00     0.176 HD
ATOM     44  H61 UNL     1      33.159 -15.548   4.630  1.00  0.00     0.176 HD
ENDBRANCH  22  42
ENDBRANCH  20  21
ENDBRANCH  19  20
ENDBRANCH  12  17
ENDBRANCH   9  12
ENDBRANCH   5   6
ENDBRANCH   4   5
BRANCH   4  45
HETATM   45  C26 UNL     1      38.506  -3.681  -0.868  1.00  0.00     0.312 C 
BRANCH  45  46
HETATM   46  C27 UNL     1      38.462  -4.344  -2.162  1.00  0.00    -0.028 A 
HETATM   47  C28 UNL     1      37.764  -3.852  -3.229  1.00  0.00     0.011 A 
HETATM   48  C29 UNL     1      37.831  -4.542  -4.428  1.00  0.00     0.032 A 
HETATM   49  C30 UNL     1      38.583  -5.700  -4.575  1.00  0.00     0.063 A 
HETATM   50  N7  UNL     1      38.842  -6.551  -5.606  1.00  0.00    -0.307 N 
HETATM   51  C32 UNL     1      39.272  -6.161  -3.485  1.00  0.00     0.063 A 
HETATM   52  C31 UNL     1      39.664  -7.535  -5.188  1.00  0.00     0.325 A 
ATOM     53  H7  UNL     1      38.469  -6.459  -6.551  1.00  0.00     0.170 HD
HETATM   54  O5  UNL     1      40.135  -8.519  -5.820  1.00  0.00    -0.247 OA
HETATM   55  N8  UNL     1      39.926  -7.292  -3.889  1.00  0.00    -0.306 N 
ATOM     56  H8  UNL     1      40.524  -7.867  -3.294  1.00  0.00     0.170 HD
HETATM   57  C33 UNL     1      39.216  -5.504  -2.299  1.00  0.00     0.040 A 
ENDBRANCH  45  46
ENDBRANCH   4  45
ENDBRANCH   3   4
TORSDOF 18
ENDMDL
