MODEL 1
REMARK VINA RESULT: -5.424063466      0.000      0.000
REMARK  3 active torsions:
REMARK  status: ('A' for Active; 'I' for Inactive)
REMARK    1  A    between atoms: N1_1  and  N2_4 
REMARK    2  A    between atoms: N2_4  and  N3_6 
REMARK    3  A    between atoms: N3_6  and  C1_8 
ROOT
HETATM    1  C1  UNL     1      73.517  40.408  43.592  1.00  0.00     0.145 A 
HETATM    2  N4  UNL     1      72.704  41.142  44.361  1.00  0.00    -0.350 N 
ATOM      3  H4  UNL     1      72.340  42.021  43.992  1.00  0.00     0.166 HD
HETATM    4  C2  UNL     1      72.347  40.765  45.608  1.00  0.00     0.090 A 
HETATM    5  C3  UNL     1      72.837  39.577  46.106  1.00  0.00     0.019 A 
HETATM    6  C4  UNL     1      73.677  38.796  45.339  1.00  0.00     0.032 A 
HETATM    7  C5  UNL     1      74.027  39.207  44.067  1.00  0.00     0.091 A 
HETATM    8  N5  UNL     1      74.886  38.382  43.315  1.00  0.00    -0.098 NA
ENDROOT
BRANCH   1   9
HETATM    9  N3  UNL     1      73.825  40.811  42.415  1.00  0.00    -0.270 N 
ATOM     10  H3  UNL     1      73.750  40.184  41.614  1.00  0.00     0.190 HD
BRANCH   9  11
HETATM   11  N2  UNL     1      74.266  42.124  42.252  1.00  0.00    -0.248 N 
ATOM     12  H2  UNL     1      73.728  42.877  42.679  1.00  0.00     0.207 HD
BRANCH  11  13
HETATM   13  N1  UNL     1      75.421  42.451  41.524  1.00  0.00    -0.331 N 
ATOM     14  H12 UNL     1      75.840  41.721  40.949  1.00  0.00     0.178 HD
ATOM     15  H11 UNL     1      75.845  43.378  41.551  1.00  0.00     0.178 HD
ENDBRANCH  11  13
ENDBRANCH   9  11
ENDBRANCH   1   9
TORSDOF 3
ENDMDL
MODEL 2
REMARK VINA RESULT: -5.408642415      1.303      1.531
REMARK  3 active torsions:
REMARK  status: ('A' for Active; 'I' for Inactive)
REMARK    1  A    between atoms: N1_1  and  N2_4 
REMARK    2  A    between atoms: N2_4  and  N3_6 
REMARK    3  A    between atoms: N3_6  and  C1_8 
ROOT
HETATM    1  C1  UNL     1      73.302  40.854  44.492  1.00  0.00     0.145 A 
HETATM    2  N4  UNL     1      72.567  41.274  45.530  1.00  0.00    -0.350 N 
ATOM      3  H4  UNL     1      72.232  42.237  45.536  1.00  0.00     0.166 HD
HETATM    4  C2  UNL     1      72.254  40.470  46.570  1.00  0.00     0.090 A 
HETATM    5  C3  UNL     1      72.707  39.168  46.560  1.00  0.00     0.019 A 
HETATM    6  C4  UNL     1      73.465  38.704  45.507  1.00  0.00     0.032 A 
HETATM    7  C5  UNL     1      73.773  39.548  44.456  1.00  0.00     0.091 A 
HETATM    8  N5  UNL     1      74.550  39.037  43.398  1.00  0.00    -0.098 NA
ENDROOT
BRANCH   1   9
HETATM    9  N3  UNL     1      73.573  41.657  43.530  1.00  0.00    -0.270 N 
ATOM     10  H3  UNL     1      74.352  42.311  43.603  1.00  0.00     0.190 HD
BRANCH   9  11
HETATM   11  N2  UNL     1      72.780  41.618  42.384  1.00  0.00    -0.248 N 
ATOM     12  H2  UNL     1      72.979  40.912  41.676  1.00  0.00     0.207 HD
BRANCH  11  13
HETATM   13  N1  UNL     1      71.720  42.511  42.164  1.00  0.00    -0.331 N 
ATOM     14  H12 UNL     1      71.884  43.498  42.362  1.00  0.00     0.178 HD
ATOM     15  H11 UNL     1      70.808  42.210  41.820  1.00  0.00     0.178 HD
ENDBRANCH  11  13
ENDBRANCH   9  11
ENDBRANCH   1   9
TORSDOF 3
ENDMDL
MODEL 3
REMARK VINA RESULT: -5.175352811      0.759      2.208
REMARK  3 active torsions:
REMARK  status: ('A' for Active; 'I' for Inactive)
REMARK    1  A    between atoms: N1_1  and  N2_4 
REMARK    2  A    between atoms: N2_4  and  N3_6 
REMARK    3  A    between atoms: N3_6  and  C1_8 
ROOT
HETATM    1  C1  UNL     1      73.614  40.051  43.467  1.00  0.00     0.145 A 
HETATM    2  N4  UNL     1      74.279  38.896  43.330  1.00  0.00    -0.350 N 
ATOM      3  H4  UNL     1      74.594  38.619  42.400  1.00  0.00     0.166 HD
HETATM    4  C2  UNL     1      74.548  38.085  44.376  1.00  0.00     0.090 A 
HETATM    5  C3  UNL     1      74.123  38.461  45.632  1.00  0.00     0.019 A 
HETATM    6  C4  UNL     1      73.436  39.643  45.808  1.00  0.00     0.032 A 
HETATM    7  C5  UNL     1      73.173  40.455  44.720  1.00  0.00     0.091 A 
HETATM    8  N5  UNL     1      72.469  41.655  44.941  1.00  0.00    -0.098 NA
ENDROOT
BRANCH   1   9
HETATM    9  N3  UNL     1      73.384  40.785  42.442  1.00  0.00    -0.270 N 
ATOM     10  H3  UNL     1      72.801  40.443  41.678  1.00  0.00     0.190 HD
BRANCH   9  11
HETATM   11  N2  UNL     1      73.947  42.059  42.392  1.00  0.00    -0.248 N 
ATOM     12  H2  UNL     1      73.509  42.808  42.928  1.00  0.00     0.207 HD
BRANCH  11  13
HETATM   13  N1  UNL     1      75.090  42.354  41.634  1.00  0.00    -0.331 N 
ATOM     14  H12 UNL     1      75.594  41.573  41.215  1.00  0.00     0.178 HD
ATOM     15  H11 UNL     1      75.428  43.307  41.493  1.00  0.00     0.178 HD
ENDBRANCH  11  13
ENDBRANCH   9  11
ENDBRANCH   1   9
TORSDOF 3
ENDMDL
MODEL 4
REMARK VINA RESULT: -5.069506764      1.407      2.577
REMARK  3 active torsions:
REMARK  status: ('A' for Active; 'I' for Inactive)
REMARK    1  A    between atoms: N1_1  and  N2_4 
REMARK    2  A    between atoms: N2_4  and  N3_6 
REMARK    3  A    between atoms: N3_6  and  C1_8 
ROOT
HETATM    1  C1  UNL     1      73.776  39.565  44.398  1.00  0.00     0.145 A 
HETATM    2  N4  UNL     1      74.178  38.299  44.566  1.00  0.00    -0.350 N 
ATOM      3  H4  UNL     1      74.747  37.864  43.839  1.00  0.00     0.166 HD
HETATM    4  C2  UNL     1      73.860  37.575  45.661  1.00  0.00     0.090 A 
HETATM    5  C3  UNL     1      73.093  38.163  46.643  1.00  0.00     0.019 A 
HETATM    6  C4  UNL     1      72.662  39.465  46.502  1.00  0.00     0.032 A 
HETATM    7  C5  UNL     1      73.001  40.184  45.370  1.00  0.00     0.091 A 
HETATM    8  N5  UNL     1      72.543  41.511  45.263  1.00  0.00    -0.098 NA
ENDROOT
BRANCH   1   9
HETATM    9  N3  UNL     1      74.106  40.208  43.340  1.00  0.00    -0.270 N 
ATOM     10  H3  UNL     1      75.073  40.493  43.184  1.00  0.00     0.190 HD
BRANCH   9  11
HETATM   11  N2  UNL     1      73.116  40.512  42.406  1.00  0.00    -0.248 N 
ATOM     12  H2  UNL     1      72.763  39.766  41.807  1.00  0.00     0.207 HD
BRANCH  11  13
HETATM   13  N1  UNL     1      72.585  41.802  42.255  1.00  0.00    -0.331 N 
ATOM     14  H12 UNL     1      72.931  42.531  42.879  1.00  0.00     0.178 HD
ATOM     15  H11 UNL     1      71.878  42.030  41.556  1.00  0.00     0.178 HD
ENDBRANCH  11  13
ENDBRANCH   9  11
ENDBRANCH   1   9
TORSDOF 3
ENDMDL
MODEL 5
REMARK VINA RESULT: -5.030375726      6.798      8.777
REMARK  3 active torsions:
REMARK  status: ('A' for Active; 'I' for Inactive)
REMARK    1  A    between atoms: N1_1  and  N2_4 
REMARK    2  A    between atoms: N2_4  and  N3_6 
REMARK    3  A    between atoms: N3_6  and  C1_8 
ROOT
HETATM    1  C1  UNL     1      72.724  32.678  45.747  1.00  0.00     0.145 A 
HETATM    2  N4  UNL     1      72.952  31.497  45.158  1.00  0.00    -0.350 N 
ATOM      3  H4  UNL     1      72.243  30.767  45.233  1.00  0.00     0.166 HD
HETATM    4  C2  UNL     1      74.084  31.235  44.471  1.00  0.00     0.090 A 
HETATM    5  C3  UNL     1      75.041  32.221  44.369  1.00  0.00     0.019 A 
HETATM    6  C4  UNL     1      74.838  33.449  44.963  1.00  0.00     0.032 A 
HETATM    7  C5  UNL     1      73.671  33.691  45.662  1.00  0.00     0.091 A 
HETATM    8  N5  UNL     1      73.500  34.958  46.254  1.00  0.00    -0.098 NA
ENDROOT
BRANCH   1   9
HETATM    9  N3  UNL     1      71.633  32.877  46.388  1.00  0.00    -0.270 N 
ATOM     10  H3  UNL     1      70.768  33.090  45.890  1.00  0.00     0.190 HD
BRANCH   9  11
HETATM   11  N2  UNL     1      71.651  32.796  47.780  1.00  0.00    -0.248 N 
ATOM     12  H2  UNL     1      72.513  32.509  48.242  1.00  0.00     0.207 HD
BRANCH  11  13
HETATM   13  N1  UNL     1      70.531  33.095  48.572  1.00  0.00    -0.331 N 
ATOM     14  H12 UNL     1      70.693  33.327  49.551  1.00  0.00     0.178 HD
ATOM     15  H11 UNL     1      69.579  33.086  48.206  1.00  0.00     0.178 HD
ENDBRANCH  11  13
ENDBRANCH   9  11
ENDBRANCH   1   9
TORSDOF 3
ENDMDL
