MODEL 1
REMARK VINA RESULT: -4.523704604      0.000      0.000
REMARK  3 active torsions:
REMARK  status: ('A' for Active; 'I' for Inactive)
REMARK    1  A    between atoms: N1_2  and  C2_5 
REMARK    2  A    between atoms: C2_5  and  N2_6 
REMARK    3  A    between atoms: C2_5  and  C3_10 
ROOT
HETATM    1  C2  UNL     1      73.338  41.334  43.036  1.00  0.00     0.435 C 
ENDROOT
BRANCH   1   2
HETATM    2  N1  UNL     1      73.381  40.102  42.299  1.00  0.00    -0.046 N 
HETATM    3  C1  UNL     1      74.024  39.083  43.141  1.00  0.00     0.269 C 
ATOM      4  H12 UNL     1      73.833  40.204  41.390  1.00  0.00     0.279 HD
ATOM      5  H11 UNL     1      72.462  39.812  41.965  1.00  0.00     0.279 HD
ENDBRANCH   1   2
BRANCH   1   6
HETATM    6  N2  UNL     1      72.192  42.150  42.699  1.00  0.00    -0.046 N 
ATOM      7  H23 UNL     1      72.483  43.073  42.375  1.00  0.00     0.277 HD
ATOM      8  H22 UNL     1      71.740  41.811  41.850  1.00  0.00     0.277 HD
ATOM      9  H21 UNL     1      71.522  42.225  43.463  1.00  0.00     0.277 HD
ENDBRANCH   1   6
BRANCH   1  10
HETATM   10  C3  UNL     1      73.292  41.080  44.510  1.00  0.00     0.379 C 
HETATM   11  N3  UNL     1      71.925  41.187  45.040  1.00  0.00    -0.043 N 
HETATM   12  C4  UNL     1      72.219  40.951  46.465  1.00  0.00     0.261 C 
ATOM     13  H32 UNL     1      71.419  42.044  44.818  1.00  0.00     0.280 HD
ATOM     14  H31 UNL     1      71.225  40.578  44.615  1.00  0.00     0.280 HD
HETATM   15  C5  UNL     1      73.609  41.550  46.583  1.00  0.00     0.198 C 
HETATM   16  O1  UNL     1      73.940  42.004  45.285  1.00  0.00    -0.355 OA
ENDBRANCH   1  10
TORSDOF 3
ENDMDL
MODEL 2
REMARK VINA RESULT: -4.109731893      2.779      3.248
REMARK  3 active torsions:
REMARK  status: ('A' for Active; 'I' for Inactive)
REMARK    1  A    between atoms: N1_2  and  C2_5 
REMARK    2  A    between atoms: C2_5  and  N2_6 
REMARK    3  A    between atoms: C2_5  and  C3_10 
ROOT
HETATM    1  C2  UNL     1      73.241  40.333  44.940  1.00  0.00     0.435 C 
ENDROOT
BRANCH   1   2
HETATM    2  N1  UNL     1      73.413  40.055  43.541  1.00  0.00    -0.046 N 
HETATM    3  C1  UNL     1      73.607  41.332  42.838  1.00  0.00     0.269 C 
ATOM      4  H12 UNL     1      72.647  39.505  43.153  1.00  0.00     0.279 HD
ATOM      5  H11 UNL     1      74.166  39.391  43.362  1.00  0.00     0.279 HD
ENDBRANCH   1   2
BRANCH   1   6
HETATM    6  N2  UNL     1      71.955  40.923  45.240  1.00  0.00    -0.046 N 
ATOM      7  H23 UNL     1      71.701  41.622  44.541  1.00  0.00     0.277 HD
ATOM      8  H22 UNL     1      71.201  40.253  45.086  1.00  0.00     0.277 HD
ATOM      9  H21 UNL     1      71.909  41.313  46.181  1.00  0.00     0.277 HD
ENDBRANCH   1   6
BRANCH   1  10
HETATM   10  C3  UNL     1      73.368  39.087  45.757  1.00  0.00     0.379 C 
HETATM   11  N3  UNL     1      74.730  38.917  46.285  1.00  0.00    -0.043 N 
HETATM   12  C4  UNL     1      74.546  37.623  46.965  1.00  0.00     0.261 C 
ATOM     13  H32 UNL     1      75.489  38.968  45.606  1.00  0.00     0.280 HD
ATOM     14  H31 UNL     1      75.093  39.681  46.856  1.00  0.00     0.280 HD
HETATM   15  C5  UNL     1      73.507  36.966  46.074  1.00  0.00     0.198 C 
HETATM   16  O1  UNL     1      73.215  37.915  45.067  1.00  0.00    -0.355 OA
ENDBRANCH   1  10
TORSDOF 3
ENDMDL
MODEL 3
REMARK VINA RESULT: -4.022610261      2.082      2.623
REMARK  3 active torsions:
REMARK  status: ('A' for Active; 'I' for Inactive)
REMARK    1  A    between atoms: N1_2  and  C2_5 
REMARK    2  A    between atoms: C2_5  and  N2_6 
REMARK    3  A    between atoms: C2_5  and  C3_10 
ROOT
HETATM    1  C2  UNL     1      73.860  40.903  43.369  1.00  0.00     0.435 C 
ENDROOT
BRANCH   1   2
HETATM    2  N1  UNL     1      72.884  41.048  42.325  1.00  0.00    -0.046 N 
HETATM    3  C1  UNL     1      72.263  42.375  42.455  1.00  0.00     0.269 C 
ATOM      4  H12 UNL     1      72.199  40.292  42.319  1.00  0.00     0.279 HD
ATOM      5  H11 UNL     1      73.275  40.887  41.397  1.00  0.00     0.279 HD
ENDBRANCH   1   2
BRANCH   1   6
HETATM    6  N2  UNL     1      73.884  42.031  44.274  1.00  0.00    -0.046 N 
ATOM      7  H23 UNL     1      74.669  42.649  44.068  1.00  0.00     0.277 HD
ATOM      8  H22 UNL     1      73.114  42.672  44.080  1.00  0.00     0.277 HD
ATOM      9  H21 UNL     1      73.887  41.751  45.255  1.00  0.00     0.277 HD
ENDBRANCH   1   6
BRANCH   1  10
HETATM   10  C3  UNL     1      73.600  39.676  44.184  1.00  0.00     0.379 C 
HETATM   11  N3  UNL     1      73.398  39.997  45.604  1.00  0.00    -0.043 N 
HETATM   12  C4  UNL     1      73.232  38.627  46.121  1.00  0.00     0.261 C 
ATOM     13  H32 UNL     1      74.121  40.564  46.048  1.00  0.00     0.280 HD
ATOM     14  H31 UNL     1      72.648  40.655  45.818  1.00  0.00     0.280 HD
HETATM   15  C5  UNL     1      74.127  37.845  45.177  1.00  0.00     0.198 C 
HETATM   16  O1  UNL     1      74.645  38.796  44.268  1.00  0.00    -0.355 OA
ENDBRANCH   1  10
TORSDOF 3
ENDMDL
MODEL 4
REMARK VINA RESULT: -3.934389045      8.072      9.310
REMARK  3 active torsions:
REMARK  status: ('A' for Active; 'I' for Inactive)
REMARK    1  A    between atoms: N1_2  and  C2_5 
REMARK    2  A    between atoms: C2_5  and  N2_6 
REMARK    3  A    between atoms: C2_5  and  C3_10 
ROOT
HETATM    1  C2  UNL     1      72.500  33.194  45.941  1.00  0.00     0.435 C 
ENDROOT
BRANCH   1   2
HETATM    2  N1  UNL     1      72.440  32.706  47.291  1.00  0.00    -0.046 N 
HETATM    3  C1  UNL     1      71.356  33.413  47.989  1.00  0.00     0.269 C 
ATOM      4  H12 UNL     1      73.334  32.782  47.776  1.00  0.00     0.279 HD
ATOM      5  H11 UNL     1      72.342  31.692  47.339  1.00  0.00     0.279 HD
ENDBRANCH   1   2
BRANCH   1   6
HETATM    6  N2  UNL     1      73.116  34.499  45.844  1.00  0.00    -0.046 N 
ATOM      7  H23 UNL     1      72.444  35.238  46.053  1.00  0.00     0.277 HD
ATOM      8  H22 UNL     1      73.772  34.652  46.610  1.00  0.00     0.277 HD
ATOM      9  H21 UNL     1      73.565  34.658  44.942  1.00  0.00     0.277 HD
ENDBRANCH   1   6
BRANCH   1  10
HETATM   10  C3  UNL     1      73.276  32.263  45.065  1.00  0.00     0.379 C 
HETATM   11  N3  UNL     1      73.937  31.205  45.843  1.00  0.00    -0.043 N 
HETATM   12  C4  UNL     1      74.636  30.520  44.741  1.00  0.00     0.261 C 
ATOM     13  H32 UNL     1      74.516  31.512  46.624  1.00  0.00     0.280 HD
ATOM     14  H31 UNL     1      73.332  30.625  46.425  1.00  0.00     0.280 HD
HETATM   15  C5  UNL     1      74.914  31.680  43.802  1.00  0.00     0.198 C 
HETATM   16  O1  UNL     1      74.351  32.818  44.425  1.00  0.00    -0.355 OA
ENDBRANCH   1  10
TORSDOF 3
ENDMDL
MODEL 5
REMARK VINA RESULT: -3.896766732      2.474      3.092
REMARK  3 active torsions:
REMARK  status: ('A' for Active; 'I' for Inactive)
REMARK    1  A    between atoms: N1_2  and  C2_5 
REMARK    2  A    between atoms: C2_5  and  N2_6 
REMARK    3  A    between atoms: C2_5  and  C3_10 
ROOT
HETATM    1  C2  UNL     1      73.481  40.223  44.497  1.00  0.00     0.435 C 
ENDROOT
BRANCH   1   2
HETATM    2  N1  UNL     1      73.427  40.301  43.063  1.00  0.00    -0.046 N 
HETATM    3  C1  UNL     1      73.427  41.721  42.680  1.00  0.00     0.269 C 
ATOM      4  H12 UNL     1      72.638  39.788  42.671  1.00  0.00     0.279 HD
ATOM      5  H11 UNL     1      74.173  39.773  42.612  1.00  0.00     0.279 HD
ENDBRANCH   1   2
BRANCH   1   6
HETATM    6  N2  UNL     1      72.298  40.759  45.132  1.00  0.00    -0.046 N 
ATOM      7  H23 UNL     1      71.762  41.333  44.482  1.00  0.00     0.277 HD
ATOM      8  H22 UNL     1      71.613  40.024  45.308  1.00  0.00     0.277 HD
ATOM      9  H21 UNL     1      72.507  41.274  45.987  1.00  0.00     0.277 HD
ENDBRANCH   1   6
BRANCH   1  10
HETATM   10  C3  UNL     1      73.637  38.807  44.954  1.00  0.00     0.379 C 
HETATM   11  N3  UNL     1      73.075  38.602  46.297  1.00  0.00    -0.043 N 
HETATM   12  C4  UNL     1      73.427  37.182  46.472  1.00  0.00     0.261 C 
ATOM     13  H32 UNL     1      73.396  39.241  47.024  1.00  0.00     0.280 HD
ATOM     14  H31 UNL     1      72.091  38.843  46.418  1.00  0.00     0.280 HD
HETATM   15  C5  UNL     1      74.719  37.097  45.679  1.00  0.00     0.198 C 
HETATM   16  O1  UNL     1      74.927  38.393  45.151  1.00  0.00    -0.355 OA
ENDBRANCH   1  10
TORSDOF 3
ENDMDL
