MODEL 1
REMARK VINA RESULT: -5.956659406      0.000      0.000
REMARK  5 active torsions:
REMARK  status: ('A' for Active; 'I' for Inactive)
REMARK    1  A    between atoms: C2_2  and  C4_4 
REMARK    2  A    between atoms: C5_5  and  O1_6 
REMARK    3  A    between atoms: C7_9  and  O2_10 
REMARK    4  A    between atoms: C8_12  and  O3_13 
REMARK    5  A    between atoms: C9_15  and  O4_16 
ROOT
HETATM    1  C4  UNL     1      16.604  17.075  19.968  1.00  0.00     0.049 C 
HETATM    2  C5  UNL     1      16.103  16.509  21.266  1.00  0.00     0.127 C 
HETATM    3  C6  UNL     1      16.839  16.973  22.457  1.00  0.00     0.066 C 
HETATM    4  C7  UNL     1      18.308  17.107  22.314  1.00  0.00     0.151 C 
HETATM    5  C8  UNL     1      18.642  17.862  21.030  1.00  0.00     0.176 C 
HETATM    6  C9  UNL     1      18.132  16.983  19.912  1.00  0.00     0.156 C 
ENDROOT
BRANCH   1   7
HETATM    7  C2  UNL     1      16.077  16.364  18.768  1.00  0.00    -0.014 C 
HETATM    8  C1  UNL     1      15.362  15.075  19.118  1.00  0.00     0.010 C 
HETATM    9  C3  UNL     1      15.225  17.224  17.873  1.00  0.00     0.010 C 
ENDBRANCH   1   7
BRANCH   2  10
HETATM   10  O1  UNL     1      14.754  16.895  21.419  1.00  0.00    -0.395 OA
ATOM     11  H1  UNL     1      14.471  16.636  22.288  1.00  0.00     0.210 HD
ENDBRANCH   2  10
BRANCH   6  12
HETATM   12  O4  UNL     1      18.634  17.291  18.683  1.00  0.00    -0.392 OA
ATOM     13  H4  UNL     1      19.287  17.980  18.714  1.00  0.00     0.210 HD
ENDBRANCH   6  12
BRANCH   5  14
HETATM   14  O3  UNL     1      19.975  18.164  20.921  1.00  0.00    -0.390 OA
ATOM     15  H3  UNL     1      20.409  17.674  20.232  1.00  0.00     0.210 HD
ENDBRANCH   5  14
BRANCH   4  16
HETATM   16  O2  UNL     1      18.827  17.817  23.394  1.00  0.00    -0.393 OA
ATOM     17  H2  UNL     1      19.467  17.285  23.853  1.00  0.00     0.210 HD
ENDBRANCH   4  16
TORSDOF 5
ENDMDL
MODEL 2
REMARK VINA RESULT: -5.917078638      2.169      3.242
REMARK  5 active torsions:
REMARK  status: ('A' for Active; 'I' for Inactive)
REMARK    1  A    between atoms: C2_2  and  C4_4 
REMARK    2  A    between atoms: C5_5  and  O1_6 
REMARK    3  A    between atoms: C7_9  and  O2_10 
REMARK    4  A    between atoms: C8_12  and  O3_13 
REMARK    5  A    between atoms: C9_15  and  O4_16 
ROOT
HETATM    1  C4  UNL     1      15.088  16.753  21.058  1.00  0.00     0.049 C 
HETATM    2  C5  UNL     1      13.786  16.104  21.437  1.00  0.00     0.127 C 
HETATM    3  C6  UNL     1      13.317  16.432  22.796  1.00  0.00     0.066 C 
HETATM    4  C7  UNL     1      14.354  16.507  23.853  1.00  0.00     0.151 C 
HETATM    5  C8  UNL     1      15.532  17.350  23.369  1.00  0.00     0.176 C 
HETATM    6  C9  UNL     1      16.103  16.593  22.193  1.00  0.00     0.156 C 
ENDROOT
BRANCH   1   7
HETATM    7  C2  UNL     1      15.705  16.170  19.831  1.00  0.00    -0.014 C 
HETATM    8  C1  UNL     1      15.113  14.827  19.459  1.00  0.00     0.010 C 
HETATM    9  C3  UNL     1      15.709  17.101  18.649  1.00  0.00     0.010 C 
ENDBRANCH   1   7
BRANCH   2  10
HETATM   10  O1  UNL     1      12.799  16.540  20.527  1.00  0.00    -0.395 OA
ATOM     11  H1  UNL     1      12.466  15.778  20.068  1.00  0.00     0.210 HD
ENDBRANCH   2  10
BRANCH   6  12
HETATM   12  O4  UNL     1      17.360  16.978  21.835  1.00  0.00    -0.392 OA
ATOM     13  H4  UNL     1      17.925  17.133  22.583  1.00  0.00     0.210 HD
ENDBRANCH   6  12
BRANCH   5  14
HETATM   14  O3  UNL     1      16.451  17.596  24.357  1.00  0.00    -0.390 OA
ATOM     15  H3  UNL     1      17.229  18.037  24.035  1.00  0.00     0.210 HD
ENDBRANCH   5  14
BRANCH   4  16
HETATM   16  O2  UNL     1      13.824  17.099  24.996  1.00  0.00    -0.393 OA
ATOM     17  H2  UNL     1      14.468  17.088  25.694  1.00  0.00     0.210 HD
ENDBRANCH   4  16
TORSDOF 5
ENDMDL
MODEL 3
REMARK VINA RESULT: -5.783523991      1.369      3.162
REMARK  5 active torsions:
REMARK  status: ('A' for Active; 'I' for Inactive)
REMARK    1  A    between atoms: C2_2  and  C4_4 
REMARK    2  A    between atoms: C5_5  and  O1_6 
REMARK    3  A    between atoms: C7_9  and  O2_10 
REMARK    4  A    between atoms: C8_12  and  O3_13 
REMARK    5  A    between atoms: C9_15  and  O4_16 
ROOT
HETATM    1  C4  UNL     1      16.419  16.460  21.026  1.00  0.00     0.049 C 
HETATM    2  C5  UNL     1      17.640  17.319  20.852  1.00  0.00     0.127 C 
HETATM    3  C6  UNL     1      18.359  17.615  22.105  1.00  0.00     0.066 C 
HETATM    4  C7  UNL     1      17.522  17.884  23.299  1.00  0.00     0.151 C 
HETATM    5  C8  UNL     1      16.439  16.817  23.428  1.00  0.00     0.176 C 
HETATM    6  C9  UNL     1      15.578  16.977  22.197  1.00  0.00     0.156 C 
ENDROOT
BRANCH   1   7
HETATM    7  C2  UNL     1      15.534  16.437  19.826  1.00  0.00    -0.014 C 
HETATM    8  C1  UNL     1      16.046  17.316  18.703  1.00  0.00     0.010 C 
HETATM    9  C3  UNL     1      15.222  15.053  19.324  1.00  0.00     0.010 C 
ENDBRANCH   1   7
BRANCH   2  10
HETATM   10  O1  UNL     1      18.533  16.640  19.995  1.00  0.00    -0.395 OA
ATOM     11  H1  UNL     1      18.940  15.940  20.491  1.00  0.00     0.210 HD
ENDBRANCH   2  10
BRANCH   6  12
HETATM   12  O4  UNL     1      14.361  16.370  22.280  1.00  0.00    -0.392 OA
ATOM     13  H4  UNL     1      13.705  16.916  22.697  1.00  0.00     0.210 HD
ENDBRANCH   6  12
BRANCH   5  14
HETATM   14  O3  UNL     1      15.734  16.913  24.601  1.00  0.00    -0.390 OA
ATOM     15  H3  UNL     1      14.801  17.023  24.463  1.00  0.00     0.210 HD
ENDBRANCH   5  14
BRANCH   4  16
HETATM   16  O2  UNL     1      18.311  17.858  24.446  1.00  0.00    -0.393 OA
ATOM     17  H2  UNL     1      19.205  18.094  24.228  1.00  0.00     0.210 HD
ENDBRANCH   4  16
TORSDOF 5
ENDMDL
MODEL 4
REMARK VINA RESULT: -5.775820659      1.299      1.806
REMARK  5 active torsions:
REMARK  status: ('A' for Active; 'I' for Inactive)
REMARK    1  A    between atoms: C2_2  and  C4_4 
REMARK    2  A    between atoms: C5_5  and  O1_6 
REMARK    3  A    between atoms: C7_9  and  O2_10 
REMARK    4  A    between atoms: C8_12  and  O3_13 
REMARK    5  A    between atoms: C9_15  and  O4_16 
ROOT
HETATM    1  C4  UNL     1      16.124  17.114  19.913  1.00  0.00     0.049 C 
HETATM    2  C5  UNL     1      16.686  16.501  21.165  1.00  0.00     0.127 C 
HETATM    3  C6  UNL     1      18.010  17.021  21.555  1.00  0.00     0.066 C 
HETATM    4  C7  UNL     1      18.968  17.280  20.454  1.00  0.00     0.151 C 
HETATM    5  C8  UNL     1      18.283  18.067  19.339  1.00  0.00     0.176 C 
HETATM    6  C9  UNL     1      17.197  17.153  18.821  1.00  0.00     0.156 C 
ENDROOT
BRANCH   1   7
HETATM    7  C2  UNL     1      14.959  16.366  19.358  1.00  0.00    -0.014 C 
HETATM    8  C1  UNL     1      15.172  14.866  19.360  1.00  0.00     0.010 C 
HETATM    9  C3  UNL     1      13.644  16.723  19.997  1.00  0.00     0.010 C 
ENDBRANCH   1   7
BRANCH   2  10
HETATM   10  O1  UNL     1      15.792  16.770  22.223  1.00  0.00    -0.395 OA
ATOM     11  H1  UNL     1      16.291  17.137  22.943  1.00  0.00     0.210 HD
ENDBRANCH   2  10
BRANCH   6  12
HETATM   12  O4  UNL     1      16.698  17.507  17.604  1.00  0.00    -0.392 OA
ATOM     13  H4  UNL     1      16.911  16.881  16.922  1.00  0.00     0.210 HD
ENDBRANCH   6  12
BRANCH   5  14
HETATM   14  O3  UNL     1      19.156  18.481  18.366  1.00  0.00    -0.390 OA
ATOM     15  H3  UNL     1      18.720  18.904  17.636  1.00  0.00     0.210 HD
ENDBRANCH   5  14
BRANCH   4  16
HETATM   16  O2  UNL     1      20.044  18.026  20.928  1.00  0.00    -0.393 OA
ATOM     17  H2  UNL     1      20.705  18.107  20.250  1.00  0.00     0.210 HD
ENDBRANCH   4  16
TORSDOF 5
ENDMDL
MODEL 5
REMARK VINA RESULT: -5.597571604      3.743      6.119
REMARK  5 active torsions:
REMARK  status: ('A' for Active; 'I' for Inactive)
REMARK    1  A    between atoms: C2_2  and  C4_4 
REMARK    2  A    between atoms: C5_5  and  O1_6 
REMARK    3  A    between atoms: C7_9  and  O2_10 
REMARK    4  A    between atoms: C8_12  and  O3_13 
REMARK    5  A    between atoms: C9_15  and  O4_16 
ROOT
HETATM    1  C4  UNL     1      13.596  15.907  19.032  1.00  0.00     0.049 C 
HETATM    2  C5  UNL     1      12.713  17.121  19.099  1.00  0.00     0.127 C 
HETATM    3  C6  UNL     1      11.654  17.160  18.073  1.00  0.00     0.066 C 
HETATM    4  C7  UNL     1      12.028  16.684  16.719  1.00  0.00     0.151 C 
HETATM    5  C8  UNL     1      12.764  15.350  16.820  1.00  0.00     0.176 C 
HETATM    6  C9  UNL     1      14.030  15.654  17.586  1.00  0.00     0.156 C 
ENDROOT
BRANCH   1   7
HETATM    7  C2  UNL     1      14.838  16.033  19.848  1.00  0.00    -0.014 C 
HETATM    8  C1  UNL     1      15.767  17.114  19.338  1.00  0.00     0.010 C 
HETATM    9  C3  UNL     1      14.586  16.193  21.323  1.00  0.00     0.010 C 
ENDBRANCH   1   7
BRANCH   2  10
HETATM   10  O1  UNL     1      12.085  17.136  20.363  1.00  0.00    -0.395 OA
ATOM     11  H1  UNL     1      11.164  17.328  20.231  1.00  0.00     0.210 HD
ENDBRANCH   2  10
BRANCH   6  12
HETATM   12  O4  UNL     1      14.992  14.694  17.484  1.00  0.00    -0.392 OA
ATOM     13  H4  UNL     1      15.053  14.326  16.610  1.00  0.00     0.210 HD
ENDBRANCH   6  12
BRANCH   5  14
HETATM   14  O3  UNL     1      12.992  14.775  15.596  1.00  0.00    -0.390 OA
ATOM     15  H3  UNL     1      13.903  14.823  15.330  1.00  0.00     0.210 HD
ENDBRANCH   5  14
BRANCH   4  16
HETATM   16  O2  UNL     1      10.884  16.504  15.947  1.00  0.00    -0.393 OA
ATOM     17  H2  UNL     1      10.109  16.629  16.483  1.00  0.00     0.210 HD
ENDBRANCH   4  16
TORSDOF 5
ENDMDL
