MODEL 1
REMARK VINA RESULT: -6.685477994      0.000      0.000
REMARK  10 active torsions:
REMARK  status: ('A' for Active; 'I' for Inactive)
REMARK    1  A    between atoms: C2_2  and  C3_3 
REMARK    2  A    between atoms: C3_3  and  C4_4 
REMARK    3  A    between atoms: C4_4  and  N1_5 
REMARK    4  A    between atoms: N2_9  and  C7_11 
REMARK    5  A    between atoms: N4_14  and  C9_15 
REMARK    6  A    between atoms: C10_17  and  C11_18 
REMARK    7  A    between atoms: C11_18  and  O1_19 
REMARK    8  A    between atoms: C12_21  and  O2_22 
REMARK    9  A    between atoms: C13_24  and  O3_25 
REMARK   10  A    between atoms: C14_27  and  O4_28 
ROOT
HETATM    1  C7  UNL     1     -14.167  43.882  36.090  1.00  0.00     0.246 C 
HETATM    2  C8  UNL     1     -13.136  43.961  37.149  1.00  0.00     0.078 C 
HETATM    3  N3  UNL     1     -12.326  44.030  37.979  1.00  0.00    -0.196 NA
ENDROOT
BRANCH   1   4
HETATM    4  N2  UNL     1     -14.274  45.084  35.333  1.00  0.00    -0.358 N 
HETATM    5  C6  UNL     1     -13.675  45.363  34.252  1.00  0.00     0.143 C 
HETATM    6  S1  UNL     1     -12.558  44.180  33.529  1.00  0.00    -0.064 SA
HETATM    7  N4  UNL     1     -13.850  46.597  33.571  1.00  0.00    -0.320 N 
HETATM    8  C5  UNL     1     -12.295  44.640  31.797  1.00  0.00     0.356 C 
HETATM    9  N1  UNL     1     -13.076  45.823  31.410  1.00  0.00     0.115 N 
HETATM   10  C15 UNL     1     -13.010  46.846  32.438  1.00  0.00     0.401 C 
ATOM     11  H2  UNL     1     -14.902  45.798  35.702  1.00  0.00     0.162 HD
BRANCH   9  12
HETATM   12  C4  UNL     1     -12.447  46.387  30.246  1.00  0.00     0.275 C 
BRANCH  12  13
HETATM   13  C3  UNL     1     -12.523  47.845  30.058  1.00  0.00     0.030 C 
BRANCH  13  14
HETATM   14  C2  UNL     1     -11.306  48.527  29.523  1.00  0.00    -0.003 C 
HETATM   15  C1  UNL     1     -10.075  48.157  30.274  1.00  0.00     0.005 C 
ENDBRANCH  13  14
ENDBRANCH  12  13
ENDBRANCH   9  12
BRANCH   7  16
HETATM   16  C9  UNL     1     -14.854  47.531  34.055  1.00  0.00     0.182 C 
HETATM   17  S2  UNL     1     -15.394  48.526  32.638  1.00  0.00    -0.131 SA
HETATM   18  C10 UNL     1     -16.458  49.871  33.280  1.00  0.00     0.104 C 
HETATM   19  C12 UNL     1     -16.326  49.847  34.780  1.00  0.00     0.165 C 
HETATM   20  C13 UNL     1     -14.878  49.790  35.140  1.00  0.00     0.179 C 
HETATM   21  C14 UNL     1     -14.334  48.381  35.185  1.00  0.00     0.182 C 
BRANCH  18  22
HETATM   22  C11 UNL     1     -16.018  51.166  32.667  1.00  0.00     0.181 C 
BRANCH  22  23
HETATM   23  O1  UNL     1     -17.148  51.869  32.242  1.00  0.00    -0.400 OA
ATOM     24  H1  UNL     1     -17.298  52.596  32.836  1.00  0.00     0.209 HD
ENDBRANCH  22  23
ENDBRANCH  18  22
BRANCH  19  25
HETATM   25  O2  UNL     1     -16.852  51.017  35.348  1.00  0.00    -0.392 OA
ATOM     26  H2  UNL     1     -16.264  51.370  36.005  1.00  0.00     0.210 HD
ENDBRANCH  19  25
BRANCH  20  27
HETATM   27  O3  UNL     1     -14.725  50.336  36.420  1.00  0.00    -0.390 OA
ATOM     28  H3  UNL     1     -13.850  50.129  36.726  1.00  0.00     0.210 HD
ENDBRANCH  20  27
BRANCH  21  29
HETATM   29  O4  UNL     1     -12.938  48.491  35.064  1.00  0.00    -0.390 OA
ATOM     30  H4  UNL     1     -12.668  49.339  35.395  1.00  0.00     0.210 HD
ENDBRANCH  21  29
ENDBRANCH   7  16
ENDBRANCH   1   4
TORSDOF 10
ENDMDL
MODEL 2
REMARK VINA RESULT: -6.578490640      0.804      1.332
REMARK  10 active torsions:
REMARK  status: ('A' for Active; 'I' for Inactive)
REMARK    1  A    between atoms: C2_2  and  C3_3 
REMARK    2  A    between atoms: C3_3  and  C4_4 
REMARK    3  A    between atoms: C4_4  and  N1_5 
REMARK    4  A    between atoms: N2_9  and  C7_11 
REMARK    5  A    between atoms: N4_14  and  C9_15 
REMARK    6  A    between atoms: C10_17  and  C11_18 
REMARK    7  A    between atoms: C11_18  and  O1_19 
REMARK    8  A    between atoms: C12_21  and  O2_22 
REMARK    9  A    between atoms: C13_24  and  O3_25 
REMARK   10  A    between atoms: C14_27  and  O4_28 
ROOT
HETATM    1  C7  UNL     1     -14.167  43.924  36.181  1.00  0.00     0.246 C 
HETATM    2  C8  UNL     1     -13.115  44.016  37.219  1.00  0.00     0.078 C 
HETATM    3  N3  UNL     1     -12.289  44.094  38.031  1.00  0.00    -0.196 NA
ENDROOT
BRANCH   1   4
HETATM    4  N2  UNL     1     -14.284  45.114  35.408  1.00  0.00    -0.358 N 
HETATM    5  C6  UNL     1     -13.684  45.383  34.324  1.00  0.00     0.143 C 
HETATM    6  S1  UNL     1     -12.555  44.202  33.621  1.00  0.00    -0.064 SA
HETATM    7  N4  UNL     1     -13.869  46.607  33.625  1.00  0.00    -0.320 N 
HETATM    8  C5  UNL     1     -12.291  44.640  31.883  1.00  0.00     0.356 C 
HETATM    9  N1  UNL     1     -13.083  45.810  31.477  1.00  0.00     0.115 N 
HETATM   10  C15 UNL     1     -13.029  46.848  32.491  1.00  0.00     0.401 C 
ATOM     11  H2  UNL     1     -14.919  45.828  35.765  1.00  0.00     0.162 HD
BRANCH   9  12
HETATM   12  C4  UNL     1     -12.456  46.363  30.308  1.00  0.00     0.275 C 
BRANCH  12  13
HETATM   13  C3  UNL     1     -13.255  47.255  29.451  1.00  0.00     0.030 C 
BRANCH  13  14
HETATM   14  C2  UNL     1     -14.458  46.666  28.789  1.00  0.00    -0.003 C 
HETATM   15  C1  UNL     1     -14.147  45.389  28.089  1.00  0.00     0.005 C 
ENDBRANCH  13  14
ENDBRANCH  12  13
ENDBRANCH   9  12
BRANCH   7  16
HETATM   16  C9  UNL     1     -14.884  47.537  34.094  1.00  0.00     0.182 C 
HETATM   17  S2  UNL     1     -15.430  48.507  32.661  1.00  0.00    -0.131 SA
HETATM   18  C10 UNL     1     -16.509  49.850  33.281  1.00  0.00     0.104 C 
HETATM   19  C12 UNL     1     -16.381  49.848  34.782  1.00  0.00     0.165 C 
HETATM   20  C13 UNL     1     -14.933  49.811  35.146  1.00  0.00     0.179 C 
HETATM   21  C14 UNL     1     -14.376  48.408  35.212  1.00  0.00     0.182 C 
BRANCH  18  22
HETATM   22  C11 UNL     1     -16.080  51.141  32.651  1.00  0.00     0.181 C 
BRANCH  22  23
HETATM   23  O1  UNL     1     -17.214  51.815  32.191  1.00  0.00    -0.400 OA
ATOM     24  H1  UNL     1     -17.048  52.750  32.225  1.00  0.00     0.209 HD
ENDBRANCH  22  23
ENDBRANCH  18  22
BRANCH  19  25
HETATM   25  O2  UNL     1     -16.920  51.022  35.332  1.00  0.00    -0.392 OA
ATOM     26  H2  UNL     1     -16.995  50.951  36.276  1.00  0.00     0.210 HD
ENDBRANCH  19  25
BRANCH  20  27
HETATM   27  O3  UNL     1     -14.789  50.377  36.418  1.00  0.00    -0.390 OA
ATOM     28  H3  UNL     1     -15.366  49.913  37.014  1.00  0.00     0.210 HD
ENDBRANCH  20  27
BRANCH  21  29
HETATM   29  O4  UNL     1     -12.980  48.530  35.093  1.00  0.00    -0.390 OA
ATOM     30  H4  UNL     1     -12.571  48.094  35.831  1.00  0.00     0.210 HD
ENDBRANCH  21  29
ENDBRANCH   7  16
ENDBRANCH   1   4
TORSDOF 10
ENDMDL
MODEL 3
REMARK VINA RESULT: -6.507640744      2.282      3.064
REMARK  10 active torsions:
REMARK  status: ('A' for Active; 'I' for Inactive)
REMARK    1  A    between atoms: C2_2  and  C3_3 
REMARK    2  A    between atoms: C3_3  and  C4_4 
REMARK    3  A    between atoms: C4_4  and  N1_5 
REMARK    4  A    between atoms: N2_9  and  C7_11 
REMARK    5  A    between atoms: N4_14  and  C9_15 
REMARK    6  A    between atoms: C10_17  and  C11_18 
REMARK    7  A    between atoms: C11_18  and  O1_19 
REMARK    8  A    between atoms: C12_21  and  O2_22 
REMARK    9  A    between atoms: C13_24  and  O3_25 
REMARK   10  A    between atoms: C14_27  and  O4_28 
ROOT
HETATM    1  C7  UNL     1     -13.209  42.874  37.600  1.00  0.00     0.246 C 
HETATM    2  C8  UNL     1     -12.733  43.300  38.936  1.00  0.00     0.078 C 
HETATM    3  N3  UNL     1     -12.360  43.640  39.982  1.00  0.00    -0.196 NA
ENDROOT
BRANCH   1   4
HETATM    4  N2  UNL     1     -13.281  43.952  36.672  1.00  0.00    -0.358 N 
HETATM    5  C6  UNL     1     -12.966  43.926  35.445  1.00  0.00     0.143 C 
HETATM    6  S1  UNL     1     -12.358  42.419  34.719  1.00  0.00    -0.064 SA
HETATM    7  N4  UNL     1     -13.074  45.062  34.598  1.00  0.00    -0.320 N 
HETATM    8  C5  UNL     1     -12.505  42.562  32.919  1.00  0.00     0.356 C 
HETATM    9  N1  UNL     1     -13.110  43.837  32.509  1.00  0.00     0.115 N 
HETATM   10  C15 UNL     1     -12.554  44.942  33.269  1.00  0.00     0.401 C 
ATOM     11  H2  UNL     1     -13.623  44.842  37.034  1.00  0.00     0.162 HD
BRANCH   9  12
HETATM   12  C4  UNL     1     -12.733  44.066  31.140  1.00  0.00     0.275 C 
BRANCH  12  13
HETATM   13  C3  UNL     1     -12.722  42.914  30.224  1.00  0.00     0.030 C 
BRANCH  13  14
HETATM   14  C2  UNL     1     -13.920  42.727  29.350  1.00  0.00    -0.003 C 
HETATM   15  C1  UNL     1     -14.618  41.439  29.619  1.00  0.00     0.005 C 
ENDBRANCH  13  14
ENDBRANCH  12  13
ENDBRANCH   9  12
BRANCH   7  16
HETATM   16  C9  UNL     1     -13.693  46.271  35.119  1.00  0.00     0.182 C 
HETATM   17  S2  UNL     1     -14.570  47.064  33.742  1.00  0.00    -0.131 SA
HETATM   18  C10 UNL     1     -15.130  48.709  34.319  1.00  0.00     0.104 C 
HETATM   19  C12 UNL     1     -14.466  48.950  35.650  1.00  0.00     0.165 C 
HETATM   20  C13 UNL     1     -13.008  48.646  35.526  1.00  0.00     0.179 C 
HETATM   21  C14 UNL     1     -12.686  47.188  35.759  1.00  0.00     0.182 C 
BRANCH  18  22
HETATM   22  C11 UNL     1     -14.769  49.730  33.283  1.00  0.00     0.181 C 
BRANCH  22  23
HETATM   23  O1  UNL     1     -15.570  50.860  33.468  1.00  0.00    -0.400 OA
ATOM     24  H1  UNL     1     -16.030  51.044  32.657  1.00  0.00     0.209 HD
ENDBRANCH  22  23
ENDBRANCH  18  22
BRANCH  19  25
HETATM   25  O2  UNL     1     -14.582  50.295  36.031  1.00  0.00    -0.392 OA
ATOM     26  H2  UNL     1     -13.805  50.785  35.789  1.00  0.00     0.210 HD
ENDBRANCH  19  25
BRANCH  20  27
HETATM   27  O3  UNL     1     -12.326  49.384  36.501  1.00  0.00    -0.390 OA
ATOM     28  H3  UNL     1     -12.045  48.784  37.182  1.00  0.00     0.210 HD
ENDBRANCH  20  27
BRANCH  21  29
HETATM   29  O4  UNL     1     -11.429  46.962  35.172  1.00  0.00    -0.390 OA
ATOM     30  H4  UNL     1     -10.911  47.755  35.243  1.00  0.00     0.210 HD
ENDBRANCH  21  29
ENDBRANCH   7  16
ENDBRANCH   1   4
TORSDOF 10
ENDMDL
MODEL 4
REMARK VINA RESULT: -6.459287390      4.029      5.763
REMARK  10 active torsions:
REMARK  status: ('A' for Active; 'I' for Inactive)
REMARK    1  A    between atoms: C2_2  and  C3_3 
REMARK    2  A    between atoms: C3_3  and  C4_4 
REMARK    3  A    between atoms: C4_4  and  N1_5 
REMARK    4  A    between atoms: N2_9  and  C7_11 
REMARK    5  A    between atoms: N4_14  and  C9_15 
REMARK    6  A    between atoms: C10_17  and  C11_18 
REMARK    7  A    between atoms: C11_18  and  O1_19 
REMARK    8  A    between atoms: C12_21  and  O2_22 
REMARK    9  A    between atoms: C13_24  and  O3_25 
REMARK   10  A    between atoms: C14_27  and  O4_28 
ROOT
HETATM    1  C7  UNL     1     -13.510  40.049  39.338  1.00  0.00     0.246 C 
HETATM    2  C8  UNL     1     -13.876  40.701  40.616  1.00  0.00     0.078 C 
HETATM    3  N3  UNL     1     -14.164  41.218  41.615  1.00  0.00    -0.196 NA
ENDROOT
BRANCH   1   4
HETATM    4  N2  UNL     1     -13.287  40.983  38.287  1.00  0.00    -0.358 N 
HETATM    5  C6  UNL     1     -12.713  40.765  37.179  1.00  0.00     0.143 C 
HETATM    6  S1  UNL     1     -12.084  39.141  36.813  1.00  0.00    -0.064 SA
HETATM    7  N4  UNL     1     -12.540  41.770  36.190  1.00  0.00    -0.320 N 
HETATM    8  C5  UNL     1     -11.819  39.029  35.025  1.00  0.00     0.356 C 
HETATM    9  N1  UNL     1     -12.213  40.259  34.325  1.00  0.00     0.115 N 
HETATM   10  C15 UNL     1     -11.751  41.434  35.043  1.00  0.00     0.401 C 
ATOM     11  H2  UNL     1     -13.628  41.932  38.443  1.00  0.00     0.162 HD
BRANCH   9  12
HETATM   12  C4  UNL     1     -11.527  40.270  33.061  1.00  0.00     0.275 C 
BRANCH  12  13
HETATM   13  C3  UNL     1     -11.518  41.523  32.290  1.00  0.00     0.030 C 
BRANCH  13  14
HETATM   14  C2  UNL     1     -12.658  41.755  31.353  1.00  0.00    -0.003 C 
HETATM   15  C1  UNL     1     -12.771  40.684  30.326  1.00  0.00     0.005 C 
ENDBRANCH  13  14
ENDBRANCH  12  13
ENDBRANCH   9  12
BRANCH   7  16
HETATM   16  C9  UNL     1     -13.159  43.071  36.393  1.00  0.00     0.182 C 
HETATM   17  S2  UNL     1     -13.789  43.626  34.785  1.00  0.00    -0.131 SA
HETATM   18  C10 UNL     1     -14.333  45.364  34.976  1.00  0.00     0.104 C 
HETATM   19  C12 UNL     1     -13.850  45.823  36.327  1.00  0.00     0.165 C 
HETATM   20  C13 UNL     1     -12.408  45.460  36.475  1.00  0.00     0.179 C 
HETATM   21  C14 UNL     1     -12.203  44.060  37.005  1.00  0.00     0.182 C 
BRANCH  18  22
HETATM   22  C11 UNL     1     -13.776  46.169  33.841  1.00  0.00     0.181 C 
BRANCH  22  23
HETATM   23  O1  UNL     1     -14.713  47.138  33.474  1.00  0.00    -0.400 OA
ATOM     24  H1  UNL     1     -15.552  46.913  33.859  1.00  0.00     0.209 HD
ENDBRANCH  22  23
ENDBRANCH  18  22
BRANCH  19  25
HETATM   25  O2  UNL     1     -13.944  47.218  36.445  1.00  0.00    -0.392 OA
ATOM     26  H2  UNL     1     -14.231  47.609  35.628  1.00  0.00     0.210 HD
ENDBRANCH  19  25
BRANCH  20  27
HETATM   27  O3  UNL     1     -11.830  46.342  37.395  1.00  0.00    -0.390 OA
ATOM     28  H3  UNL     1     -12.190  46.151  38.253  1.00  0.00     0.210 HD
ENDBRANCH  20  27
BRANCH  21  29
HETATM   29  O4  UNL     1     -10.890  43.695  36.658  1.00  0.00    -0.390 OA
ATOM     30  H4  UNL     1     -10.673  44.090  35.822  1.00  0.00     0.210 HD
ENDBRANCH  21  29
ENDBRANCH   7  16
ENDBRANCH   1   4
TORSDOF 10
ENDMDL
MODEL 5
REMARK VINA RESULT: -6.437506251      1.855      2.310
REMARK  10 active torsions:
REMARK  status: ('A' for Active; 'I' for Inactive)
REMARK    1  A    between atoms: C2_2  and  C3_3 
REMARK    2  A    between atoms: C3_3  and  C4_4 
REMARK    3  A    between atoms: C4_4  and  N1_5 
REMARK    4  A    between atoms: N2_9  and  C7_11 
REMARK    5  A    between atoms: N4_14  and  C9_15 
REMARK    6  A    between atoms: C10_17  and  C11_18 
REMARK    7  A    between atoms: C11_18  and  O1_19 
REMARK    8  A    between atoms: C12_21  and  O2_22 
REMARK    9  A    between atoms: C13_24  and  O3_25 
REMARK   10  A    between atoms: C14_27  and  O4_28 
ROOT
HETATM    1  C7  UNL     1     -13.273  42.908  37.536  1.00  0.00     0.246 C 
HETATM    2  C8  UNL     1     -12.765  43.304  38.869  1.00  0.00     0.078 C 
HETATM    3  N3  UNL     1     -12.367  43.621  39.913  1.00  0.00    -0.196 NA
ENDROOT
BRANCH   1   4
HETATM    4  N2  UNL     1     -13.323  43.997  36.619  1.00  0.00    -0.358 N 
HETATM    5  C6  UNL     1     -12.992  43.983  35.396  1.00  0.00     0.143 C 
HETATM    6  S1  UNL     1     -12.389  42.479  34.660  1.00  0.00    -0.064 SA
HETATM    7  N4  UNL     1     -13.079  45.129  34.562  1.00  0.00    -0.320 N 
HETATM    8  C5  UNL     1     -12.511  42.644  32.861  1.00  0.00     0.356 C 
HETATM    9  N1  UNL     1     -13.099  43.929  32.458  1.00  0.00     0.115 N 
HETATM   10  C15 UNL     1     -12.543  45.020  33.239  1.00  0.00     0.401 C 
ATOM     11  H2  UNL     1     -13.662  44.886  36.988  1.00  0.00     0.162 HD
BRANCH   9  12
HETATM   12  C4  UNL     1     -12.702  44.171  31.097  1.00  0.00     0.275 C 
BRANCH  12  13
HETATM   13  C3  UNL     1     -12.554  45.568  30.658  1.00  0.00     0.030 C 
BRANCH  13  14
HETATM   14  C2  UNL     1     -13.416  46.022  29.525  1.00  0.00    -0.003 C 
HETATM   15  C1  UNL     1     -14.325  47.134  29.918  1.00  0.00     0.005 C 
ENDBRANCH  13  14
ENDBRANCH  12  13
ENDBRANCH   9  12
BRANCH   7  16
HETATM   16  C9  UNL     1     -13.694  46.337  35.089  1.00  0.00     0.182 C 
HETATM   17  S2  UNL     1     -14.559  47.146  33.714  1.00  0.00    -0.131 SA
HETATM   18  C10 UNL     1     -15.113  48.790  34.301  1.00  0.00     0.104 C 
HETATM   19  C12 UNL     1     -14.454  49.017  35.636  1.00  0.00     0.165 C 
HETATM   20  C13 UNL     1     -12.998  48.706  35.517  1.00  0.00     0.179 C 
HETATM   21  C14 UNL     1     -12.685  47.245  35.741  1.00  0.00     0.182 C 
BRANCH  18  22
HETATM   22  C11 UNL     1     -14.742  49.817  33.274  1.00  0.00     0.181 C 
BRANCH  22  23
HETATM   23  O1  UNL     1     -15.568  50.932  33.435  1.00  0.00    -0.400 OA
ATOM     24  H1  UNL     1     -15.916  50.930  34.319  1.00  0.00     0.209 HD
ENDBRANCH  22  23
ENDBRANCH  18  22
BRANCH  19  25
HETATM   25  O2  UNL     1     -14.564  50.360  36.027  1.00  0.00    -0.392 OA
ATOM     26  H2  UNL     1     -15.281  50.477  36.639  1.00  0.00     0.210 HD
ENDBRANCH  19  25
BRANCH  20  27
HETATM   27  O3  UNL     1     -12.316  49.433  36.501  1.00  0.00    -0.390 OA
ATOM     28  H3  UNL     1     -11.669  48.860  36.895  1.00  0.00     0.210 HD
ENDBRANCH  20  27
BRANCH  21  29
HETATM   29  O4  UNL     1     -11.426  47.016  35.158  1.00  0.00    -0.390 OA
ATOM     30  H4  UNL     1     -11.481  46.246  34.604  1.00  0.00     0.210 HD
ENDBRANCH  21  29
ENDBRANCH   7  16
ENDBRANCH   1   4
TORSDOF 10
ENDMDL
