MODEL 1
REMARK VINA RESULT: -6.624634436      0.000      0.000
REMARK  16 active torsions:
REMARK  status: ('A' for Active; 'I' for Inactive)
REMARK    1  A    between atoms: C3_3  and  N1_4 
REMARK    2  A    between atoms: C4_6  and  C5_7 
REMARK    3  A    between atoms: C4_6  and  N4_12 
REMARK    4  A    between atoms: C5_7  and  N2_8 
REMARK    5  A    between atoms: N2_8  and  N3_9 
REMARK    6  A    between atoms: N4_12  and  C6_14 
REMARK    7  A    between atoms: C6_14  and  C7_15 
REMARK    8  A    between atoms: C7_15  and  C8_16 
REMARK    9  A    between atoms: C8_16  and  C9_17 
REMARK   10  A    between atoms: C9_17  and  N5_18 
REMARK   11  A    between atoms: N5_18  and  C10_20 
REMARK   12  A    between atoms: C11_23  and  N7_24 
REMARK   13  A    between atoms: N7_24  and  C12_26 
REMARK   14  A    between atoms: C12_26  and  C13_27 
REMARK   15  A    between atoms: C13_27  and  O1_28 
REMARK   16  A    between atoms: C16_34  and  N9_35 
ROOT
HETATM    1  C1  UNL     1      16.617  13.536  34.668  1.00  0.00     0.113 C 
HETATM    2  C2  UNL     1      17.131  14.831  34.200  1.00  0.00    -0.088 C 
HETATM    3  C3  UNL     1      17.556  15.905  33.835  1.00  0.00     0.011 C 
ENDROOT
BRANCH   3   4
HETATM    4  N1  UNL     1      18.032  17.148  33.440  1.00  0.00    -0.299 N 
HETATM    5  C4  UNL     1      18.464  17.431  32.266  1.00  0.00     0.140 C 
ATOM      6  H1  UNL     1      18.040  17.893  34.137  1.00  0.00     0.178 HD
BRANCH   5   7
HETATM    7  C5  UNL     1      18.935  18.793  32.002  1.00  0.00     0.257 C 
BRANCH   7   8
HETATM    8  N2  UNL     1      18.617  19.703  32.793  1.00  0.00    -0.342 NA
BRANCH   8   9
HETATM    9  N3  UNL     1      18.406  20.486  33.728  1.00  0.00    -0.281 N 
ATOM     10  H32 UNL     1      18.394  19.688  34.363  1.00  0.00     0.191 HD
ATOM     11  H31 UNL     1      18.238  21.258  34.372  1.00  0.00     0.191 HD
ENDBRANCH   8   9
ENDBRANCH   7   8
ENDBRANCH   5   7
BRANCH   5  12
HETATM   12  N4  UNL     1      18.471  16.423  31.278  1.00  0.00    -0.374 N 
ATOM     13  H4  UNL     1      18.578  15.453  31.572  1.00  0.00     0.161 HD
BRANCH  12  14
HETATM   14  C6  UNL     1      18.330  16.707  29.858  1.00  0.00     0.121 C 
BRANCH  14  15
HETATM   15  C7  UNL     1      17.277  15.856  29.214  1.00  0.00     0.021 C 
BRANCH  15  16
HETATM   16  C8  UNL     1      16.711  14.866  30.210  1.00  0.00     0.021 C 
BRANCH  16  17
HETATM   17  C9  UNL     1      15.214  14.733  30.077  1.00  0.00     0.121 C 
BRANCH  17  18
HETATM   18  N5  UNL     1      14.614  16.027  30.159  1.00  0.00    -0.375 N 
ATOM     19  H5  UNL     1      14.121  16.360  29.330  1.00  0.00     0.161 HD
BRANCH  18  20
HETATM   20  C10 UNL     1      14.636  16.808  31.167  1.00  0.00     0.136 A 
HETATM   21  N6  UNL     1      15.108  18.071  31.105  1.00  0.00    -0.176 N 
HETATM   22  C11 UNL     1      15.064  18.760  32.274  1.00  0.00     0.680 A 
ATOM     23  H6  UNL     1      15.471  18.478  30.242  1.00  0.00     0.186 HD
HETATM   24  N8  UNL     1      14.606  18.288  33.420  1.00  0.00    -0.190 N 
HETATM   25  C14 UNL     1      14.115  17.009  33.529  1.00  0.00     0.072 A 
ATOM     26  H8  UNL     1      14.616  18.889  34.244  1.00  0.00     0.184 HD
HETATM   27  C15 UNL     1      13.619  16.400  34.628  1.00  0.00     0.068 A 
HETATM   28  C19 UNL     1      14.143  16.284  32.374  1.00  0.00     0.078 A 
HETATM   29  C16 UNL     1      13.188  15.112  34.488  1.00  0.00     0.074 A 
HETATM   30  S1  UNL     1      13.484  14.786  32.839  1.00  0.00    -0.067 SA
BRANCH  22  31
HETATM   31  N7  UNL     1      15.520  19.964  32.190  1.00  0.00    -0.224 N 
ATOM     32  H7  UNL     1      16.226  20.293  32.849  1.00  0.00     0.177 HD
BRANCH  31  33
HETATM   33  C12 UNL     1      15.030  20.834  31.172  1.00  0.00     0.164 C 
BRANCH  33  34
HETATM   34  C13 UNL     1      15.678  22.202  31.213  1.00  0.00     0.184 C 
BRANCH  34  35
HETATM   35  O1  UNL     1      16.936  22.190  31.786  1.00  0.00    -0.399 OA
ATOM     36  H1  UNL     1      16.921  22.356  32.721  1.00  0.00     0.209 HD
ENDBRANCH  34  35
ENDBRANCH  33  34
ENDBRANCH  31  33
ENDBRANCH  22  31
BRANCH  29  37
HETATM   37  N9  UNL     1      12.621  14.240  35.473  1.00  0.00    -0.384 N 
HETATM   38  C17 UNL     1      11.234  13.874  35.348  1.00  0.00     0.149 C 
HETATM   39  C18 UNL     1      13.411  13.751  36.542  1.00  0.00     0.149 C 
ENDBRANCH  29  37
ENDBRANCH  18  20
ENDBRANCH  17  18
ENDBRANCH  16  17
ENDBRANCH  15  16
ENDBRANCH  14  15
ENDBRANCH  12  14
ENDBRANCH   5  12
ENDBRANCH   3   4
TORSDOF 16
ENDMDL
MODEL 2
REMARK VINA RESULT: -6.541208784      2.879      5.183
REMARK  16 active torsions:
REMARK  status: ('A' for Active; 'I' for Inactive)
REMARK    1  A    between atoms: C3_3  and  N1_4 
REMARK    2  A    between atoms: C4_6  and  C5_7 
REMARK    3  A    between atoms: C4_6  and  N4_12 
REMARK    4  A    between atoms: C5_7  and  N2_8 
REMARK    5  A    between atoms: N2_8  and  N3_9 
REMARK    6  A    between atoms: N4_12  and  C6_14 
REMARK    7  A    between atoms: C6_14  and  C7_15 
REMARK    8  A    between atoms: C7_15  and  C8_16 
REMARK    9  A    between atoms: C8_16  and  C9_17 
REMARK   10  A    between atoms: C9_17  and  N5_18 
REMARK   11  A    between atoms: N5_18  and  C10_20 
REMARK   12  A    between atoms: C11_23  and  N7_24 
REMARK   13  A    between atoms: N7_24  and  C12_26 
REMARK   14  A    between atoms: C12_26  and  C13_27 
REMARK   15  A    between atoms: C13_27  and  O1_28 
REMARK   16  A    between atoms: C16_34  and  N9_35 
ROOT
HETATM    1  C1  UNL     1      16.931  20.343  32.082  1.00  0.00     0.113 C 
HETATM    2  C2  UNL     1      17.347  18.991  32.477  1.00  0.00    -0.088 C 
HETATM    3  C3  UNL     1      17.671  17.872  32.813  1.00  0.00     0.011 C 
ENDROOT
BRANCH   3   4
HETATM    4  N1  UNL     1      18.024  16.592  33.219  1.00  0.00    -0.299 N 
HETATM    5  C4  UNL     1      18.633  15.731  32.489  1.00  0.00     0.140 C 
ATOM      6  H1  UNL     1      17.780  16.315  34.170  1.00  0.00     0.178 HD
BRANCH   5   7
HETATM    7  C5  UNL     1      18.938  14.418  33.063  1.00  0.00     0.257 C 
BRANCH   7   8
HETATM    8  N2  UNL     1      20.032  14.252  33.639  1.00  0.00    -0.342 NA
BRANCH   8   9
HETATM    9  N3  UNL     1      21.032  13.898  34.276  1.00  0.00    -0.281 N 
ATOM     10  H32 UNL     1      20.588  14.252  35.123  1.00  0.00     0.191 HD
ATOM     11  H31 UNL     1      21.917  13.549  34.642  1.00  0.00     0.191 HD
ENDBRANCH   8   9
ENDBRANCH   7   8
ENDBRANCH   5   7
BRANCH   5  12
HETATM   12  N4  UNL     1      18.983  16.079  31.167  1.00  0.00    -0.374 N 
ATOM     13  H4  UNL     1      19.650  16.837  31.024  1.00  0.00     0.161 HD
BRANCH  12  14
HETATM   14  C6  UNL     1      18.436  15.405  30.000  1.00  0.00     0.121 C 
BRANCH  14  15
HETATM   15  C7  UNL     1      17.050  15.873  29.677  1.00  0.00     0.021 C 
BRANCH  15  16
HETATM   16  C8  UNL     1      16.127  14.692  29.456  1.00  0.00     0.021 C 
BRANCH  16  17
HETATM   17  C9  UNL     1      16.074  13.791  30.665  1.00  0.00     0.121 C 
BRANCH  17  18
HETATM   18  N5  UNL     1      14.917  14.107  31.441  1.00  0.00    -0.375 N 
ATOM     19  H5  UNL     1      14.028  13.720  31.120  1.00  0.00     0.161 HD
BRANCH  18  20
HETATM   20  C10 UNL     1      14.885  14.824  32.494  1.00  0.00     0.136 A 
HETATM   21  N6  UNL     1      15.348  14.393  33.687  1.00  0.00    -0.176 N 
HETATM   22  C11 UNL     1      15.229  15.283  34.706  1.00  0.00     0.680 A 
ATOM     23  H6  UNL     1      15.758  13.468  33.813  1.00  0.00     0.186 HD
HETATM   24  N8  UNL     1      14.710  16.494  34.604  1.00  0.00    -0.190 N 
HETATM   25  C14 UNL     1      14.227  16.973  33.410  1.00  0.00     0.072 A 
ATOM     26  H8  UNL     1      14.666  17.087  35.432  1.00  0.00     0.184 HD
HETATM   27  C15 UNL     1      13.673  18.180  33.162  1.00  0.00     0.068 A 
HETATM   28  C19 UNL     1      14.328  16.107  32.361  1.00  0.00     0.078 A 
HETATM   29  C16 UNL     1      13.264  18.429  31.883  1.00  0.00     0.074 A 
HETATM   30  S1  UNL     1      13.658  16.984  31.066  1.00  0.00    -0.067 SA
BRANCH  22  31
HETATM   31  N7  UNL     1      15.679  14.851  35.835  1.00  0.00    -0.224 N 
ATOM     32  H7  UNL     1      16.240  15.460  36.432  1.00  0.00     0.177 HD
BRANCH  31  33
HETATM   33  C12 UNL     1      15.388  13.516  36.246  1.00  0.00     0.164 C 
BRANCH  33  34
HETATM   34  C13 UNL     1      14.251  13.449  37.244  1.00  0.00     0.184 C 
BRANCH  34  35
HETATM   35  O1  UNL     1      14.448  14.260  38.346  1.00  0.00    -0.399 OA
ATOM     36  H1  UNL     1      14.365  13.796  39.171  1.00  0.00     0.209 HD
ENDBRANCH  34  35
ENDBRANCH  33  34
ENDBRANCH  31  33
ENDBRANCH  22  31
BRANCH  29  37
HETATM   37  N9  UNL     1      12.656  19.610  31.345  1.00  0.00    -0.384 N 
HETATM   38  C17 UNL     1      13.441  20.453  30.481  1.00  0.00     0.149 C 
HETATM   39  C18 UNL     1      11.314  19.936  31.659  1.00  0.00     0.149 C 
ENDBRANCH  29  37
ENDBRANCH  18  20
ENDBRANCH  17  18
ENDBRANCH  16  17
ENDBRANCH  15  16
ENDBRANCH  14  15
ENDBRANCH  12  14
ENDBRANCH   5  12
ENDBRANCH   3   4
TORSDOF 16
ENDMDL
MODEL 3
REMARK VINA RESULT: -6.501161967      1.657      2.831
REMARK  16 active torsions:
REMARK  status: ('A' for Active; 'I' for Inactive)
REMARK    1  A    between atoms: C3_3  and  N1_4 
REMARK    2  A    between atoms: C4_6  and  C5_7 
REMARK    3  A    between atoms: C4_6  and  N4_12 
REMARK    4  A    between atoms: C5_7  and  N2_8 
REMARK    5  A    between atoms: N2_8  and  N3_9 
REMARK    6  A    between atoms: N4_12  and  C6_14 
REMARK    7  A    between atoms: C6_14  and  C7_15 
REMARK    8  A    between atoms: C7_15  and  C8_16 
REMARK    9  A    between atoms: C8_16  and  C9_17 
REMARK   10  A    between atoms: C9_17  and  N5_18 
REMARK   11  A    between atoms: N5_18  and  C10_20 
REMARK   12  A    between atoms: C11_23  and  N7_24 
REMARK   13  A    between atoms: N7_24  and  C12_26 
REMARK   14  A    between atoms: C12_26  and  C13_27 
REMARK   15  A    between atoms: C13_27  and  O1_28 
REMARK   16  A    between atoms: C16_34  and  N9_35 
ROOT
HETATM    1  C1  UNL     1      17.697  20.700  32.399  1.00  0.00     0.113 C 
HETATM    2  C2  UNL     1      17.797  19.262  32.683  1.00  0.00    -0.088 C 
HETATM    3  C3  UNL     1      17.901  18.077  32.913  1.00  0.00     0.011 C 
ENDROOT
BRANCH   3   4
HETATM    4  N1  UNL     1      18.042  16.718  33.161  1.00  0.00    -0.299 N 
HETATM    5  C4  UNL     1      18.752  15.913  32.459  1.00  0.00     0.140 C 
ATOM      6  H1  UNL     1      17.542  16.330  33.961  1.00  0.00     0.178 HD
BRANCH   5   7
HETATM    7  C5  UNL     1      18.802  14.502  32.849  1.00  0.00     0.257 C 
BRANCH   7   8
HETATM    8  N2  UNL     1      19.756  14.104  33.548  1.00  0.00    -0.342 NA
BRANCH   8   9
HETATM    9  N3  UNL     1      20.810  13.878  34.155  1.00  0.00    -0.281 N 
ATOM     10  H32 UNL     1      20.257  13.571  34.954  1.00  0.00     0.191 HD
ATOM     11  H31 UNL     1      21.759  13.750  34.504  1.00  0.00     0.191 HD
ENDBRANCH   8   9
ENDBRANCH   7   8
ENDBRANCH   5   7
BRANCH   5  12
HETATM   12  N4  UNL     1      19.454  16.414  31.343  1.00  0.00    -0.374 N 
ATOM     13  H4  UNL     1      20.241  17.043  31.504  1.00  0.00     0.161 HD
BRANCH  12  14
HETATM   14  C6  UNL     1      19.107  16.075  29.971  1.00  0.00     0.121 C 
BRANCH  14  15
HETATM   15  C7  UNL     1      18.150  17.060  29.371  1.00  0.00     0.021 C 
BRANCH  15  16
HETATM   16  C8  UNL     1      16.982  16.343  28.727  1.00  0.00     0.021 C 
BRANCH  16  17
HETATM   17  C9  UNL     1      16.072  15.720  29.758  1.00  0.00     0.121 C 
BRANCH  17  18
HETATM   18  N5  UNL     1      14.900  16.523  29.903  1.00  0.00    -0.375 N 
ATOM     19  H5  UNL     1      14.199  16.451  29.166  1.00  0.00     0.161 HD
BRANCH  18  20
HETATM   20  C10 UNL     1      14.645  17.321  30.864  1.00  0.00     0.136 A 
HETATM   21  N6  UNL     1      14.451  18.645  30.684  1.00  0.00    -0.176 N 
HETATM   22  C11 UNL     1      14.198  19.349  31.817  1.00  0.00     0.680 A 
ATOM     23  H6  UNL     1      14.491  19.084  29.764  1.00  0.00     0.186 HD
HETATM   24  N8  UNL     1      14.132  18.837  33.034  1.00  0.00    -0.190 N 
HETATM   25  C14 UNL     1      14.322  17.495  33.263  1.00  0.00     0.072 A 
ATOM     26  H8  UNL     1      13.935  19.453  33.822  1.00  0.00     0.184 HD
HETATM   27  C15 UNL     1      14.284  16.840  34.445  1.00  0.00     0.068 A 
HETATM   28  C19 UNL     1      14.580  16.754  32.148  1.00  0.00     0.078 A 
HETATM   29  C16 UNL     1      14.506  15.494  34.420  1.00  0.00     0.074 A 
HETATM   30  S1  UNL     1      14.761  15.177  32.762  1.00  0.00    -0.067 SA
BRANCH  22  31
HETATM   31  N7  UNL     1      14.015  20.611  31.621  1.00  0.00    -0.224 N 
ATOM     32  H7  UNL     1      13.678  21.205  32.380  1.00  0.00     0.177 HD
BRANCH  31  33
HETATM   33  C12 UNL     1      14.287  21.172  30.338  1.00  0.00     0.164 C 
BRANCH  33  34
HETATM   34  C13 UNL     1      15.136  22.423  30.417  1.00  0.00     0.184 C 
BRANCH  34  35
HETATM   35  O1  UNL     1      14.414  23.582  30.207  1.00  0.00    -0.399 OA
ATOM     36  H1  UNL     1      14.583  24.250  30.861  1.00  0.00     0.209 HD
ENDBRANCH  34  35
ENDBRANCH  33  34
ENDBRANCH  31  33
ENDBRANCH  22  31
BRANCH  29  37
HETATM   37  N9  UNL     1      14.520  14.563  35.508  1.00  0.00    -0.384 N 
HETATM   38  C17 UNL     1      13.281  14.281  36.186  1.00  0.00     0.149 C 
HETATM   39  C18 UNL     1      15.727  13.936  35.905  1.00  0.00     0.149 C 
ENDBRANCH  29  37
ENDBRANCH  18  20
ENDBRANCH  17  18
ENDBRANCH  16  17
ENDBRANCH  15  16
ENDBRANCH  14  15
ENDBRANCH  12  14
ENDBRANCH   5  12
ENDBRANCH   3   4
TORSDOF 16
ENDMDL
MODEL 4
REMARK VINA RESULT: -6.448335142      2.516      5.553
REMARK  16 active torsions:
REMARK  status: ('A' for Active; 'I' for Inactive)
REMARK    1  A    between atoms: C3_3  and  N1_4 
REMARK    2  A    between atoms: C4_6  and  C5_7 
REMARK    3  A    between atoms: C4_6  and  N4_12 
REMARK    4  A    between atoms: C5_7  and  N2_8 
REMARK    5  A    between atoms: N2_8  and  N3_9 
REMARK    6  A    between atoms: N4_12  and  C6_14 
REMARK    7  A    between atoms: C6_14  and  C7_15 
REMARK    8  A    between atoms: C7_15  and  C8_16 
REMARK    9  A    between atoms: C8_16  and  C9_17 
REMARK   10  A    between atoms: C9_17  and  N5_18 
REMARK   11  A    between atoms: N5_18  and  C10_20 
REMARK   12  A    between atoms: C11_23  and  N7_24 
REMARK   13  A    between atoms: N7_24  and  C12_26 
REMARK   14  A    between atoms: C12_26  and  C13_27 
REMARK   15  A    between atoms: C13_27  and  O1_28 
REMARK   16  A    between atoms: C16_34  and  N9_35 
ROOT
HETATM    1  C1  UNL     1      17.908  20.673  32.447  1.00  0.00     0.113 C 
HETATM    2  C2  UNL     1      17.841  19.237  32.746  1.00  0.00    -0.088 C 
HETATM    3  C3  UNL     1      17.792  18.047  32.973  1.00  0.00     0.011 C 
ENDROOT
BRANCH   3   4
HETATM    4  N1  UNL     1      17.731  16.680  33.205  1.00  0.00    -0.299 N 
HETATM    5  C4  UNL     1      18.416  15.796  32.576  1.00  0.00     0.140 C 
ATOM      6  H1  UNL     1      17.093  16.352  33.930  1.00  0.00     0.178 HD
BRANCH   5   7
HETATM    7  C5  UNL     1      18.241  14.387  32.938  1.00  0.00     0.257 C 
BRANCH   7   8
HETATM    8  N2  UNL     1      17.085  13.927  33.026  1.00  0.00    -0.342 NA
BRANCH   8   9
HETATM    9  N3  UNL     1      15.909  13.559  32.915  1.00  0.00    -0.281 N 
ATOM     10  H32 UNL     1      16.096  13.333  31.939  1.00  0.00     0.191 HD
ATOM     11  H31 UNL     1      14.926  13.301  32.998  1.00  0.00     0.191 HD
ENDBRANCH   8   9
ENDBRANCH   7   8
ENDBRANCH   5   7
BRANCH   5  12
HETATM   12  N4  UNL     1      19.307  16.212  31.564  1.00  0.00    -0.374 N 
ATOM     13  H4  UNL     1      20.129  16.752  31.831  1.00  0.00     0.161 HD
BRANCH  12  14
HETATM   14  C6  UNL     1      19.104  15.905  30.156  1.00  0.00     0.121 C 
BRANCH  14  15
HETATM   15  C7  UNL     1      18.149  16.858  29.503  1.00  0.00     0.021 C 
BRANCH  15  16
HETATM   16  C8  UNL     1      17.002  16.105  28.862  1.00  0.00     0.021 C 
BRANCH  16  17
HETATM   17  C9  UNL     1      16.153  15.399  29.892  1.00  0.00     0.121 C 
BRANCH  17  18
HETATM   18  N5  UNL     1      14.926  16.109  30.062  1.00  0.00    -0.375 N 
ATOM     19  H5  UNL     1      14.193  15.935  29.374  1.00  0.00     0.161 HD
BRANCH  18  20
HETATM   20  C10 UNL     1      14.656  16.940  30.991  1.00  0.00     0.136 A 
HETATM   21  N6  UNL     1      14.407  16.561  32.263  1.00  0.00    -0.176 N 
HETATM   22  C11 UNL     1      14.128  17.576  33.121  1.00  0.00     0.680 A 
ATOM     23  H6  UNL     1      14.427  15.585  32.557  1.00  0.00     0.186 HD
HETATM   24  N8  UNL     1      14.089  18.857  32.800  1.00  0.00    -0.190 N 
HETATM   25  C14 UNL     1      14.336  19.287  31.519  1.00  0.00     0.072 A 
ATOM     26  H8  UNL     1      13.869  19.543  33.522  1.00  0.00     0.184 HD
HETATM   27  C15 UNL     1      14.330  20.555  31.052  1.00  0.00     0.068 A 
HETATM   28  C19 UNL     1      14.619  18.296  30.626  1.00  0.00     0.078 A 
HETATM   29  C16 UNL     1      14.608  20.735  29.727  1.00  0.00     0.074 A 
HETATM   30  S1  UNL     1      14.869  19.143  29.171  1.00  0.00    -0.067 SA
BRANCH  22  31
HETATM   31  N7  UNL     1      13.895  17.190  34.331  1.00  0.00    -0.224 N 
ATOM     32  H7  UNL     1      13.967  17.853  35.103  1.00  0.00     0.177 HD
BRANCH  31  33
HETATM   33  C12 UNL     1      13.535  15.833  34.581  1.00  0.00     0.164 C 
BRANCH  33  34
HETATM   34  C13 UNL     1      14.435  15.171  35.602  1.00  0.00     0.184 C 
BRANCH  34  35
HETATM   35  O1  UNL     1      15.778  15.405  35.375  1.00  0.00    -0.399 OA
ATOM     36  H1  UNL     1      16.315  14.629  35.481  1.00  0.00     0.209 HD
ENDBRANCH  34  35
ENDBRANCH  33  34
ENDBRANCH  31  33
ENDBRANCH  22  31
BRANCH  29  37
HETATM   37  N9  UNL     1      14.672  21.954  28.978  1.00  0.00    -0.384 N 
HETATM   38  C17 UNL     1      14.753  23.199  29.698  1.00  0.00     0.149 C 
HETATM   39  C18 UNL     1      14.658  21.931  27.562  1.00  0.00     0.149 C 
ENDBRANCH  29  37
ENDBRANCH  18  20
ENDBRANCH  17  18
ENDBRANCH  16  17
ENDBRANCH  15  16
ENDBRANCH  14  15
ENDBRANCH  12  14
ENDBRANCH   5  12
ENDBRANCH   3   4
TORSDOF 16
ENDMDL
MODEL 5
REMARK VINA RESULT: -6.377808044      2.738      4.703
REMARK  16 active torsions:
REMARK  status: ('A' for Active; 'I' for Inactive)
REMARK    1  A    between atoms: C3_3  and  N1_4 
REMARK    2  A    between atoms: C4_6  and  C5_7 
REMARK    3  A    between atoms: C4_6  and  N4_12 
REMARK    4  A    between atoms: C5_7  and  N2_8 
REMARK    5  A    between atoms: N2_8  and  N3_9 
REMARK    6  A    between atoms: N4_12  and  C6_14 
REMARK    7  A    between atoms: C6_14  and  C7_15 
REMARK    8  A    between atoms: C7_15  and  C8_16 
REMARK    9  A    between atoms: C8_16  and  C9_17 
REMARK   10  A    between atoms: C9_17  and  N5_18 
REMARK   11  A    between atoms: N5_18  and  C10_20 
REMARK   12  A    between atoms: C11_23  and  N7_24 
REMARK   13  A    between atoms: N7_24  and  C12_26 
REMARK   14  A    between atoms: C12_26  and  C13_27 
REMARK   15  A    between atoms: C13_27  and  O1_28 
REMARK   16  A    between atoms: C16_34  and  N9_35 
ROOT
HETATM    1  C1  UNL     1      19.229  13.833  33.606  1.00  0.00     0.113 C 
HETATM    2  C2  UNL     1      18.547  15.123  33.435  1.00  0.00    -0.088 C 
HETATM    3  C3  UNL     1      18.000  16.193  33.280  1.00  0.00     0.011 C 
ENDROOT
BRANCH   3   4
HETATM    4  N1  UNL     1      17.398  17.431  33.096  1.00  0.00    -0.299 N 
HETATM    5  C4  UNL     1      17.292  18.036  31.969  1.00  0.00     0.140 C 
ATOM      6  H1  UNL     1      17.012  17.894  33.918  1.00  0.00     0.178 HD
BRANCH   5   7
HETATM    7  C5  UNL     1      16.627  19.340  31.936  1.00  0.00     0.257 C 
BRANCH   7   8
HETATM    8  N2  UNL     1      17.317  20.372  32.058  1.00  0.00    -0.342 NA
BRANCH   8   9
HETATM    9  N3  UNL     1      18.052  21.315  32.375  1.00  0.00    -0.281 N 
ATOM     10  H32 UNL     1      17.752  21.193  33.342  1.00  0.00     0.191 HD
ATOM     11  H31 UNL     1      18.699  22.099  32.462  1.00  0.00     0.191 HD
ENDBRANCH   8   9
ENDBRANCH   7   8
ENDBRANCH   5   7
BRANCH   5  12
HETATM   12  N4  UNL     1      17.818  17.425  30.811  1.00  0.00    -0.374 N 
ATOM     13  H4  UNL     1      18.819  17.506  30.630  1.00  0.00     0.161 HD
BRANCH  12  14
HETATM   14  C6  UNL     1      16.998  16.686  29.864  1.00  0.00     0.121 C 
BRANCH  14  15
HETATM   15  C7  UNL     1      17.375  15.237  29.804  1.00  0.00     0.021 C 
BRANCH  15  16
HETATM   16  C8  UNL     1      16.137  14.363  29.835  1.00  0.00     0.021 C 
BRANCH  16  17
HETATM   17  C9  UNL     1      16.069  13.536  31.095  1.00  0.00     0.121 C 
BRANCH  17  18
HETATM   18  N5  UNL     1      14.868  13.848  31.802  1.00  0.00    -0.375 N 
ATOM     19  H5  UNL     1      14.002  13.454  31.434  1.00  0.00     0.161 HD
BRANCH  18  20
HETATM   20  C10 UNL     1      14.771  14.569  32.849  1.00  0.00     0.136 A 
HETATM   21  N6  UNL     1      15.165  14.146  34.069  1.00  0.00    -0.176 N 
HETATM   22  C11 UNL     1      14.982  15.040  35.075  1.00  0.00     0.680 A 
ATOM     23  H6  UNL     1      15.570  13.223  34.223  1.00  0.00     0.186 HD
HETATM   24  N8  UNL     1      14.466  16.248  34.936  1.00  0.00    -0.190 N 
HETATM   25  C14 UNL     1      14.052  16.720  33.714  1.00  0.00     0.072 A 
ATOM     26  H8  UNL     1      14.371  16.845  35.758  1.00  0.00     0.184 HD
HETATM   27  C15 UNL     1      13.509  17.924  33.428  1.00  0.00     0.068 A 
HETATM   28  C19 UNL     1      14.218  15.850  32.677  1.00  0.00     0.078 A 
HETATM   29  C16 UNL     1      13.175  18.165  32.126  1.00  0.00     0.074 A 
HETATM   30  S1  UNL     1      13.622  16.718  31.341  1.00  0.00    -0.067 SA
BRANCH  22  31
HETATM   31  N7  UNL     1      15.367  14.614  36.231  1.00  0.00    -0.224 N 
ATOM     32  H7  UNL     1      16.100  15.107  36.741  1.00  0.00     0.177 HD
BRANCH  31  33
HETATM   33  C12 UNL     1      14.760  13.452  36.792  1.00  0.00     0.164 C 
BRANCH  33  34
HETATM   34  C13 UNL     1      13.918  13.765  38.011  1.00  0.00     0.184 C 
BRANCH  34  35
HETATM   35  O1  UNL     1      14.624  14.416  39.004  1.00  0.00    -0.399 OA
ATOM     36  H1  UNL     1      14.521  14.015  39.859  1.00  0.00     0.209 HD
ENDBRANCH  34  35
ENDBRANCH  33  34
ENDBRANCH  31  33
ENDBRANCH  22  31
BRANCH  29  37
HETATM   37  N9  UNL     1      12.596  19.341  31.548  1.00  0.00    -0.384 N 
HETATM   38  C17 UNL     1      13.287  19.983  30.460  1.00  0.00     0.149 C 
HETATM   39  C18 UNL     1      11.371  19.856  32.039  1.00  0.00     0.149 C 
ENDBRANCH  29  37
ENDBRANCH  18  20
ENDBRANCH  17  18
ENDBRANCH  16  17
ENDBRANCH  15  16
ENDBRANCH  14  15
ENDBRANCH  12  14
ENDBRANCH   5  12
ENDBRANCH   3   4
TORSDOF 16
ENDMDL
