MODEL 1
REMARK VINA RESULT: -4.745550082      0.000      0.000
REMARK  2 active torsions:
REMARK  status: ('A' for Active; 'I' for Inactive)
REMARK    1  A    between atoms: N1_1  and  C1_5 
REMARK    2  A    between atoms: C3_7  and  C4_8 
ROOT
HETATM    1  C1  UNL     1       7.108  -8.879  21.199  1.00  0.00     0.190 A 
HETATM    2  C2  UNL     1       6.613 -10.263  21.023  1.00  0.00     0.041 A 
HETATM    3  C3  UNL     1       7.050  -9.739  22.381  1.00  0.00     0.040 A 
ENDROOT
BRANCH   1   4
HETATM    4  N1  UNL     1       8.423  -8.618  20.626  1.00  0.00    -0.075 N 
ATOM      5  H13 UNL     1       9.097  -9.307  20.961  1.00  0.00     0.274 HD
ATOM      6  H12 UNL     1       8.423  -8.838  19.630  1.00  0.00     0.274 HD
ATOM      7  H11 UNL     1       8.779  -7.674  20.777  1.00  0.00     0.274 HD
ENDBRANCH   1   4
BRANCH   3   8
HETATM    8  C4  UNL     1       5.959  -9.680  23.399  1.00  0.00     0.117 C 
HETATM    9  C5  UNL     1       4.991  -8.527  23.274  1.00  0.00     0.153 C 
HETATM   10  N2  UNL     1       4.954  -8.644  24.738  1.00  0.00    -0.146 NA
HETATM   11  N3  UNL     1       6.323  -9.004  24.649  1.00  0.00    -0.142 NA
ENDBRANCH   3   8
TORSDOF 2
ENDMDL
MODEL 2
REMARK VINA RESULT: -4.705875641      6.098      7.109
REMARK  2 active torsions:
REMARK  status: ('A' for Active; 'I' for Inactive)
REMARK    1  A    between atoms: N1_1  and  C1_5 
REMARK    2  A    between atoms: C3_7  and  C4_8 
ROOT
HETATM    1  C1  UNL     1      13.488 -12.355  22.763  1.00  0.00     0.190 A 
HETATM    2  C2  UNL     1      14.753 -11.598  22.891  1.00  0.00     0.041 A 
HETATM    3  C3  UNL     1      13.507 -10.973  22.286  1.00  0.00     0.040 A 
ENDROOT
BRANCH   1   4
HETATM    4  N1  UNL     1      13.500 -13.411  21.757  1.00  0.00    -0.075 N 
ATOM      5  H13 UNL     1      13.390 -13.011  20.825  1.00  0.00     0.274 HD
ATOM      6  H12 UNL     1      14.437 -13.805  21.672  1.00  0.00     0.274 HD
ATOM      7  H11 UNL     1      12.818 -14.155  21.904  1.00  0.00     0.274 HD
ENDBRANCH   1   4
BRANCH   3   8
HETATM    8  C4  UNL     1      12.958  -9.819  23.059  1.00  0.00     0.117 C 
HETATM    9  C5  UNL     1      11.483  -9.870  23.377  1.00  0.00     0.153 C 
HETATM   10  N2  UNL     1      11.596  -8.411  23.251  1.00  0.00    -0.146 NA
HETATM   11  N3  UNL     1      12.558  -8.667  22.242  1.00  0.00    -0.142 NA
ENDBRANCH   3   8
TORSDOF 2
ENDMDL
MODEL 3
REMARK VINA RESULT: -4.648291304      2.387      3.065
REMARK  2 active torsions:
REMARK  status: ('A' for Active; 'I' for Inactive)
REMARK    1  A    between atoms: N1_1  and  C1_5 
REMARK    2  A    between atoms: C3_7  and  C4_8 
ROOT
HETATM    1  C1  UNL     1       7.568  -9.137  21.691  1.00  0.00     0.190 A 
HETATM    2  C2  UNL     1       6.513  -9.742  22.536  1.00  0.00     0.041 A 
HETATM    3  C3  UNL     1       7.985 -10.043  22.761  1.00  0.00     0.040 A 
ENDROOT
BRANCH   1   4
HETATM    4  N1  UNL     1       7.628  -9.643  20.325  1.00  0.00    -0.075 N 
ATOM      5  H13 UNL     1       8.535 -10.076  20.149  1.00  0.00     0.274 HD
ATOM      6  H12 UNL     1       7.019 -10.454  20.222  1.00  0.00     0.274 HD
ATOM      7  H11 UNL     1       7.421  -8.955  19.600  1.00  0.00     0.274 HD
ENDBRANCH   1   4
BRANCH   3   8
HETATM    8  C4  UNL     1       8.514  -9.583  24.080  1.00  0.00     0.117 C 
HETATM    9  C5  UNL     1       9.861  -8.901  24.058  1.00  0.00     0.153 C 
HETATM   10  N2  UNL     1       9.991  -9.528  25.380  1.00  0.00    -0.146 NA
HETATM   11  N3  UNL     1       9.245 -10.604  24.838  1.00  0.00    -0.142 NA
ENDBRANCH   3   8
TORSDOF 2
ENDMDL
MODEL 4
REMARK VINA RESULT: -4.465637676      4.782      5.277
REMARK  2 active torsions:
REMARK  status: ('A' for Active; 'I' for Inactive)
REMARK    1  A    between atoms: N1_1  and  C1_5 
REMARK    2  A    between atoms: C3_7  and  C4_8 
ROOT
HETATM    1  C1  UNL     1      12.876  -9.776  22.974  1.00  0.00     0.190 A 
HETATM    2  C2  UNL     1      12.459 -11.190  23.107  1.00  0.00     0.041 A 
HETATM    3  C3  UNL     1      11.979 -10.122  24.076  1.00  0.00     0.040 A 
ENDROOT
BRANCH   1   4
HETATM    4  N1  UNL     1      14.271  -9.511  23.304  1.00  0.00    -0.075 N 
ATOM      5  H13 UNL     1      14.531  -8.570  23.009  1.00  0.00     0.274 HD
ATOM      6  H12 UNL     1      14.383  -9.418  24.314  1.00  0.00     0.274 HD
ATOM      7  H11 UNL     1      14.938 -10.191  22.938  1.00  0.00     0.274 HD
ENDBRANCH   1   4
BRANCH   3   8
HETATM    8  C4  UNL     1      10.504  -9.886  24.052  1.00  0.00     0.117 C 
HETATM    9  C5  UNL     1      10.050  -8.554  23.504  1.00  0.00     0.153 C 
HETATM   10  N2  UNL     1       8.973  -8.728  24.488  1.00  0.00    -0.146 NA
HETATM   11  N3  UNL     1       9.947  -9.357  25.303  1.00  0.00    -0.142 NA
ENDBRANCH   3   8
TORSDOF 2
ENDMDL
MODEL 5
REMARK VINA RESULT: -4.449864986      6.752      7.647
REMARK  2 active torsions:
REMARK  status: ('A' for Active; 'I' for Inactive)
REMARK    1  A    between atoms: N1_1  and  C1_5 
REMARK    2  A    between atoms: C3_7  and  C4_8 
ROOT
HETATM    1  C1  UNL     1      14.597 -11.936  23.032  1.00  0.00     0.190 A 
HETATM    2  C2  UNL     1      14.351 -11.795  24.485  1.00  0.00     0.041 A 
HETATM    3  C3  UNL     1      14.241 -10.611  23.539  1.00  0.00     0.040 A 
ENDROOT
BRANCH   1   4
HETATM    4  N1  UNL     1      15.990 -12.159  22.662  1.00  0.00    -0.075 N 
ATOM      5  H13 UNL     1      16.089 -13.058  22.190  1.00  0.00     0.274 HD
ATOM      6  H12 UNL     1      16.259 -11.530  21.906  1.00  0.00     0.274 HD
ATOM      7  H11 UNL     1      16.657 -12.090  23.430  1.00  0.00     0.274 HD
ENDBRANCH   1   4
BRANCH   3   8
HETATM    8  C4  UNL     1      12.872 -10.024  23.440  1.00  0.00     0.117 C 
HETATM    9  C5  UNL     1      12.555  -9.276  22.167  1.00  0.00     0.153 C 
HETATM   10  N2  UNL     1      11.724  -8.468  23.069  1.00  0.00    -0.146 NA
HETATM   11  N3  UNL     1      12.728  -8.694  24.044  1.00  0.00    -0.142 NA
ENDBRANCH   3   8
TORSDOF 2
ENDMDL
