MODEL 1
REMARK VINA RESULT: -6.250766300      0.000      0.000
REMARK  13 active torsions:
REMARK  status: ('A' for Active; 'I' for Inactive)
REMARK    1  A    between atoms: C1_4  and  N2_5 
REMARK    2  A    between atoms: C1_4  and  C4_13 
REMARK    3  A    between atoms: N2_5  and  O1_7 
REMARK    4  A    between atoms: O1_7  and  C2_8 
REMARK    5  A    between atoms: C2_8  and  C3_9 
REMARK    6  A    between atoms: C3_9  and  N3_10 
REMARK    7  A    between atoms: C4_13  and  C5_14 
REMARK    8  A    between atoms: C4_13  and  N5_19 
REMARK    9  A    between atoms: C5_14  and  N4_15 
REMARK   10  A    between atoms: N5_19  and  C6_21 
REMARK   11  A    between atoms: C6_21  and  C7_22 
REMARK   12  A    between atoms: C7_22  and  N6_23 
REMARK   13  A    between atoms: C12_34  and  N9_35 
ROOT
HETATM    1  N5  UNL     1      -7.185  45.278  49.546  1.00  0.00    -0.408 N 
ATOM      2  H5  UNL     1      -7.982  45.352  48.915  1.00  0.00     0.154 HD
ENDROOT
BRANCH   1   3
HETATM    3  C4  UNL     1      -6.839  46.326  50.479  1.00  0.00     0.171 C 
BRANCH   3   4
HETATM    4  C1  UNL     1      -6.013  47.334  49.769  1.00  0.00     0.119 C 
HETATM    5  N1  UNL     1      -5.368  48.238  50.338  1.00  0.00    -0.386 N 
ATOM      6  H12 UNL     1      -4.800  48.931  49.851  1.00  0.00     0.157 HD
ATOM      7  H11 UNL     1      -5.381  48.347  51.352  1.00  0.00     0.157 HD
BRANCH   4   8
HETATM    8  N2  UNL     1      -5.994  47.181  48.356  1.00  0.00    -0.253 N 
ATOM      9  H2  UNL     1      -5.116  46.922  47.906  1.00  0.00     0.196 HD
BRANCH   8  10
HETATM   10  O1  UNL     1      -7.081  47.364  47.585  1.00  0.00    -0.274 OA
BRANCH  10  11
HETATM   11  C2  UNL     1      -6.624  47.515  46.235  1.00  0.00     0.245 C 
BRANCH  11  12
HETATM   12  C3  UNL     1      -5.895  46.162  46.032  1.00  0.00     0.081 C 
BRANCH  12  13
HETATM   13  N3  UNL     1      -6.362  45.339  45.045  1.00  0.00    -0.409 N 
ATOM     14  H32 UNL     1      -6.353  45.644  44.071  1.00  0.00     0.155 HD
ATOM     15  H31 UNL     1      -6.713  44.423  45.326  1.00  0.00     0.155 HD
ENDBRANCH  12  13
ENDBRANCH  11  12
ENDBRANCH  10  11
ENDBRANCH   8  10
ENDBRANCH   4   8
ENDBRANCH   3   4
BRANCH   3  16
HETATM   16  C5  UNL     1      -8.242  47.057  50.630  1.00  0.00     0.262 C 
BRANCH  16  17
HETATM   17  N4  UNL     1      -9.167  46.508  49.694  1.00  0.00    -0.077 N 
ATOM     18  H43 UNL     1      -8.806  45.667  49.242  1.00  0.00     0.274 HD
ATOM     19  H42 UNL     1      -9.978  46.090  50.152  1.00  0.00     0.274 HD
ATOM     20  H41 UNL     1      -9.434  47.224  49.019  1.00  0.00     0.274 HD
ENDBRANCH  16  17
ENDBRANCH   3  16
ENDBRANCH   1   3
BRANCH   1  21
HETATM   21  C6  UNL     1      -6.313  44.103  49.571  1.00  0.00     0.134 C 
BRANCH  21  22
HETATM   22  C7  UNL     1      -6.075  44.051  51.118  1.00  0.00     0.143 C 
BRANCH  22  23
HETATM   23  N6  UNL     1      -4.872  43.406  51.470  1.00  0.00    -0.366 N 
HETATM   24  C8  UNL     1      -4.021  42.476  50.761  1.00  0.00     0.159 C 
HETATM   25  C9  UNL     1      -3.109  41.830  51.836  1.00  0.00     0.237 C 
HETATM   26  N7  UNL     1      -3.722  41.832  53.136  1.00  0.00    -0.054 N 
HETATM   27  C12 UNL     1      -2.117  42.851  52.299  1.00  0.00     0.253 C 
HETATM   28  C10 UNL     1      -3.195  43.202  53.303  1.00  0.00     0.285 C 
ATOM     29  H72 UNL     1      -4.714  41.629  53.253  1.00  0.00     0.278 HD
ATOM     30  H71 UNL     1      -3.518  41.101  53.817  1.00  0.00     0.278 HD
HETATM   31  C11 UNL     1      -4.194  44.036  52.645  1.00  0.00     0.106 C 
HETATM   32  N8  UNL     1      -4.519  45.256  52.883  1.00  0.00    -0.387 N 
ATOM     33  H82 UNL     1      -5.218  45.839  52.422  1.00  0.00     0.157 HD
ATOM     34  H81 UNL     1      -4.057  45.686  53.684  1.00  0.00     0.157 HD
BRANCH  27  35
HETATM   35  N9  UNL     1      -1.910  43.907  51.311  1.00  0.00    -0.070 N 
ATOM     36  H93 UNL     1      -1.215  43.631  50.617  1.00  0.00     0.274 HD
ATOM     37  H92 UNL     1      -2.720  44.004  50.699  1.00  0.00     0.274 HD
ATOM     38  H91 UNL     1      -1.665  44.797  51.743  1.00  0.00     0.274 HD
ENDBRANCH  27  35
ENDBRANCH  22  23
ENDBRANCH  21  22
ENDBRANCH   1  21
TORSDOF 13
ENDMDL
MODEL 2
REMARK VINA RESULT: -6.246983724      1.968      5.929
REMARK  13 active torsions:
REMARK  status: ('A' for Active; 'I' for Inactive)
REMARK    1  A    between atoms: C1_4  and  N2_5 
REMARK    2  A    between atoms: C1_4  and  C4_13 
REMARK    3  A    between atoms: N2_5  and  O1_7 
REMARK    4  A    between atoms: O1_7  and  C2_8 
REMARK    5  A    between atoms: C2_8  and  C3_9 
REMARK    6  A    between atoms: C3_9  and  N3_10 
REMARK    7  A    between atoms: C4_13  and  C5_14 
REMARK    8  A    between atoms: C4_13  and  N5_19 
REMARK    9  A    between atoms: C5_14  and  N4_15 
REMARK   10  A    between atoms: N5_19  and  C6_21 
REMARK   11  A    between atoms: C6_21  and  C7_22 
REMARK   12  A    between atoms: C7_22  and  N6_23 
REMARK   13  A    between atoms: C12_34  and  N9_35 
ROOT
HETATM    1  N5  UNL     1      -5.222  46.587  49.662  1.00  0.00    -0.408 N 
ATOM      2  H5  UNL     1      -5.075  45.894  50.395  1.00  0.00     0.154 HD
ENDROOT
BRANCH   1   3
HETATM    3  C4  UNL     1      -6.500  47.226  49.448  1.00  0.00     0.171 C 
BRANCH   3   4
HETATM    4  C1  UNL     1      -7.572  46.225  49.680  1.00  0.00     0.119 C 
HETATM    5  N1  UNL     1      -8.792  46.482  49.636  1.00  0.00    -0.386 N 
ATOM      6  H12 UNL     1      -9.529  45.795  49.795  1.00  0.00     0.157 HD
ATOM      7  H11 UNL     1      -9.134  47.424  49.443  1.00  0.00     0.157 HD
BRANCH   4   8
HETATM    8  N2  UNL     1      -7.095  44.913  49.948  1.00  0.00    -0.253 N 
ATOM      9  H2  UNL     1      -7.032  44.251  49.174  1.00  0.00     0.196 HD
BRANCH   8  10
HETATM   10  O1  UNL     1      -6.725  44.504  51.174  1.00  0.00    -0.274 OA
BRANCH  10  11
HETATM   11  C2  UNL     1      -5.956  43.307  51.009  1.00  0.00     0.245 C 
BRANCH  11  12
HETATM   12  C3  UNL     1      -4.638  43.721  51.712  1.00  0.00     0.081 C 
BRANCH  12  13
HETATM   13  N3  UNL     1      -4.741  44.315  52.940  1.00  0.00    -0.409 N 
ATOM     14  H32 UNL     1      -4.191  45.146  53.159  1.00  0.00     0.155 HD
ATOM     15  H31 UNL     1      -5.383  43.893  53.611  1.00  0.00     0.155 HD
ENDBRANCH  12  13
ENDBRANCH  11  12
ENDBRANCH  10  11
ENDBRANCH   8  10
ENDBRANCH   4   8
ENDBRANCH   3   4
BRANCH   3  16
HETATM   16  C5  UNL     1      -6.586  48.147  50.741  1.00  0.00     0.262 C 
BRANCH  16  17
HETATM   17  N4  UNL     1      -5.995  47.469  51.848  1.00  0.00    -0.077 N 
ATOM     18  H43 UNL     1      -6.027  48.024  52.703  1.00  0.00     0.274 HD
ATOM     19  H42 UNL     1      -6.560  46.681  52.165  1.00  0.00     0.274 HD
ATOM     20  H41 UNL     1      -5.045  47.188  51.607  1.00  0.00     0.274 HD
ENDBRANCH  16  17
ENDBRANCH   3  16
ENDBRANCH   1   3
BRANCH   1  21
HETATM   21  C6  UNL     1      -4.153  47.004  48.755  1.00  0.00     0.134 C 
BRANCH  21  22
HETATM   22  C7  UNL     1      -5.016  47.122  47.454  1.00  0.00     0.143 C 
BRANCH  22  23
HETATM   23  N6  UNL     1      -4.877  46.012  46.596  1.00  0.00    -0.366 N 
HETATM   24  C8  UNL     1      -4.189  44.749  46.742  1.00  0.00     0.159 C 
HETATM   25  C9  UNL     1      -4.062  44.166  45.310  1.00  0.00     0.237 C 
HETATM   26  N7  UNL     1      -4.058  45.195  44.307  1.00  0.00    -0.054 N 
HETATM   27  C12 UNL     1      -5.416  43.720  44.852  1.00  0.00     0.253 C 
HETATM   28  C10 UNL     1      -5.534  45.145  44.353  1.00  0.00     0.285 C 
ATOM     29  H72 UNL     1      -3.554  46.070  44.449  1.00  0.00     0.278 HD
ATOM     30  H71 UNL     1      -3.553  45.076  43.429  1.00  0.00     0.278 HD
HETATM   31  C11 UNL     1      -5.871  46.009  45.478  1.00  0.00     0.106 C 
HETATM   32  N8  UNL     1      -6.932  46.704  45.680  1.00  0.00    -0.387 N 
ATOM     33  H82 UNL     1      -7.167  47.309  46.467  1.00  0.00     0.157 HD
ATOM     34  H81 UNL     1      -7.610  46.703  44.918  1.00  0.00     0.157 HD
BRANCH  27  35
HETATM   35  N9  UNL     1      -6.314  43.444  45.971  1.00  0.00    -0.070 N 
ATOM     36  H93 UNL     1      -6.047  42.588  46.455  1.00  0.00     0.274 HD
ATOM     37  H92 UNL     1      -6.172  44.110  46.730  1.00  0.00     0.274 HD
ATOM     38  H91 UNL     1      -7.291  43.415  45.683  1.00  0.00     0.274 HD
ENDBRANCH  27  35
ENDBRANCH  22  23
ENDBRANCH  21  22
ENDBRANCH   1  21
TORSDOF 13
ENDMDL
MODEL 3
REMARK VINA RESULT: -6.236362003      1.261      1.822
REMARK  13 active torsions:
REMARK  status: ('A' for Active; 'I' for Inactive)
REMARK    1  A    between atoms: C1_4  and  N2_5 
REMARK    2  A    between atoms: C1_4  and  C4_13 
REMARK    3  A    between atoms: N2_5  and  O1_7 
REMARK    4  A    between atoms: O1_7  and  C2_8 
REMARK    5  A    between atoms: C2_8  and  C3_9 
REMARK    6  A    between atoms: C3_9  and  N3_10 
REMARK    7  A    between atoms: C4_13  and  C5_14 
REMARK    8  A    between atoms: C4_13  and  N5_19 
REMARK    9  A    between atoms: C5_14  and  N4_15 
REMARK   10  A    between atoms: N5_19  and  C6_21 
REMARK   11  A    between atoms: C6_21  and  C7_22 
REMARK   12  A    between atoms: C7_22  and  N6_23 
REMARK   13  A    between atoms: C12_34  and  N9_35 
ROOT
HETATM    1  N5  UNL     1      -6.891  44.666  50.540  1.00  0.00    -0.408 N 
ATOM      2  H5  UNL     1      -7.622  44.367  51.186  1.00  0.00     0.154 HD
ENDROOT
BRANCH   1   3
HETATM    3  C4  UNL     1      -6.685  46.055  50.198  1.00  0.00     0.171 C 
BRANCH   3   4
HETATM    4  C1  UNL     1      -7.839  46.517  49.387  1.00  0.00     0.119 C 
HETATM    5  N1  UNL     1      -9.033  46.358  49.713  1.00  0.00    -0.386 N 
ATOM      6  H12 UNL     1      -9.827  46.676  49.157  1.00  0.00     0.157 HD
ATOM      7  H11 UNL     1      -9.293  45.877  50.574  1.00  0.00     0.157 HD
BRANCH   4   8
HETATM    8  N2  UNL     1      -7.477  47.188  48.187  1.00  0.00    -0.253 N 
ATOM      9  H2  UNL     1      -8.182  47.296  47.458  1.00  0.00     0.196 HD
BRANCH   8  10
HETATM   10  O1  UNL     1      -6.247  47.686  47.970  1.00  0.00    -0.274 OA
BRANCH  10  11
HETATM   11  C2  UNL     1      -6.062  47.755  46.550  1.00  0.00     0.245 C 
BRANCH  11  12
HETATM   12  C3  UNL     1      -5.737  46.272  46.237  1.00  0.00     0.081 C 
BRANCH  12  13
HETATM   13  N3  UNL     1      -6.396  45.694  45.186  1.00  0.00    -0.409 N 
ATOM     14  H32 UNL     1      -7.359  45.376  45.293  1.00  0.00     0.155 HD
ATOM     15  H31 UNL     1      -5.885  45.599  44.309  1.00  0.00     0.155 HD
ENDBRANCH  12  13
ENDBRANCH  11  12
ENDBRANCH  10  11
ENDBRANCH   8  10
ENDBRANCH   4   8
ENDBRANCH   3   4
BRANCH   3  16
HETATM   16  C5  UNL     1      -6.940  46.744  51.607  1.00  0.00     0.262 C 
BRANCH  16  17
HETATM   17  N4  UNL     1      -6.086  47.878  51.744  1.00  0.00    -0.077 N 
ATOM     18  H43 UNL     1      -5.351  47.726  52.435  1.00  0.00     0.274 HD
ATOM     19  H42 UNL     1      -5.490  48.013  50.926  1.00  0.00     0.274 HD
ATOM     20  H41 UNL     1      -6.647  48.703  51.952  1.00  0.00     0.274 HD
ENDBRANCH  16  17
ENDBRANCH   3  16
ENDBRANCH   1   3
BRANCH   1  21
HETATM   21  C6  UNL     1      -5.980  43.719  49.897  1.00  0.00     0.134 C 
BRANCH  21  22
HETATM   22  C7  UNL     1      -5.293  43.176  51.195  1.00  0.00     0.143 C 
BRANCH  22  23
HETATM   23  N6  UNL     1      -3.904  43.422  51.229  1.00  0.00    -0.366 N 
HETATM   24  C8  UNL     1      -2.877  43.343  50.215  1.00  0.00     0.159 C 
HETATM   25  C9  UNL     1      -1.527  43.319  50.980  1.00  0.00     0.237 C 
HETATM   26  N7  UNL     1      -1.666  42.781  52.305  1.00  0.00    -0.054 N 
HETATM   27  C12 UNL     1      -1.279  44.679  51.555  1.00  0.00     0.253 C 
HETATM   28  C10 UNL     1      -2.055  44.139  52.737  1.00  0.00     0.285 C 
ATOM     29  H72 UNL     1      -2.265  41.977  52.489  1.00  0.00     0.278 HD
ATOM     30  H71 UNL     1      -0.900  42.282  52.756  1.00  0.00     0.278 HD
HETATM   31  C11 UNL     1      -3.479  44.202  52.432  1.00  0.00     0.106 C 
HETATM   32  N8  UNL     1      -4.403  44.892  52.999  1.00  0.00    -0.387 N 
ATOM     33  H82 UNL     1      -5.399  44.936  52.785  1.00  0.00     0.157 HD
ATOM     34  H81 UNL     1      -4.113  45.425  53.819  1.00  0.00     0.157 HD
BRANCH  27  35
HETATM   35  N9  UNL     1      -2.007  45.723  50.839  1.00  0.00    -0.070 N 
ATOM     36  H93 UNL     1      -1.730  45.759  49.858  1.00  0.00     0.274 HD
ATOM     37  H92 UNL     1      -2.989  45.473  50.721  1.00  0.00     0.274 HD
ATOM     38  H91 UNL     1      -1.910  46.635  51.283  1.00  0.00     0.274 HD
ENDBRANCH  27  35
ENDBRANCH  22  23
ENDBRANCH  21  22
ENDBRANCH   1  21
TORSDOF 13
ENDMDL
MODEL 4
REMARK VINA RESULT: -6.211881689      2.833      5.173
REMARK  13 active torsions:
REMARK  status: ('A' for Active; 'I' for Inactive)
REMARK    1  A    between atoms: C1_4  and  N2_5 
REMARK    2  A    between atoms: C1_4  and  C4_13 
REMARK    3  A    between atoms: N2_5  and  O1_7 
REMARK    4  A    between atoms: O1_7  and  C2_8 
REMARK    5  A    between atoms: C2_8  and  C3_9 
REMARK    6  A    between atoms: C3_9  and  N3_10 
REMARK    7  A    between atoms: C4_13  and  C5_14 
REMARK    8  A    between atoms: C4_13  and  N5_19 
REMARK    9  A    between atoms: C5_14  and  N4_15 
REMARK   10  A    between atoms: N5_19  and  C6_21 
REMARK   11  A    between atoms: C6_21  and  C7_22 
REMARK   12  A    between atoms: C7_22  and  N6_23 
REMARK   13  A    between atoms: C12_34  and  N9_35 
ROOT
HETATM    1  N5  UNL     1      -4.070  45.568  46.693  1.00  0.00    -0.408 N 
ATOM      2  H5  UNL     1      -3.980  44.555  46.765  1.00  0.00     0.154 HD
ENDROOT
BRANCH   1   3
HETATM    3  C4  UNL     1      -4.542  46.218  45.492  1.00  0.00     0.171 C 
BRANCH   3   4
HETATM    4  C1  UNL     1      -6.014  46.045  45.409  1.00  0.00     0.119 C 
HETATM    5  N1  UNL     1      -6.843  46.883  45.820  1.00  0.00    -0.386 N 
ATOM      6  H12 UNL     1      -7.854  46.764  45.762  1.00  0.00     0.157 HD
ATOM      7  H11 UNL     1      -6.548  47.755  46.259  1.00  0.00     0.157 HD
BRANCH   4   8
HETATM    8  N2  UNL     1      -6.423  44.830  44.795  1.00  0.00    -0.253 N 
ATOM      9  H2  UNL     1      -7.364  44.775  44.403  1.00  0.00     0.196 HD
BRANCH   8  10
HETATM   10  O1  UNL     1      -5.628  43.749  44.707  1.00  0.00    -0.274 OA
BRANCH  10  11
HETATM   11  C2  UNL     1      -6.390  42.623  45.157  1.00  0.00     0.245 C 
BRANCH  11  12
HETATM   12  C3  UNL     1      -5.798  42.432  46.577  1.00  0.00     0.081 C 
BRANCH  12  13
HETATM   13  N3  UNL     1      -6.584  42.790  47.638  1.00  0.00    -0.409 N 
ATOM     14  H32 UNL     1      -7.566  43.026  47.497  1.00  0.00     0.155 HD
ATOM     15  H31 UNL     1      -6.146  42.808  48.560  1.00  0.00     0.155 HD
ENDBRANCH  12  13
ENDBRANCH  11  12
ENDBRANCH  10  11
ENDBRANCH   8  10
ENDBRANCH   4   8
ENDBRANCH   3   4
BRANCH   3  16
HETATM   16  C5  UNL     1      -4.385  47.745  45.906  1.00  0.00     0.262 C 
BRANCH  16  17
HETATM   17  N4  UNL     1      -3.846  48.482  44.810  1.00  0.00    -0.077 N 
ATOM     18  H43 UNL     1      -4.015  48.021  43.916  1.00  0.00     0.274 HD
ATOM     19  H42 UNL     1      -4.365  49.342  44.631  1.00  0.00     0.274 HD
ATOM     20  H41 UNL     1      -2.855  48.657  44.973  1.00  0.00     0.274 HD
ENDBRANCH  16  17
ENDBRANCH   3  16
ENDBRANCH   1   3
BRANCH   1  21
HETATM   21  C6  UNL     1      -3.731  46.464  47.799  1.00  0.00     0.134 C 
BRANCH  21  22
HETATM   22  C7  UNL     1      -4.386  45.630  48.952  1.00  0.00     0.143 C 
BRANCH  22  23
HETATM   23  N6  UNL     1      -5.400  46.333  49.635  1.00  0.00    -0.366 N 
HETATM   24  C8  UNL     1      -6.172  47.505  49.292  1.00  0.00     0.159 C 
HETATM   25  C9  UNL     1      -6.799  48.005  50.620  1.00  0.00     0.237 C 
HETATM   26  N7  UNL     1      -6.017  47.623  51.763  1.00  0.00    -0.054 N 
HETATM   27  C12 UNL     1      -7.874  47.048  51.032  1.00  0.00     0.253 C 
HETATM   28  C10 UNL     1      -6.739  46.335  51.737  1.00  0.00     0.285 C 
ATOM     29  H72 UNL     1      -4.998  47.658  51.743  1.00  0.00     0.278 HD
ATOM     30  H71 UNL     1      -5.994  48.199  52.605  1.00  0.00     0.278 HD
HETATM   31  C11 UNL     1      -6.000  45.547  50.758  1.00  0.00     0.106 C 
HETATM   32  N8  UNL     1      -5.857  44.273  50.680  1.00  0.00    -0.387 N 
ATOM     33  H82 UNL     1      -5.340  43.722  49.994  1.00  0.00     0.157 HD
ATOM     34  H81 UNL     1      -6.266  43.737  51.445  1.00  0.00     0.157 HD
BRANCH  27  35
HETATM   35  N9  UNL     1      -8.396  46.284  49.901  1.00  0.00    -0.070 N 
ATOM     36  H93 UNL     1      -8.560  46.885  49.094  1.00  0.00     0.274 HD
ATOM     37  H92 UNL     1      -7.680  45.675  49.506  1.00  0.00     0.274 HD
ATOM     38  H91 UNL     1      -9.234  45.758  50.145  1.00  0.00     0.274 HD
ENDBRANCH  27  35
ENDBRANCH  22  23
ENDBRANCH  21  22
ENDBRANCH   1  21
TORSDOF 13
ENDMDL
MODEL 5
REMARK VINA RESULT: -6.209072709      2.850      6.588
REMARK  13 active torsions:
REMARK  status: ('A' for Active; 'I' for Inactive)
REMARK    1  A    between atoms: C1_4  and  N2_5 
REMARK    2  A    between atoms: C1_4  and  C4_13 
REMARK    3  A    between atoms: N2_5  and  O1_7 
REMARK    4  A    between atoms: O1_7  and  C2_8 
REMARK    5  A    between atoms: C2_8  and  C3_9 
REMARK    6  A    between atoms: C3_9  and  N3_10 
REMARK    7  A    between atoms: C4_13  and  C5_14 
REMARK    8  A    between atoms: C4_13  and  N5_19 
REMARK    9  A    between atoms: C5_14  and  N4_15 
REMARK   10  A    between atoms: N5_19  and  C6_21 
REMARK   11  A    between atoms: C6_21  and  C7_22 
REMARK   12  A    between atoms: C7_22  and  N6_23 
REMARK   13  A    between atoms: C12_34  and  N9_35 
ROOT
HETATM    1  N5  UNL     1      -2.312  45.715  50.500  1.00  0.00    -0.408 N 
ATOM      2  H5  UNL     1      -2.738  45.911  51.405  1.00  0.00     0.154 HD
ENDROOT
BRANCH   1   3
HETATM    3  C4  UNL     1      -0.892  45.846  50.270  1.00  0.00     0.171 C 
BRANCH   3   4
HETATM    4  C1  UNL     1      -0.189  44.804  51.060  1.00  0.00     0.119 C 
HETATM    5  N1  UNL     1       1.049  44.647  51.068  1.00  0.00    -0.386 N 
ATOM      6  H12 UNL     1       1.532  43.931  51.610  1.00  0.00     0.157 HD
ATOM      7  H11 UNL     1       1.666  45.234  50.507  1.00  0.00     0.157 HD
BRANCH   4   8
HETATM    8  N2  UNL     1      -1.049  43.986  51.842  1.00  0.00    -0.253 N 
ATOM      9  H2  UNL     1      -1.287  44.292  52.786  1.00  0.00     0.196 HD
BRANCH   8  10
HETATM   10  O1  UNL     1      -1.565  42.828  51.394  1.00  0.00    -0.274 OA
BRANCH  10  11
HETATM   11  C2  UNL     1      -2.175  42.174  52.513  1.00  0.00     0.245 C 
BRANCH  11  12
HETATM   12  C3  UNL     1      -2.829  43.386  53.224  1.00  0.00     0.081 C 
BRANCH  12  13
HETATM   13  N3  UNL     1      -3.799  43.121  54.152  1.00  0.00    -0.409 N 
ATOM     14  H32 UNL     1      -4.255  42.208  54.176  1.00  0.00     0.155 HD
ATOM     15  H31 UNL     1      -4.038  43.867  54.806  1.00  0.00     0.155 HD
ENDBRANCH  12  13
ENDBRANCH  11  12
ENDBRANCH  10  11
ENDBRANCH   8  10
ENDBRANCH   4   8
ENDBRANCH   3   4
BRANCH   3  16
HETATM   16  C5  UNL     1      -0.785  45.298  48.782  1.00  0.00     0.262 C 
BRANCH  16  17
HETATM   17  N4  UNL     1       0.116  46.116  48.038  1.00  0.00    -0.077 N 
ATOM     18  H43 UNL     1       0.730  45.566  47.437  1.00  0.00     0.274 HD
ATOM     19  H42 UNL     1      -0.359  46.650  47.309  1.00  0.00     0.274 HD
ATOM     20  H41 UNL     1       0.637  46.717  48.676  1.00  0.00     0.274 HD
ENDBRANCH  16  17
ENDBRANCH   3  16
ENDBRANCH   1   3
BRANCH   1  21
HETATM   21  C6  UNL     1      -3.097  45.284  49.343  1.00  0.00     0.134 C 
BRANCH  21  22
HETATM   22  C7  UNL     1      -4.353  44.767  50.124  1.00  0.00     0.143 C 
BRANCH  22  23
HETATM   23  N6  UNL     1      -5.338  45.759  50.305  1.00  0.00    -0.366 N 
HETATM   24  C8  UNL     1      -5.782  46.854  49.472  1.00  0.00     0.159 C 
HETATM   25  C9  UNL     1      -6.573  47.806  50.408  1.00  0.00     0.237 C 
HETATM   26  N7  UNL     1      -6.140  47.702  51.774  1.00  0.00    -0.054 N 
HETATM   27  C12 UNL     1      -7.872  47.155  50.766  1.00  0.00     0.253 C 
HETATM   28  C10 UNL     1      -7.071  46.562  51.906  1.00  0.00     0.285 C 
ATOM     29  H72 UNL     1      -5.153  47.608  52.011  1.00  0.00     0.278 HD
ATOM     30  H71 UNL     1      -6.190  48.500  52.407  1.00  0.00     0.278 HD
HETATM   31  C11 UNL     1      -6.302  45.432  51.401  1.00  0.00     0.106 C 
HETATM   32  N8  UNL     1      -6.390  44.187  51.707  1.00  0.00    -0.387 N 
ATOM     33  H82 UNL     1      -5.851  43.396  51.353  1.00  0.00     0.157 HD
ATOM     34  H81 UNL     1      -7.047  43.963  52.454  1.00  0.00     0.157 HD
BRANCH  27  35
HETATM   35  N9  UNL     1      -8.275  46.150  49.786  1.00  0.00    -0.070 N 
ATOM     36  H93 UNL     1      -8.868  46.556  49.064  1.00  0.00     0.274 HD
ATOM     37  H92 UNL     1      -7.487  45.864  49.206  1.00  0.00     0.274 HD
ATOM     38  H91 UNL     1      -8.723  45.344  50.221  1.00  0.00     0.274 HD
ENDBRANCH  27  35
ENDBRANCH  22  23
ENDBRANCH  21  22
ENDBRANCH   1  21
TORSDOF 13
ENDMDL
