MODEL 1
REMARK VINA RESULT: -7.444966416      0.000      0.000
REMARK  6 active torsions:
REMARK  status: ('A' for Active; 'I' for Inactive)
REMARK    1  A    between atoms: C1_2  and  N1_3 
REMARK    2  A    between atoms: N1_3  and  N2_5 
REMARK    3  A    between atoms: C4_17  and  C5_18 
REMARK    4  A    between atoms: C5_18  and  N7_19 
REMARK    5  A    between atoms: N7_19  and  C6_22 
REMARK    6  A    between atoms: C6_22  and  C7_23 
ROOT
HETATM    1  N2  UNL     1      26.371  18.913  63.118  1.00  0.00    -0.284 N 
ATOM      2  H2  UNL     1      27.155  19.487  63.429  1.00  0.00     0.188 HD
HETATM    3  C2  UNL     1      26.556  18.045  62.189  1.00  0.00     0.134 C 
HETATM    4  N3  UNL     1      25.411  17.275  61.805  1.00  0.00    -0.270 N 
ATOM      5  H3  UNL     1      24.575  17.454  62.361  1.00  0.00     0.185 HD
HETATM    6  N4  UNL     1      25.242  16.317  60.796  1.00  0.00    -0.017 NA
HETATM    7  N5  UNL     1      25.752  16.745  59.587  1.00  0.00    -0.235 N 
ATOM      8  H5  UNL     1      25.255  16.403  58.765  1.00  0.00     0.189 HD
HETATM    9  C3  UNL     1      26.858  17.584  59.310  1.00  0.00     0.333 C 
HETATM   10  O2  UNL     1      27.063  17.811  58.096  1.00  0.00    -0.246 OA
HETATM   11  N6  UNL     1      27.784  18.219  60.184  1.00  0.00    -0.329 N 
ATOM     12  H6  UNL     1      28.402  18.927  59.788  1.00  0.00     0.165 HD
HETATM   13  C4  UNL     1      27.912  17.925  61.615  1.00  0.00     0.182 C 
ENDROOT
BRANCH  13  14
HETATM   14  C5  UNL     1      28.777  18.980  62.228  1.00  0.00     0.265 C 
BRANCH  14  15
HETATM   15  N7  UNL     1      30.179  18.834  61.879  1.00  0.00    -0.069 N 
ATOM     16  H72 UNL     1      30.380  19.051  60.904  1.00  0.00     0.277 HD
ATOM     17  H71 UNL     1      30.778  19.550  62.292  1.00  0.00     0.277 HD
BRANCH  15  18
HETATM   18  C6  UNL     1      30.550  17.473  62.261  1.00  0.00     0.272 C 
BRANCH  18  19
HETATM   19  C7  UNL     1      31.844  17.407  62.946  1.00  0.00    -0.017 A 
HETATM   20  C8  UNL     1      33.053  17.218  62.308  1.00  0.00     0.011 A 
HETATM   21  C9  UNL     1      34.250  17.166  63.022  1.00  0.00     0.018 A 
HETATM   22  C10 UNL     1      34.248  17.303  64.395  1.00  0.00     0.087 A 
HETATM   23  N8  UNL     1      33.060  17.486  64.998  1.00  0.00    -0.375 N 
HETATM   24  C11 UNL     1      31.892  17.540  64.323  1.00  0.00     0.096 A 
ATOM     25  H8  UNL     1      33.040  17.590  66.013  1.00  0.00     0.164 HD
ENDBRANCH  18  19
ENDBRANCH  15  18
ENDBRANCH  14  15
ENDBRANCH  13  14
BRANCH   1  26
HETATM   26  N1  UNL     1      25.133  19.086  63.706  1.00  0.00    -0.276 N 
ATOM     27  H1  UNL     1      24.349  18.512  63.396  1.00  0.00     0.189 HD
BRANCH  26  28
HETATM   28  C1  UNL     1      24.928  20.051  64.736  1.00  0.00     0.368 C 
HETATM   29  O1  UNL     1      24.303  21.121  64.450  1.00  0.00    -0.282 OA
ENDBRANCH  26  28
ENDBRANCH   1  26
TORSDOF 6
ENDMDL
MODEL 2
REMARK VINA RESULT: -7.397476231      3.856      6.385
REMARK  6 active torsions:
REMARK  status: ('A' for Active; 'I' for Inactive)
REMARK    1  A    between atoms: C1_2  and  N1_3 
REMARK    2  A    between atoms: N1_3  and  N2_5 
REMARK    3  A    between atoms: C4_17  and  C5_18 
REMARK    4  A    between atoms: C5_18  and  N7_19 
REMARK    5  A    between atoms: N7_19  and  C6_22 
REMARK    6  A    between atoms: C6_22  and  C7_23 
ROOT
HETATM    1  N2  UNL     1      25.995  18.713  61.868  1.00  0.00    -0.284 N 
ATOM      2  H2  UNL     1      25.405  18.047  61.370  1.00  0.00     0.188 HD
HETATM    3  C2  UNL     1      25.907  18.795  63.148  1.00  0.00     0.134 C 
HETATM    4  N3  UNL     1      26.766  19.750  63.781  1.00  0.00    -0.270 N 
ATOM      5  H3  UNL     1      27.411  20.223  63.149  1.00  0.00     0.185 HD
HETATM    6  N4  UNL     1      26.874  20.145  65.121  1.00  0.00    -0.017 NA
HETATM    7  N5  UNL     1      25.641  20.413  65.681  1.00  0.00    -0.235 N 
ATOM      8  H5  UNL     1      25.640  21.145  66.392  1.00  0.00     0.189 HD
HETATM    9  C3  UNL     1      24.377  19.830  65.424  1.00  0.00     0.333 C 
HETATM   10  O2  UNL     1      23.427  20.306  66.086  1.00  0.00    -0.246 OA
HETATM   11  N6  UNL     1      23.999  18.786  64.534  1.00  0.00    -0.329 N 
ATOM     12  H6  UNL     1      23.003  18.637  64.371  1.00  0.00     0.165 HD
HETATM   13  C4  UNL     1      24.944  17.909  63.833  1.00  0.00     0.182 C 
ENDROOT
BRANCH  13  14
HETATM   14  C5  UNL     1      24.184  17.148  62.794  1.00  0.00     0.265 C 
BRANCH  14  15
HETATM   15  N7  UNL     1      23.827  15.807  63.224  1.00  0.00    -0.069 N 
ATOM     16  H72 UNL     1      24.405  15.458  63.987  1.00  0.00     0.277 HD
ATOM     17  H71 UNL     1      22.933  15.762  63.715  1.00  0.00     0.277 HD
BRANCH  15  18
HETATM   18  C6  UNL     1      23.877  14.972  62.025  1.00  0.00     0.272 C 
BRANCH  18  19
HETATM   19  C7  UNL     1      25.226  14.862  61.465  1.00  0.00    -0.017 A 
HETATM   20  C8  UNL     1      26.238  14.102  62.015  1.00  0.00     0.011 A 
HETATM   21  C9  UNL     1      27.501  14.041  61.428  1.00  0.00     0.018 A 
HETATM   22  C10 UNL     1      27.767  14.748  60.274  1.00  0.00     0.087 A 
HETATM   23  N8  UNL     1      26.769  15.483  59.753  1.00  0.00    -0.375 N 
HETATM   24  C11 UNL     1      25.540  15.553  60.307  1.00  0.00     0.096 A 
ATOM     25  H8  UNL     1      26.948  16.012  58.899  1.00  0.00     0.164 HD
ENDBRANCH  18  19
ENDBRANCH  15  18
ENDBRANCH  14  15
ENDBRANCH  13  14
BRANCH   1  26
HETATM   26  N1  UNL     1      26.871  19.506  61.155  1.00  0.00    -0.276 N 
ATOM     27  H1  UNL     1      26.815  20.521  61.247  1.00  0.00     0.189 HD
BRANCH  26  28
HETATM   28  C1  UNL     1      27.853  18.937  60.290  1.00  0.00     0.368 C 
HETATM   29  O1  UNL     1      27.464  18.366  59.223  1.00  0.00    -0.282 OA
ENDBRANCH  26  28
ENDBRANCH   1  26
TORSDOF 6
ENDMDL
MODEL 3
REMARK VINA RESULT: -7.384223991      3.662      6.347
REMARK  6 active torsions:
REMARK  status: ('A' for Active; 'I' for Inactive)
REMARK    1  A    between atoms: C1_2  and  N1_3 
REMARK    2  A    between atoms: N1_3  and  N2_5 
REMARK    3  A    between atoms: C4_17  and  C5_18 
REMARK    4  A    between atoms: C5_18  and  N7_19 
REMARK    5  A    between atoms: N7_19  and  C6_22 
REMARK    6  A    between atoms: C6_22  and  C7_23 
ROOT
HETATM    1  N2  UNL     1      26.878  19.409  61.651  1.00  0.00    -0.284 N 
ATOM      2  H2  UNL     1      25.971  18.957  61.764  1.00  0.00     0.188 HD
HETATM    3  C2  UNL     1      27.647  19.539  62.673  1.00  0.00     0.134 C 
HETATM    4  N3  UNL     1      28.905  20.181  62.440  1.00  0.00    -0.270 N 
ATOM      5  H3  UNL     1      29.088  20.413  61.464  1.00  0.00     0.185 HD
HETATM    6  N4  UNL     1      29.929  20.547  63.324  1.00  0.00    -0.017 NA
HETATM    7  N5  UNL     1      29.442  21.203  64.436  1.00  0.00    -0.235 N 
ATOM      8  H5  UNL     1      30.065  21.910  64.826  1.00  0.00     0.189 HD
HETATM    9  C3  UNL     1      28.213  21.048  65.121  1.00  0.00     0.333 C 
HETATM   10  O2  UNL     1      28.047  21.814  66.097  1.00  0.00    -0.246 OA
HETATM   11  N6  UNL     1      27.124  20.163  64.886  1.00  0.00    -0.329 N 
ATOM     12  H6  UNL     1      26.254  20.336  65.389  1.00  0.00     0.165 HD
HETATM   13  C4  UNL     1      27.167  19.018  63.969  1.00  0.00     0.182 C 
ENDROOT
BRANCH  13  14
HETATM   14  C5  UNL     1      25.768  18.520  63.788  1.00  0.00     0.265 C 
BRANCH  14  15
HETATM   15  N7  UNL     1      25.648  17.086  63.992  1.00  0.00    -0.069 N 
ATOM     16  H72 UNL     1      26.547  16.610  64.065  1.00  0.00     0.277 HD
ATOM     17  H71 UNL     1      25.299  16.835  64.917  1.00  0.00     0.277 HD
BRANCH  15  18
HETATM   18  C6  UNL     1      24.813  16.592  62.899  1.00  0.00     0.272 C 
BRANCH  18  19
HETATM   19  C7  UNL     1      25.556  15.768  61.944  1.00  0.00    -0.017 A 
HETATM   20  C8  UNL     1      26.932  15.738  61.847  1.00  0.00     0.011 A 
HETATM   21  C9  UNL     1      27.577  14.927  60.912  1.00  0.00     0.018 A 
HETATM   22  C10 UNL     1      26.843  14.132  60.057  1.00  0.00     0.087 A 
HETATM   23  N8  UNL     1      25.504  14.175  60.167  1.00  0.00    -0.375 N 
HETATM   24  C11 UNL     1      24.863  14.952  61.065  1.00  0.00     0.096 A 
ATOM     25  H8  UNL     1      24.945  13.592  59.542  1.00  0.00     0.164 HD
ENDBRANCH  18  19
ENDBRANCH  15  18
ENDBRANCH  14  15
ENDBRANCH  13  14
BRANCH   1  26
HETATM   26  N1  UNL     1      27.254  19.869  60.405  1.00  0.00    -0.276 N 
ATOM     27  H1  UNL     1      27.135  20.856  60.180  1.00  0.00     0.189 HD
BRANCH  26  28
HETATM   28  C1  UNL     1      27.804  18.991  59.424  1.00  0.00     0.368 C 
HETATM   29  O1  UNL     1      27.152  17.945  59.111  1.00  0.00    -0.282 OA
ENDBRANCH  26  28
ENDBRANCH   1  26
TORSDOF 6
ENDMDL
MODEL 4
REMARK VINA RESULT: -7.311532530      3.477      5.943
REMARK  6 active torsions:
REMARK  status: ('A' for Active; 'I' for Inactive)
REMARK    1  A    between atoms: C1_2  and  N1_3 
REMARK    2  A    between atoms: N1_3  and  N2_5 
REMARK    3  A    between atoms: C4_17  and  C5_18 
REMARK    4  A    between atoms: C5_18  and  N7_19 
REMARK    5  A    between atoms: N7_19  and  C6_22 
REMARK    6  A    between atoms: C6_22  and  C7_23 
ROOT
HETATM    1  N2  UNL     1      24.840  16.754  63.193  1.00  0.00    -0.284 N 
ATOM      2  H2  UNL     1      25.784  16.460  62.940  1.00  0.00     0.188 HD
HETATM    3  C2  UNL     1      24.670  17.884  63.782  1.00  0.00     0.134 C 
HETATM    4  N3  UNL     1      23.319  18.231  64.105  1.00  0.00    -0.270 N 
ATOM      5  H3  UNL     1      22.620  17.568  63.771  1.00  0.00     0.185 HD
HETATM    6  N4  UNL     1      22.793  19.328  64.800  1.00  0.00    -0.017 NA
HETATM    7  N5  UNL     1      23.469  19.564  65.980  1.00  0.00    -0.235 N 
ATOM      8  H5  UNL     1      22.897  19.942  66.736  1.00  0.00     0.189 HD
HETATM    9  C3  UNL     1      24.831  19.364  66.306  1.00  0.00     0.333 C 
HETATM   10  O2  UNL     1      25.146  19.656  67.482  1.00  0.00    -0.246 OA
HETATM   11  N6  UNL     1      25.914  18.882  65.518  1.00  0.00    -0.329 N 
ATOM     12  H6  UNL     1      26.782  18.646  65.998  1.00  0.00     0.165 HD
HETATM   13  C4  UNL     1      25.866  18.703  64.063  1.00  0.00     0.182 C 
ENDROOT
BRANCH  13  14
HETATM   14  C5  UNL     1      27.076  17.925  63.654  1.00  0.00     0.265 C 
BRANCH  14  15
HETATM   15  N7  UNL     1      27.703  18.446  62.451  1.00  0.00    -0.069 N 
ATOM     16  H72 UNL     1      27.036  18.729  61.735  1.00  0.00     0.277 HD
ATOM     17  H71 UNL     1      28.139  19.359  62.583  1.00  0.00     0.277 HD
BRANCH  15  18
HETATM   18  C6  UNL     1      28.636  17.414  62.003  1.00  0.00     0.272 C 
BRANCH  18  19
HETATM   19  C7  UNL     1      27.971  16.307  61.313  1.00  0.00    -0.017 A 
HETATM   20  C8  UNL     1      28.071  14.982  61.689  1.00  0.00     0.011 A 
HETATM   21  C9  UNL     1      27.409  13.976  60.986  1.00  0.00     0.018 A 
HETATM   22  C10 UNL     1      26.633  14.288  59.890  1.00  0.00     0.087 A 
HETATM   23  N8  UNL     1      26.548  15.583  59.539  1.00  0.00    -0.375 N 
HETATM   24  C11 UNL     1      27.181  16.570  60.207  1.00  0.00     0.096 A 
ATOM     25  H8  UNL     1      25.978  15.832  58.730  1.00  0.00     0.164 HD
ENDBRANCH  18  19
ENDBRANCH  15  18
ENDBRANCH  14  15
ENDBRANCH  13  14
BRANCH   1  26
HETATM   26  N1  UNL     1      23.773  15.930  62.894  1.00  0.00    -0.276 N 
ATOM     27  H1  UNL     1      22.867  16.111  63.326  1.00  0.00     0.189 HD
BRANCH  26  28
HETATM   28  C1  UNL     1      23.912  14.831  61.996  1.00  0.00     0.368 C 
HETATM   29  O1  UNL     1      23.351  13.729  62.293  1.00  0.00    -0.282 OA
ENDBRANCH  26  28
ENDBRANCH   1  26
TORSDOF 6
ENDMDL
MODEL 5
REMARK VINA RESULT: -7.307833107      3.524      5.789
REMARK  6 active torsions:
REMARK  status: ('A' for Active; 'I' for Inactive)
REMARK    1  A    between atoms: C1_2  and  N1_3 
REMARK    2  A    between atoms: N1_3  and  N2_5 
REMARK    3  A    between atoms: C4_17  and  C5_18 
REMARK    4  A    between atoms: C5_18  and  N7_19 
REMARK    5  A    between atoms: N7_19  and  C6_22 
REMARK    6  A    between atoms: C6_22  and  C7_23 
ROOT
HETATM    1  N2  UNL     1      26.936  17.924  65.274  1.00  0.00    -0.284 N 
ATOM      2  H2  UNL     1      26.075  17.380  65.337  1.00  0.00     0.188 HD
HETATM    3  C2  UNL     1      26.993  18.919  64.462  1.00  0.00     0.134 C 
HETATM    4  N3  UNL     1      28.232  19.636  64.427  1.00  0.00    -0.270 N 
ATOM      5  H3  UNL     1      28.924  19.319  65.106  1.00  0.00     0.185 HD
HETATM    6  N4  UNL     1      28.656  20.701  63.621  1.00  0.00    -0.017 NA
HETATM    7  N5  UNL     1      28.385  20.478  62.286  1.00  0.00    -0.235 N 
ATOM      8  H5  UNL     1      29.059  20.883  61.636  1.00  0.00     0.189 HD
HETATM    9  C3  UNL     1      27.318  19.775  61.678  1.00  0.00     0.333 C 
HETATM   10  O2  UNL     1      27.357  19.727  60.427  1.00  0.00    -0.246 OA
HETATM   11  N6  UNL     1      26.198  19.109  62.250  1.00  0.00    -0.329 N 
ATOM     12  H6  UNL     1      25.639  18.511  61.641  1.00  0.00     0.165 HD
HETATM   13  C4  UNL     1      25.794  19.222  63.655  1.00  0.00     0.182 C 
ENDROOT
BRANCH  13  14
HETATM   14  C5  UNL     1      24.766  18.170  63.926  1.00  0.00     0.265 C 
BRANCH  14  15
HETATM   15  N7  UNL     1      24.251  17.557  62.713  1.00  0.00    -0.069 N 
ATOM     16  H72 UNL     1      23.329  17.899  62.445  1.00  0.00     0.277 HD
ATOM     17  H71 UNL     1      24.743  17.852  61.869  1.00  0.00     0.277 HD
BRANCH  15  18
HETATM   18  C6  UNL     1      24.296  16.114  62.940  1.00  0.00     0.272 C 
BRANCH  18  19
HETATM   19  C7  UNL     1      25.302  15.440  62.116  1.00  0.00    -0.017 A 
HETATM   20  C8  UNL     1      26.654  15.428  62.392  1.00  0.00     0.011 A 
HETATM   21  C9  UNL     1      27.559  14.764  61.564  1.00  0.00     0.018 A 
HETATM   22  C10 UNL     1      27.115  14.099  60.440  1.00  0.00     0.087 A 
HETATM   23  N8  UNL     1      25.794  14.122  60.188  1.00  0.00    -0.375 N 
HETATM   24  C11 UNL     1      24.904  14.759  60.978  1.00  0.00     0.096 A 
ATOM     25  H8  UNL     1      25.448  13.635  59.361  1.00  0.00     0.164 HD
ENDBRANCH  18  19
ENDBRANCH  15  18
ENDBRANCH  14  15
ENDBRANCH  13  14
BRANCH   1  26
HETATM   26  N1  UNL     1      28.014  17.576  66.063  1.00  0.00    -0.276 N 
ATOM     27  H1  UNL     1      28.187  18.088  66.927  1.00  0.00     0.189 HD
BRANCH  26  28
HETATM   28  C1  UNL     1      28.893  16.514  65.693  1.00  0.00     0.368 C 
HETATM   29  O1  UNL     1      29.326  16.472  64.499  1.00  0.00    -0.282 OA
ENDBRANCH  26  28
ENDBRANCH   1  26
TORSDOF 6
ENDMDL
