MODEL 1
REMARK VINA RESULT: -8.446270628      0.000      0.000
REMARK  6 active torsions:
REMARK  status: ('A' for Active; 'I' for Inactive)
REMARK    1  A    between atoms: C2_2  and  N1_3 
REMARK    2  A    between atoms: C2_2  and  C3_7 
REMARK    3  A    between atoms: C3_7  and  C4_8 
REMARK    4  A    between atoms: C4_8  and  C5_9 
REMARK    5  A    between atoms: C8_12  and  C9_13 
REMARK    6  A    between atoms: C12_16  and  C13_17 
ROOT
HETATM    1  C5  UNL     1      13.893  31.036  49.005  1.00  0.00    -0.058 A 
HETATM    2  C6  UNL     1      13.575  29.703  48.922  1.00  0.00     0.008 A 
HETATM    3  C7  UNL     1      14.258  28.912  48.030  1.00  0.00     0.013 A 
HETATM    4  C8  UNL     1      15.239  29.402  47.225  1.00  0.00    -0.026 A 
HETATM    5  C21 UNL     1      15.551  30.736  47.314  1.00  0.00     0.013 A 
HETATM    6  C22 UNL     1      14.879  31.560  48.206  1.00  0.00     0.008 A 
ENDROOT
BRANCH   4   7
HETATM    7  C9  UNL     1      15.922  28.518  46.292  1.00  0.00    -0.026 A 
HETATM    8  C10 UNL     1      15.489  28.300  45.002  1.00  0.00     0.013 A 
HETATM    9  C11 UNL     1      16.141  27.459  44.130  1.00  0.00     0.013 A 
HETATM   10  C12 UNL     1      17.270  26.798  44.535  1.00  0.00    -0.026 A 
HETATM   11  C19 UNL     1      17.734  26.987  45.813  1.00  0.00     0.013 A 
HETATM   12  C20 UNL     1      17.066  27.832  46.662  1.00  0.00     0.013 A 
BRANCH  10  13
HETATM   13  C13 UNL     1      18.016  25.889  43.669  1.00  0.00    -0.026 A 
HETATM   14  C14 UNL     1      19.301  25.492  44.034  1.00  0.00     0.012 A 
HETATM   15  C15 UNL     1      20.031  24.638  43.233  1.00  0.00     0.001 A 
HETATM   16  C16 UNL     1      19.531  24.143  42.048  1.00  0.00     0.000 A 
HETATM   17  C17 UNL     1      18.255  24.531  41.675  1.00  0.00     0.001 A 
HETATM   18  C18 UNL     1      17.518  25.394  42.486  1.00  0.00     0.012 A 
ENDBRANCH  10  13
ENDBRANCH   4   7
BRANCH   1  19
HETATM   19  C4  UNL     1      13.186  31.907  49.939  1.00  0.00     0.040 C 
BRANCH  19  20
HETATM   20  C3  UNL     1      13.840  32.001  51.293  1.00  0.00     0.037 C 
BRANCH  20  21
HETATM   21  C2  UNL     1      13.895  30.717  52.051  1.00  0.00     0.179 C 
HETATM   22  C1  UNL     1      15.272  30.641  52.707  1.00  0.00     0.039 C 
BRANCH  21  23
HETATM   23  N1  UNL     1      12.948  30.722  53.155  1.00  0.00    -0.075 N 
ATOM     24  H13 UNL     1      13.337  30.379  54.033  1.00  0.00     0.274 HD
ATOM     25  H12 UNL     1      12.709  31.655  53.488  1.00  0.00     0.274 HD
ATOM     26  H11 UNL     1      12.147  30.185  52.822  1.00  0.00     0.274 HD
ENDBRANCH  21  23
ENDBRANCH  20  21
ENDBRANCH  19  20
ENDBRANCH   1  19
TORSDOF 6
ENDMDL
MODEL 2
REMARK VINA RESULT: -8.378086056      0.064      1.395
REMARK  6 active torsions:
REMARK  status: ('A' for Active; 'I' for Inactive)
REMARK    1  A    between atoms: C2_2  and  N1_3 
REMARK    2  A    between atoms: C2_2  and  C3_7 
REMARK    3  A    between atoms: C3_7  and  C4_8 
REMARK    4  A    between atoms: C4_8  and  C5_9 
REMARK    5  A    between atoms: C8_12  and  C9_13 
REMARK    6  A    between atoms: C12_16  and  C13_17 
ROOT
HETATM    1  C5  UNL     1      13.882  31.048  48.993  1.00  0.00    -0.058 A 
HETATM    2  C6  UNL     1      14.873  31.533  48.176  1.00  0.00     0.008 A 
HETATM    3  C7  UNL     1      15.508  30.669  47.317  1.00  0.00     0.013 A 
HETATM    4  C8  UNL     1      15.190  29.348  47.246  1.00  0.00    -0.026 A 
HETATM    5  C21 UNL     1      14.198  28.870  48.066  1.00  0.00     0.013 A 
HETATM    6  C22 UNL     1      13.538  29.719  48.944  1.00  0.00     0.008 A 
ENDROOT
BRANCH   4   7
HETATM    7  C9  UNL     1      15.904  28.477  46.323  1.00  0.00    -0.026 A 
HETATM    8  C10 UNL     1      15.517  28.284  45.015  1.00  0.00     0.013 A 
HETATM    9  C11 UNL     1      16.197  27.456  44.152  1.00  0.00     0.013 A 
HETATM   10  C12 UNL     1      17.309  26.783  44.586  1.00  0.00    -0.026 A 
HETATM   11  C19 UNL     1      17.728  26.949  45.883  1.00  0.00     0.013 A 
HETATM   12  C20 UNL     1      17.032  27.781  46.723  1.00  0.00     0.013 A 
BRANCH  10  13
HETATM   13  C13 UNL     1      18.083  25.887  43.732  1.00  0.00    -0.026 A 
HETATM   14  C14 UNL     1      17.518  25.401  42.555  1.00  0.00     0.012 A 
HETATM   15  C15 UNL     1      18.225  24.549  41.730  1.00  0.00     0.001 A 
HETATM   16  C16 UNL     1      19.507  24.142  42.029  1.00  0.00     0.000 A 
HETATM   17  C17 UNL     1      20.079  24.618  43.197  1.00  0.00     0.001 A 
HETATM   18  C18 UNL     1      19.363  25.480  44.029  1.00  0.00     0.012 A 
ENDBRANCH  10  13
ENDBRANCH   4   7
BRANCH   1  19
HETATM   19  C4  UNL     1      13.188  31.936  49.920  1.00  0.00     0.040 C 
BRANCH  19  20
HETATM   20  C3  UNL     1      13.846  32.035  51.272  1.00  0.00     0.037 C 
BRANCH  20  21
HETATM   21  C2  UNL     1      13.921  30.751  52.026  1.00  0.00     0.179 C 
HETATM   22  C1  UNL     1      15.318  30.669  52.639  1.00  0.00     0.039 C 
BRANCH  21  23
HETATM   23  N1  UNL     1      13.009  30.756  53.158  1.00  0.00    -0.075 N 
ATOM     24  H13 UNL     1      12.313  30.011  53.131  1.00  0.00     0.274 HD
ATOM     25  H12 UNL     1      13.444  30.480  54.039  1.00  0.00     0.274 HD
ATOM     26  H11 UNL     1      12.608  31.694  53.173  1.00  0.00     0.274 HD
ENDBRANCH  21  23
ENDBRANCH  20  21
ENDBRANCH  19  20
ENDBRANCH   1  19
TORSDOF 6
ENDMDL
MODEL 3
REMARK VINA RESULT: -8.197205634      0.309      1.420
REMARK  6 active torsions:
REMARK  status: ('A' for Active; 'I' for Inactive)
REMARK    1  A    between atoms: C2_2  and  N1_3 
REMARK    2  A    between atoms: C2_2  and  C3_7 
REMARK    3  A    between atoms: C3_7  and  C4_8 
REMARK    4  A    between atoms: C4_8  and  C5_9 
REMARK    5  A    between atoms: C8_12  and  C9_13 
REMARK    6  A    between atoms: C12_16  and  C13_17 
ROOT
HETATM    1  C5  UNL     1      13.977  31.013  48.734  1.00  0.00    -0.058 A 
HETATM    2  C6  UNL     1      13.592  29.701  48.606  1.00  0.00     0.008 A 
HETATM    3  C7  UNL     1      14.314  28.875  47.778  1.00  0.00     0.013 A 
HETATM    4  C8  UNL     1      15.397  29.311  47.080  1.00  0.00    -0.026 A 
HETATM    5  C21 UNL     1      15.776  30.623  47.214  1.00  0.00     0.013 A 
HETATM    6  C22 UNL     1      15.067  31.482  48.043  1.00  0.00     0.008 A 
ENDROOT
BRANCH   4   7
HETATM    7  C9  UNL     1      16.118  28.392  46.210  1.00  0.00    -0.026 A 
HETATM    8  C10 UNL     1      17.271  27.741  46.589  1.00  0.00     0.013 A 
HETATM    9  C11 UNL     1      17.946  26.877  45.757  1.00  0.00     0.013 A 
HETATM   10  C12 UNL     1      17.473  26.637  44.495  1.00  0.00    -0.026 A 
HETATM   11  C19 UNL     1      16.326  27.266  44.079  1.00  0.00     0.013 A 
HETATM   12  C20 UNL     1      15.672  28.122  44.928  1.00  0.00     0.013 A 
BRANCH  10  13
HETATM   13  C13 UNL     1      18.132  25.735  43.554  1.00  0.00    -0.026 A 
HETATM   14  C14 UNL     1      17.482  25.377  42.375  1.00  0.00     0.012 A 
HETATM   15  C15 UNL     1      18.079  24.524  41.470  1.00  0.00     0.001 A 
HETATM   16  C16 UNL     1      19.331  23.990  41.687  1.00  0.00     0.000 A 
HETATM   17  C17 UNL     1      19.987  24.339  42.856  1.00  0.00     0.001 A 
HETATM   18  C18 UNL     1      19.382  25.202  43.769  1.00  0.00     0.012 A 
ENDBRANCH  10  13
ENDBRANCH   4   7
BRANCH   1  19
HETATM   19  C4  UNL     1      13.233  31.920  49.602  1.00  0.00     0.040 C 
BRANCH  19  20
HETATM   20  C3  UNL     1      13.845  32.091  50.969  1.00  0.00     0.037 C 
BRANCH  20  21
HETATM   21  C2  UNL     1      13.975  30.832  51.758  1.00  0.00     0.179 C 
HETATM   22  C1  UNL     1      15.405  30.782  52.293  1.00  0.00     0.039 C 
BRANCH  21  23
HETATM   23  N1  UNL     1      13.128  30.866  52.938  1.00  0.00    -0.075 N 
ATOM     24  H13 UNL     1      12.170  30.559  52.768  1.00  0.00     0.274 HD
ATOM     25  H12 UNL     1      13.358  30.154  53.631  1.00  0.00     0.274 HD
ATOM     26  H11 UNL     1      13.197  31.821  53.290  1.00  0.00     0.274 HD
ENDBRANCH  21  23
ENDBRANCH  20  21
ENDBRANCH  19  20
ENDBRANCH   1  19
TORSDOF 6
ENDMDL
MODEL 4
REMARK VINA RESULT: -7.316868746      0.798      1.291
REMARK  6 active torsions:
REMARK  status: ('A' for Active; 'I' for Inactive)
REMARK    1  A    between atoms: C2_2  and  N1_3 
REMARK    2  A    between atoms: C2_2  and  C3_7 
REMARK    3  A    between atoms: C3_7  and  C4_8 
REMARK    4  A    between atoms: C4_8  and  C5_9 
REMARK    5  A    between atoms: C8_12  and  C9_13 
REMARK    6  A    between atoms: C12_16  and  C13_17 
ROOT
HETATM    1  C5  UNL     1      13.567  30.515  49.614  1.00  0.00    -0.058 A 
HETATM    2  C6  UNL     1      13.644  29.146  49.685  1.00  0.00     0.008 A 
HETATM    3  C7  UNL     1      14.368  28.471  48.731  1.00  0.00     0.013 A 
HETATM    4  C8  UNL     1      15.010  29.112  47.718  1.00  0.00    -0.026 A 
HETATM    5  C21 UNL     1      14.928  30.480  47.653  1.00  0.00     0.013 A 
HETATM    6  C22 UNL     1      14.205  31.189  48.602  1.00  0.00     0.008 A 
ENDROOT
BRANCH   4   7
HETATM    7  C9  UNL     1      15.754  28.343  46.730  1.00  0.00    -0.026 A 
HETATM    8  C10 UNL     1      15.590  28.500  45.370  1.00  0.00     0.013 A 
HETATM    9  C11 UNL     1      16.297  27.765  44.446  1.00  0.00     0.013 A 
HETATM   10  C12 UNL     1      17.206  26.832  44.867  1.00  0.00    -0.026 A 
HETATM   11  C19 UNL     1      17.399  26.645  46.214  1.00  0.00     0.013 A 
HETATM   12  C20 UNL     1      16.682  27.391  47.115  1.00  0.00     0.013 A 
BRANCH  10  13
HETATM   13  C13 UNL     1      17.993  26.013  43.949  1.00  0.00    -0.026 A 
HETATM   14  C14 UNL     1      17.461  25.669  42.708  1.00  0.00     0.012 A 
HETATM   15  C15 UNL     1      18.180  24.893  41.821  1.00  0.00     0.001 A 
HETATM   16  C16 UNL     1      19.442  24.426  42.118  1.00  0.00     0.000 A 
HETATM   17  C17 UNL     1      19.981  24.762  43.349  1.00  0.00     0.001 A 
HETATM   18  C18 UNL     1      19.253  25.547  44.243  1.00  0.00     0.012 A 
ENDBRANCH  10  13
ENDBRANCH   4   7
BRANCH   1  19
HETATM   19  C4  UNL     1      12.805  31.264  50.608  1.00  0.00     0.040 C 
BRANCH  19  20
HETATM   20  C3  UNL     1      12.896  30.693  51.999  1.00  0.00     0.037 C 
BRANCH  20  21
HETATM   21  C2  UNL     1      14.118  29.879  52.262  1.00  0.00     0.179 C 
HETATM   22  C1  UNL     1      15.062  30.741  53.096  1.00  0.00     0.039 C 
BRANCH  21  23
HETATM   23  N1  UNL     1      13.810  28.731  53.100  1.00  0.00    -0.075 N 
ATOM     24  H13 UNL     1      14.306  28.727  53.991  1.00  0.00     0.274 HD
ATOM     25  H12 UNL     1      12.868  28.747  53.490  1.00  0.00     0.274 HD
ATOM     26  H11 UNL     1      14.002  27.916  52.518  1.00  0.00     0.274 HD
ENDBRANCH  21  23
ENDBRANCH  20  21
ENDBRANCH  19  20
ENDBRANCH   1  19
TORSDOF 6
ENDMDL
MODEL 5
REMARK VINA RESULT: -7.188015344      0.579      1.786
REMARK  6 active torsions:
REMARK  status: ('A' for Active; 'I' for Inactive)
REMARK    1  A    between atoms: C2_2  and  N1_3 
REMARK    2  A    between atoms: C2_2  and  C3_7 
REMARK    3  A    between atoms: C3_7  and  C4_8 
REMARK    4  A    between atoms: C4_8  and  C5_9 
REMARK    5  A    between atoms: C8_12  and  C9_13 
REMARK    6  A    between atoms: C12_16  and  C13_17 
ROOT
HETATM    1  C5  UNL     1      13.862  30.770  49.284  1.00  0.00    -0.058 A 
HETATM    2  C6  UNL     1      14.842  31.286  48.472  1.00  0.00     0.008 A 
HETATM    3  C7  UNL     1      15.518  30.439  47.627  1.00  0.00     0.013 A 
HETATM    4  C8  UNL     1      15.252  29.107  47.567  1.00  0.00    -0.026 A 
HETATM    5  C21 UNL     1      14.271  28.598  48.381  1.00  0.00     0.013 A 
HETATM    6  C22 UNL     1      13.570  29.429  49.245  1.00  0.00     0.008 A 
ENDROOT
BRANCH   4   7
HETATM    7  C9  UNL     1      16.008  28.256  46.658  1.00  0.00    -0.026 A 
HETATM    8  C10 UNL     1      16.990  27.385  47.080  1.00  0.00     0.013 A 
HETATM    9  C11 UNL     1      17.700  26.589  46.211  1.00  0.00     0.013 A 
HETATM   10  C12 UNL     1      17.442  26.645  44.868  1.00  0.00    -0.026 A 
HETATM   11  C19 UNL     1      16.472  27.500  44.407  1.00  0.00     0.013 A 
HETATM   12  C20 UNL     1      15.777  28.283  45.294  1.00  0.00     0.013 A 
BRANCH  10  13
HETATM   13  C13 UNL     1      18.153  25.832  43.884  1.00  0.00    -0.026 A 
HETATM   14  C14 UNL     1      17.460  25.306  42.797  1.00  0.00     0.012 A 
HETATM   15  C15 UNL     1      18.105  24.531  41.855  1.00  0.00     0.001 A 
HETATM   16  C16 UNL     1      19.450  24.244  41.944  1.00  0.00     0.000 A 
HETATM   17  C17 UNL     1      20.150  24.762  43.021  1.00  0.00     0.001 A 
HETATM   18  C18 UNL     1      19.496  25.545  43.972  1.00  0.00     0.012 A 
ENDBRANCH  10  13
ENDBRANCH   4   7
BRANCH   1  19
HETATM   19  C4  UNL     1      13.125  31.639  50.196  1.00  0.00     0.040 C 
BRANCH  19  20
HETATM   20  C3  UNL     1      13.337  31.310  51.652  1.00  0.00     0.037 C 
BRANCH  20  21
HETATM   21  C2  UNL     1      14.300  30.200  51.908  1.00  0.00     0.179 C 
HETATM   22  C1  UNL     1      15.385  30.750  52.831  1.00  0.00     0.039 C 
BRANCH  21  23
HETATM   23  N1  UNL     1      13.670  29.126  52.659  1.00  0.00    -0.075 N 
ATOM     24  H13 UNL     1      13.447  29.373  53.623  1.00  0.00     0.274 HD
ATOM     25  H12 UNL     1      12.714  28.923  52.365  1.00  0.00     0.274 HD
ATOM     26  H11 UNL     1      14.304  28.332  52.573  1.00  0.00     0.274 HD
ENDBRANCH  21  23
ENDBRANCH  20  21
ENDBRANCH  19  20
ENDBRANCH   1  19
TORSDOF 6
ENDMDL
