MODEL 1
REMARK VINA RESULT: -2.861683442      0.000      0.000
REMARK  3 active torsions:
REMARK  status: ('A' for Active; 'I' for Inactive)
REMARK       I    between atoms: C1_2  and  N1_3 
REMARK    1  A    between atoms: C1_2  and  C9_13 
REMARK    2  A    between atoms: N1_3  and  C2_5 
REMARK    3  A    between atoms: N3_17  and  C13_18 
ROOT
HETATM    1  C9  UNL     1      42.466  15.569  82.867  1.00  0.00     0.108 A 
HETATM    2  C10 UNL     1      43.025  16.823  83.148  1.00  0.00     0.045 A 
HETATM    3  C11 UNL     1      44.092  17.058  82.280  1.00  0.00    -0.033 A 
HETATM    4  C12 UNL     1      44.157  15.954  81.498  1.00  0.00     0.023 A 
HETATM    5  N3  UNL     1      43.169  15.040  81.848  1.00  0.00    -0.317 N 
HETATM    6  C21 UNL     1      45.193  15.852  80.440  1.00  0.00     0.058 C 
HETATM    7  C22 UNL     1      46.383  16.702  80.835  1.00  0.00     0.006 C 
HETATM    8  C23 UNL     1      45.965  18.123  81.122  1.00  0.00     0.005 C 
HETATM    9  C24 UNL     1      44.965  18.236  82.210  1.00  0.00     0.040 C 
ENDROOT
BRANCH   1  10
HETATM   10  C1  UNL     1      41.353  15.058  83.599  1.00  0.00     0.269 C 
HETATM   11  O1  UNL     1      41.166  13.868  83.984  1.00  0.00    -0.266 OA
HETATM   12  N1  UNL     1      40.268  15.928  83.986  1.00  0.00    -0.349 N 
ATOM     13  H1  UNL     1      40.317  16.912  83.724  1.00  0.00     0.163 HD
BRANCH  12  14
HETATM   14  C2  UNL     1      39.114  15.468  84.729  1.00  0.00     0.117 C 
HETATM   15  C3  UNL     1      39.183  15.925  86.187  1.00  0.00     0.297 C 
HETATM   16  N2  UNL     1      37.877  16.310  86.663  1.00  0.00     0.090 N 
HETATM   17  C4  UNL     1      36.913  15.272  86.337  1.00  0.00     0.273 C 
HETATM   18  C8  UNL     1      37.418  17.533  86.026  1.00  0.00     0.273 C 
HETATM   19  C5  UNL     1      36.687  15.239  84.851  1.00  0.00     0.037 C 
HETATM   20  C6  UNL     1      37.816  15.998  84.171  1.00  0.00     0.013 C 
HETATM   21  C7  UNL     1      37.694  17.462  84.546  1.00  0.00     0.037 C 
ENDBRANCH  12  14
ENDBRANCH   1  10
BRANCH   5  22
HETATM   22  C13 UNL     1      42.983  13.798  81.215  1.00  0.00     0.008 C 
HETATM   23  C14 UNL     1      41.741  13.520  80.468  1.00  0.00     0.080 C 
HETATM   24  C15 UNL     1      41.780  12.993  79.079  1.00  0.00    -0.025 C 
HETATM   25  C16 UNL     1      42.378  11.758  78.653  1.00  0.00    -0.029 C 
HETATM   26  C17 UNL     1      42.351  10.443  79.288  1.00  0.00     0.038 C 
HETATM   27  C18 UNL     1      43.317  10.243  80.507  1.00  0.00     0.084 C 
HETATM   28  C19 UNL     1      43.368  11.494  81.116  1.00  0.00    -0.177 C 
HETATM   29  C20 UNL     1      43.601  12.580  81.983  1.00  0.00     0.133 C 
ENDBRANCH   5  22
TORSDOF 3
ENDMDL
MODEL 2
REMARK VINA RESULT: -2.854466944      1.016      1.021
REMARK  3 active torsions:
REMARK  status: ('A' for Active; 'I' for Inactive)
REMARK       I    between atoms: C1_2  and  N1_3 
REMARK    1  A    between atoms: C1_2  and  C9_13 
REMARK    2  A    between atoms: N1_3  and  C2_5 
REMARK    3  A    between atoms: N3_17  and  C13_18 
ROOT
HETATM    1  C9  UNL     1      42.715  14.889  83.398  1.00  0.00     0.108 A 
HETATM    2  C10 UNL     1      43.477  15.882  84.031  1.00  0.00     0.045 A 
HETATM    3  C11 UNL     1      44.706  16.005  83.382  1.00  0.00    -0.033 A 
HETATM    4  C12 UNL     1      44.666  15.096  82.380  1.00  0.00     0.023 A 
HETATM    5  N3  UNL     1      43.455  14.410  82.380  1.00  0.00    -0.317 N 
HETATM    6  C21 UNL     1      45.826  14.944  81.466  1.00  0.00     0.058 C 
HETATM    7  C22 UNL     1      47.083  15.371  82.194  1.00  0.00     0.006 C 
HETATM    8  C23 UNL     1      46.943  16.767  82.749  1.00  0.00     0.005 C 
HETATM    9  C24 UNL     1      45.814  16.914  83.699  1.00  0.00     0.040 C 
ENDROOT
BRANCH   1  10
HETATM   10  C1  UNL     1      41.406  14.543  83.845  1.00  0.00     0.269 C 
HETATM   11  O1  UNL     1      40.865  13.401  83.829  1.00  0.00    -0.266 OA
HETATM   12  N1  UNL     1      40.528  15.550  84.393  1.00  0.00    -0.349 N 
ATOM     13  H1  UNL     1      40.866  16.510  84.451  1.00  0.00     0.163 HD
BRANCH  12  14
HETATM   14  C2  UNL     1      39.190  15.259  84.863  1.00  0.00     0.117 C 
HETATM   15  C3  UNL     1      38.956  15.853  86.253  1.00  0.00     0.297 C 
HETATM   16  N2  UNL     1      37.621  16.386  86.361  1.00  0.00     0.090 N 
HETATM   17  C4  UNL     1      36.662  15.400  85.890  1.00  0.00     0.273 C 
HETATM   18  C8  UNL     1      37.452  17.571  85.538  1.00  0.00     0.273 C 
HETATM   19  C5  UNL     1      36.794  15.236  84.402  1.00  0.00     0.037 C 
HETATM   20  C6  UNL     1      38.122  15.831  83.963  1.00  0.00     0.013 C 
HETATM   21  C7  UNL     1      38.063  17.331  84.181  1.00  0.00     0.037 C 
ENDBRANCH  12  14
ENDBRANCH   1  10
BRANCH   5  22
HETATM   22  C13 UNL     1      43.117  13.404  81.457  1.00  0.00     0.008 C 
HETATM   23  C14 UNL     1      41.863  13.491  80.686  1.00  0.00     0.080 C 
HETATM   24  C15 UNL     1      41.856  13.331  79.208  1.00  0.00    -0.025 C 
HETATM   25  C16 UNL     1      42.293  12.175  78.474  1.00  0.00    -0.029 C 
HETATM   26  C17 UNL     1      42.081  10.759  78.757  1.00  0.00     0.038 C 
HETATM   27  C18 UNL     1      42.990  10.131  79.870  1.00  0.00     0.084 C 
HETATM   28  C19 UNL     1      43.196  11.170  80.773  1.00  0.00    -0.177 C 
HETATM   29  C20 UNL     1      43.555  11.961  81.883  1.00  0.00     0.133 C 
ENDBRANCH   5  22
TORSDOF 3
ENDMDL
MODEL 3
REMARK VINA RESULT: -2.852528561      1.645      7.252
REMARK  3 active torsions:
REMARK  status: ('A' for Active; 'I' for Inactive)
REMARK       I    between atoms: C1_2  and  N1_3 
REMARK    1  A    between atoms: C1_2  and  C9_13 
REMARK    2  A    between atoms: N1_3  and  C2_5 
REMARK    3  A    between atoms: N3_17  and  C13_18 
ROOT
HETATM    1  C9  UNL     1      39.650  14.014  84.139  1.00  0.00     0.108 A 
HETATM    2  C10 UNL     1      38.495  13.747  84.887  1.00  0.00     0.045 A 
HETATM    3  C11 UNL     1      38.151  14.879  85.627  1.00  0.00    -0.033 A 
HETATM    4  C12 UNL     1      39.095  15.800  85.317  1.00  0.00     0.023 A 
HETATM    5  N3  UNL     1      40.013  15.283  84.409  1.00  0.00    -0.317 N 
HETATM    6  C21 UNL     1      39.046  17.151  85.931  1.00  0.00     0.058 C 
HETATM    7  C22 UNL     1      38.337  17.058  87.266  1.00  0.00     0.006 C 
HETATM    8  C23 UNL     1      36.976  16.424  87.116  1.00  0.00     0.005 C 
HETATM    9  C24 UNL     1      37.021  15.056  86.546  1.00  0.00     0.040 C 
ENDROOT
BRANCH   1  10
HETATM   10  C1  UNL     1      40.237  13.037  83.282  1.00  0.00     0.269 C 
HETATM   11  O1  UNL     1      40.173  11.780  83.392  1.00  0.00    -0.266 OA
HETATM   12  N1  UNL     1      41.011  13.441  82.132  1.00  0.00    -0.349 N 
ATOM     13  H1  UNL     1      41.128  14.437  81.949  1.00  0.00     0.163 HD
BRANCH  12  14
HETATM   14  C2  UNL     1      41.630  12.496  81.226  1.00  0.00     0.117 C 
HETATM   15  C3  UNL     1      41.490  12.957  79.774  1.00  0.00     0.297 C 
HETATM   16  N2  UNL     1      42.694  12.675  79.032  1.00  0.00     0.090 N 
HETATM   17  C4  UNL     1      43.094  11.295  79.256  1.00  0.00     0.273 C 
HETATM   18  C8  UNL     1      43.797  13.514  79.469  1.00  0.00     0.273 C 
HETATM   19  C5  UNL     1      43.574  11.130  80.671  1.00  0.00     0.037 C 
HETATM   20  C6  UNL     1      43.106  12.325  81.486  1.00  0.00     0.013 C 
HETATM   21  C7  UNL     1      43.829  13.557  80.975  1.00  0.00     0.037 C 
ENDBRANCH  12  14
ENDBRANCH   1  10
BRANCH   5  22
HETATM   22  C13 UNL     1      41.108  16.002  83.897  1.00  0.00     0.008 C 
HETATM   23  C14 UNL     1      42.387  16.037  84.632  1.00  0.00     0.080 C 
HETATM   24  C15 UNL     1      43.672  15.721  83.956  1.00  0.00    -0.025 C 
HETATM   25  C16 UNL     1      44.235  16.416  82.830  1.00  0.00    -0.029 C 
HETATM   26  C17 UNL     1      44.295  17.848  82.556  1.00  0.00     0.038 C 
HETATM   27  C18 UNL     1      42.973  18.508  82.029  1.00  0.00     0.084 C 
HETATM   28  C19 UNL     1      41.957  17.791  82.654  1.00  0.00    -0.177 C 
HETATM   29  C20 UNL     1      40.722  17.318  83.141  1.00  0.00     0.133 C 
ENDBRANCH   5  22
TORSDOF 3
ENDMDL
MODEL 4
REMARK VINA RESULT: -2.387158318      1.247      4.606
REMARK  3 active torsions:
REMARK  status: ('A' for Active; 'I' for Inactive)
REMARK       I    between atoms: C1_2  and  N1_3 
REMARK    1  A    between atoms: C1_2  and  C9_13 
REMARK    2  A    between atoms: N1_3  and  C2_5 
REMARK    3  A    between atoms: N3_17  and  C13_18 
ROOT
HETATM    1  C9  UNL     1      41.860  13.569  82.923  1.00  0.00     0.108 A 
HETATM    2  C10 UNL     1      41.578  12.253  82.528  1.00  0.00     0.045 A 
HETATM    3  C11 UNL     1      42.228  11.983  81.323  1.00  0.00    -0.033 A 
HETATM    4  C12 UNL     1      42.885  13.127  81.015  1.00  0.00     0.023 A 
HETATM    5  N3  UNL     1      42.666  14.101  81.985  1.00  0.00    -0.317 N 
HETATM    6  C21 UNL     1      43.697  13.208  79.776  1.00  0.00     0.058 C 
HETATM    7  C22 UNL     1      43.142  12.231  78.760  1.00  0.00     0.006 C 
HETATM    8  C23 UNL     1      43.067  10.837  79.332  1.00  0.00     0.005 C 
HETATM    9  C24 UNL     1      42.218  10.741  80.544  1.00  0.00     0.040 C 
ENDROOT
BRANCH   1  10
HETATM   10  C1  UNL     1      41.329  14.126  84.124  1.00  0.00     0.269 C 
HETATM   11  O1  UNL     1      41.973  14.544  85.128  1.00  0.00    -0.266 OA
HETATM   12  N1  UNL     1      39.903  14.266  84.300  1.00  0.00    -0.349 N 
ATOM     13  H1  UNL     1      39.287  13.957  83.548  1.00  0.00     0.163 HD
BRANCH  12  14
HETATM   14  C2  UNL     1      39.306  14.825  85.495  1.00  0.00     0.117 C 
HETATM   15  C3  UNL     1      39.475  16.345  85.532  1.00  0.00     0.297 C 
HETATM   16  N2  UNL     1      38.288  16.976  86.053  1.00  0.00     0.090 N 
HETATM   17  C4  UNL     1      37.887  16.321  87.287  1.00  0.00     0.273 C 
HETATM   18  C8  UNL     1      37.173  16.859  85.128  1.00  0.00     0.273 C 
HETATM   19  C5  UNL     1      37.378  14.940  86.986  1.00  0.00     0.037 C 
HETATM   20  C6  UNL     1      37.825  14.552  85.585  1.00  0.00     0.013 C 
HETATM   21  C7  UNL     1      37.110  15.451  84.595  1.00  0.00     0.037 C 
ENDBRANCH  12  14
ENDBRANCH   1  10
BRANCH   5  22
HETATM   22  C13 UNL     1      43.217  15.394  81.944  1.00  0.00     0.008 C 
HETATM   23  C14 UNL     1      44.624  15.619  82.326  1.00  0.00     0.080 C 
HETATM   24  C15 UNL     1      45.550  16.376  81.444  1.00  0.00    -0.025 C 
HETATM   25  C16 UNL     1      45.391  17.738  81.013  1.00  0.00    -0.029 C 
HETATM   26  C17 UNL     1      44.947  18.907  81.767  1.00  0.00     0.038 C 
HETATM   27  C18 UNL     1      43.402  19.029  82.009  1.00  0.00     0.084 C 
HETATM   28  C19 UNL     1      42.966  17.712  82.123  1.00  0.00    -0.177 C 
HETATM   29  C20 UNL     1      42.217  16.536  82.331  1.00  0.00     0.133 C 
ENDBRANCH   5  22
TORSDOF 3
ENDMDL
MODEL 5
REMARK VINA RESULT: -2.231579810      0.451      1.310
REMARK  3 active torsions:
REMARK  status: ('A' for Active; 'I' for Inactive)
REMARK       I    between atoms: C1_2  and  N1_3 
REMARK    1  A    between atoms: C1_2  and  C9_13 
REMARK    2  A    between atoms: N1_3  and  C2_5 
REMARK    3  A    between atoms: N3_17  and  C13_18 
ROOT
HETATM    1  C9  UNL     1      42.359  15.686  82.677  1.00  0.00     0.108 A 
HETATM    2  C10 UNL     1      42.848  16.969  82.960  1.00  0.00     0.045 A 
HETATM    3  C11 UNL     1      43.951  17.233  82.148  1.00  0.00    -0.033 A 
HETATM    4  C12 UNL     1      44.108  16.117  81.396  1.00  0.00     0.023 A 
HETATM    5  N3  UNL     1      43.141  15.167  81.711  1.00  0.00    -0.317 N 
HETATM    6  C21 UNL     1      45.205  16.038  80.400  1.00  0.00     0.058 C 
HETATM    7  C22 UNL     1      46.334  16.947  80.841  1.00  0.00     0.006 C 
HETATM    8  C23 UNL     1      45.841  18.354  81.073  1.00  0.00     0.005 C 
HETATM    9  C24 UNL     1      44.776  18.445  82.100  1.00  0.00     0.040 C 
ENDROOT
BRANCH   1  10
HETATM   10  C1  UNL     1      41.229  15.142  83.356  1.00  0.00     0.269 C 
HETATM   11  O1  UNL     1      40.868  13.932  83.401  1.00  0.00    -0.266 OA
HETATM   12  N1  UNL     1      40.341  16.000  84.105  1.00  0.00    -0.349 N 
ATOM     13  H1  UNL     1      40.540  16.999  84.135  1.00  0.00     0.163 HD
BRANCH  12  14
HETATM   14  C2  UNL     1      39.180  15.506  84.815  1.00  0.00     0.117 C 
HETATM   15  C3  UNL     1      39.170  16.003  86.262  1.00  0.00     0.297 C 
HETATM   16  N2  UNL     1      37.831  16.339  86.676  1.00  0.00     0.090 N 
HETATM   17  C4  UNL     1      36.928  15.250  86.341  1.00  0.00     0.273 C 
HETATM   18  C8  UNL     1      37.342  17.523  85.989  1.00  0.00     0.273 C 
HETATM   19  C5  UNL     1      36.763  15.168  84.850  1.00  0.00     0.037 C 
HETATM   20  C6  UNL     1      37.883  15.961  84.193  1.00  0.00     0.013 C 
HETATM   21  C7  UNL     1      37.680  17.427  84.523  1.00  0.00     0.037 C 
ENDBRANCH  12  14
ENDBRANCH   1  10
BRANCH   5  22
HETATM   22  C13 UNL     1      43.043  13.906  81.097  1.00  0.00     0.008 C 
HETATM   23  C14 UNL     1      44.005  12.838  81.430  1.00  0.00     0.080 C 
HETATM   24  C15 UNL     1      43.542  11.478  81.811  1.00  0.00    -0.025 C 
HETATM   25  C16 UNL     1      42.750  10.590  81.005  1.00  0.00    -0.029 C 
HETATM   26  C17 UNL     1      42.842  10.299  79.577  1.00  0.00     0.038 C 
HETATM   27  C18 UNL     1      42.236  11.374  78.609  1.00  0.00     0.084 C 
HETATM   28  C19 UNL     1      42.457  12.585  79.259  1.00  0.00    -0.177 C 
HETATM   29  C20 UNL     1      42.562  13.947  79.607  1.00  0.00     0.133 C 
ENDBRANCH   5  22
TORSDOF 3
ENDMDL
