MODEL 1
REMARK VINA RESULT: -7.115411420      0.000      0.000
REMARK  3 active torsions:
REMARK  status: ('A' for Active; 'I' for Inactive)
REMARK       I    between atoms: C1_4  and  N3_6 
REMARK    1  A    between atoms: N3_6  and  N4_8 
REMARK    2  A    between atoms: N4_8  and  S1_10 
REMARK    3  A    between atoms: S1_10  and  N5_13 
ROOT
HETATM    1  S1  UNL     1      19.182  67.597  35.374  1.00  0.00     0.350 S 
HETATM    2  O1  UNL     1      20.149  66.445  35.398  1.00  0.00    -0.180 OA
HETATM    3  O2  UNL     1      19.782  68.740  36.107  1.00  0.00    -0.180 OA
ENDROOT
BRANCH   1   4
HETATM    4  N4  UNL     1      18.838  67.957  33.729  1.00  0.00    -0.207 N 
ATOM      5  H4  UNL     1      17.973  68.359  33.368  1.00  0.00     0.201 HD
BRANCH   4   6
HETATM    6  N3  UNL     1      19.962  67.601  32.972  1.00  0.00    -0.263 N 
HETATM    7  C1  UNL     1      19.847  67.177  31.622  1.00  0.00     0.201 C 
HETATM    8  N1  UNL     1      20.714  66.387  31.067  1.00  0.00    -0.372 N 
HETATM    9  N2  UNL     1      18.764  67.611  30.826  1.00  0.00    -0.062 NA
ATOM     10  H12 UNL     1      20.631  66.082  30.097  1.00  0.00     0.158 HD
ATOM     11  H11 UNL     1      21.496  66.074  31.641  1.00  0.00     0.158 HD
ATOM     12  H3  UNL     1      20.885  67.648  33.401  1.00  0.00     0.190 HD
ENDBRANCH   4   6
ENDBRANCH   1   4
BRANCH   1  13
HETATM   13  N5  UNL     1      17.753  67.119  36.230  1.00  0.00    -0.120 N 
HETATM   14  C2  UNL     1      17.826  66.409  37.384  1.00  0.00     0.349 A 
HETATM   15  O3  UNL     1      18.972  66.119  37.795  1.00  0.00    -0.245 OA
HETATM   16  N6  UNL     1      16.753  66.024  38.067  1.00  0.00    -0.259 N 
HETATM   17  C3  UNL     1      15.523  66.339  37.621  1.00  0.00     0.332 A 
ATOM     18  H6  UNL     1      16.862  65.490  38.929  1.00  0.00     0.175 HD
HETATM   19  O4  UNL     1      14.514  65.975  38.266  1.00  0.00    -0.246 OA
HETATM   20  N7  UNL     1      15.417  67.051  36.465  1.00  0.00    -0.259 N 
HETATM   21  C4  UNL     1      16.521  67.426  35.796  1.00  0.00     0.349 A 
ATOM     22  H7  UNL     1      14.496  67.301  36.105  1.00  0.00     0.175 HD
HETATM   23  O5  UNL     1      16.379  68.080  34.735  1.00  0.00    -0.245 OA
ENDBRANCH   1  13
TORSDOF 3
ENDMDL
MODEL 2
REMARK VINA RESULT: -7.101821195      0.080      1.898
REMARK  3 active torsions:
REMARK  status: ('A' for Active; 'I' for Inactive)
REMARK       I    between atoms: C1_4  and  N3_6 
REMARK    1  A    between atoms: N3_6  and  N4_8 
REMARK    2  A    between atoms: N4_8  and  S1_10 
REMARK    3  A    between atoms: S1_10  and  N5_13 
ROOT
HETATM    1  S1  UNL     1      19.170  67.588  35.390  1.00  0.00     0.350 S 
HETATM    2  O1  UNL     1      20.129  66.429  35.410  1.00  0.00    -0.180 OA
HETATM    3  O2  UNL     1      19.775  68.723  36.133  1.00  0.00    -0.180 OA
ENDROOT
BRANCH   1   4
HETATM    4  N4  UNL     1      18.835  67.961  33.746  1.00  0.00    -0.207 N 
ATOM      5  H4  UNL     1      17.976  68.375  33.386  1.00  0.00     0.201 HD
BRANCH   4   6
HETATM    6  N3  UNL     1      19.956  67.595  32.990  1.00  0.00    -0.263 N 
HETATM    7  C1  UNL     1      19.838  67.176  31.639  1.00  0.00     0.201 C 
HETATM    8  N1  UNL     1      20.697  66.378  31.082  1.00  0.00    -0.372 N 
HETATM    9  N2  UNL     1      18.762  67.624  30.842  1.00  0.00    -0.062 NA
ATOM     10  H12 UNL     1      20.613  66.077  30.111  1.00  0.00     0.158 HD
ATOM     11  H11 UNL     1      21.475  66.054  31.657  1.00  0.00     0.158 HD
ATOM     12  H3  UNL     1      20.879  67.630  33.421  1.00  0.00     0.190 HD
ENDBRANCH   4   6
ENDBRANCH   1   4
BRANCH   1  13
HETATM   13  N5  UNL     1      17.735  67.113  36.238  1.00  0.00    -0.120 N 
HETATM   14  C2  UNL     1      16.502  67.434  35.773  1.00  0.00     0.349 A 
HETATM   15  O3  UNL     1      16.456  68.087  34.706  1.00  0.00    -0.245 OA
HETATM   16  N6  UNL     1      15.380  67.088  36.395  1.00  0.00    -0.259 N 
HETATM   17  C3  UNL     1      15.436  66.386  37.541  1.00  0.00     0.332 A 
ATOM     18  H6  UNL     1      14.477  67.356  36.004  1.00  0.00     0.175 HD
HETATM   19  O4  UNL     1      14.377  66.062  38.126  1.00  0.00    -0.246 OA
HETATM   20  N7  UNL     1      16.660  66.049  38.035  1.00  0.00    -0.259 N 
HETATM   21  C4  UNL     1      17.777  66.413  37.382  1.00  0.00     0.349 A 
ATOM     22  H7  UNL     1      16.728  65.518  38.903  1.00  0.00     0.175 HD
HETATM   23  O5  UNL     1      18.884  66.083  37.871  1.00  0.00    -0.245 OA
ENDBRANCH   1  13
TORSDOF 3
ENDMDL
MODEL 3
REMARK VINA RESULT: -6.800678837      2.538      3.467
REMARK  3 active torsions:
REMARK  status: ('A' for Active; 'I' for Inactive)
REMARK       I    between atoms: C1_4  and  N3_6 
REMARK    1  A    between atoms: N3_6  and  N4_8 
REMARK    2  A    between atoms: N4_8  and  S1_10 
REMARK    3  A    between atoms: S1_10  and  N5_13 
ROOT
HETATM    1  S1  UNL     1      17.945  65.958  38.310  1.00  0.00     0.350 S 
HETATM    2  O1  UNL     1      18.522  64.799  37.544  1.00  0.00    -0.180 OA
HETATM    3  O2  UNL     1      18.038  65.665  39.762  1.00  0.00    -0.180 OA
ENDROOT
BRANCH   1   4
HETATM    4  N4  UNL     1      18.811  67.371  37.851  1.00  0.00    -0.207 N 
ATOM      5  H4  UNL     1      18.847  68.249  38.368  1.00  0.00     0.201 HD
BRANCH   4   6
HETATM    6  N3  UNL     1      19.458  67.098  36.640  1.00  0.00    -0.263 N 
HETATM    7  C1  UNL     1      19.987  68.135  35.827  1.00  0.00     0.201 C 
HETATM    8  N1  UNL     1      20.118  68.012  34.542  1.00  0.00    -0.372 N 
HETATM    9  N2  UNL     1      20.397  69.357  36.405  1.00  0.00    -0.062 NA
ATOM     10  H12 UNL     1      20.498  68.757  33.958  1.00  0.00     0.158 HD
ATOM     11  H11 UNL     1      19.823  67.129  34.125  1.00  0.00     0.158 HD
ATOM     12  H3  UNL     1      19.552  66.130  36.333  1.00  0.00     0.190 HD
ENDBRANCH   4   6
ENDBRANCH   1   4
BRANCH   1  13
HETATM   13  N5  UNL     1      16.264  66.086  37.908  1.00  0.00    -0.120 N 
HETATM   14  C2  UNL     1      15.308  65.508  38.677  1.00  0.00     0.349 A 
HETATM   15  O3  UNL     1      15.702  64.881  39.687  1.00  0.00    -0.245 OA
HETATM   16  N6  UNL     1      14.011  65.584  38.400  1.00  0.00    -0.259 N 
HETATM   17  C3  UNL     1      13.594  66.261  37.314  1.00  0.00     0.332 A 
ATOM     18  H6  UNL     1      13.332  65.131  39.011  1.00  0.00     0.175 HD
HETATM   19  O4  UNL     1      12.371  66.330  37.056  1.00  0.00    -0.246 OA
HETATM   20  N7  UNL     1      14.530  66.852  36.521  1.00  0.00    -0.259 N 
HETATM   21  C4  UNL     1      15.835  66.757  36.827  1.00  0.00     0.349 A 
ATOM     22  H7  UNL     1      14.239  67.368  35.691  1.00  0.00     0.175 HD
HETATM   23  O5  UNL     1      16.665  67.315  36.070  1.00  0.00    -0.245 OA
ENDBRANCH   1  13
TORSDOF 3
ENDMDL
MODEL 4
REMARK VINA RESULT: -6.775385228      2.579      3.842
REMARK  3 active torsions:
REMARK  status: ('A' for Active; 'I' for Inactive)
REMARK       I    between atoms: C1_4  and  N3_6 
REMARK    1  A    between atoms: N3_6  and  N4_8 
REMARK    2  A    between atoms: N4_8  and  S1_10 
REMARK    3  A    between atoms: S1_10  and  N5_13 
ROOT
HETATM    1  S1  UNL     1      17.921  65.953  38.343  1.00  0.00     0.350 S 
HETATM    2  O1  UNL     1      18.509  64.812  37.559  1.00  0.00    -0.180 OA
HETATM    3  O2  UNL     1      18.047  65.654  39.791  1.00  0.00    -0.180 OA
ENDROOT
BRANCH   1   4
HETATM    4  N4  UNL     1      18.745  67.388  37.876  1.00  0.00    -0.207 N 
ATOM      5  H4  UNL     1      18.744  68.274  38.381  1.00  0.00     0.201 HD
BRANCH   4   6
HETATM    6  N3  UNL     1      19.419  67.121  36.678  1.00  0.00    -0.263 N 
HETATM    7  C1  UNL     1      19.980  68.160  35.891  1.00  0.00     0.201 C 
HETATM    8  N1  UNL     1      20.142  68.049  34.608  1.00  0.00    -0.372 N 
HETATM    9  N2  UNL     1      20.389  69.371  36.492  1.00  0.00    -0.062 NA
ATOM     10  H12 UNL     1      20.545  68.796  34.042  1.00  0.00     0.158 HD
ATOM     11  H11 UNL     1      19.847  67.174  34.174  1.00  0.00     0.158 HD
ATOM     12  H3  UNL     1      19.509  66.155  36.364  1.00  0.00     0.190 HD
ENDBRANCH   4   6
ENDBRANCH   1   4
BRANCH   1  13
HETATM   13  N5  UNL     1      16.230  66.045  37.973  1.00  0.00    -0.120 N 
HETATM   14  C2  UNL     1      15.783  66.699  36.872  1.00  0.00     0.349 A 
HETATM   15  O3  UNL     1      16.651  67.230  36.142  1.00  0.00    -0.245 OA
HETATM   16  N6  UNL     1      14.496  66.791  36.556  1.00  0.00    -0.259 N 
HETATM   17  C3  UNL     1      13.568  66.218  37.345  1.00  0.00     0.332 A 
ATOM     18  H6  UNL     1      14.211  67.296  35.717  1.00  0.00     0.175 HD
HETATM   19  O4  UNL     1      12.355  66.307  37.045  1.00  0.00    -0.246 OA
HETATM   20  N7  UNL     1      13.985  65.554  38.458  1.00  0.00    -0.259 N 
HETATM   21  C4  UNL     1      15.295  65.478  38.751  1.00  0.00     0.349 A 
ATOM     22  H7  UNL     1      13.301  65.113  39.072  1.00  0.00     0.175 HD
HETATM   23  O5  UNL     1      15.636  64.858  39.786  1.00  0.00    -0.245 OA
ENDBRANCH   1  13
TORSDOF 3
ENDMDL
MODEL 5
REMARK VINA RESULT: -6.623338127      2.428      3.564
REMARK  3 active torsions:
REMARK  status: ('A' for Active; 'I' for Inactive)
REMARK       I    between atoms: C1_4  and  N3_6 
REMARK    1  A    between atoms: N3_6  and  N4_8 
REMARK    2  A    between atoms: N4_8  and  S1_10 
REMARK    3  A    between atoms: S1_10  and  N5_13 
ROOT
HETATM    1  S1  UNL     1      15.938  68.583  33.937  1.00  0.00     0.350 S 
HETATM    2  O1  UNL     1      14.742  69.325  34.469  1.00  0.00    -0.180 OA
HETATM    3  O2  UNL     1      15.476  67.577  32.948  1.00  0.00    -0.180 OA
ENDROOT
BRANCH   1   4
HETATM    4  N4  UNL     1      17.016  69.742  33.266  1.00  0.00    -0.207 N 
ATOM      5  H4  UNL     1      17.297  70.623  33.695  1.00  0.00     0.201 HD
BRANCH   4   6
HETATM    6  N3  UNL     1      17.440  69.257  32.022  1.00  0.00    -0.263 N 
HETATM    7  C1  UNL     1      17.021  69.857  30.806  1.00  0.00     0.201 C 
HETATM    8  N1  UNL     1      16.950  69.194  29.693  1.00  0.00    -0.372 N 
HETATM    9  N2  UNL     1      16.663  71.223  30.769  1.00  0.00    -0.062 NA
ATOM     10  H12 UNL     1      16.649  69.625  28.819  1.00  0.00     0.158 HD
ATOM     11  H11 UNL     1      17.209  68.208  29.719  1.00  0.00     0.158 HD
ATOM     12  H3  UNL     1      18.066  68.452  31.990  1.00  0.00     0.190 HD
ENDBRANCH   4   6
ENDBRANCH   1   4
BRANCH   1  13
HETATM   13  N5  UNL     1      16.668  67.726  35.254  1.00  0.00    -0.120 N 
HETATM   14  C2  UNL     1      18.008  67.522  35.307  1.00  0.00     0.349 A 
HETATM   15  O3  UNL     1      18.685  67.984  34.361  1.00  0.00    -0.245 OA
HETATM   16  N6  UNL     1      18.604  66.870  36.300  1.00  0.00    -0.259 N 
HETATM   17  C3  UNL     1      17.871  66.377  37.315  1.00  0.00     0.332 A 
ATOM     18  H6  UNL     1      19.615  66.743  36.292  1.00  0.00     0.175 HD
HETATM   19  O4  UNL     1      18.435  65.762  38.249  1.00  0.00    -0.246 OA
HETATM   20  N7  UNL     1      16.522  66.564  37.291  1.00  0.00    -0.259 N 
HETATM   21  C4  UNL     1      15.949  67.229  36.272  1.00  0.00     0.349 A 
ATOM     22  H7  UNL     1      15.945  66.198  38.048  1.00  0.00     0.175 HD
HETATM   23  O5  UNL     1      14.703  67.378  36.288  1.00  0.00    -0.245 OA
ENDBRANCH   1  13
TORSDOF 3
ENDMDL
