MODEL 1
REMARK VINA RESULT: -8.528468930      0.000      0.000
REMARK  3 active torsions:
REMARK  status: ('A' for Active; 'I' for Inactive)
REMARK       I    between atoms: C2_2  and  N1_4 
REMARK    1  A    between atoms: N1_4  and  C3_6 
REMARK    2  A    between atoms: C5_12  and  C6_13 
REMARK    3  A    between atoms: C9_21  and  N6_22 
ROOT
HETATM    1  C3  UNL     1     -64.502  18.812  50.473  1.00  0.00     0.714 A 
HETATM    2  N2  UNL     1     -64.813  19.839  51.263  1.00  0.00    -0.129 N 
ATOM      3  H2  UNL     1     -65.058  20.735  50.842  1.00  0.00     0.205 HD
HETATM    4  N3  UNL     1     -64.810  19.726  52.577  1.00  0.00    -0.269 N 
ATOM      5  H3  UNL     1     -65.054  20.539  53.144  1.00  0.00     0.189 HD
HETATM    6  C4  UNL     1     -64.495  18.573  53.193  1.00  0.00     0.161 A 
HETATM    7  C5  UNL     1     -64.424  18.222  54.558  1.00  0.00     0.096 A 
HETATM    8  C7  UNL     1     -64.051  16.914  54.595  1.00  0.00     0.098 A 
HETATM    9  C8  UNL     1     -63.809  15.988  55.602  1.00  0.00     0.274 A 
HETATM   10  O3  UNL     1     -63.933  16.332  56.800  1.00  0.00    -0.267 OA
HETATM   11  N5  UNL     1     -63.445  14.740  55.260  1.00  0.00    -0.155 N 
ATOM     12  H5  UNL     1     -63.269  14.064  56.003  1.00  0.00     0.187 HD
HETATM   13  C9  UNL     1     -63.304  14.344  53.993  1.00  0.00     0.680 A 
HETATM   14  N7  UNL     1     -63.542  15.250  53.033  1.00  0.00    -0.174 N 
ATOM     15  H7  UNL     1     -63.438  14.953  52.062  1.00  0.00     0.186 HD
HETATM   16  C10 UNL     1     -63.909  16.519  53.260  1.00  0.00     0.162 A 
HETATM   17  N8  UNL     1     -64.180  17.533  52.427  1.00  0.00    -0.205 N 
HETATM   18  N9  UNL     1     -64.186  17.654  51.098  1.00  0.00    -0.120 N 
ATOM     19  H9  UNL     1     -63.943  16.842  50.531  1.00  0.00     0.206 HD
ENDROOT
BRANCH   1  20
HETATM   20  N1  UNL     1     -64.501  18.914  49.059  1.00  0.00    -0.157 N 
HETATM   21  C2  UNL     1     -63.450  19.441  48.293  1.00  0.00     0.232 C 
HETATM   22  C1  UNL     1     -62.216  19.952  48.874  1.00  0.00     0.118 C 
HETATM   23  O1  UNL     1     -63.580  19.474  47.021  1.00  0.00    -0.273 OA
ATOM     24  H1  UNL     1     -65.326  18.580  48.561  1.00  0.00     0.187 HD
ENDBRANCH   1  20
BRANCH   7  25
HETATM   25  C6  UNL     1     -64.705  19.124  55.635  1.00  0.00     0.270 C 
HETATM   26  N4  UNL     1     -65.915  19.599  56.133  1.00  0.00    -0.057 NA
HETATM   27  O2  UNL     1     -63.672  19.593  56.268  1.00  0.00    -0.271 OA
ENDBRANCH   7  25
BRANCH  13  28
HETATM   28  N6  UNL     1     -62.949  13.122  53.688  1.00  0.00    -0.234 N 
ATOM     29  H62 UNL     1     -61.989  12.806  53.831  1.00  0.00     0.174 HD
ATOM     30  H61 UNL     1     -63.611  12.450  53.301  1.00  0.00     0.174 HD
ENDBRANCH  13  28
TORSDOF 3
ENDMDL
MODEL 2
REMARK VINA RESULT: -8.189838937      2.630      6.202
REMARK  3 active torsions:
REMARK  status: ('A' for Active; 'I' for Inactive)
REMARK       I    between atoms: C2_2  and  N1_4 
REMARK    1  A    between atoms: N1_4  and  C3_6 
REMARK    2  A    between atoms: C5_12  and  C6_13 
REMARK    3  A    between atoms: C9_21  and  N6_22 
ROOT
HETATM    1  C3  UNL     1     -65.155  19.365  53.697  1.00  0.00     0.714 A 
HETATM    2  N2  UNL     1     -64.222  20.127  53.128  1.00  0.00    -0.129 N 
ATOM      3  H2  UNL     1     -63.756  20.842  53.685  1.00  0.00     0.205 HD
HETATM    4  N3  UNL     1     -63.888  19.980  51.860  1.00  0.00    -0.269 N 
ATOM      5  H3  UNL     1     -63.168  20.585  51.465  1.00  0.00     0.189 HD
HETATM    6  C4  UNL     1     -64.467  19.056  51.073  1.00  0.00     0.161 A 
HETATM    7  C5  UNL     1     -64.277  18.722  49.715  1.00  0.00     0.096 A 
HETATM    8  C7  UNL     1     -65.140  17.704  49.450  1.00  0.00     0.098 A 
HETATM    9  C8  UNL     1     -65.446  16.939  48.331  1.00  0.00     0.274 A 
HETATM   10  O3  UNL     1     -64.843  17.153  47.255  1.00  0.00    -0.267 OA
HETATM   11  N5  UNL     1     -66.387  15.985  48.436  1.00  0.00    -0.155 N 
ATOM     12  H5  UNL     1     -66.607  15.426  47.612  1.00  0.00     0.187 HD
HETATM   13  C9  UNL     1     -67.047  15.735  49.570  1.00  0.00     0.680 A 
HETATM   14  N7  UNL     1     -66.740  16.482  50.641  1.00  0.00    -0.174 N 
ATOM     15  H7  UNL     1     -67.239  16.294  51.510  1.00  0.00     0.186 HD
HETATM   16  C10 UNL     1     -65.821  17.458  50.648  1.00  0.00     0.162 A 
HETATM   17  N8  UNL     1     -65.402  18.283  51.617  1.00  0.00    -0.205 N 
HETATM   18  N9  UNL     1     -65.734  18.437  52.901  1.00  0.00    -0.120 N 
ATOM     19  H9  UNL     1     -66.453  17.831  53.297  1.00  0.00     0.206 HD
ENDROOT
BRANCH   1  20
HETATM   20  N1  UNL     1     -65.527  19.508  55.058  1.00  0.00    -0.157 N 
HETATM   21  C2  UNL     1     -64.791  19.018  56.147  1.00  0.00     0.232 C 
HETATM   22  C1  UNL     1     -63.536  18.292  56.002  1.00  0.00     0.118 C 
HETATM   23  O1  UNL     1     -65.242  19.218  57.327  1.00  0.00    -0.273 OA
ATOM     24  H1  UNL     1     -66.395  20.005  55.260  1.00  0.00     0.187 HD
ENDBRANCH   1  20
BRANCH   7  25
HETATM   25  C6  UNL     1     -63.339  19.374  48.851  1.00  0.00     0.270 C 
HETATM   26  N4  UNL     1     -62.262  18.867  48.128  1.00  0.00    -0.057 NA
HETATM   27  O2  UNL     1     -63.498  20.655  48.703  1.00  0.00    -0.271 OA
ENDBRANCH   7  25
BRANCH  13  28
HETATM   28  N6  UNL     1     -67.959  14.800  49.644  1.00  0.00    -0.234 N 
ATOM     29  H62 UNL     1     -67.701  13.833  49.844  1.00  0.00     0.174 HD
ATOM     30  H61 UNL     1     -68.949  15.003  49.506  1.00  0.00     0.174 HD
ENDBRANCH  13  28
TORSDOF 3
ENDMDL
MODEL 3
REMARK VINA RESULT: -8.001517755      2.566      2.828
REMARK  3 active torsions:
REMARK  status: ('A' for Active; 'I' for Inactive)
REMARK       I    between atoms: C2_2  and  N1_4 
REMARK    1  A    between atoms: N1_4  and  C3_6 
REMARK    2  A    between atoms: C5_12  and  C6_13 
REMARK    3  A    between atoms: C9_21  and  N6_22 
ROOT
HETATM    1  C3  UNL     1     -66.338  16.724  51.744  1.00  0.00     0.714 A 
HETATM    2  N2  UNL     1     -66.082  17.974  52.132  1.00  0.00    -0.129 N 
ATOM      3  H2  UNL     1     -66.609  18.742  51.716  1.00  0.00     0.205 HD
HETATM    4  N3  UNL     1     -65.163  18.242  53.039  1.00  0.00    -0.269 N 
ATOM      5  H3  UNL     1     -65.000  19.213  53.306  1.00  0.00     0.189 HD
HETATM    6  C4  UNL     1     -64.434  17.274  53.622  1.00  0.00     0.161 A 
HETATM    7  C5  UNL     1     -63.415  17.321  54.598  1.00  0.00     0.096 A 
HETATM    8  C7  UNL     1     -63.035  16.032  54.812  1.00  0.00     0.098 A 
HETATM    9  C8  UNL     1     -62.103  15.403  55.627  1.00  0.00     0.274 A 
HETATM   10  O3  UNL     1     -61.386  16.092  56.389  1.00  0.00    -0.267 OA
HETATM   11  N5  UNL     1     -61.995  14.064  55.576  1.00  0.00    -0.155 N 
ATOM     12  H5  UNL     1     -61.309  13.607  56.177  1.00  0.00     0.187 HD
HETATM   13  C9  UNL     1     -62.745  13.304  54.774  1.00  0.00     0.680 A 
HETATM   14  N7  UNL     1     -63.640  13.926  53.993  1.00  0.00    -0.174 N 
ATOM     15  H7  UNL     1     -64.217  13.351  53.379  1.00  0.00     0.186 HD
HETATM   16  C10 UNL     1     -63.830  15.253  53.963  1.00  0.00     0.162 A 
HETATM   17  N8  UNL     1     -64.669  16.019  53.253  1.00  0.00    -0.205 N 
HETATM   18  N9  UNL     1     -65.602  15.755  52.335  1.00  0.00    -0.120 N 
ATOM     19  H9  UNL     1     -65.766  14.785  52.068  1.00  0.00     0.206 HD
ENDROOT
BRANCH   1  20
HETATM   20  N1  UNL     1     -67.323  16.417  50.771  1.00  0.00    -0.157 N 
HETATM   21  C2  UNL     1     -67.096  16.367  49.388  1.00  0.00     0.232 C 
HETATM   22  C1  UNL     1     -65.798  16.629  48.780  1.00  0.00     0.118 C 
HETATM   23  O1  UNL     1     -68.077  16.075  48.620  1.00  0.00    -0.273 OA
ATOM     24  H1  UNL     1     -68.267  16.218  51.103  1.00  0.00     0.187 HD
ENDBRANCH   1  20
BRANCH   7  25
HETATM   25  C6  UNL     1     -62.931  18.529  55.197  1.00  0.00     0.270 C 
HETATM   26  N4  UNL     1     -62.097  19.523  54.695  1.00  0.00    -0.057 NA
HETATM   27  O2  UNL     1     -63.323  18.755  56.415  1.00  0.00    -0.271 OA
ENDBRANCH   7  25
BRANCH  13  28
HETATM   28  N6  UNL     1     -62.619  12.002  54.743  1.00  0.00    -0.234 N 
ATOM     29  H62 UNL     1     -63.441  11.398  54.742  1.00  0.00     0.174 HD
ATOM     30  H61 UNL     1     -61.704  11.551  54.720  1.00  0.00     0.174 HD
ENDBRANCH  13  28
TORSDOF 3
ENDMDL
MODEL 4
REMARK VINA RESULT: -7.987480906      2.810      6.646
REMARK  3 active torsions:
REMARK  status: ('A' for Active; 'I' for Inactive)
REMARK       I    between atoms: C2_2  and  N1_4 
REMARK    1  A    between atoms: N1_4  and  C3_6 
REMARK    2  A    between atoms: C5_12  and  C6_13 
REMARK    3  A    between atoms: C9_21  and  N6_22 
ROOT
HETATM    1  C3  UNL     1     -64.549  18.973  52.531  1.00  0.00     0.714 A 
HETATM    2  N2  UNL     1     -65.624  18.204  52.703  1.00  0.00    -0.129 N 
ATOM      3  H2  UNL     1     -66.063  18.160  53.622  1.00  0.00     0.205 HD
HETATM    4  N3  UNL     1     -66.135  17.498  51.712  1.00  0.00    -0.269 N 
ATOM      5  H3  UNL     1     -66.959  16.923  51.889  1.00  0.00     0.189 HD
HETATM    6  C4  UNL     1     -65.601  17.513  50.478  1.00  0.00     0.161 A 
HETATM    7  C5  UNL     1     -65.967  16.852  49.285  1.00  0.00     0.096 A 
HETATM    8  C7  UNL     1     -65.066  17.241  48.344  1.00  0.00     0.098 A 
HETATM    9  C8  UNL     1     -64.867  16.963  46.997  1.00  0.00     0.274 A 
HETATM   10  O3  UNL     1     -65.646  16.179  46.408  1.00  0.00    -0.267 OA
HETATM   11  N5  UNL     1     -63.838  17.548  46.359  1.00  0.00    -0.155 N 
ATOM     12  H5  UNL     1     -63.698  17.341  45.371  1.00  0.00     0.187 HD
HETATM   13  C9  UNL     1     -62.992  18.388  46.961  1.00  0.00     0.680 A 
HETATM   14  N7  UNL     1     -63.197  18.646  48.261  1.00  0.00    -0.174 N 
ATOM     15  H7  UNL     1     -62.555  19.288  48.726  1.00  0.00     0.186 HD
HETATM   16  C10 UNL     1     -64.190  18.119  48.992  1.00  0.00     0.162 A 
HETATM   17  N8  UNL     1     -64.528  18.271  50.280  1.00  0.00    -0.205 N 
HETATM   18  N9  UNL     1     -64.017  18.984  51.287  1.00  0.00    -0.120 N 
ATOM     19  H9  UNL     1     -63.194  19.559  51.111  1.00  0.00     0.206 HD
ENDROOT
BRANCH   1  20
HETATM   20  N1  UNL     1     -63.987  19.739  53.583  1.00  0.00    -0.157 N 
HETATM   21  C2  UNL     1     -63.134  19.235  54.576  1.00  0.00     0.232 C 
HETATM   22  C1  UNL     1     -62.720  17.840  54.642  1.00  0.00     0.118 C 
HETATM   23  O1  UNL     1     -62.697  20.040  55.470  1.00  0.00    -0.273 OA
ATOM     24  H1  UNL     1     -64.220  20.731  53.620  1.00  0.00     0.187 HD
ENDBRANCH   1  20
BRANCH   7  25
HETATM   25  C6  UNL     1     -67.083  15.960  49.171  1.00  0.00     0.270 C 
HETATM   26  N4  UNL     1     -68.236  16.040  48.394  1.00  0.00    -0.057 NA
HETATM   27  O2  UNL     1     -67.034  14.891  49.907  1.00  0.00    -0.271 OA
ENDBRANCH   7  25
BRANCH  13  28
HETATM   28  N6  UNL     1     -61.998  18.943  46.317  1.00  0.00    -0.234 N 
ATOM     29  H62 UNL     1     -61.036  18.646  46.483  1.00  0.00     0.174 HD
ATOM     30  H61 UNL     1     -62.149  19.685  45.633  1.00  0.00     0.174 HD
ENDBRANCH  13  28
TORSDOF 3
ENDMDL
MODEL 5
REMARK VINA RESULT: -7.903849048      1.897      5.570
REMARK  3 active torsions:
REMARK  status: ('A' for Active; 'I' for Inactive)
REMARK       I    between atoms: C2_2  and  N1_4 
REMARK    1  A    between atoms: N1_4  and  C3_6 
REMARK    2  A    between atoms: C5_12  and  C6_13 
REMARK    3  A    between atoms: C9_21  and  N6_22 
ROOT
HETATM    1  C3  UNL     1     -65.093  19.240  53.859  1.00  0.00     0.714 A 
HETATM    2  N2  UNL     1     -64.954  20.230  52.977  1.00  0.00    -0.129 N 
ATOM      3  H2  UNL     1     -65.157  21.186  53.266  1.00  0.00     0.205 HD
HETATM    4  N3  UNL     1     -64.562  20.002  51.738  1.00  0.00    -0.269 N 
ATOM      5  H3  UNL     1     -64.469  20.789  51.096  1.00  0.00     0.189 HD
HETATM    6  C4  UNL     1     -64.280  18.763  51.296  1.00  0.00     0.161 A 
HETATM    7  C5  UNL     1     -63.853  18.286  50.038  1.00  0.00     0.096 A 
HETATM    8  C7  UNL     1     -63.727  16.938  50.167  1.00  0.00     0.098 A 
HETATM    9  C8  UNL     1     -63.353  15.899  49.323  1.00  0.00     0.274 A 
HETATM   10  O3  UNL     1     -63.035  16.152  48.138  1.00  0.00    -0.267 OA
HETATM   11  N5  UNL     1     -63.341  14.644  49.805  1.00  0.00    -0.155 N 
ATOM     12  H5  UNL     1     -63.065  13.886  49.182  1.00  0.00     0.187 HD
HETATM   13  C9  UNL     1     -63.675  14.345  51.063  1.00  0.00     0.680 A 
HETATM   14  N7  UNL     1     -64.034  15.359  51.865  1.00  0.00    -0.174 N 
ATOM     15  H7  UNL     1     -64.288  15.136  52.827  1.00  0.00     0.186 HD
HETATM   16  C10 UNL     1     -64.080  16.645  51.489  1.00  0.00     0.162 A 
HETATM   17  N8  UNL     1     -64.412  17.759  52.156  1.00  0.00    -0.205 N 
HETATM   18  N9  UNL     1     -64.808  17.997  53.408  1.00  0.00    -0.120 N 
ATOM     19  H9  UNL     1     -64.900  17.210  54.051  1.00  0.00     0.206 HD
ENDROOT
BRANCH   1  20
HETATM   20  N1  UNL     1     -65.512  19.466  55.194  1.00  0.00    -0.157 N 
HETATM   21  C2  UNL     1     -64.773  19.125  56.336  1.00  0.00     0.232 C 
HETATM   22  C1  UNL     1     -63.464  18.488  56.281  1.00  0.00     0.118 C 
HETATM   23  O1  UNL     1     -65.271  19.387  57.485  1.00  0.00    -0.273 OA
ATOM     24  H1  UNL     1     -66.420  19.910  55.334  1.00  0.00     0.187 HD
ENDBRANCH   1  20
BRANCH   7  25
HETATM   25  C6  UNL     1     -63.620  19.123  48.899  1.00  0.00     0.270 C 
HETATM   26  N4  UNL     1     -64.000  18.974  47.568  1.00  0.00    -0.057 NA
HETATM   27  O2  UNL     1     -62.942  20.208  49.120  1.00  0.00    -0.271 OA
ENDBRANCH   7  25
BRANCH  13  28
HETATM   28  N6  UNL     1     -63.656  13.114  51.506  1.00  0.00    -0.234 N 
ATOM     29  H62 UNL     1     -62.801  12.558  51.467  1.00  0.00     0.174 HD
ATOM     30  H61 UNL     1     -64.486  12.673  51.902  1.00  0.00     0.174 HD
ENDBRANCH  13  28
TORSDOF 3
ENDMDL
