MODEL 1
REMARK VINA RESULT: -7.916265265      0.000      0.000
REMARK  13 active torsions:
REMARK  status: ('A' for Active; 'I' for Inactive)
REMARK    1  A    between atoms: C2_2  and  C3_3 
REMARK    2  A    between atoms: C3_3  and  C4_4 
REMARK    3  A    between atoms: C4_4  and  C5_5 
REMARK    4  A    between atoms: C4_4  and  N1_8 
REMARK    5  A    between atoms: C5_5  and  O1_6 
REMARK    6  A    between atoms: N1_8  and  C7_10 
REMARK    7  A    between atoms: N3_13  and  C8_14 
REMARK    8  A    between atoms: C8_14  and  C9_15 
REMARK    9  A    between atoms: C9_15  and  C10_16 
REMARK   10  A    between atoms: C10_16  and  O2_17 
REMARK   11  A    between atoms: C13_22  and  N4_23 
REMARK   12  A    between atoms: N4_23  and  S1_25 
REMARK   13  A    between atoms: S1_25  and  C14_28 
ROOT
HETATM    1  C7  UNL     1       8.195   9.234  22.199  1.00  0.00     0.146 A 
HETATM    2  N2  UNL     1       8.146  10.301  21.383  1.00  0.00    -0.279 N 
ATOM      3  H2  UNL     1       8.753  11.097  21.579  1.00  0.00     0.189 HD
HETATM    4  N3  UNL     1       7.333  10.356  20.325  1.00  0.00    -0.255 N 
HETATM    5  C11 UNL     1       6.520   9.327  20.037  1.00  0.00     0.278 A 
HETATM    6  O3  UNL     1       5.775   9.426  19.033  1.00  0.00    -0.265 OA
HETATM    7  C12 UNL     1       6.501   8.182  20.822  1.00  0.00     0.111 A 
HETATM    8  C13 UNL     1       5.798   6.995  20.783  1.00  0.00     0.148 A 
HETATM    9  N5  UNL     1       6.243   6.290  21.837  1.00  0.00    -0.283 N 
ATOM     10  H5  UNL     1       5.920   5.357  22.092  1.00  0.00     0.188 HD
HETATM   11  N6  UNL     1       7.165   6.984  22.501  1.00  0.00    -0.294 N 
ATOM     12  H6  UNL     1       7.652   6.663  23.338  1.00  0.00     0.187 HD
HETATM   13  C18 UNL     1       7.357   8.171  21.902  1.00  0.00     0.113 A 
ENDROOT
BRANCH   8  14
HETATM   14  N4  UNL     1       4.918   6.689  19.895  1.00  0.00    -0.263 N 
ATOM     15  H4  UNL     1       4.583   7.371  19.215  1.00  0.00     0.180 HD
BRANCH  14  16
HETATM   16  S1  UNL     1       4.326   5.050  19.915  1.00  0.00     0.271 S 
HETATM   17  O4  UNL     1       3.983   4.654  21.304  1.00  0.00    -0.200 OA
HETATM   18  O5  UNL     1       3.159   4.998  18.989  1.00  0.00    -0.200 OA
BRANCH  16  19
HETATM   19  C14 UNL     1       5.598   3.961  19.344  1.00  0.00     0.123 A 
HETATM   20  C15 UNL     1       5.914   3.647  18.047  1.00  0.00     0.059 A 
HETATM   21  C16 UNL     1       6.927   2.788  17.851  1.00  0.00     0.064 A 
HETATM   22 CL1  UNL     1       7.487   2.254  16.236  1.00  0.00    -0.082 Cl
HETATM   23  C17 UNL     1       7.557   2.302  18.967  1.00  0.00     0.097 A 
HETATM   24 CL2  UNL     1       8.919   1.163  19.049  1.00  0.00    -0.074 Cl
HETATM   25  S2  UNL     1       6.719   3.056  20.246  1.00  0.00    -0.063 SA
ENDBRANCH  16  19
ENDBRANCH  14  16
ENDBRANCH   8  14
BRANCH   4  26
HETATM   26  C8  UNL     1       7.309  11.526  19.468  1.00  0.00     0.154 C 
BRANCH  26  27
HETATM   27  C9  UNL     1       6.679  12.642  20.248  1.00  0.00     0.048 C 
BRANCH  27  28
HETATM   28  C10 UNL     1       7.644  13.755  20.560  1.00  0.00     0.165 C 
BRANCH  28  29
HETATM   29  O2  UNL     1       8.103  13.532  21.871  1.00  0.00    -0.401 OA
ATOM     30  H2  UNL     1       8.003  14.354  22.337  1.00  0.00     0.209 HD
ENDBRANCH  28  29
ENDBRANCH  27  28
ENDBRANCH  26  27
ENDBRANCH   4  26
BRANCH   1  31
HETATM   31  N1  UNL     1       8.975   9.162  23.223  1.00  0.00    -0.367 N 
ATOM     32  H1  UNL     1       9.854   8.657  23.100  1.00  0.00     0.161 HD
BRANCH  31  33
HETATM   33  C4  UNL     1       8.726   9.721  24.511  1.00  0.00     0.107 C 
BRANCH  33  34
HETATM   34  C3  UNL     1      10.067   9.728  25.253  1.00  0.00     0.027 C 
BRANCH  34  35
HETATM   35  C2  UNL     1      10.047   8.809  26.448  1.00  0.00    -0.002 C 
HETATM   36  C1  UNL     1      11.439   8.351  26.764  1.00  0.00     0.005 C 
ENDBRANCH  34  35
ENDBRANCH  33  34
BRANCH  33  37
HETATM   37  C5  UNL     1       7.729   8.911  25.316  1.00  0.00     0.192 C 
BRANCH  37  38
HETATM   38  O1  UNL     1       6.525   9.597  25.287  1.00  0.00    -0.394 OA
HETATM   39  C6  UNL     1       5.430   8.761  25.074  1.00  0.00     0.201 C 
ENDBRANCH  37  38
ENDBRANCH  33  37
ENDBRANCH  31  33
ENDBRANCH   1  31
TORSDOF 13
ENDMDL
MODEL 2
REMARK VINA RESULT: -7.598285042      4.116      8.170
REMARK  13 active torsions:
REMARK  status: ('A' for Active; 'I' for Inactive)
REMARK    1  A    between atoms: C2_2  and  C3_3 
REMARK    2  A    between atoms: C3_3  and  C4_4 
REMARK    3  A    between atoms: C4_4  and  C5_5 
REMARK    4  A    between atoms: C4_4  and  N1_8 
REMARK    5  A    between atoms: C5_5  and  O1_6 
REMARK    6  A    between atoms: N1_8  and  C7_10 
REMARK    7  A    between atoms: N3_13  and  C8_14 
REMARK    8  A    between atoms: C8_14  and  C9_15 
REMARK    9  A    between atoms: C9_15  and  C10_16 
REMARK   10  A    between atoms: C10_16  and  O2_17 
REMARK   11  A    between atoms: C13_22  and  N4_23 
REMARK   12  A    between atoms: N4_23  and  S1_25 
REMARK   13  A    between atoms: S1_25  and  C14_28 
ROOT
HETATM    1  C7  UNL     1       5.780   4.390  20.992  1.00  0.00     0.146 A 
HETATM    2  N2  UNL     1       4.734   4.300  21.832  1.00  0.00    -0.279 N 
ATOM      3  H2  UNL     1       4.314   3.386  21.996  1.00  0.00     0.189 HD
HETATM    4  N3  UNL     1       4.225   5.364  22.458  1.00  0.00    -0.255 N 
HETATM    5  C11 UNL     1       4.752   6.584  22.265  1.00  0.00     0.278 A 
HETATM    6  O3  UNL     1       4.240   7.552  22.876  1.00  0.00    -0.265 OA
HETATM    7  C12 UNL     1       5.834   6.775  21.417  1.00  0.00     0.111 A 
HETATM    8  C13 UNL     1       6.574   7.873  21.027  1.00  0.00     0.148 A 
HETATM    9  N5  UNL     1       7.497   7.390  20.177  1.00  0.00    -0.283 N 
ATOM     10  H5  UNL     1       8.206   7.951  19.707  1.00  0.00     0.188 HD
HETATM   11  N6  UNL     1       7.351   6.073  20.037  1.00  0.00    -0.294 N 
ATOM     12  H6  UNL     1       7.930   5.478  19.445  1.00  0.00     0.187 HD
HETATM   13  C18 UNL     1       6.325   5.648  20.794  1.00  0.00     0.113 A 
ENDROOT
BRANCH   8  14
HETATM   14  N4  UNL     1       6.372   9.079  21.430  1.00  0.00    -0.263 N 
ATOM     15  H4  UNL     1       5.439   9.489  21.448  1.00  0.00     0.180 HD
BRANCH  14  16
HETATM   16  S1  UNL     1       7.776   9.975  21.945  1.00  0.00     0.271 S 
HETATM   17  O4  UNL     1       8.912   9.704  21.027  1.00  0.00    -0.200 OA
HETATM   18  O5  UNL     1       7.385  11.413  21.979  1.00  0.00    -0.200 OA
BRANCH  16  19
HETATM   19  C14 UNL     1       8.252   9.441  23.563  1.00  0.00     0.123 A 
HETATM   20  C15 UNL     1       9.492   9.522  24.142  1.00  0.00     0.059 A 
HETATM   21  C16 UNL     1       9.619   9.047  25.392  1.00  0.00     0.064 A 
HETATM   22 CL1  UNL     1      11.154   9.063  26.315  1.00  0.00    -0.082 Cl
HETATM   23  C17 UNL     1       8.496   8.524  25.978  1.00  0.00     0.097 A 
HETATM   24 CL2  UNL     1       8.332   7.824  27.603  1.00  0.00    -0.074 Cl
HETATM   25  S2  UNL     1       7.306   8.711  24.771  1.00  0.00    -0.063 SA
ENDBRANCH  16  19
ENDBRANCH  14  16
ENDBRANCH   8  14
BRANCH   4  26
HETATM   26  C8  UNL     1       3.095   5.226  23.357  1.00  0.00     0.154 C 
BRANCH  26  27
HETATM   27  C9  UNL     1       2.361   3.976  22.967  1.00  0.00     0.048 C 
BRANCH  27  28
HETATM   28  C10 UNL     1       2.204   3.010  24.111  1.00  0.00     0.165 C 
BRANCH  28  29
HETATM   29  O2  UNL     1       1.772   3.764  25.217  1.00  0.00    -0.401 OA
ATOM     30  H2  UNL     1       1.213   3.194  25.733  1.00  0.00     0.209 HD
ENDBRANCH  28  29
ENDBRANCH  27  28
ENDBRANCH  26  27
ENDBRANCH   4  26
BRANCH   1  31
HETATM   31  N1  UNL     1       6.286   3.374  20.381  1.00  0.00    -0.367 N 
ATOM     32  H1  UNL     1       7.154   2.993  20.759  1.00  0.00     0.161 HD
BRANCH  31  33
HETATM   33  C4  UNL     1       5.745   2.732  19.227  1.00  0.00     0.107 C 
BRANCH  33  34
HETATM   34  C3  UNL     1       6.936   2.178  18.437  1.00  0.00     0.027 C 
BRANCH  34  35
HETATM   35  C2  UNL     1       8.082   1.810  19.344  1.00  0.00    -0.002 C 
HETATM   36  C1  UNL     1       9.359   1.764  18.560  1.00  0.00     0.005 C 
ENDBRANCH  34  35
ENDBRANCH  33  34
BRANCH  33  37
HETATM   37  C5  UNL     1       4.972   3.686  18.338  1.00  0.00     0.192 C 
BRANCH  37  38
HETATM   38  O1  UNL     1       5.899   4.370  17.566  1.00  0.00    -0.394 OA
HETATM   39  C6  UNL     1       5.367   5.508  16.963  1.00  0.00     0.201 C 
ENDBRANCH  37  38
ENDBRANCH  33  37
ENDBRANCH  31  33
ENDBRANCH   1  31
TORSDOF 13
ENDMDL
MODEL 3
REMARK VINA RESULT: -7.550026587      1.217      2.362
REMARK  13 active torsions:
REMARK  status: ('A' for Active; 'I' for Inactive)
REMARK    1  A    between atoms: C2_2  and  C3_3 
REMARK    2  A    between atoms: C3_3  and  C4_4 
REMARK    3  A    between atoms: C4_4  and  C5_5 
REMARK    4  A    between atoms: C4_4  and  N1_8 
REMARK    5  A    between atoms: C5_5  and  O1_6 
REMARK    6  A    between atoms: N1_8  and  C7_10 
REMARK    7  A    between atoms: N3_13  and  C8_14 
REMARK    8  A    between atoms: C8_14  and  C9_15 
REMARK    9  A    between atoms: C9_15  and  C10_16 
REMARK   10  A    between atoms: C10_16  and  O2_17 
REMARK   11  A    between atoms: C13_22  and  N4_23 
REMARK   12  A    between atoms: N4_23  and  S1_25 
REMARK   13  A    between atoms: S1_25  and  C14_28 
ROOT
HETATM    1  C7  UNL     1       7.690   9.636  22.579  1.00  0.00     0.146 A 
HETATM    2  N2  UNL     1       7.798  10.769  21.864  1.00  0.00    -0.279 N 
ATOM      3  H2  UNL     1       8.089  11.623  22.339  1.00  0.00     0.189 HD
HETATM    4  N3  UNL     1       7.538  10.818  20.555  1.00  0.00    -0.255 N 
HETATM    5  C11 UNL     1       7.153   9.712  19.897  1.00  0.00     0.278 A 
HETATM    6  O3  UNL     1       6.921   9.809  18.668  1.00  0.00    -0.265 OA
HETATM    7  C12 UNL     1       7.014   8.495  20.550  1.00  0.00     0.111 A 
HETATM    8  C13 UNL     1       6.647   7.224  20.158  1.00  0.00     0.148 A 
HETATM    9  N5  UNL     1       6.712   6.481  21.276  1.00  0.00    -0.283 N 
ATOM     10  H5  UNL     1       6.498   5.485  21.326  1.00  0.00     0.188 HD
HETATM   11  N6  UNL     1       7.093   7.231  22.308  1.00  0.00    -0.294 N 
ATOM     12  H6  UNL     1       7.215   6.896  23.264  1.00  0.00     0.187 HD
HETATM   13  C18 UNL     1       7.293   8.495  21.900  1.00  0.00     0.113 A 
ENDROOT
BRANCH   8  14
HETATM   14  N4  UNL     1       6.324   6.888  18.958  1.00  0.00    -0.263 N 
ATOM     15  H4  UNL     1       6.630   7.428  18.149  1.00  0.00     0.180 HD
BRANCH  14  16
HETATM   16  S1  UNL     1       5.337   5.462  18.787  1.00  0.00     0.271 S 
HETATM   17  O4  UNL     1       4.561   5.232  20.032  1.00  0.00    -0.200 OA
HETATM   18  O5  UNL     1       4.470   5.674  17.591  1.00  0.00    -0.200 OA
BRANCH  16  19
HETATM   19  C14 UNL     1       6.378   4.054  18.534  1.00  0.00     0.123 A 
HETATM   20  C15 UNL     1       6.182   3.011  17.666  1.00  0.00     0.059 A 
HETATM   21  C16 UNL     1       7.114   2.045  17.646  1.00  0.00     0.064 A 
HETATM   22 CL1  UNL     1       7.037   0.603  16.586  1.00  0.00    -0.082 Cl
HETATM   23  C17 UNL     1       8.181   2.188  18.495  1.00  0.00     0.097 A 
HETATM   24 CL2  UNL     1       9.568   1.099  18.707  1.00  0.00    -0.074 Cl
HETATM   25  S2  UNL     1       7.848   3.660  19.289  1.00  0.00    -0.063 SA
ENDBRANCH  16  19
ENDBRANCH  14  16
ENDBRANCH   8  14
BRANCH   4  26
HETATM   26  C8  UNL     1       7.666  12.061  19.819  1.00  0.00     0.154 C 
BRANCH  26  27
HETATM   27  C9  UNL     1       6.608  12.995  20.328  1.00  0.00     0.048 C 
BRANCH  27  28
HETATM   28  C10 UNL     1       7.176  14.278  20.876  1.00  0.00     0.165 C 
BRANCH  28  29
HETATM   29  O2  UNL     1       8.225  13.916  21.740  1.00  0.00    -0.401 OA
ATOM     30  H2  UNL     1       8.397  14.671  22.291  1.00  0.00     0.209 HD
ENDBRANCH  28  29
ENDBRANCH  27  28
ENDBRANCH  26  27
ENDBRANCH   4  26
BRANCH   1  31
HETATM   31  N1  UNL     1       7.939   9.570  23.842  1.00  0.00    -0.367 N 
ATOM     32  H1  UNL     1       8.667  10.187  24.203  1.00  0.00     0.161 HD
BRANCH  31  33
HETATM   33  C4  UNL     1       7.291   8.715  24.783  1.00  0.00     0.107 C 
BRANCH  33  34
HETATM   34  C3  UNL     1       5.950   9.373  25.122  1.00  0.00     0.027 C 
BRANCH  34  35
HETATM   35  C2  UNL     1       4.786   8.509  24.708  1.00  0.00    -0.002 C 
HETATM   36  C1  UNL     1       4.010   9.185  23.618  1.00  0.00     0.005 C 
ENDBRANCH  34  35
ENDBRANCH  33  34
BRANCH  33  37
HETATM   37  C5  UNL     1       8.087   8.546  26.062  1.00  0.00     0.192 C 
BRANCH  37  38
HETATM   38  O1  UNL     1       9.427   8.503  25.709  1.00  0.00    -0.394 OA
HETATM   39  C6  UNL     1      10.278   8.473  26.812  1.00  0.00     0.201 C 
ENDBRANCH  37  38
ENDBRANCH  33  37
ENDBRANCH  31  33
ENDBRANCH   1  31
TORSDOF 13
ENDMDL
MODEL 4
REMARK VINA RESULT: -7.534701825      4.667      7.755
REMARK  13 active torsions:
REMARK  status: ('A' for Active; 'I' for Inactive)
REMARK    1  A    between atoms: C2_2  and  C3_3 
REMARK    2  A    between atoms: C3_3  and  C4_4 
REMARK    3  A    between atoms: C4_4  and  C5_5 
REMARK    4  A    between atoms: C4_4  and  N1_8 
REMARK    5  A    between atoms: C5_5  and  O1_6 
REMARK    6  A    between atoms: N1_8  and  C7_10 
REMARK    7  A    between atoms: N3_13  and  C8_14 
REMARK    8  A    between atoms: C8_14  and  C9_15 
REMARK    9  A    between atoms: C9_15  and  C10_16 
REMARK   10  A    between atoms: C10_16  and  O2_17 
REMARK   11  A    between atoms: C13_22  and  N4_23 
REMARK   12  A    between atoms: N4_23  and  S1_25 
REMARK   13  A    between atoms: S1_25  and  C14_28 
ROOT
HETATM    1  C7  UNL     1       3.120   6.020  23.288  1.00  0.00     0.146 A 
HETATM    2  N2  UNL     1       2.416   6.537  24.309  1.00  0.00    -0.279 N 
ATOM      3  H2  UNL     1       1.707   5.958  24.759  1.00  0.00     0.189 HD
HETATM    4  N3  UNL     1       2.610   7.780  24.756  1.00  0.00    -0.255 N 
HETATM    5  C11 UNL     1       3.535   8.570  24.187  1.00  0.00     0.278 A 
HETATM    6  O3  UNL     1       3.680   9.730  24.643  1.00  0.00    -0.265 OA
HETATM    7  C12 UNL     1       4.311   8.124  23.127  1.00  0.00     0.111 A 
HETATM    8  C13 UNL     1       5.311   8.684  22.357  1.00  0.00     0.148 A 
HETATM    9  N5  UNL     1       5.659   7.725  21.483  1.00  0.00    -0.283 N 
ATOM     10  H5  UNL     1       6.380   7.821  20.768  1.00  0.00     0.188 HD
HETATM   11  N6  UNL     1       4.929   6.629  21.684  1.00  0.00    -0.294 N 
ATOM     12  H6  UNL     1       5.006   5.765  21.147  1.00  0.00     0.187 HD
HETATM   13  C18 UNL     1       4.075   6.835  22.701  1.00  0.00     0.113 A 
ENDROOT
BRANCH   8  14
HETATM   14  N4  UNL     1       5.768   9.879  22.500  1.00  0.00    -0.263 N 
ATOM     15  H4  UNL     1       5.148  10.682  22.602  1.00  0.00     0.180 HD
BRANCH  14  16
HETATM   16  S1  UNL     1       7.502  10.054  22.511  1.00  0.00     0.271 S 
HETATM   17  O4  UNL     1       8.098   9.249  21.415  1.00  0.00    -0.200 OA
HETATM   18  O5  UNL     1       7.792  11.512  22.387  1.00  0.00    -0.200 OA
BRANCH  16  19
HETATM   19  C14 UNL     1       8.144   9.440  24.041  1.00  0.00     0.123 A 
HETATM   20  C15 UNL     1       9.450   9.430  24.459  1.00  0.00     0.059 A 
HETATM   21  C16 UNL     1       9.704   8.908  25.669  1.00  0.00     0.064 A 
HETATM   22 CL1  UNL     1      11.341   8.802  26.389  1.00  0.00    -0.082 Cl
HETATM   23  C17 UNL     1       8.634   8.433  26.381  1.00  0.00     0.097 A 
HETATM   24 CL2  UNL     1       8.633   7.691  27.996  1.00  0.00    -0.074 Cl
HETATM   25  S2  UNL     1       7.314   8.729  25.342  1.00  0.00    -0.063 SA
ENDBRANCH  16  19
ENDBRANCH  14  16
ENDBRANCH   8  14
BRANCH   4  26
HETATM   26  C8  UNL     1       1.829   8.302  25.861  1.00  0.00     0.154 C 
BRANCH  26  27
HETATM   27  C9  UNL     1       0.492   8.708  25.314  1.00  0.00     0.048 C 
BRANCH  27  28
HETATM   28  C10 UNL     1       0.078  10.089  25.751  1.00  0.00     0.165 C 
BRANCH  28  29
HETATM   29  O2  UNL     1       1.242  10.877  25.749  1.00  0.00    -0.401 OA
ATOM     30  H2  UNL     1       1.540  10.920  24.848  1.00  0.00     0.209 HD
ENDBRANCH  28  29
ENDBRANCH  27  28
ENDBRANCH  26  27
ENDBRANCH   4  26
BRANCH   1  31
HETATM   31  N1  UNL     1       2.948   4.821  22.845  1.00  0.00    -0.367 N 
ATOM     32  H1  UNL     1       2.345   4.712  22.029  1.00  0.00     0.161 HD
BRANCH  31  33
HETATM   33  C4  UNL     1       3.522   3.633  23.388  1.00  0.00     0.107 C 
BRANCH  33  34
HETATM   34  C3  UNL     1       4.177   2.889  22.220  1.00  0.00     0.027 C 
BRANCH  34  35
HETATM   35  C2  UNL     1       5.680   2.990  22.270  1.00  0.00    -0.002 C 
HETATM   36  C1  UNL     1       6.256   2.701  20.916  1.00  0.00     0.005 C 
ENDBRANCH  34  35
ENDBRANCH  33  34
BRANCH  33  37
HETATM   37  C5  UNL     1       2.489   2.725  24.026  1.00  0.00     0.192 C 
BRANCH  37  38
HETATM   38  O1  UNL     1       1.770   3.493  24.929  1.00  0.00    -0.394 OA
HETATM   39  C6  UNL     1       0.401   3.496  24.668  1.00  0.00     0.201 C 
ENDBRANCH  37  38
ENDBRANCH  33  37
ENDBRANCH  31  33
ENDBRANCH   1  31
TORSDOF 13
ENDMDL
MODEL 5
REMARK VINA RESULT: -7.304473261      1.652      4.762
REMARK  13 active torsions:
REMARK  status: ('A' for Active; 'I' for Inactive)
REMARK    1  A    between atoms: C2_2  and  C3_3 
REMARK    2  A    between atoms: C3_3  and  C4_4 
REMARK    3  A    between atoms: C4_4  and  C5_5 
REMARK    4  A    between atoms: C4_4  and  N1_8 
REMARK    5  A    between atoms: C5_5  and  O1_6 
REMARK    6  A    between atoms: N1_8  and  C7_10 
REMARK    7  A    between atoms: N3_13  and  C8_14 
REMARK    8  A    between atoms: C8_14  and  C9_15 
REMARK    9  A    between atoms: C9_15  and  C10_16 
REMARK   10  A    between atoms: C10_16  and  O2_17 
REMARK   11  A    between atoms: C13_22  and  N4_23 
REMARK   12  A    between atoms: N4_23  and  S1_25 
REMARK   13  A    between atoms: S1_25  and  C14_28 
ROOT
HETATM    1  C7  UNL     1       7.697  10.298  20.844  1.00  0.00     0.146 A 
HETATM    2  N2  UNL     1       8.037  10.586  22.112  1.00  0.00    -0.279 N 
ATOM      3  H2  UNL     1       8.353  11.530  22.334  1.00  0.00     0.189 HD
HETATM    4  N3  UNL     1       7.976   9.681  23.092  1.00  0.00    -0.255 N 
HETATM    5  C11 UNL     1       7.566   8.428  22.837  1.00  0.00     0.278 A 
HETATM    6  O3  UNL     1       7.525   7.614  23.791  1.00  0.00    -0.265 OA
HETATM    7  C12 UNL     1       7.194   8.038  21.558  1.00  0.00     0.111 A 
HETATM    8  C13 UNL     1       6.742   6.859  21.000  1.00  0.00     0.148 A 
HETATM    9  N5  UNL     1       6.557   7.136  19.698  1.00  0.00    -0.283 N 
ATOM     10  H5  UNL     1       6.223   6.470  19.002  1.00  0.00     0.188 HD
HETATM   11  N6  UNL     1       6.870   8.406  19.447  1.00  0.00    -0.294 N 
ATOM     12  H6  UNL     1       6.814   8.855  18.533  1.00  0.00     0.187 HD
HETATM   13  C18 UNL     1       7.273   9.006  20.580  1.00  0.00     0.113 A 
ENDROOT
BRANCH   8  14
HETATM   14  N4  UNL     1       6.558   5.761  21.646  1.00  0.00    -0.263 N 
ATOM     15  H4  UNL     1       7.122   5.517  22.460  1.00  0.00     0.180 HD
BRANCH  14  16
HETATM   16  S1  UNL     1       5.293   4.714  21.061  1.00  0.00     0.271 S 
HETATM   17  O4  UNL     1       4.723   3.932  22.187  1.00  0.00    -0.200 OA
HETATM   18  O5  UNL     1       4.286   5.583  20.386  1.00  0.00    -0.200 OA
BRANCH  16  19
HETATM   19  C14 UNL     1       5.973   3.567  19.898  1.00  0.00     0.123 A 
HETATM   20  C15 UNL     1       7.167   2.898  19.981  1.00  0.00     0.059 A 
HETATM   21  C16 UNL     1       7.479   2.070  18.970  1.00  0.00     0.064 A 
HETATM   22 CL1  UNL     1       8.990   1.111  18.894  1.00  0.00    -0.082 Cl
HETATM   23  C17 UNL     1       6.574   1.966  17.946  1.00  0.00     0.097 A 
HETATM   24 CL2  UNL     1       6.686   0.969  16.480  1.00  0.00    -0.074 Cl
HETATM   25  S2  UNL     1       5.324   3.023  18.425  1.00  0.00    -0.063 SA
ENDBRANCH  16  19
ENDBRANCH  14  16
ENDBRANCH   8  14
BRANCH   4  26
HETATM   26  C8  UNL     1       8.352  10.030  24.449  1.00  0.00     0.154 C 
BRANCH  26  27
HETATM   27  C9  UNL     1       9.821   9.761  24.592  1.00  0.00     0.048 C 
BRANCH  27  28
HETATM   28  C10 UNL     1      10.162   9.038  25.869  1.00  0.00     0.165 C 
BRANCH  28  29
HETATM   29  O2  UNL     1       9.052   8.233  26.182  1.00  0.00    -0.401 OA
ATOM     30  H2  UNL     1       9.396   7.407  26.500  1.00  0.00     0.209 HD
ENDBRANCH  28  29
ENDBRANCH  27  28
ENDBRANCH  26  27
ENDBRANCH   4  26
BRANCH   1  31
HETATM   31  N1  UNL     1       7.747  11.159  19.886  1.00  0.00    -0.367 N 
ATOM     32  H1  UNL     1       8.540  11.094  19.246  1.00  0.00     0.161 HD
BRANCH  31  33
HETATM   33  C4  UNL     1       6.798  12.195  19.635  1.00  0.00     0.107 C 
BRANCH  33  34
HETATM   34  C3  UNL     1       7.214  13.388  20.502  1.00  0.00     0.027 C 
BRANCH  34  35
HETATM   35  C2  UNL     1       7.676  14.551  19.661  1.00  0.00    -0.002 C 
HETATM   36  C1  UNL     1       6.628  15.623  19.651  1.00  0.00     0.005 C 
ENDBRANCH  34  35
ENDBRANCH  33  34
BRANCH  33  37
HETATM   37  C5  UNL     1       5.385  11.793  20.007  1.00  0.00     0.192 C 
BRANCH  37  38
HETATM   38  O1  UNL     1       4.553  12.843  19.653  1.00  0.00    -0.394 OA
HETATM   39  C6  UNL     1       3.789  12.571  18.519  1.00  0.00     0.201 C 
ENDBRANCH  37  38
ENDBRANCH  33  37
ENDBRANCH  31  33
ENDBRANCH   1  31
TORSDOF 13
ENDMDL
