MODEL 1
REMARK VINA RESULT: -7.381063004      0.000      0.000
REMARK  9 active torsions:
REMARK  status: ('A' for Active; 'I' for Inactive)
REMARK    1  A    between atoms: O1_2  and  C2_3 
REMARK    2  A    between atoms: C7_8  and  N1_9 
REMARK    3  A    between atoms: N2_19  and  C16_20 
REMARK    4  A    between atoms: C16_20  and  C17_21 
REMARK    5  A    between atoms: C17_21  and  C18_22 
REMARK    6  A    between atoms: C18_22  and  C19_23 
REMARK    7  A    between atoms: C19_23  and  N3_24 
REMARK    8  A    between atoms: N3_24  and  C21_26 
REMARK    9  A    between atoms: C21_26  and  C22_27 
ROOT
HETATM    1  C2  UNL     1     -29.585  27.476   3.871  1.00  0.00     0.097 A 
HETATM    2  C3  UNL     1     -30.823  28.081   3.957  1.00  0.00     0.069 A 
HETATM    3  C4  UNL     1     -31.182  29.205   3.243  1.00  0.00     0.048 A 
HETATM    4  C5  UNL     1     -30.230  29.751   2.388  1.00  0.00     0.001 A 
HETATM    5  C6  UNL     1     -28.977  29.168   2.278  1.00  0.00     0.047 A 
HETATM    6  C7  UNL     1     -28.671  28.045   3.017  1.00  0.00     0.071 A 
HETATM    7  C14 UNL     1     -30.812  30.836   1.801  1.00  0.00    -0.023 A 
HETATM    8  C15 UNL     1     -32.095  30.948   2.290  1.00  0.00     0.019 A 
HETATM    9  N2  UNL     1     -32.302  29.938   3.173  1.00  0.00    -0.349 N 
HETATM   10  C25 UNL     1     -32.894  32.084   1.762  1.00  0.00     0.058 C 
HETATM   11  C26 UNL     1     -32.827  31.955   0.239  1.00  0.00     0.006 C 
HETATM   12  C27 UNL     1     -31.434  31.881  -0.284  1.00  0.00     0.005 C 
HETATM   13  C28 UNL     1     -30.380  31.849   0.813  1.00  0.00     0.041 C 
ENDROOT
BRANCH   9  14
HETATM   14  C16 UNL     1     -33.507  29.709   3.894  1.00  0.00     0.129 C 
BRANCH  14  15
HETATM   15  C17 UNL     1     -33.719  30.700   5.040  1.00  0.00     0.022 C 
BRANCH  15  16
HETATM   16  C18 UNL     1     -33.156  30.036   6.281  1.00  0.00     0.021 C 
BRANCH  16  17
HETATM   17  C19 UNL     1     -32.020  30.796   6.874  1.00  0.00     0.121 C 
BRANCH  17  18
HETATM   18  N3  UNL     1     -30.889  29.887   7.020  1.00  0.00    -0.397 N 
HETATM   19  C20 UNL     1     -29.754  30.424   6.446  1.00  0.00     0.148 C 
BRANCH  18  20
HETATM   20  C21 UNL     1     -31.212  28.578   7.256  1.00  0.00     0.062 C 
BRANCH  20  21
HETATM   21  C22 UNL     1     -30.522  27.716   8.246  1.00  0.00     0.024 A 
HETATM   22  C23 UNL     1     -30.376  26.214   7.945  1.00  0.00     0.010 A 
HETATM   23  C24 UNL     1     -29.206  27.081   8.055  1.00  0.00     0.010 A 
ENDBRANCH  20  21
ENDBRANCH  18  20
ENDBRANCH  17  18
ENDBRANCH  16  17
ENDBRANCH  15  16
ENDBRANCH  14  15
ENDBRANCH   9  14
BRANCH   1  24
HETATM   24  O1  UNL     1     -29.269  26.344   4.611  1.00  0.00    -0.354 OA
HETATM   25  C1  UNL     1     -29.738  25.059   4.343  1.00  0.00     0.210 C 
ENDBRANCH   1  24
BRANCH   6  26
HETATM   26  N1  UNL     1     -27.373  27.490   2.873  1.00  0.00    -0.315 N 
HETATM   27  C8  UNL     1     -27.243  26.553   1.801  1.00  0.00     0.132 C 
HETATM   28  C9  UNL     1     -25.897  25.887   1.802  1.00  0.00     0.020 C 
HETATM   29  C10 UNL     1     -25.409  25.626   3.190  1.00  0.00     0.002 C 
HETATM   30  C11 UNL     1     -24.360  26.633   3.627  1.00  0.00     0.009 C 
HETATM   31  C12 UNL     1     -24.969  28.026   3.721  1.00  0.00     0.103 C 
HETATM   32  C13 UNL     1     -26.433  27.967   3.818  1.00  0.00     0.224 C 
HETATM   33  O2  UNL     1     -26.898  28.417   4.922  1.00  0.00    -0.273 OA
ENDBRANCH   6  26
TORSDOF 9
ENDMDL
MODEL 2
REMARK VINA RESULT: -7.184769576      3.715      6.704
REMARK  9 active torsions:
REMARK  status: ('A' for Active; 'I' for Inactive)
REMARK    1  A    between atoms: O1_2  and  C2_3 
REMARK    2  A    between atoms: C7_8  and  N1_9 
REMARK    3  A    between atoms: N2_19  and  C16_20 
REMARK    4  A    between atoms: C16_20  and  C17_21 
REMARK    5  A    between atoms: C17_21  and  C18_22 
REMARK    6  A    between atoms: C18_22  and  C19_23 
REMARK    7  A    between atoms: C19_23  and  N3_24 
REMARK    8  A    between atoms: N3_24  and  C21_26 
REMARK    9  A    between atoms: C21_26  and  C22_27 
ROOT
HETATM    1  C2  UNL     1     -24.646  30.888   5.976  1.00  0.00     0.097 A 
HETATM    2  C3  UNL     1     -25.572  30.649   4.980  1.00  0.00     0.069 A 
HETATM    3  C4  UNL     1     -25.615  29.494   4.229  1.00  0.00     0.048 A 
HETATM    4  C5  UNL     1     -24.662  28.518   4.502  1.00  0.00     0.001 A 
HETATM    5  C6  UNL     1     -23.718  28.725   5.496  1.00  0.00     0.047 A 
HETATM    6  C7  UNL     1     -23.721  29.900   6.216  1.00  0.00     0.071 A 
HETATM    7  C14 UNL     1     -24.907  27.485   3.646  1.00  0.00    -0.023 A 
HETATM    8  C15 UNL     1     -25.990  27.828   2.865  1.00  0.00     0.019 A 
HETATM    9  N2  UNL     1     -26.409  29.063   3.238  1.00  0.00    -0.349 N 
HETATM   10  C25 UNL     1     -26.410  26.817   1.860  1.00  0.00     0.058 C 
HETATM   11  C26 UNL     1     -26.606  25.519   2.645  1.00  0.00     0.006 C 
HETATM   12  C27 UNL     1     -25.413  25.133   3.450  1.00  0.00     0.005 C 
HETATM   13  C28 UNL     1     -24.293  26.162   3.398  1.00  0.00     0.041 C 
ENDROOT
BRANCH   9  14
HETATM   14  C16 UNL     1     -27.505  29.768   2.668  1.00  0.00     0.129 C 
BRANCH  14  15
HETATM   15  C17 UNL     1     -28.803  28.959   2.668  1.00  0.00     0.022 C 
BRANCH  15  16
HETATM   16  C18 UNL     1     -29.179  28.764   4.124  1.00  0.00     0.021 C 
BRANCH  16  17
HETATM   17  C19 UNL     1     -30.217  27.712   4.313  1.00  0.00     0.121 C 
BRANCH  17  18
HETATM   18  N3  UNL     1     -29.549  26.479   4.715  1.00  0.00    -0.397 N 
HETATM   19  C20 UNL     1     -30.178  25.382   4.164  1.00  0.00     0.148 C 
BRANCH  18  20
HETATM   20  C21 UNL     1     -28.776  26.568   5.841  1.00  0.00     0.062 C 
BRANCH  20  21
HETATM   21  C22 UNL     1     -29.180  26.051   7.171  1.00  0.00     0.024 A 
HETATM   22  C23 UNL     1     -29.327  27.042   8.338  1.00  0.00     0.010 A 
HETATM   23  C24 UNL     1     -30.475  26.300   7.827  1.00  0.00     0.010 A 
ENDBRANCH  20  21
ENDBRANCH  18  20
ENDBRANCH  17  18
ENDBRANCH  16  17
ENDBRANCH  15  16
ENDBRANCH  14  15
ENDBRANCH   9  14
BRANCH   1  24
HETATM   24  O1  UNL     1     -24.642  32.069   6.707  1.00  0.00    -0.354 OA
HETATM   25  C1  UNL     1     -25.737  32.583   7.399  1.00  0.00     0.210 C 
ENDBRANCH   1  24
BRANCH   6  26
HETATM   26  N1  UNL     1     -22.730  30.066   7.218  1.00  0.00    -0.315 N 
HETATM   27  C8  UNL     1     -23.226  30.014   8.559  1.00  0.00     0.132 C 
HETATM   28  C9  UNL     1     -22.161  30.353   9.562  1.00  0.00     0.020 C 
HETATM   29  C10 UNL     1     -21.249  31.426   9.060  1.00  0.00     0.002 C 
HETATM   30  C11 UNL     1     -19.922  30.870   8.578  1.00  0.00     0.009 C 
HETATM   31  C12 UNL     1     -20.130  29.983   7.357  1.00  0.00     0.103 C 
HETATM   32  C13 UNL     1     -21.421  30.252   6.712  1.00  0.00     0.224 C 
HETATM   33  O2  UNL     1     -21.320  30.719   5.524  1.00  0.00    -0.273 OA
ENDBRANCH   6  26
TORSDOF 9
ENDMDL
MODEL 3
REMARK VINA RESULT: -7.177189239      3.573      6.556
REMARK  9 active torsions:
REMARK  status: ('A' for Active; 'I' for Inactive)
REMARK    1  A    between atoms: O1_2  and  C2_3 
REMARK    2  A    between atoms: C7_8  and  N1_9 
REMARK    3  A    between atoms: N2_19  and  C16_20 
REMARK    4  A    between atoms: C16_20  and  C17_21 
REMARK    5  A    between atoms: C17_21  and  C18_22 
REMARK    6  A    between atoms: C18_22  and  C19_23 
REMARK    7  A    between atoms: C19_23  and  N3_24 
REMARK    8  A    between atoms: N3_24  and  C21_26 
REMARK    9  A    between atoms: C21_26  and  C22_27 
ROOT
HETATM    1  C2  UNL     1     -24.809  31.104   5.429  1.00  0.00     0.097 A 
HETATM    2  C3  UNL     1     -25.762  30.737   4.499  1.00  0.00     0.069 A 
HETATM    3  C4  UNL     1     -25.793  29.511   3.870  1.00  0.00     0.048 A 
HETATM    4  C5  UNL     1     -24.799  28.596   4.202  1.00  0.00     0.001 A 
HETATM    5  C6  UNL     1     -23.826  28.932   5.132  1.00  0.00     0.047 A 
HETATM    6  C7  UNL     1     -23.843  30.174   5.730  1.00  0.00     0.071 A 
HETATM    7  C14 UNL     1     -25.040  27.475   3.465  1.00  0.00    -0.023 A 
HETATM    8  C15 UNL     1     -26.161  27.704   2.697  1.00  0.00     0.019 A 
HETATM    9  N2  UNL     1     -26.607  28.957   2.960  1.00  0.00    -0.349 N 
HETATM   10  C25 UNL     1     -26.583  26.585   1.816  1.00  0.00     0.058 C 
HETATM   11  C26 UNL     1     -26.707  25.368   2.735  1.00  0.00     0.006 C 
HETATM   12  C27 UNL     1     -25.472  25.102   3.526  1.00  0.00     0.005 C 
HETATM   13  C28 UNL     1     -24.391  26.153   3.327  1.00  0.00     0.041 C 
ENDROOT
BRANCH   9  14
HETATM   14  C16 UNL     1     -27.747  29.568   2.366  1.00  0.00     0.129 C 
BRANCH  14  15
HETATM   15  C17 UNL     1     -29.021  28.736   2.520  1.00  0.00     0.022 C 
BRANCH  15  16
HETATM   16  C18 UNL     1     -29.372  28.770   3.995  1.00  0.00     0.021 C 
BRANCH  16  17
HETATM   17  C19 UNL     1     -30.386  27.743   4.367  1.00  0.00     0.121 C 
BRANCH  17  18
HETATM   18  N3  UNL     1     -29.682  26.524   4.748  1.00  0.00    -0.397 N 
HETATM   19  C20 UNL     1     -30.324  25.412   4.242  1.00  0.00     0.148 C 
BRANCH  18  20
HETATM   20  C21 UNL     1     -28.853  26.636   5.832  1.00  0.00     0.062 C 
BRANCH  20  21
HETATM   21  C22 UNL     1     -29.158  26.083   7.173  1.00  0.00     0.024 A 
HETATM   22  C23 UNL     1     -29.314  27.054   8.356  1.00  0.00     0.010 A 
HETATM   23  C24 UNL     1     -30.434  26.242   7.892  1.00  0.00     0.010 A 
ENDBRANCH  20  21
ENDBRANCH  18  20
ENDBRANCH  17  18
ENDBRANCH  16  17
ENDBRANCH  15  16
ENDBRANCH  14  15
ENDBRANCH   9  14
BRANCH   1  24
HETATM   24  O1  UNL     1     -24.818  32.353   6.037  1.00  0.00    -0.354 OA
HETATM   25  C1  UNL     1     -24.335  33.525   5.460  1.00  0.00     0.210 C 
ENDBRANCH   1  24
BRANCH   6  26
HETATM   26  N1  UNL     1     -22.822  30.471   6.670  1.00  0.00    -0.315 N 
HETATM   27  C8  UNL     1     -21.499  30.478   6.128  1.00  0.00     0.132 C 
HETATM   28  C9  UNL     1     -20.458  30.641   7.199  1.00  0.00     0.020 C 
HETATM   29  C10 UNL     1     -20.833  29.915   8.451  1.00  0.00     0.002 C 
HETATM   30  C11 UNL     1     -21.366  30.854   9.519  1.00  0.00     0.009 C 
HETATM   31  C12 UNL     1     -22.678  31.482   9.067  1.00  0.00     0.103 C 
HETATM   32  C13 UNL     1     -23.297  30.711   7.982  1.00  0.00     0.224 C 
HETATM   33  O2  UNL     1     -24.426  30.193   8.294  1.00  0.00    -0.273 OA
ENDBRANCH   6  26
TORSDOF 9
ENDMDL
MODEL 4
REMARK VINA RESULT: -7.148235005      2.226      6.964
REMARK  9 active torsions:
REMARK  status: ('A' for Active; 'I' for Inactive)
REMARK    1  A    between atoms: O1_2  and  C2_3 
REMARK    2  A    between atoms: C7_8  and  N1_9 
REMARK    3  A    between atoms: N2_19  and  C16_20 
REMARK    4  A    between atoms: C16_20  and  C17_21 
REMARK    5  A    between atoms: C17_21  and  C18_22 
REMARK    6  A    between atoms: C18_22  and  C19_23 
REMARK    7  A    between atoms: C19_23  and  N3_24 
REMARK    8  A    between atoms: N3_24  and  C21_26 
REMARK    9  A    between atoms: C21_26  and  C22_27 
ROOT
HETATM    1  C2  UNL     1     -29.729  29.509   5.762  1.00  0.00     0.097 A 
HETATM    2  C3  UNL     1     -28.368  29.494   5.527  1.00  0.00     0.069 A 
HETATM    3  C4  UNL     1     -27.727  28.528   4.781  1.00  0.00     0.048 A 
HETATM    4  C5  UNL     1     -28.509  27.514   4.237  1.00  0.00     0.001 A 
HETATM    5  C6  UNL     1     -29.879  27.500   4.454  1.00  0.00     0.047 A 
HETATM    6  C7  UNL     1     -30.468  28.491   5.209  1.00  0.00     0.071 A 
HETATM    7  C14 UNL     1     -27.662  26.695   3.550  1.00  0.00    -0.023 A 
HETATM    8  C15 UNL     1     -26.387  27.202   3.674  1.00  0.00     0.019 A 
HETATM    9  N2  UNL     1     -26.448  28.325   4.432  1.00  0.00    -0.349 N 
HETATM   10  C25 UNL     1     -25.315  26.435   2.987  1.00  0.00     0.058 C 
HETATM   11  C26 UNL     1     -25.781  26.296   1.537  1.00  0.00     0.006 C 
HETATM   12  C27 UNL     1     -27.143  25.704   1.412  1.00  0.00     0.005 C 
HETATM   13  C28 UNL     1     -27.819  25.459   2.753  1.00  0.00     0.041 C 
ENDROOT
BRANCH   9  14
HETATM   14  C16 UNL     1     -25.337  29.140   4.788  1.00  0.00     0.129 C 
BRANCH  14  15
HETATM   15  C17 UNL     1     -24.581  29.686   3.576  1.00  0.00     0.022 C 
BRANCH  15  16
HETATM   16  C18 UNL     1     -25.580  30.521   2.797  1.00  0.00     0.021 C 
BRANCH  16  17
HETATM   17  C19 UNL     1     -25.860  31.833   3.445  1.00  0.00     0.121 C 
BRANCH  17  18
HETATM   18  N3  UNL     1     -27.240  32.201   3.152  1.00  0.00    -0.397 N 
HETATM   19  C20 UNL     1     -27.725  33.074   4.105  1.00  0.00     0.148 C 
BRANCH  18  20
HETATM   20  C21 UNL     1     -27.918  31.340   2.331  1.00  0.00     0.062 C 
BRANCH  20  21
HETATM   21  C22 UNL     1     -29.369  31.055   2.441  1.00  0.00     0.024 A 
HETATM   22  C23 UNL     1     -30.270  31.322   1.222  1.00  0.00     0.010 A 
HETATM   23  C24 UNL     1     -30.082  29.971   1.742  1.00  0.00     0.010 A 
ENDBRANCH  20  21
ENDBRANCH  18  20
ENDBRANCH  17  18
ENDBRANCH  16  17
ENDBRANCH  15  16
ENDBRANCH  14  15
ENDBRANCH   9  14
BRANCH   1  24
HETATM   24  O1  UNL     1     -30.332  30.504   6.521  1.00  0.00    -0.354 OA
HETATM   25  C1  UNL     1     -30.586  31.801   6.080  1.00  0.00     0.210 C 
ENDBRANCH   1  24
BRANCH   6  26
HETATM   26  N1  UNL     1     -31.872  28.427   5.406  1.00  0.00    -0.315 N 
HETATM   27  C8  UNL     1     -32.641  29.157   4.446  1.00  0.00     0.132 C 
HETATM   28  C9  UNL     1     -34.100  29.181   4.801  1.00  0.00     0.020 C 
HETATM   29  C10 UNL     1     -34.309  29.285   6.277  1.00  0.00     0.002 C 
HETATM   30  C11 UNL     1     -34.689  27.953   6.897  1.00  0.00     0.009 C 
HETATM   31  C12 UNL     1     -33.538  26.963   6.772  1.00  0.00     0.103 C 
HETATM   32  C13 UNL     1     -32.264  27.648   6.521  1.00  0.00     0.224 C 
HETATM   33  O2  UNL     1     -31.405  27.503   7.459  1.00  0.00    -0.273 OA
ENDBRANCH   6  26
TORSDOF 9
ENDMDL
MODEL 5
REMARK VINA RESULT: -7.071030240      3.090      7.649
REMARK  9 active torsions:
REMARK  status: ('A' for Active; 'I' for Inactive)
REMARK    1  A    between atoms: O1_2  and  C2_3 
REMARK    2  A    between atoms: C7_8  and  N1_9 
REMARK    3  A    between atoms: N2_19  and  C16_20 
REMARK    4  A    between atoms: C16_20  and  C17_21 
REMARK    5  A    between atoms: C17_21  and  C18_22 
REMARK    6  A    between atoms: C18_22  and  C19_23 
REMARK    7  A    between atoms: C19_23  and  N3_24 
REMARK    8  A    between atoms: N3_24  and  C21_26 
REMARK    9  A    between atoms: C21_26  and  C22_27 
ROOT
HETATM    1  C2  UNL     1     -29.597  29.480   5.716  1.00  0.00     0.097 A 
HETATM    2  C3  UNL     1     -28.237  29.454   5.478  1.00  0.00     0.069 A 
HETATM    3  C4  UNL     1     -27.606  28.488   4.722  1.00  0.00     0.048 A 
HETATM    4  C5  UNL     1     -28.400  27.488   4.170  1.00  0.00     0.001 A 
HETATM    5  C6  UNL     1     -29.769  27.485   4.390  1.00  0.00     0.047 A 
HETATM    6  C7  UNL     1     -30.347  28.474   5.155  1.00  0.00     0.071 A 
HETATM    7  C14 UNL     1     -27.562  26.667   3.475  1.00  0.00    -0.023 A 
HETATM    8  C15 UNL     1     -26.281  27.159   3.601  1.00  0.00     0.019 A 
HETATM    9  N2  UNL     1     -26.330  28.276   4.369  1.00  0.00    -0.349 N 
HETATM   10  C25 UNL     1     -25.219  26.389   2.905  1.00  0.00     0.058 C 
HETATM   11  C26 UNL     1     -25.689  26.267   1.454  1.00  0.00     0.006 C 
HETATM   12  C27 UNL     1     -27.057  25.690   1.326  1.00  0.00     0.005 C 
HETATM   13  C28 UNL     1     -27.732  25.439   2.666  1.00  0.00     0.041 C 
ENDROOT
BRANCH   9  14
HETATM   14  C16 UNL     1     -25.211  29.077   4.731  1.00  0.00     0.129 C 
BRANCH  14  15
HETATM   15  C17 UNL     1     -24.589  29.810   3.541  1.00  0.00     0.022 C 
BRANCH  15  16
HETATM   16  C18 UNL     1     -25.684  30.687   2.965  1.00  0.00     0.021 C 
BRANCH  16  17
HETATM   17  C19 UNL     1     -25.749  32.025   3.616  1.00  0.00     0.121 C 
BRANCH  17  18
HETATM   18  N3  UNL     1     -25.016  32.973   2.785  1.00  0.00    -0.397 N 
HETATM   19  C20 UNL     1     -24.504  33.999   3.552  1.00  0.00     0.148 C 
BRANCH  18  20
HETATM   20  C21 UNL     1     -25.326  32.949   1.452  1.00  0.00     0.062 C 
BRANCH  20  21
HETATM   21  C22 UNL     1     -24.317  32.923   0.364  1.00  0.00     0.024 A 
HETATM   22  C23 UNL     1     -23.958  31.573  -0.280  1.00  0.00     0.010 A 
HETATM   23  C24 UNL     1     -24.597  32.633  -1.053  1.00  0.00     0.010 A 
ENDBRANCH  20  21
ENDBRANCH  18  20
ENDBRANCH  17  18
ENDBRANCH  16  17
ENDBRANCH  15  16
ENDBRANCH  14  15
ENDBRANCH   9  14
BRANCH   1  24
HETATM   24  O1  UNL     1     -30.189  30.474   6.485  1.00  0.00    -0.354 OA
HETATM   25  C1  UNL     1     -30.267  31.818   6.129  1.00  0.00     0.210 C 
ENDBRANCH   1  24
BRANCH   6  26
HETATM   26  N1  UNL     1     -31.751  28.423   5.354  1.00  0.00    -0.315 N 
HETATM   27  C8  UNL     1     -32.514  29.167   4.401  1.00  0.00     0.132 C 
HETATM   28  C9  UNL     1     -33.972  29.202   4.759  1.00  0.00     0.020 C 
HETATM   29  C10 UNL     1     -34.179  29.297   6.236  1.00  0.00     0.002 C 
HETATM   30  C11 UNL     1     -34.570  27.964   6.846  1.00  0.00     0.009 C 
HETATM   31  C12 UNL     1     -33.429  26.963   6.711  1.00  0.00     0.103 C 
HETATM   32  C13 UNL     1     -32.149  27.638   6.464  1.00  0.00     0.224 C 
HETATM   33  O2  UNL     1     -31.290  27.478   7.398  1.00  0.00    -0.273 OA
ENDBRANCH   6  26
TORSDOF 9
ENDMDL
