MODEL 1
REMARK VINA RESULT: -9.193741581      0.000      0.000
REMARK  11 active torsions:
REMARK  status: ('A' for Active; 'I' for Inactive)
REMARK    1  A    between atoms: C1_2  and  C2_4 
REMARK    2  A    between atoms: C3_6  and  O4_7 
REMARK    3  A    between atoms: O4_7  and  C4_8 
REMARK    4  A    between atoms: C4_8  and  C5_9 
REMARK    5  A    between atoms: C7_11  and  O5_12 
REMARK    6  A    between atoms: C8_14  and  O6_15 
REMARK    7  A    between atoms: C9_17  and  O7_18 
REMARK    8  A    between atoms: O7_18  and  C10_19 
REMARK    9  A    between atoms: C10_19  and  C11_20 
REMARK   10  A    between atoms: C19_28  and  O8_29 
REMARK   11  A    between atoms: C21_34  and  O11_35 
ROOT
HETATM    1  C5  UNL     1      21.571  30.206  24.751  1.00  0.00     0.151 C 
HETATM    2  C6  UNL     1      21.013  30.783  26.023  1.00  0.00     0.068 C 
HETATM    3  C7  UNL     1      21.338  29.857  27.203  1.00  0.00     0.154 C 
HETATM    4  C8  UNL     1      21.440  28.429  26.739  1.00  0.00     0.202 C 
HETATM    5  C9  UNL     1      22.333  28.234  25.558  1.00  0.00     0.291 C 
HETATM    6  O10 UNL     1      22.723  29.475  25.072  1.00  0.00    -0.351 OA
ENDROOT
BRANCH   5   7
HETATM    7  O7  UNL     1      23.396  27.402  25.814  1.00  0.00    -0.356 OA
BRANCH   7   8
HETATM    8  C10 UNL     1      24.152  27.129  24.677  1.00  0.00     0.203 C 
BRANCH   8   9
HETATM    9  C11 UNL     1      23.310  26.362  23.685  1.00  0.00     0.148 C 
HETATM   10  C12 UNL     1      24.001  26.176  22.368  1.00  0.00     0.039 C 
HETATM   11  C13 UNL     1      23.759  24.754  21.918  1.00  0.00    -0.003 C 
HETATM   12  C14 UNL     1      24.086  24.544  20.471  1.00  0.00     0.005 C 
HETATM   13  C18 UNL     1      22.297  24.429  22.118  1.00  0.00     0.045 C 
HETATM   14  C15 UNL     1      22.874  24.364  19.587  1.00  0.00     0.000 C 
HETATM   15  C16 UNL     1      22.004  23.215  20.048  1.00  0.00     0.001 C 
HETATM   16  C17 UNL     1      22.097  23.024  21.553  1.00  0.00     0.010 C 
HETATM   17  C19 UNL     1      21.975  24.484  23.582  1.00  0.00     0.261 C 
HETATM   18  O9  UNL     1      22.975  25.154  24.241  1.00  0.00    -0.354 OA
BRANCH  17  19
HETATM   19  O8  UNL     1      20.766  25.175  23.794  1.00  0.00    -0.371 OA
ATOM     20  H8  UNL     1      20.094  24.581  24.106  1.00  0.00     0.212 HD
ENDBRANCH  17  19
ENDBRANCH   8   9
ENDBRANCH   7   8
ENDBRANCH   5   7
BRANCH   4  21
HETATM   21  O6  UNL     1      21.882  27.677  27.841  1.00  0.00    -0.388 OA
ATOM     22  H6  UNL     1      22.829  27.750  27.859  1.00  0.00     0.210 HD
ENDBRANCH   4  21
BRANCH   3  23
HETATM   23  O5  UNL     1      20.281  29.912  28.122  1.00  0.00    -0.393 OA
ATOM     24  H5  UNL     1      19.983  29.027  28.296  1.00  0.00     0.210 HD
ENDBRANCH   3  23
BRANCH   1  25
HETATM   25  C4  UNL     1      21.935  31.272  23.754  1.00  0.00     0.203 C 
BRANCH  25  26
HETATM   26  O4  UNL     1      20.978  31.539  22.812  1.00  0.00    -0.359 OA
BRANCH  26  27
HETATM   27  C3  UNL     1      20.953  32.830  22.335  1.00  0.00     0.263 C 
HETATM   28  O3  UNL     1      21.861  32.935  21.306  1.00  0.00    -0.343 OA
HETATM   29  C2  UNL     1      21.230  32.718  20.106  1.00  0.00     0.254 C 
HETATM   30  C21 UNL     1      19.759  33.005  20.285  1.00  0.00     0.162 C 
HETATM   31  C20 UNL     1      19.595  33.208  21.767  1.00  0.00     0.095 C 
BRANCH  29  32
HETATM   32  C1  UNL     1      21.470  31.327  19.674  1.00  0.00     0.205 C 
HETATM   33  O1  UNL     1      22.639  30.905  19.582  1.00  0.00    -0.646 OA
HETATM   34  O2  UNL     1      20.418  30.495  19.375  1.00  0.00    -0.646 OA
ENDBRANCH  29  32
BRANCH  30  35
HETATM   35  O11 UNL     1      19.454  34.158  19.568  1.00  0.00    -0.392 OA
ATOM     36  H11 UNL     1      19.024  34.766  20.157  1.00  0.00     0.210 HD
ENDBRANCH  30  35
ENDBRANCH  26  27
ENDBRANCH  25  26
ENDBRANCH   1  25
TORSDOF 11
ENDMDL
MODEL 2
REMARK VINA RESULT: -8.888805223      5.558     10.648
REMARK  11 active torsions:
REMARK  status: ('A' for Active; 'I' for Inactive)
REMARK    1  A    between atoms: C1_2  and  C2_4 
REMARK    2  A    between atoms: C3_6  and  O4_7 
REMARK    3  A    between atoms: O4_7  and  C4_8 
REMARK    4  A    between atoms: C4_8  and  C5_9 
REMARK    5  A    between atoms: C7_11  and  O5_12 
REMARK    6  A    between atoms: C8_14  and  O6_15 
REMARK    7  A    between atoms: C9_17  and  O7_18 
REMARK    8  A    between atoms: O7_18  and  C10_19 
REMARK    9  A    between atoms: C10_19  and  C11_20 
REMARK   10  A    between atoms: C19_28  and  O8_29 
REMARK   11  A    between atoms: C21_34  and  O11_35 
ROOT
HETATM    1  C5  UNL     1      19.989  21.798  27.421  1.00  0.00     0.151 C 
HETATM    2  C6  UNL     1      20.615  20.838  26.448  1.00  0.00     0.068 C 
HETATM    3  C7  UNL     1      22.000  21.348  26.026  1.00  0.00     0.154 C 
HETATM    4  C8  UNL     1      22.046  22.851  26.084  1.00  0.00     0.202 C 
HETATM    5  C9  UNL     1      21.560  23.428  27.372  1.00  0.00     0.291 C 
HETATM    6  O10 UNL     1      21.018  22.411  28.150  1.00  0.00    -0.351 OA
ENDROOT
BRANCH   5   7
HETATM    7  O7  UNL     1      22.517  24.155  28.036  1.00  0.00    -0.356 OA
BRANCH   7   8
HETATM    8  C10 UNL     1      22.128  25.472  28.266  1.00  0.00     0.203 C 
BRANCH   8   9
HETATM    9  C11 UNL     1      22.203  26.253  26.975  1.00  0.00     0.148 C 
HETATM   10  C12 UNL     1      21.607  27.623  27.097  1.00  0.00     0.039 C 
HETATM   11  C13 UNL     1      22.525  28.589  26.385  1.00  0.00    -0.003 C 
HETATM   12  C14 UNL     1      21.877  29.914  26.125  1.00  0.00     0.005 C 
HETATM   13  C18 UNL     1      22.914  27.990  25.053  1.00  0.00     0.045 C 
HETATM   14  C15 UNL     1      21.531  30.155  24.674  1.00  0.00     0.000 C 
HETATM   15  C16 UNL     1      22.744  30.036  23.776  1.00  0.00     0.001 C 
HETATM   16  C17 UNL     1      23.753  29.051  24.343  1.00  0.00     0.010 C 
HETATM   17  C19 UNL     1      23.699  26.734  25.287  1.00  0.00     0.261 C 
HETATM   18  O9  UNL     1      23.515  26.319  26.582  1.00  0.00    -0.354 OA
BRANCH  17  19
HETATM   19  O8  UNL     1      23.255  25.709  24.427  1.00  0.00    -0.371 OA
ATOM     20  H8  UNL     1      23.032  24.931  24.925  1.00  0.00     0.212 HD
ENDBRANCH  17  19
ENDBRANCH   8   9
ENDBRANCH   7   8
ENDBRANCH   5   7
BRANCH   4  21
HETATM   21  O6  UNL     1      23.378  23.222  25.830  1.00  0.00    -0.388 OA
ATOM     22  H6  UNL     1      23.371  23.729  25.027  1.00  0.00     0.210 HD
ENDBRANCH   4  21
BRANCH   3  23
HETATM   23  O5  UNL     1      22.225  20.984  24.692  1.00  0.00    -0.393 OA
ATOM     24  H5  UNL     1      22.978  21.464  24.368  1.00  0.00     0.210 HD
ENDBRANCH   3  23
BRANCH   1  25
HETATM   25  C4  UNL     1      19.058  21.111  28.382  1.00  0.00     0.203 C 
BRANCH  25  26
HETATM   26  O4  UNL     1      19.619  20.099  29.113  1.00  0.00    -0.359 OA
BRANCH  26  27
HETATM   27  C3  UNL     1      18.831  19.575  30.113  1.00  0.00     0.263 C 
HETATM   28  O3  UNL     1      19.627  19.293  31.198  1.00  0.00    -0.343 OA
HETATM   29  C2  UNL     1      19.628  20.358  32.063  1.00  0.00     0.254 C 
HETATM   30  C21 UNL     1      18.377  21.167  31.821  1.00  0.00     0.162 C 
HETATM   31  C20 UNL     1      17.773  20.559  30.584  1.00  0.00     0.095 C 
BRANCH  29  32
HETATM   32  C1  UNL     1      20.850  21.158  31.851  1.00  0.00     0.205 C 
HETATM   33  O1  UNL     1      20.753  22.353  31.511  1.00  0.00    -0.646 OA
HETATM   34  O2  UNL     1      22.093  20.598  32.027  1.00  0.00    -0.646 OA
ENDBRANCH  29  32
BRANCH  30  35
HETATM   35  O11 UNL     1      17.547  21.021  32.928  1.00  0.00    -0.392 OA
ATOM     36  H11 UNL     1      17.897  21.555  33.631  1.00  0.00     0.210 HD
ENDBRANCH  30  35
ENDBRANCH  26  27
ENDBRANCH  25  26
ENDBRANCH   1  25
TORSDOF 11
ENDMDL
MODEL 3
REMARK VINA RESULT: -8.869273300      5.852     10.808
REMARK  11 active torsions:
REMARK  status: ('A' for Active; 'I' for Inactive)
REMARK    1  A    between atoms: C1_2  and  C2_4 
REMARK    2  A    between atoms: C3_6  and  O4_7 
REMARK    3  A    between atoms: O4_7  and  C4_8 
REMARK    4  A    between atoms: C4_8  and  C5_9 
REMARK    5  A    between atoms: C7_11  and  O5_12 
REMARK    6  A    between atoms: C8_14  and  O6_15 
REMARK    7  A    between atoms: C9_17  and  O7_18 
REMARK    8  A    between atoms: O7_18  and  C10_19 
REMARK    9  A    between atoms: C10_19  and  C11_20 
REMARK   10  A    between atoms: C19_28  and  O8_29 
REMARK   11  A    between atoms: C21_34  and  O11_35 
ROOT
HETATM    1  C5  UNL     1      20.058  20.287  27.401  1.00  0.00     0.151 C 
HETATM    2  C6  UNL     1      20.514  19.243  26.419  1.00  0.00     0.068 C 
HETATM    3  C7  UNL     1      21.618  19.816  25.521  1.00  0.00     0.154 C 
HETATM    4  C8  UNL     1      21.447  21.302  25.359  1.00  0.00     0.202 C 
HETATM    5  C9  UNL     1      21.274  22.040  26.646  1.00  0.00     0.291 C 
HETATM    6  O10 UNL     1      21.147  21.124  27.683  1.00  0.00    -0.351 OA
ENDROOT
BRANCH   5   7
HETATM    7  O7  UNL     1      22.259  22.971  26.873  1.00  0.00    -0.356 OA
BRANCH   7   8
HETATM    8  C10 UNL     1      21.751  24.203  27.277  1.00  0.00     0.203 C 
BRANCH   8   9
HETATM    9  C11 UNL     1      21.769  25.162  26.110  1.00  0.00     0.148 C 
HETATM   10  C12 UNL     1      22.264  26.524  26.494  1.00  0.00     0.039 C 
HETATM   11  C13 UNL     1      23.198  26.997  25.404  1.00  0.00    -0.003 C 
HETATM   12  C14 UNL     1      23.478  28.466  25.483  1.00  0.00     0.005 C 
HETATM   13  C18 UNL     1      22.557  26.716  24.065  1.00  0.00     0.045 C 
HETATM   14  C15 UNL     1      22.814  29.278  24.396  1.00  0.00     0.000 C 
HETATM   15  C16 UNL     1      23.199  28.796  23.015  1.00  0.00     0.001 C 
HETATM   16  C17 UNL     1      23.497  27.306  23.016  1.00  0.00     0.010 C 
HETATM   17  C19 UNL     1      22.402  25.234  23.894  1.00  0.00     0.261 C 
HETATM   18  O9  UNL     1      22.538  24.620  25.114  1.00  0.00    -0.354 OA
BRANCH  17  19
HETATM   19  O8  UNL     1      21.123  24.928  23.386  1.00  0.00    -0.371 OA
ATOM     20  H8  UNL     1      21.195  24.384  22.610  1.00  0.00     0.212 HD
ENDBRANCH  17  19
ENDBRANCH   8   9
ENDBRANCH   7   8
ENDBRANCH   5   7
BRANCH   4  21
HETATM   21  O6  UNL     1      22.572  21.763  24.655  1.00  0.00    -0.388 OA
ATOM     22  H6  UNL     1      22.597  21.282  23.837  1.00  0.00     0.210 HD
ENDBRANCH   4  21
BRANCH   3  23
HETATM   23  O5  UNL     1      21.498  19.251  24.245  1.00  0.00    -0.393 OA
ATOM     24  H5  UNL     1      22.158  18.574  24.147  1.00  0.00     0.210 HD
ENDBRANCH   3  23
BRANCH   1  25
HETATM   25  C4  UNL     1      19.566  19.682  28.688  1.00  0.00     0.203 C 
BRANCH  25  26
HETATM   26  O4  UNL     1      18.979  20.562  29.557  1.00  0.00    -0.359 OA
BRANCH  26  27
HETATM   27  C3  UNL     1      18.517  20.019  30.735  1.00  0.00     0.263 C 
HETATM   28  O3  UNL     1      19.579  19.464  31.410  1.00  0.00    -0.343 OA
HETATM   29  C2  UNL     1      20.096  20.377  32.294  1.00  0.00     0.254 C 
HETATM   30  C21 UNL     1      19.023  21.389  32.611  1.00  0.00     0.162 C 
HETATM   31  C20 UNL     1      17.910  21.068  31.651  1.00  0.00     0.095 C 
BRANCH  29  32
HETATM   32  C1  UNL     1      21.290  21.010  31.700  1.00  0.00     0.205 C 
HETATM   33  O1  UNL     1      22.421  20.551  31.954  1.00  0.00    -0.646 OA
HETATM   34  O2  UNL     1      21.166  22.097  30.868  1.00  0.00    -0.646 OA
ENDBRANCH  29  32
BRANCH  30  35
HETATM   35  O11 UNL     1      18.634  21.206  33.935  1.00  0.00    -0.392 OA
ATOM     36  H11 UNL     1      17.937  21.823  34.126  1.00  0.00     0.210 HD
ENDBRANCH  30  35
ENDBRANCH  26  27
ENDBRANCH  25  26
ENDBRANCH   1  25
TORSDOF 11
ENDMDL
MODEL 4
REMARK VINA RESULT: -8.859327282      2.456      6.166
REMARK  11 active torsions:
REMARK  status: ('A' for Active; 'I' for Inactive)
REMARK    1  A    between atoms: C1_2  and  C2_4 
REMARK    2  A    between atoms: C3_6  and  O4_7 
REMARK    3  A    between atoms: O4_7  and  C4_8 
REMARK    4  A    between atoms: C4_8  and  C5_9 
REMARK    5  A    between atoms: C7_11  and  O5_12 
REMARK    6  A    between atoms: C8_14  and  O6_15 
REMARK    7  A    between atoms: C9_17  and  O7_18 
REMARK    8  A    between atoms: O7_18  and  C10_19 
REMARK    9  A    between atoms: C10_19  and  C11_20 
REMARK   10  A    between atoms: C19_28  and  O8_29 
REMARK   11  A    between atoms: C21_34  and  O11_35 
ROOT
HETATM    1  C5  UNL     1      22.326  29.187  26.203  1.00  0.00     0.151 C 
HETATM    2  C6  UNL     1      21.441  30.321  25.763  1.00  0.00     0.068 C 
HETATM    3  C7  UNL     1      21.572  30.528  24.248  1.00  0.00     0.154 C 
HETATM    4  C8  UNL     1      22.940  30.116  23.776  1.00  0.00     0.202 C 
HETATM    5  C9  UNL     1      23.360  28.759  24.236  1.00  0.00     0.291 C 
HETATM    6  O10 UNL     1      22.425  28.275  25.143  1.00  0.00    -0.351 OA
ENDROOT
BRANCH   5   7
HETATM    7  O7  UNL     1      23.602  27.888  23.202  1.00  0.00    -0.356 OA
BRANCH   7   8
HETATM    8  C10 UNL     1      23.681  26.562  23.622  1.00  0.00     0.203 C 
BRANCH   8   9
HETATM    9  C11 UNL     1      23.059  25.665  22.579  1.00  0.00     0.148 C 
HETATM   10  C12 UNL     1      23.876  25.592  21.324  1.00  0.00     0.039 C 
HETATM   11  C13 UNL     1      23.906  24.148  20.879  1.00  0.00    -0.003 C 
HETATM   12  C14 UNL     1      24.379  23.990  19.466  1.00  0.00     0.005 C 
HETATM   13  C18 UNL     1      22.506  23.588  20.967  1.00  0.00     0.045 C 
HETATM   14  C15 UNL     1      23.289  23.611  18.492  1.00  0.00     0.000 C 
HETATM   15  C16 UNL     1      22.583  22.337  18.900  1.00  0.00     0.001 C 
HETATM   16  C17 UNL     1      22.584  22.168  20.410  1.00  0.00     0.010 C 
HETATM   17  C19 UNL     1      22.061  23.593  22.399  1.00  0.00     0.261 C 
HETATM   18  O9  UNL     1      22.882  24.420  23.126  1.00  0.00    -0.354 OA
BRANCH  17  19
HETATM   19  O8  UNL     1      20.742  24.077  22.504  1.00  0.00    -0.371 OA
ATOM     20  H8  UNL     1      20.133  23.358  22.621  1.00  0.00     0.212 HD
ENDBRANCH  17  19
ENDBRANCH   8   9
ENDBRANCH   7   8
ENDBRANCH   5   7
BRANCH   4  21
HETATM   21  O6  UNL     1      22.924  30.196  22.374  1.00  0.00    -0.388 OA
ATOM     22  H6  UNL     1      23.051  29.313  22.049  1.00  0.00     0.210 HD
ENDBRANCH   4  21
BRANCH   3  23
HETATM   23  O5  UNL     1      21.439  31.895  23.969  1.00  0.00    -0.393 OA
ATOM     24  H5  UNL     1      21.537  32.026  23.033  1.00  0.00     0.210 HD
ENDBRANCH   3  23
BRANCH   1  25
HETATM   25  C4  UNL     1      21.779  28.473  27.408  1.00  0.00     0.203 C 
BRANCH  25  26
HETATM   26  O4  UNL     1      21.600  27.124  27.253  1.00  0.00    -0.359 OA
BRANCH  26  27
HETATM   27  C3  UNL     1      22.468  26.321  27.958  1.00  0.00     0.263 C 
HETATM   28  O3  UNL     1      21.761  25.264  28.482  1.00  0.00    -0.343 OA
HETATM   29  C2  UNL     1      21.822  24.194  27.624  1.00  0.00     0.254 C 
HETATM   30  C21 UNL     1      23.045  24.353  26.754  1.00  0.00     0.162 C 
HETATM   31  C20 UNL     1      23.553  25.733  27.072  1.00  0.00     0.095 C 
BRANCH  29  32
HETATM   32  C1  UNL     1      20.582  24.138  26.826  1.00  0.00     0.205 C 
HETATM   33  O1  UNL     1      20.643  23.858  25.613  1.00  0.00    -0.646 OA
HETATM   34  O2  UNL     1      19.362  24.390  27.408  1.00  0.00    -0.646 OA
ENDBRANCH  29  32
BRANCH  30  35
HETATM   35  O11 UNL     1      23.960  23.368  27.112  1.00  0.00    -0.392 OA
ATOM     36  H11 UNL     1      24.728  23.796  27.472  1.00  0.00     0.210 HD
ENDBRANCH  30  35
ENDBRANCH  26  27
ENDBRANCH  25  26
ENDBRANCH   1  25
TORSDOF 11
ENDMDL
MODEL 5
REMARK VINA RESULT: -8.803977903      5.774     10.819
REMARK  11 active torsions:
REMARK  status: ('A' for Active; 'I' for Inactive)
REMARK    1  A    between atoms: C1_2  and  C2_4 
REMARK    2  A    between atoms: C3_6  and  O4_7 
REMARK    3  A    between atoms: O4_7  and  C4_8 
REMARK    4  A    between atoms: C4_8  and  C5_9 
REMARK    5  A    between atoms: C7_11  and  O5_12 
REMARK    6  A    between atoms: C8_14  and  O6_15 
REMARK    7  A    between atoms: C9_17  and  O7_18 
REMARK    8  A    between atoms: O7_18  and  C10_19 
REMARK    9  A    between atoms: C10_19  and  C11_20 
REMARK   10  A    between atoms: C19_28  and  O8_29 
REMARK   11  A    between atoms: C21_34  and  O11_35 
ROOT
HETATM    1  C5  UNL     1      19.755  20.021  27.201  1.00  0.00     0.151 C 
HETATM    2  C6  UNL     1      20.443  19.105  26.227  1.00  0.00     0.068 C 
HETATM    3  C7  UNL     1      21.654  19.816  25.607  1.00  0.00     0.154 C 
HETATM    4  C8  UNL     1      21.422  21.302  25.555  1.00  0.00     0.202 C 
HETATM    5  C9  UNL     1      20.976  21.895  26.851  1.00  0.00     0.291 C 
HETATM    6  O10 UNL     1      20.721  20.872  27.756  1.00  0.00    -0.351 OA
ENDROOT
BRANCH   5   7
HETATM    7  O7  UNL     1      21.844  22.839  27.342  1.00  0.00    -0.356 OA
BRANCH   7   8
HETATM    8  C10 UNL     1      21.224  24.060  27.594  1.00  0.00     0.203 C 
BRANCH   8   9
HETATM    9  C11 UNL     1      22.104  25.184  27.100  1.00  0.00     0.148 C 
HETATM   10  C12 UNL     1      22.325  25.131  25.618  1.00  0.00     0.039 C 
HETATM   11  C13 UNL     1      22.206  26.539  25.085  1.00  0.00    -0.003 C 
HETATM   12  C14 UNL     1      22.751  26.678  23.696  1.00  0.00     0.005 C 
HETATM   13  C18 UNL     1      22.989  27.464  25.987  1.00  0.00     0.045 C 
HETATM   14  C15 UNL     1      24.057  27.433  23.621  1.00  0.00     0.000 C 
HETATM   15  C16 UNL     1      23.947  28.815  24.227  1.00  0.00     0.001 C 
HETATM   16  C17 UNL     1      22.915  28.846  25.342  1.00  0.00     0.010 C 
HETATM   17  C19 UNL     1      22.370  27.460  27.353  1.00  0.00     0.261 C 
HETATM   18  O9  UNL     1      21.538  26.376  27.472  1.00  0.00    -0.354 OA
BRANCH  17  19
HETATM   19  O8  UNL     1      23.367  27.363  28.345  1.00  0.00    -0.371 OA
ATOM     20  H8  UNL     1      23.231  28.019  29.018  1.00  0.00     0.212 HD
ENDBRANCH  17  19
ENDBRANCH   8   9
ENDBRANCH   7   8
ENDBRANCH   5   7
BRANCH   4  21
HETATM   21  O6  UNL     1      22.625  21.882  25.117  1.00  0.00    -0.388 OA
ATOM     22  H6  UNL     1      22.910  22.470  25.806  1.00  0.00     0.210 HD
ENDBRANCH   4  21
BRANCH   3  23
HETATM   23  O5  UNL     1      21.800  19.380  24.283  1.00  0.00    -0.393 OA
ATOM     24  H5  UNL     1      22.727  19.300  24.089  1.00  0.00     0.210 HD
ENDBRANCH   3  23
BRANCH   1  25
HETATM   25  C4  UNL     1      19.078  19.267  28.312  1.00  0.00     0.203 C 
BRANCH  25  26
HETATM   26  O4  UNL     1      19.698  19.344  29.530  1.00  0.00    -0.359 OA
BRANCH  26  27
HETATM   27  C3  UNL     1      18.865  19.506  30.615  1.00  0.00     0.263 C 
HETATM   28  O3  UNL     1      19.631  19.526  31.758  1.00  0.00    -0.343 OA
HETATM   29  C2  UNL     1      19.943  20.822  32.086  1.00  0.00     0.254 C 
HETATM   30  C21 UNL     1      18.915  21.730  31.456  1.00  0.00     0.162 C 
HETATM   31  C20 UNL     1      18.109  20.823  30.566  1.00  0.00     0.095 C 
BRANCH  29  32
HETATM   32  C1  UNL     1      21.308  21.128  31.617  1.00  0.00     0.205 C 
HETATM   33  O1  UNL     1      22.279  20.520  32.109  1.00  0.00    -0.646 OA
HETATM   34  O2  UNL     1      21.519  22.077  30.645  1.00  0.00    -0.646 OA
ENDBRANCH  29  32
BRANCH  30  35
HETATM   35  O11 UNL     1      18.141  22.278  32.475  1.00  0.00    -0.392 OA
ATOM     36  H11 UNL     1      17.302  22.526  32.107  1.00  0.00     0.210 HD
ENDBRANCH  30  35
ENDBRANCH  26  27
ENDBRANCH  25  26
ENDBRANCH   1  25
TORSDOF 11
ENDMDL
