MODEL 1
REMARK VINA RESULT: -9.255599127      0.000      0.000
REMARK  15 active torsions:
REMARK  status: ('A' for Active; 'I' for Inactive)
REMARK    1  A    between atoms: C2_2  and  C3_3 
REMARK    2  A    between atoms: C3_3  and  C4_4 
REMARK    3  A    between atoms: C4_4  and  C5_5 
REMARK    4  A    between atoms: C6_6  and  C8_8 
REMARK    5  A    between atoms: C8_8  and  C9_9 
REMARK    6  A    between atoms: C9_9  and  C10_10 
REMARK    7  A    between atoms: C13_13  and  C14_14 
REMARK    8  A    between atoms: C15_15  and  C16_16 
REMARK    9  A    between atoms: C19_19  and  S1_20 
REMARK   10  A    between atoms: S1_20  and  C20_21 
REMARK   11  A    between atoms: C20_21  and  C21_22 
REMARK   12  A    between atoms: C23_25  and  C24_26 
REMARK   13  A    between atoms: C24_26  and  N1_27 
REMARK   14  A    between atoms: C28_33  and  O2_34 
REMARK   15  A    between atoms: C29_36  and  O3_37 
ROOT
HETATM    1  C16 UNL     1      10.893  -3.194   5.293  1.00  0.00     0.012 C 
HETATM    2  C17 UNL     1      10.098  -1.947   5.295  1.00  0.00     0.010 C 
HETATM    3  C18 UNL     1       9.158  -1.773   6.420  1.00  0.00     0.016 C 
HETATM    4  C19 UNL     1       9.018  -2.876   7.403  1.00  0.00     0.047 C 
HETATM    5  C30 UNL     1       9.011  -4.197   6.620  1.00  0.00     0.020 C 
HETATM    6  C31 UNL     1      10.118  -4.387   5.680  1.00  0.00    -0.010 C 
HETATM    7  C32 UNL     1       9.599  -5.169   4.483  1.00  0.00     0.010 C 
ENDROOT
BRANCH   4   8
HETATM    8  S1  UNL     1      10.100  -3.029   8.737  1.00  0.00    -0.164 SA
BRANCH   8   9
HETATM    9  C20 UNL     1       9.861  -4.028  10.123  1.00  0.00     0.083 C 
BRANCH   9  10
HETATM   10  C21 UNL     1      10.515  -3.685  11.435  1.00  0.00     0.050 C 
HETATM   11  C22 UNL     1      10.558  -4.941  12.331  1.00  0.00     0.176 C 
HETATM   12  O1  UNL     1      11.805  -5.210  12.824  1.00  0.00    -0.381 OA
HETATM   13  C23 UNL     1      12.703  -5.592  11.818  1.00  0.00     0.170 C 
HETATM   14  C28 UNL     1      12.769  -4.478  10.761  1.00  0.00     0.177 C 
HETATM   15  C29 UNL     1      11.993  -3.314  11.288  1.00  0.00     0.156 C 
BRANCH  13  16
HETATM   16  C24 UNL     1      14.091  -5.653  12.419  1.00  0.00     0.163 C 
BRANCH  16  17
HETATM   17  N1  UNL     1      14.796  -6.781  11.896  1.00  0.00    -0.349 N 
HETATM   18  C25 UNL     1      14.231  -8.018  11.737  1.00  0.00     0.108 A 
HETATM   19  C26 UNL     1      15.211  -8.815  11.209  1.00  0.00     0.106 A 
HETATM   20  N2  UNL     1      16.344  -8.089  11.050  1.00  0.00    -0.361 N 
HETATM   21  C27 UNL     1      16.064  -6.833  11.480  1.00  0.00     0.182 A 
ATOM     22  H2  UNL     1      17.234  -8.422  10.679  1.00  0.00     0.166 HD
ENDBRANCH  16  17
ENDBRANCH  13  16
BRANCH  14  23
HETATM   23  O2  UNL     1      14.061  -4.083  10.500  1.00  0.00    -0.390 OA
ATOM     24  H2  UNL     1      14.096  -3.307   9.952  1.00  0.00     0.210 HD
ENDBRANCH  14  23
BRANCH  15  25
HETATM   25  O3  UNL     1      12.445  -3.013  12.584  1.00  0.00    -0.392 OA
ATOM     26  H3  UNL     1      13.318  -3.383  12.647  1.00  0.00     0.210 HD
ENDBRANCH  15  25
ENDBRANCH   9  10
ENDBRANCH   8   9
ENDBRANCH   4   8
BRANCH   1  27
HETATM   27  C15 UNL     1      11.465  -3.339   3.918  1.00  0.00    -0.022 C 
HETATM   28  C14 UNL     1      11.909  -2.306   3.210  1.00  0.00    -0.003 C 
BRANCH  28  29
HETATM   29  C13 UNL     1      12.434  -2.590   1.903  1.00  0.00     0.007 C 
HETATM   30  C2  UNL     1      13.481  -1.940   1.359  1.00  0.00    -0.055 C 
HETATM   31  C1  UNL     1      14.141  -0.886   2.108  1.00  0.00     0.049 C 
BRANCH  30  32
HETATM   32  C3  UNL     1      13.851  -2.398   0.008  1.00  0.00     0.062 C 
BRANCH  32  33
HETATM   33  C4  UNL     1      13.446  -3.418  -0.590  1.00  0.00    -0.127 C 
BRANCH  33  34
HETATM   34  C5  UNL     1      12.998  -4.538  -1.244  1.00  0.00     0.058 C 
HETATM   35  C6  UNL     1      13.263  -5.824  -1.042  1.00  0.00    -0.076 C 
HETATM   36  C7  UNL     1      14.177  -6.348   0.008  1.00  0.00     0.044 C 
BRANCH  35  37
HETATM   37  C8  UNL     1      12.576  -6.856  -1.838  1.00  0.00     0.034 C 
BRANCH  37  38
HETATM   38  C9  UNL     1      11.228  -6.591  -2.368  1.00  0.00     0.008 C 
BRANCH  38  39
HETATM   39  C10 UNL     1      10.140  -7.071  -1.449  1.00  0.00    -0.023 C 
HETATM   40  C11 UNL     1      10.587  -8.446  -0.941  1.00  0.00     0.009 C 
HETATM   41  C12 UNL     1       8.830  -7.166  -2.217  1.00  0.00     0.009 C 
ENDBRANCH  38  39
ENDBRANCH  37  38
ENDBRANCH  35  37
ENDBRANCH  33  34
ENDBRANCH  32  33
ENDBRANCH  30  32
ENDBRANCH  28  29
ENDBRANCH   1  27
TORSDOF 15
ENDMDL
MODEL 2
REMARK VINA RESULT: -9.013811968      1.080      1.343
REMARK  15 active torsions:
REMARK  status: ('A' for Active; 'I' for Inactive)
REMARK    1  A    between atoms: C2_2  and  C3_3 
REMARK    2  A    between atoms: C3_3  and  C4_4 
REMARK    3  A    between atoms: C4_4  and  C5_5 
REMARK    4  A    between atoms: C6_6  and  C8_8 
REMARK    5  A    between atoms: C8_8  and  C9_9 
REMARK    6  A    between atoms: C9_9  and  C10_10 
REMARK    7  A    between atoms: C13_13  and  C14_14 
REMARK    8  A    between atoms: C15_15  and  C16_16 
REMARK    9  A    between atoms: C19_19  and  S1_20 
REMARK   10  A    between atoms: S1_20  and  C20_21 
REMARK   11  A    between atoms: C20_21  and  C21_22 
REMARK   12  A    between atoms: C23_25  and  C24_26 
REMARK   13  A    between atoms: C24_26  and  N1_27 
REMARK   14  A    between atoms: C28_33  and  O2_34 
REMARK   15  A    between atoms: C29_36  and  O3_37 
ROOT
HETATM    1  C16 UNL     1      10.860  -3.482   5.390  1.00  0.00     0.012 C 
HETATM    2  C17 UNL     1      10.244  -2.141   5.485  1.00  0.00     0.010 C 
HETATM    3  C18 UNL     1       9.289  -1.938   6.591  1.00  0.00     0.016 C 
HETATM    4  C19 UNL     1       8.957  -3.093   7.462  1.00  0.00     0.047 C 
HETATM    5  C30 UNL     1       8.803  -4.325   6.559  1.00  0.00     0.020 C 
HETATM    6  C31 UNL     1       9.913  -4.585   5.639  1.00  0.00    -0.010 C 
HETATM    7  C32 UNL     1       9.344  -5.176   4.358  1.00  0.00     0.010 C 
ENDROOT
BRANCH   4   8
HETATM    8  S1  UNL     1       9.949  -3.514   8.808  1.00  0.00    -0.164 SA
BRANCH   8   9
HETATM    9  C20 UNL     1      11.038  -2.459   9.632  1.00  0.00     0.083 C 
BRANCH   9  10
HETATM   10  C21 UNL     1      11.356  -2.673  11.087  1.00  0.00     0.050 C 
HETATM   11  C22 UNL     1      10.477  -3.814  11.643  1.00  0.00     0.176 C 
HETATM   12  O1  UNL     1      11.195  -4.785  12.284  1.00  0.00    -0.381 OA
HETATM   13  C23 UNL     1      12.015  -5.508  11.406  1.00  0.00     0.170 C 
HETATM   14  C28 UNL     1      12.956  -4.529  10.684  1.00  0.00     0.177 C 
HETATM   15  C29 UNL     1      12.779  -3.188  11.320  1.00  0.00     0.156 C 
BRANCH  13  16
HETATM   16  C24 UNL     1      12.923  -6.398  12.228  1.00  0.00     0.163 C 
BRANCH  16  17
HETATM   17  N1  UNL     1      12.779  -7.756  11.807  1.00  0.00    -0.349 N 
HETATM   18  C25 UNL     1      13.837  -8.584  11.545  1.00  0.00     0.108 A 
HETATM   19  C26 UNL     1      13.294  -9.788  11.184  1.00  0.00     0.106 A 
HETATM   20  N2  UNL     1      11.942  -9.701  11.222  1.00  0.00    -0.361 N 
HETATM   21  C27 UNL     1      11.645  -8.436  11.611  1.00  0.00     0.182 A 
ATOM     22  H2  UNL     1      11.278 -10.443  11.000  1.00  0.00     0.166 HD
ENDBRANCH  16  17
ENDBRANCH  13  16
BRANCH  14  23
HETATM   23  O2  UNL     1      14.274  -4.907  10.779  1.00  0.00    -0.390 OA
ATOM     24  H2  UNL     1      14.520  -5.134  11.668  1.00  0.00     0.210 HD
ENDBRANCH  14  23
BRANCH  15  25
HETATM   25  O3  UNL     1      12.918  -3.321  12.712  1.00  0.00    -0.392 OA
ATOM     26  H3  UNL     1      13.641  -3.922  12.845  1.00  0.00     0.210 HD
ENDBRANCH  15  25
ENDBRANCH   9  10
ENDBRANCH   8   9
ENDBRANCH   4   8
BRANCH   1  27
HETATM   27  C15 UNL     1      11.466  -3.583   4.025  1.00  0.00    -0.022 C 
HETATM   28  C14 UNL     1      11.764  -2.518   3.289  1.00  0.00    -0.003 C 
BRANCH  28  29
HETATM   29  C13 UNL     1      12.342  -2.762   1.996  1.00  0.00     0.007 C 
HETATM   30  C2  UNL     1      13.391  -2.075   1.503  1.00  0.00    -0.055 C 
HETATM   31  C1  UNL     1      13.997  -1.020   2.297  1.00  0.00     0.049 C 
BRANCH  30  32
HETATM   32  C3  UNL     1      13.820  -2.495   0.158  1.00  0.00     0.062 C 
BRANCH  32  33
HETATM   33  C4  UNL     1      13.411  -3.473  -0.504  1.00  0.00    -0.127 C 
BRANCH  33  34
HETATM   34  C5  UNL     1      12.964  -4.550  -1.227  1.00  0.00     0.058 C 
HETATM   35  C6  UNL     1      13.184  -5.851  -1.070  1.00  0.00    -0.076 C 
HETATM   36  C7  UNL     1      14.030  -6.447  -0.001  1.00  0.00     0.044 C 
BRANCH  35  37
HETATM   37  C8  UNL     1      12.508  -6.828  -1.941  1.00  0.00     0.034 C 
BRANCH  37  38
HETATM   38  C9  UNL     1      11.141  -6.557  -2.418  1.00  0.00     0.008 C 
BRANCH  38  39
HETATM   39  C10 UNL     1      10.088  -7.093  -1.491  1.00  0.00    -0.023 C 
HETATM   40  C11 UNL     1      10.592  -8.462  -1.020  1.00  0.00     0.009 C 
HETATM   41  C12 UNL     1       8.768  -7.219  -2.238  1.00  0.00     0.009 C 
ENDBRANCH  38  39
ENDBRANCH  37  38
ENDBRANCH  35  37
ENDBRANCH  33  34
ENDBRANCH  32  33
ENDBRANCH  30  32
ENDBRANCH  28  29
ENDBRANCH   1  27
TORSDOF 15
ENDMDL
MODEL 3
REMARK VINA RESULT: -8.891989615      1.308      2.033
REMARK  15 active torsions:
REMARK  status: ('A' for Active; 'I' for Inactive)
REMARK    1  A    between atoms: C2_2  and  C3_3 
REMARK    2  A    between atoms: C3_3  and  C4_4 
REMARK    3  A    between atoms: C4_4  and  C5_5 
REMARK    4  A    between atoms: C6_6  and  C8_8 
REMARK    5  A    between atoms: C8_8  and  C9_9 
REMARK    6  A    between atoms: C9_9  and  C10_10 
REMARK    7  A    between atoms: C13_13  and  C14_14 
REMARK    8  A    between atoms: C15_15  and  C16_16 
REMARK    9  A    between atoms: C19_19  and  S1_20 
REMARK   10  A    between atoms: S1_20  and  C20_21 
REMARK   11  A    between atoms: C20_21  and  C21_22 
REMARK   12  A    between atoms: C23_25  and  C24_26 
REMARK   13  A    between atoms: C24_26  and  N1_27 
REMARK   14  A    between atoms: C28_33  and  O2_34 
REMARK   15  A    between atoms: C29_36  and  O3_37 
ROOT
HETATM    1  C16 UNL     1      10.615  -3.779   5.503  1.00  0.00     0.012 C 
HETATM    2  C17 UNL     1      10.113  -2.401   5.321  1.00  0.00     0.010 C 
HETATM    3  C18 UNL     1       9.296  -1.852   6.422  1.00  0.00     0.016 C 
HETATM    4  C19 UNL     1       8.974  -2.733   7.572  1.00  0.00     0.047 C 
HETATM    5  C30 UNL     1       8.636  -4.122   7.011  1.00  0.00     0.020 C 
HETATM    6  C31 UNL     1       9.621  -4.696   6.092  1.00  0.00    -0.010 C 
HETATM    7  C32 UNL     1       8.879  -5.514   5.046  1.00  0.00     0.010 C 
ENDROOT
BRANCH   4   8
HETATM    8  S1  UNL     1      10.068  -2.920   8.891  1.00  0.00    -0.164 SA
BRANCH   8   9
HETATM    9  C20 UNL     1       9.863  -3.985  10.233  1.00  0.00     0.083 C 
BRANCH   9  10
HETATM   10  C21 UNL     1      10.545  -3.704  11.544  1.00  0.00     0.050 C 
HETATM   11  C22 UNL     1      10.594  -4.998  12.385  1.00  0.00     0.176 C 
HETATM   12  O1  UNL     1      11.848  -5.298  12.841  1.00  0.00    -0.381 OA
HETATM   13  C23 UNL     1      12.723  -5.645  11.802  1.00  0.00     0.170 C 
HETATM   14  C28 UNL     1      12.779  -4.486  10.791  1.00  0.00     0.177 C 
HETATM   15  C29 UNL     1      12.024  -3.340  11.383  1.00  0.00     0.156 C 
BRANCH  13  16
HETATM   16  C24 UNL     1      14.122  -5.743  12.371  1.00  0.00     0.163 C 
BRANCH  16  17
HETATM   17  N1  UNL     1      14.760  -6.926  11.885  1.00  0.00    -0.349 N 
HETATM   18  C25 UNL     1      16.029  -6.945  11.373  1.00  0.00     0.108 A 
HETATM   19  C26 UNL     1      16.278  -8.248  11.030  1.00  0.00     0.106 A 
HETATM   20  N2  UNL     1      15.193  -9.005  11.322  1.00  0.00    -0.361 N 
HETATM   21  C27 UNL     1      14.266  -8.167  11.852  1.00  0.00     0.182 A 
ATOM     22  H2  UNL     1      15.092 -10.008  11.173  1.00  0.00     0.166 HD
ENDBRANCH  16  17
ENDBRANCH  13  16
BRANCH  14  23
HETATM   23  O2  UNL     1      14.068  -4.092  10.522  1.00  0.00    -0.390 OA
ATOM     24  H2  UNL     1      14.605  -4.057  11.306  1.00  0.00     0.210 HD
ENDBRANCH  14  23
BRANCH  15  25
HETATM   25  O3  UNL     1      12.504  -3.099  12.681  1.00  0.00    -0.392 OA
ATOM     26  H3  UNL     1      13.172  -2.430  12.591  1.00  0.00     0.210 HD
ENDBRANCH  15  25
ENDBRANCH   9  10
ENDBRANCH   8   9
ENDBRANCH   4   8
BRANCH   1  27
HETATM   27  C15 UNL     1      11.065  -4.256   4.158  1.00  0.00    -0.022 C 
HETATM   28  C14 UNL     1      11.459  -3.429   3.196  1.00  0.00    -0.003 C 
BRANCH  28  29
HETATM   29  C13 UNL     1      11.867  -4.024   1.953  1.00  0.00     0.007 C 
HETATM   30  C2  UNL     1      13.078  -3.835   1.393  1.00  0.00    -0.055 C 
HETATM   31  C1  UNL     1      14.052  -2.987   2.057  1.00  0.00     0.049 C 
BRANCH  30  32
HETATM   32  C3  UNL     1      13.280  -4.544   0.118  1.00  0.00     0.062 C 
BRANCH  32  33
HETATM   33  C4  UNL     1      12.419  -4.830  -0.742  1.00  0.00    -0.127 C 
BRANCH  33  34
HETATM   34  C5  UNL     1      11.479  -5.148  -1.689  1.00  0.00     0.058 C 
HETATM   35  C6  UNL     1      10.438  -5.972  -1.636  1.00  0.00    -0.076 C 
HETATM   36  C7  UNL     1      10.060  -6.787  -0.450  1.00  0.00     0.044 C 
BRANCH  35  37
HETATM   37  C8  UNL     1       9.514  -6.075  -2.779  1.00  0.00     0.034 C 
BRANCH  37  38
HETATM   38  C9  UNL     1       8.075  -5.837  -2.577  1.00  0.00     0.008 C 
BRANCH  38  39
HETATM   39  C10 UNL     1       7.678  -4.416  -2.857  1.00  0.00    -0.023 C 
HETATM   40  C11 UNL     1       6.330  -4.486  -3.584  1.00  0.00     0.009 C 
HETATM   41  C12 UNL     1       8.737  -3.751  -3.724  1.00  0.00     0.009 C 
ENDBRANCH  38  39
ENDBRANCH  37  38
ENDBRANCH  35  37
ENDBRANCH  33  34
ENDBRANCH  32  33
ENDBRANCH  30  32
ENDBRANCH  28  29
ENDBRANCH   1  27
TORSDOF 15
ENDMDL
MODEL 4
REMARK VINA RESULT: -8.888743007      1.839      2.713
REMARK  15 active torsions:
REMARK  status: ('A' for Active; 'I' for Inactive)
REMARK    1  A    between atoms: C2_2  and  C3_3 
REMARK    2  A    between atoms: C3_3  and  C4_4 
REMARK    3  A    between atoms: C4_4  and  C5_5 
REMARK    4  A    between atoms: C6_6  and  C8_8 
REMARK    5  A    between atoms: C8_8  and  C9_9 
REMARK    6  A    between atoms: C9_9  and  C10_10 
REMARK    7  A    between atoms: C13_13  and  C14_14 
REMARK    8  A    between atoms: C15_15  and  C16_16 
REMARK    9  A    between atoms: C19_19  and  S1_20 
REMARK   10  A    between atoms: S1_20  and  C20_21 
REMARK   11  A    between atoms: C20_21  and  C21_22 
REMARK   12  A    between atoms: C23_25  and  C24_26 
REMARK   13  A    between atoms: C24_26  and  N1_27 
REMARK   14  A    between atoms: C28_33  and  O2_34 
REMARK   15  A    between atoms: C29_36  and  O3_37 
ROOT
HETATM    1  C16 UNL     1      10.942  -3.728   4.939  1.00  0.00     0.012 C 
HETATM    2  C17 UNL     1      10.512  -2.318   4.831  1.00  0.00     0.010 C 
HETATM    3  C18 UNL     1      10.002  -1.694   6.067  1.00  0.00     0.016 C 
HETATM    4  C19 UNL     1       9.879  -2.532   7.286  1.00  0.00     0.047 C 
HETATM    5  C30 UNL     1       9.327  -3.899   6.855  1.00  0.00     0.020 C 
HETATM    6  C31 UNL     1      10.040  -4.559   5.758  1.00  0.00    -0.010 C 
HETATM    7  C32 UNL     1       9.028  -5.331   4.926  1.00  0.00     0.010 C 
ENDROOT
BRANCH   4   8
HETATM    8  S1  UNL     1      11.223  -2.786   8.337  1.00  0.00    -0.164 SA
BRANCH   8   9
HETATM    9  C20 UNL     1      11.350  -2.234   9.967  1.00  0.00     0.083 C 
BRANCH   9  10
HETATM   10  C21 UNL     1      11.005  -3.148  11.113  1.00  0.00     0.050 C 
HETATM   11  C22 UNL     1      10.935  -4.604  10.606  1.00  0.00     0.176 C 
HETATM   12  O1  UNL     1      11.698  -5.469  11.341  1.00  0.00    -0.381 OA
HETATM   13  C23 UNL     1      13.071  -5.222  11.197  1.00  0.00     0.170 C 
HETATM   14  C28 UNL     1      13.360  -3.767  11.604  1.00  0.00     0.177 C 
HETATM   15  C29 UNL     1      12.101  -3.206  12.182  1.00  0.00     0.156 C 
BRANCH  13  16
HETATM   16  C24 UNL     1      13.815  -6.071  12.204  1.00  0.00     0.163 C 
BRANCH  16  17
HETATM   17  N1  UNL     1      14.198  -7.310  11.604  1.00  0.00    -0.349 N 
HETATM   18  C25 UNL     1      15.380  -7.494  10.938  1.00  0.00     0.108 A 
HETATM   19  C26 UNL     1      15.380  -8.799  10.523  1.00  0.00     0.106 A 
HETATM   20  N2  UNL     1      14.231  -9.397  10.921  1.00  0.00    -0.361 N 
HETATM   21  C27 UNL     1      13.515  -8.458  11.589  1.00  0.00     0.182 A 
ATOM     22  H2  UNL     1      13.957 -10.365  10.750  1.00  0.00     0.166 HD
ENDBRANCH  16  17
ENDBRANCH  13  16
BRANCH  14  23
HETATM   23  O2  UNL     1      14.367  -3.677  12.535  1.00  0.00    -0.390 OA
ATOM     24  H2  UNL     1      15.184  -3.377  12.154  1.00  0.00     0.210 HD
ENDBRANCH  14  23
BRANCH  15  25
HETATM   25  O3  UNL     1      11.624  -4.080  13.173  1.00  0.00    -0.392 OA
ATOM     26  H3  UNL     1      11.966  -3.750  13.996  1.00  0.00     0.210 HD
ENDBRANCH  15  25
ENDBRANCH   9  10
ENDBRANCH   8   9
ENDBRANCH   4   8
BRANCH   1  27
HETATM   27  C15 UNL     1      11.048  -4.256   3.542  1.00  0.00    -0.022 C 
HETATM   28  C14 UNL     1      11.877  -3.743   2.640  1.00  0.00    -0.003 C 
BRANCH  28  29
HETATM   29  C13 UNL     1      11.876  -4.349   1.337  1.00  0.00     0.007 C 
HETATM   30  C2  UNL     1      12.995  -4.671   0.659  1.00  0.00    -0.055 C 
HETATM   31  C1  UNL     1      14.295  -4.406   1.250  1.00  0.00     0.049 C 
BRANCH  30  32
HETATM   32  C3  UNL     1      12.758  -5.284  -0.659  1.00  0.00     0.062 C 
BRANCH  32  33
HETATM   33  C4  UNL     1      11.691  -5.306  -1.311  1.00  0.00    -0.127 C 
BRANCH  33  34
HETATM   34  C5  UNL     1      10.518  -5.326  -2.022  1.00  0.00     0.058 C 
HETATM   35  C6  UNL     1       9.420  -6.058  -1.864  1.00  0.00    -0.076 C 
HETATM   36  C7  UNL     1       9.231  -7.088  -0.808  1.00  0.00     0.044 C 
BRANCH  35  37
HETATM   37  C8  UNL     1       8.245  -5.826  -2.722  1.00  0.00     0.034 C 
BRANCH  37  38
HETATM   38  C9  UNL     1       7.964  -4.470  -3.223  1.00  0.00     0.008 C 
BRANCH  38  39
HETATM   39  C10 UNL     1       6.625  -4.367  -3.896  1.00  0.00    -0.023 C 
HETATM   40  C11 UNL     1       6.664  -3.079  -4.726  1.00  0.00     0.009 C 
HETATM   41  C12 UNL     1       5.528  -4.310  -2.842  1.00  0.00     0.009 C 
ENDBRANCH  38  39
ENDBRANCH  37  38
ENDBRANCH  35  37
ENDBRANCH  33  34
ENDBRANCH  32  33
ENDBRANCH  30  32
ENDBRANCH  28  29
ENDBRANCH   1  27
TORSDOF 15
ENDMDL
MODEL 5
REMARK VINA RESULT: -8.526026229      1.993      3.347
REMARK  15 active torsions:
REMARK  status: ('A' for Active; 'I' for Inactive)
REMARK    1  A    between atoms: C2_2  and  C3_3 
REMARK    2  A    between atoms: C3_3  and  C4_4 
REMARK    3  A    between atoms: C4_4  and  C5_5 
REMARK    4  A    between atoms: C6_6  and  C8_8 
REMARK    5  A    between atoms: C8_8  and  C9_9 
REMARK    6  A    between atoms: C9_9  and  C10_10 
REMARK    7  A    between atoms: C13_13  and  C14_14 
REMARK    8  A    between atoms: C15_15  and  C16_16 
REMARK    9  A    between atoms: C19_19  and  S1_20 
REMARK   10  A    between atoms: S1_20  and  C20_21 
REMARK   11  A    between atoms: C20_21  and  C21_22 
REMARK   12  A    between atoms: C23_25  and  C24_26 
REMARK   13  A    between atoms: C24_26  and  N1_27 
REMARK   14  A    between atoms: C28_33  and  O2_34 
REMARK   15  A    between atoms: C29_36  and  O3_37 
ROOT
HETATM    1  C16 UNL     1      10.652  -3.759   5.349  1.00  0.00     0.012 C 
HETATM    2  C17 UNL     1      10.166  -2.367   5.240  1.00  0.00     0.010 C 
HETATM    3  C18 UNL     1       9.375  -1.861   6.378  1.00  0.00     0.016 C 
HETATM    4  C19 UNL     1       9.057  -2.791   7.490  1.00  0.00     0.047 C 
HETATM    5  C30 UNL     1       8.692  -4.147   6.871  1.00  0.00     0.020 C 
HETATM    6  C31 UNL     1       9.655  -4.690   5.909  1.00  0.00    -0.010 C 
HETATM    7  C32 UNL     1       8.885  -5.447   4.838  1.00  0.00     0.010 C 
ENDROOT
BRANCH   4   8
HETATM    8  S1  UNL     1      10.169  -3.055   8.782  1.00  0.00    -0.164 SA
BRANCH   8   9
HETATM    9  C20 UNL     1       9.883  -4.023  10.181  1.00  0.00     0.083 C 
BRANCH   9  10
HETATM   10  C21 UNL     1      10.553  -3.695  11.488  1.00  0.00     0.050 C 
HETATM   11  C22 UNL     1      10.588  -4.956  12.378  1.00  0.00     0.176 C 
HETATM   12  O1  UNL     1      11.836  -5.244  12.858  1.00  0.00    -0.381 OA
HETATM   13  C23 UNL     1      12.721  -5.632  11.843  1.00  0.00     0.170 C 
HETATM   14  C28 UNL     1      12.791  -4.513  10.790  1.00  0.00     0.177 C 
HETATM   15  C29 UNL     1      12.035  -3.343  11.330  1.00  0.00     0.156 C 
BRANCH  13  16
HETATM   16  C24 UNL     1      14.113  -5.714  12.431  1.00  0.00     0.163 C 
BRANCH  16  17
HETATM   17  N1  UNL     1      14.776  -6.883  11.944  1.00  0.00    -0.349 N 
HETATM   18  C25 UNL     1      16.070  -6.889  11.501  1.00  0.00     0.108 A 
HETATM   19  C26 UNL     1      16.337  -8.181  11.132  1.00  0.00     0.106 A 
HETATM   20  N2  UNL     1      15.237  -8.944  11.342  1.00  0.00    -0.361 N 
HETATM   21  C27 UNL     1      14.283  -8.121  11.846  1.00  0.00     0.182 A 
ATOM     22  H2  UNL     1      15.145  -9.942  11.156  1.00  0.00     0.166 HD
ENDBRANCH  16  17
ENDBRANCH  13  16
BRANCH  14  23
HETATM   23  O2  UNL     1      14.085  -4.133  10.520  1.00  0.00    -0.390 OA
ATOM     24  H2  UNL     1      14.463  -4.627   9.802  1.00  0.00     0.210 HD
ENDBRANCH  14  23
BRANCH  15  25
HETATM   25  O3  UNL     1      12.502  -3.054  12.623  1.00  0.00    -0.392 OA
ATOM     26  H3  UNL     1      12.989  -3.821  12.901  1.00  0.00     0.210 HD
ENDBRANCH  15  25
ENDBRANCH   9  10
ENDBRANCH   8   9
ENDBRANCH   4   8
BRANCH   1  27
HETATM   27  C15 UNL     1      11.075  -4.178   3.975  1.00  0.00    -0.022 C 
HETATM   28  C14 UNL     1      11.309  -3.309   2.999  1.00  0.00    -0.003 C 
BRANCH  28  29
HETATM   29  C13 UNL     1      11.710  -3.850   1.729  1.00  0.00     0.007 C 
HETATM   30  C2  UNL     1      12.958  -3.747   1.231  1.00  0.00    -0.055 C 
HETATM   31  C1  UNL     1      13.983  -3.058   1.995  1.00  0.00     0.049 C 
BRANCH  30  32
HETATM   32  C3  UNL     1      13.145  -4.377  -0.087  1.00  0.00     0.062 C 
BRANCH  32  33
HETATM   33  C4  UNL     1      13.611  -3.857  -1.124  1.00  0.00    -0.127 C 
BRANCH  33  34
HETATM   34  C5  UNL     1      14.128  -3.285  -2.259  1.00  0.00     0.058 C 
HETATM   35  C6  UNL     1      15.365  -2.892  -2.546  1.00  0.00    -0.076 C 
HETATM   36  C7  UNL     1      16.525  -2.994  -1.621  1.00  0.00     0.044 C 
BRANCH  35  37
HETATM   37  C8  UNL     1      15.686  -2.378  -3.889  1.00  0.00     0.034 C 
BRANCH  37  38
HETATM   38  C9  UNL     1      14.654  -1.670  -4.665  1.00  0.00     0.008 C 
BRANCH  38  39
HETATM   39  C10 UNL     1      14.768  -0.176  -4.551  1.00  0.00    -0.023 C 
HETATM   40  C11 UNL     1      16.255   0.122  -4.330  1.00  0.00     0.009 C 
HETATM   41  C12 UNL     1      13.928   0.312  -3.380  1.00  0.00     0.009 C 
ENDBRANCH  38  39
ENDBRANCH  37  38
ENDBRANCH  35  37
ENDBRANCH  33  34
ENDBRANCH  32  33
ENDBRANCH  30  32
ENDBRANCH  28  29
ENDBRANCH   1  27
TORSDOF 15
ENDMDL
