MODEL 1
REMARK VINA RESULT: -8.768818138      0.000      0.000
REMARK  5 active torsions:
REMARK  status: ('A' for Active; 'I' for Inactive)
REMARK    1  A    between atoms: C2_2  and  C3_3 
REMARK    2  A    between atoms: C3_3  and  N1_4 
REMARK       I    between atoms: N1_4  and  C4_6 
REMARK       I    between atoms: C4_6  and  N2_8 
REMARK    3  A    between atoms: C7_11  and  C8_12 
REMARK    4  A    between atoms: C9_15  and  C10_16 
REMARK    5  A    between atoms: N4_18  and  C12_19 
ROOT
HETATM    1  C8  UNL     1      78.005  -1.656  24.407  1.00  0.00     0.152 A 
HETATM    2  N3  UNL     1      77.444  -0.752  25.234  1.00  0.00    -0.321 N 
ATOM      3  H3  UNL     1      76.759  -0.965  25.959  1.00  0.00     0.169 HD
HETATM    4  C9  UNL     1      77.923   0.473  24.958  1.00  0.00     0.156 A 
HETATM    5  N6  UNL     1      78.788   0.284  23.945  1.00  0.00    -0.241 N 
ATOM      6  H6  UNL     1      79.330   1.021  23.494  1.00  0.00     0.196 HD
HETATM    7  O2  UNL     1      78.833  -0.971  23.625  1.00  0.00    -0.222 OA
ENDROOT
BRANCH   1   8
HETATM    8  C7  UNL     1      77.771  -3.124  24.355  1.00  0.00     0.066 C 
HETATM    9  C6  UNL     1      76.412  -3.344  23.723  1.00  0.00     0.033 C 
HETATM   10  C5  UNL     1      76.177  -4.836  23.671  1.00  0.00     0.128 C 
HETATM   11  N2  UNL     1      76.086  -5.317  25.032  1.00  0.00    -0.334 N 
HETATM   12  C4  UNL     1      75.567  -6.598  25.269  1.00  0.00     0.318 C 
HETATM   13  C15 UNL     1      76.545  -4.438  26.093  1.00  0.00     0.128 C 
HETATM   14  N1  UNL     1      75.138  -7.417  24.214  1.00  0.00    -0.343 N 
HETATM   15  O1  UNL     1      75.485  -7.020  26.448  1.00  0.00    -0.247 OA
ATOM     16  H1  UNL     1      75.202  -7.080  23.252  1.00  0.00     0.164 HD
HETATM   17  C14 UNL     1      77.847  -3.759  25.727  1.00  0.00     0.033 C 
BRANCH  14  18
HETATM   18  C3  UNL     1      74.609  -8.728  24.478  1.00  0.00     0.124 C 
BRANCH  18  19
HETATM   19  C2  UNL     1      73.093  -8.713  24.568  1.00  0.00     0.015 C 
HETATM   20  C1  UNL     1      72.521  -8.159  23.298  1.00  0.00     0.006 C 
ENDBRANCH  18  19
ENDBRANCH  14  18
ENDBRANCH   1   8
BRANCH   4  21
HETATM   21  C10 UNL     1      77.605   1.748  25.590  1.00  0.00     0.095 A 
HETATM   22  C11 UNL     1      76.508   2.025  26.375  1.00  0.00     0.129 A 
HETATM   23  N4  UNL     1      76.544   3.307  26.786  1.00  0.00    -0.302 N 
HETATM   24  C13 UNL     1      77.660   3.841  26.263  1.00  0.00     0.187 A 
HETATM   25  N5  UNL     1      78.303   2.893  25.537  1.00  0.00    -0.348 N 
ATOM     26  H5  UNL     1      79.178   3.030  25.030  1.00  0.00     0.167 HD
BRANCH  23  27
HETATM   27  C12 UNL     1      75.566   3.972  27.625  1.00  0.00     0.273 C 
HETATM   28 CL1  UNL     1      75.497   5.678  27.151  1.00  0.00    -0.060 Cl
HETATM   29 CL2  UNL     1      73.999   3.157  27.367  1.00  0.00    -0.060 Cl
HETATM   30 CL3  UNL     1      76.075   3.795  29.329  1.00  0.00    -0.060 Cl
ENDBRANCH  23  27
ENDBRANCH   4  21
TORSDOF 5
ENDMDL
MODEL 2
REMARK VINA RESULT: -8.591328679      4.545      5.644
REMARK  5 active torsions:
REMARK  status: ('A' for Active; 'I' for Inactive)
REMARK    1  A    between atoms: C2_2  and  C3_3 
REMARK    2  A    between atoms: C3_3  and  N1_4 
REMARK       I    between atoms: N1_4  and  C4_6 
REMARK       I    between atoms: C4_6  and  N2_8 
REMARK    3  A    between atoms: C7_11  and  C8_12 
REMARK    4  A    between atoms: C9_15  and  C10_16 
REMARK    5  A    between atoms: N4_18  and  C12_19 
ROOT
HETATM    1  C8  UNL     1      77.773  -4.086  25.713  1.00  0.00     0.152 A 
HETATM    2  N3  UNL     1      77.650  -2.862  26.263  1.00  0.00    -0.321 N 
ATOM      3  H3  UNL     1      78.225  -2.499  27.023  1.00  0.00     0.169 HD
HETATM    4  C9  UNL     1      76.653  -2.192  25.659  1.00  0.00     0.156 A 
HETATM    5  N6  UNL     1      76.179  -3.043  24.731  1.00  0.00    -0.241 N 
ATOM      6  H6  UNL     1      75.410  -2.841  24.091  1.00  0.00     0.196 HD
HETATM    7  O2  UNL     1      76.842  -4.156  24.767  1.00  0.00    -0.222 OA
ENDROOT
BRANCH   1   8
HETATM    8  C7  UNL     1      78.739  -5.159  26.066  1.00  0.00     0.066 C 
HETATM    9  C6  UNL     1      78.553  -5.472  27.537  1.00  0.00     0.033 C 
HETATM   10  C5  UNL     1      79.536  -6.563  27.893  1.00  0.00     0.128 C 
HETATM   11  N2  UNL     1      80.869  -6.021  27.748  1.00  0.00    -0.334 N 
HETATM   12  C4  UNL     1      81.952  -6.715  28.307  1.00  0.00     0.318 C 
HETATM   13  C15 UNL     1      81.018  -4.773  27.020  1.00  0.00     0.128 C 
HETATM   14  N1  UNL     1      81.764  -7.921  29.000  1.00  0.00    -0.343 N 
HETATM   15  O1  UNL     1      83.111  -6.249  28.186  1.00  0.00    -0.247 OA
ATOM     16  H1  UNL     1      80.824  -8.306  29.102  1.00  0.00     0.164 HD
HETATM   17  C14 UNL     1      80.168  -4.756  25.769  1.00  0.00     0.033 C 
BRANCH  14  18
HETATM   18  C3  UNL     1      82.887  -8.618  29.566  1.00  0.00     0.124 C 
BRANCH  18  19
HETATM   19  C2  UNL     1      82.591 -10.094  29.764  1.00  0.00     0.015 C 
HETATM   20  C1  UNL     1      83.510 -10.909  28.907  1.00  0.00     0.006 C 
ENDBRANCH  18  19
ENDBRANCH  14  18
ENDBRANCH   1   8
BRANCH   4  21
HETATM   21  C10 UNL     1      76.162  -0.844  25.920  1.00  0.00     0.095 A 
HETATM   22  C11 UNL     1      74.958  -0.506  26.498  1.00  0.00     0.129 A 
HETATM   23  N4  UNL     1      74.844   0.834  26.579  1.00  0.00    -0.302 N 
HETATM   24  C13 UNL     1      75.970   1.343  26.054  1.00  0.00     0.187 A 
HETATM   25  N5  UNL     1      76.769   0.323  25.653  1.00  0.00    -0.348 N 
ATOM     26  H5  UNL     1      77.686   0.426  25.218  1.00  0.00     0.167 HD
BRANCH  23  27
HETATM   27  C12 UNL     1      73.722   1.572  27.126  1.00  0.00     0.273 C 
HETATM   28 CL1  UNL     1      72.395   1.513  25.953  1.00  0.00    -0.060 Cl
HETATM   29 CL2  UNL     1      73.270   0.792  28.666  1.00  0.00    -0.060 Cl
HETATM   30 CL3  UNL     1      74.247   3.255  27.423  1.00  0.00    -0.060 Cl
ENDBRANCH  23  27
ENDBRANCH   4  21
TORSDOF 5
ENDMDL
MODEL 3
REMARK VINA RESULT: -8.400190750      2.055      2.689
REMARK  5 active torsions:
REMARK  status: ('A' for Active; 'I' for Inactive)
REMARK    1  A    between atoms: C2_2  and  C3_3 
REMARK    2  A    between atoms: C3_3  and  N1_4 
REMARK       I    between atoms: N1_4  and  C4_6 
REMARK       I    between atoms: C4_6  and  N2_8 
REMARK    3  A    between atoms: C7_11  and  C8_12 
REMARK    4  A    between atoms: C9_15  and  C10_16 
REMARK    5  A    between atoms: N4_18  and  C12_19 
ROOT
HETATM    1  C8  UNL     1      77.350  -3.433  24.544  1.00  0.00     0.152 A 
HETATM    2  N3  UNL     1      76.485  -2.639  25.205  1.00  0.00    -0.321 N 
ATOM      3  H3  UNL     1      75.596  -2.943  25.604  1.00  0.00     0.169 HD
HETATM    4  C9  UNL     1      76.970  -1.387  25.260  1.00  0.00     0.156 A 
HETATM    5  N6  UNL     1      78.149  -1.446  24.615  1.00  0.00    -0.241 N 
ATOM      6  H6  UNL     1      78.780  -0.656  24.476  1.00  0.00     0.196 HD
HETATM    7  O2  UNL     1      78.368  -2.653  24.196  1.00  0.00    -0.222 OA
ENDROOT
BRANCH   1   8
HETATM    8  C7  UNL     1      77.223  -4.884  24.248  1.00  0.00     0.066 C 
HETATM    9  C6  UNL     1      76.041  -5.056  23.316  1.00  0.00     0.033 C 
HETATM   10  C5  UNL     1      75.915  -6.532  23.017  1.00  0.00     0.128 C 
HETATM   11  N2  UNL     1      75.574  -7.206  24.251  1.00  0.00    -0.334 N 
HETATM   12  C4  UNL     1      75.097  -8.524  24.200  1.00  0.00     0.318 C 
HETATM   13  C15 UNL     1      75.747  -6.473  25.493  1.00  0.00     0.128 C 
HETATM   14  N1  UNL     1      74.949  -9.196  22.977  1.00  0.00    -0.343 N 
HETATM   15  O1  UNL     1      74.799  -9.113  25.267  1.00  0.00    -0.247 OA
ATOM     16  H1  UNL     1      75.190  -8.724  22.105  1.00  0.00     0.164 HD
HETATM   17  C14 UNL     1      77.052  -5.706  25.508  1.00  0.00     0.033 C 
BRANCH  14  18
HETATM   18  C3  UNL     1      74.458 -10.548  22.946  1.00  0.00     0.124 C 
BRANCH  18  19
HETATM   19  C2  UNL     1      75.592 -11.554  22.843  1.00  0.00     0.015 C 
HETATM   20  C1  UNL     1      75.600 -12.426  24.062  1.00  0.00     0.006 C 
ENDBRANCH  18  19
ENDBRANCH  14  18
ENDBRANCH   1   8
BRANCH   4  21
HETATM   21  C10 UNL     1      76.383  -0.200  25.870  1.00  0.00     0.095 A 
HETATM   22  C11 UNL     1      75.212  -0.141  26.592  1.00  0.00     0.129 A 
HETATM   23  N4  UNL     1      74.983   1.123  27.002  1.00  0.00    -0.302 N 
HETATM   24  C13 UNL     1      76.005   1.861  26.540  1.00  0.00     0.187 A 
HETATM   25  N5  UNL     1      76.854   1.057  25.853  1.00  0.00    -0.348 N 
ATOM     26  H5  UNL     1      77.714   1.360  25.395  1.00  0.00     0.167 HD
BRANCH  23  27
HETATM   27  C12 UNL     1      73.854   1.584  27.785  1.00  0.00     0.273 C 
HETATM   28 CL1  UNL     1      74.418   2.869  28.867  1.00  0.00    -0.060 Cl
HETATM   29 CL2  UNL     1      72.621   2.185  26.642  1.00  0.00    -0.060 Cl
HETATM   30 CL3  UNL     1      73.206   0.199  28.709  1.00  0.00    -0.060 Cl
ENDBRANCH  23  27
ENDBRANCH   4  21
TORSDOF 5
ENDMDL
MODEL 4
REMARK VINA RESULT: -8.346548300      2.060      2.911
REMARK  5 active torsions:
REMARK  status: ('A' for Active; 'I' for Inactive)
REMARK    1  A    between atoms: C2_2  and  C3_3 
REMARK    2  A    between atoms: C3_3  and  N1_4 
REMARK       I    between atoms: N1_4  and  C4_6 
REMARK       I    between atoms: C4_6  and  N2_8 
REMARK    3  A    between atoms: C7_11  and  C8_12 
REMARK    4  A    between atoms: C9_15  and  C10_16 
REMARK    5  A    between atoms: N4_18  and  C12_19 
ROOT
HETATM    1  C8  UNL     1      77.161  -3.650  24.788  1.00  0.00     0.152 A 
HETATM    2  N3  UNL     1      76.373  -2.788  25.459  1.00  0.00    -0.321 N 
ATOM      3  H3  UNL     1      75.532  -3.041  25.977  1.00  0.00     0.169 HD
HETATM    4  C9  UNL     1      76.864  -1.541  25.343  1.00  0.00     0.156 A 
HETATM    5  N6  UNL     1      77.968  -1.675  24.585  1.00  0.00    -0.241 N 
ATOM      6  H6  UNL     1      78.582  -0.910  24.306  1.00  0.00     0.196 HD
HETATM    7  O2  UNL     1      78.138  -2.919  24.262  1.00  0.00    -0.222 OA
ENDROOT
BRANCH   1   8
HETATM    8  C7  UNL     1      77.001  -5.121  24.646  1.00  0.00     0.066 C 
HETATM    9  C6  UNL     1      76.114  -5.367  23.442  1.00  0.00     0.033 C 
HETATM   10  C5  UNL     1      75.953  -6.863  23.300  1.00  0.00     0.128 C 
HETATM   11  N2  UNL     1      75.227  -7.342  24.456  1.00  0.00    -0.334 N 
HETATM   12  C4  UNL     1      74.675  -8.630  24.430  1.00  0.00     0.318 C 
HETATM   13  C15 UNL     1      75.109  -6.451  25.598  1.00  0.00     0.128 C 
HETATM   14  N1  UNL     1      74.817  -9.460  23.307  1.00  0.00    -0.343 N 
HETATM   15  O1  UNL     1      74.043  -9.050  25.430  1.00  0.00    -0.247 OA
ATOM     16  H1  UNL     1      75.329  -9.125  22.491  1.00  0.00     0.164 HD
HETATM   17  C14 UNL     1      76.417  -5.751  25.893  1.00  0.00     0.033 C 
BRANCH  14  18
HETATM   18  C3  UNL     1      74.243 -10.779  23.300  1.00  0.00     0.124 C 
BRANCH  18  19
HETATM   19  C2  UNL     1      75.295 -11.849  23.533  1.00  0.00     0.015 C 
HETATM   20  C1  UNL     1      75.130 -12.423  24.908  1.00  0.00     0.006 C 
ENDBRANCH  18  19
ENDBRANCH  14  18
ENDBRANCH   1   8
BRANCH   4  21
HETATM   21  C10 UNL     1      76.348  -0.295  25.897  1.00  0.00     0.095 A 
HETATM   22  C11 UNL     1      75.223  -0.147  26.678  1.00  0.00     0.129 A 
HETATM   23  N4  UNL     1      75.056   1.150  27.006  1.00  0.00    -0.302 N 
HETATM   24  C13 UNL     1      76.069   1.819  26.436  1.00  0.00     0.187 A 
HETATM   25  N5  UNL     1      76.854   0.941  25.762  1.00  0.00    -0.348 N 
ATOM     26  H5  UNL     1      77.694   1.182  25.235  1.00  0.00     0.167 HD
BRANCH  23  27
HETATM   27  C12 UNL     1      73.987   1.702  27.815  1.00  0.00     0.273 C 
HETATM   28 CL1  UNL     1      73.262   0.383  28.752  1.00  0.00    -0.060 Cl
HETATM   29 CL2  UNL     1      74.709   2.940  28.879  1.00  0.00    -0.060 Cl
HETATM   30 CL3  UNL     1      72.788   2.456  26.726  1.00  0.00    -0.060 Cl
ENDBRANCH  23  27
ENDBRANCH   4  21
TORSDOF 5
ENDMDL
MODEL 5
REMARK VINA RESULT: -8.095770590      7.191      9.316
REMARK  5 active torsions:
REMARK  status: ('A' for Active; 'I' for Inactive)
REMARK    1  A    between atoms: C2_2  and  C3_3 
REMARK    2  A    between atoms: C3_3  and  N1_4 
REMARK       I    between atoms: N1_4  and  C4_6 
REMARK       I    between atoms: C4_6  and  N2_8 
REMARK    3  A    between atoms: C7_11  and  C8_12 
REMARK    4  A    between atoms: C9_15  and  C10_16 
REMARK    5  A    between atoms: N4_18  and  C12_19 
ROOT
HETATM    1  C8  UNL     1      78.848  -5.031  27.729  1.00  0.00     0.152 A 
HETATM    2  N3  UNL     1      79.790  -5.994  27.678  1.00  0.00    -0.321 N 
ATOM      3  H3  UNL     1      79.942  -6.626  26.892  1.00  0.00     0.169 HD
HETATM    4  C9  UNL     1      80.498  -5.995  28.821  1.00  0.00     0.156 A 
HETATM    5  N6  UNL     1      79.960  -5.009  29.561  1.00  0.00    -0.241 N 
ATOM      6  H6  UNL     1      80.271  -4.744  30.496  1.00  0.00     0.196 HD
HETATM    7  O2  UNL     1      78.990  -4.445  28.914  1.00  0.00    -0.222 OA
ENDROOT
BRANCH   1   8
HETATM    8  C7  UNL     1      77.844  -4.672  26.693  1.00  0.00     0.066 C 
HETATM    9  C6  UNL     1      77.288  -5.965  26.133  1.00  0.00     0.033 C 
HETATM   10  C5  UNL     1      76.268  -5.597  25.081  1.00  0.00     0.128 C 
HETATM   11  N2  UNL     1      76.967  -4.940  23.997  1.00  0.00    -0.334 N 
HETATM   12  C4  UNL     1      76.316  -4.774  22.767  1.00  0.00     0.318 C 
HETATM   13  C15 UNL     1      78.322  -4.480  24.247  1.00  0.00     0.128 C 
HETATM   14  N1  UNL     1      75.004  -5.231  22.570  1.00  0.00    -0.343 N 
HETATM   15  O1  UNL     1      76.918  -4.206  21.823  1.00  0.00    -0.247 OA
ATOM     16  H1  UNL     1      74.508  -5.693  23.332  1.00  0.00     0.164 HD
HETATM   17  C14 UNL     1      78.441  -3.813  25.600  1.00  0.00     0.033 C 
BRANCH  14  18
HETATM   18  C3  UNL     1      74.354  -5.051  21.300  1.00  0.00     0.124 C 
BRANCH  18  19
HETATM   19  C2  UNL     1      73.602  -3.732  21.236  1.00  0.00     0.015 C 
HETATM   20  C1  UNL     1      72.306  -3.930  20.508  1.00  0.00     0.006 C 
ENDBRANCH  18  19
ENDBRANCH  14  18
ENDBRANCH   1   8
BRANCH   4  21
HETATM   21  C10 UNL     1      81.609  -6.855  29.212  1.00  0.00     0.095 A 
HETATM   22  C11 UNL     1      82.237  -7.796  28.425  1.00  0.00     0.129 A 
HETATM   23  N4  UNL     1      83.220  -8.400  29.122  1.00  0.00    -0.302 N 
HETATM   24  C13 UNL     1      83.215  -7.844  30.344  1.00  0.00     0.187 A 
HETATM   25  N5  UNL     1      82.236  -6.907  30.398  1.00  0.00    -0.348 N 
ATOM     26  H5  UNL     1      82.011  -6.333  31.211  1.00  0.00     0.167 HD
BRANCH  23  27
HETATM   27  C12 UNL     1      84.103  -9.443  28.638  1.00  0.00     0.273 C 
HETATM   28 CL1  UNL     1      83.247 -10.991  28.753  1.00  0.00    -0.060 Cl
HETATM   29 CL2  UNL     1      84.518  -9.050  26.947  1.00  0.00    -0.060 Cl
HETATM   30 CL3  UNL     1      85.578  -9.444  29.646  1.00  0.00    -0.060 Cl
ENDBRANCH  23  27
ENDBRANCH   4  21
TORSDOF 5
ENDMDL
