MODEL 1
REMARK VINA RESULT: -4.604751238      0.000      0.000
REMARK  4 active torsions:
REMARK  status: ('A' for Active; 'I' for Inactive)
REMARK    1  A    between atoms: N1_1  and  C1_5 
REMARK    2  A    between atoms: C1_5  and  C2_6 
REMARK    3  A    between atoms: C2_6  and  N2_7 
REMARK       I    between atoms: C3_9  and  N4_11 
REMARK    4  A    between atoms: C5_13  and  N5_14 
ROOT
HETATM    1  N2  UNL     1      77.250  26.290  42.822  1.00  0.00    -0.363 N 
ATOM      2  H2  UNL     1      76.908  27.230  42.623  1.00  0.00     0.162 HD
HETATM    3  C3  UNL     1      77.835  25.635  41.882  1.00  0.00     0.186 C 
HETATM    4  N3  UNL     1      78.307  24.322  42.181  1.00  0.00    -0.064 NA
HETATM    5  N4  UNL     1      77.994  26.216  40.610  1.00  0.00    -0.349 N 
HETATM    6  C4  UNL     1      78.940  27.256  40.291  1.00  0.00     0.159 C 
HETATM    7  C5  UNL     1      78.655  27.667  38.864  1.00  0.00     0.207 C 
HETATM    8  C6  UNL     1      77.746  26.639  38.293  1.00  0.00     0.042 A 
HETATM    9  C7  UNL     1      78.047  25.190  38.353  1.00  0.00     0.034 A 
HETATM   10  C8  UNL     1      77.244  25.868  39.443  1.00  0.00     0.093 A 
ENDROOT
BRANCH   1  11
HETATM   11  C2  UNL     1      77.055  25.749  44.149  1.00  0.00     0.149 C 
BRANCH  11  12
HETATM   12  C1  UNL     1      75.909  26.448  44.880  1.00  0.00     0.249 C 
BRANCH  12  13
HETATM   13  N1  UNL     1      75.190  27.212  43.889  1.00  0.00    -0.078 N 
ATOM     14  H13 UNL     1      75.802  27.704  43.238  1.00  0.00     0.274 HD
ATOM     15  H12 UNL     1      74.712  26.630  43.200  1.00  0.00     0.274 HD
ATOM     16  H11 UNL     1      74.560  27.833  44.397  1.00  0.00     0.274 HD
ENDBRANCH  12  13
ENDBRANCH  11  12
ENDBRANCH   1  11
BRANCH   7  17
HETATM   17  N5  UNL     1      77.974  28.951  38.818  1.00  0.00    -0.073 N 
ATOM     18  H53 UNL     1      77.526  29.173  39.707  1.00  0.00     0.274 HD
ATOM     19  H52 UNL     1      78.635  29.728  38.779  1.00  0.00     0.274 HD
ATOM     20  H51 UNL     1      77.310  28.985  38.045  1.00  0.00     0.274 HD
ENDBRANCH   7  17
TORSDOF 4
ENDMDL
MODEL 2
REMARK VINA RESULT: -4.333278843      1.596      2.720
REMARK  4 active torsions:
REMARK  status: ('A' for Active; 'I' for Inactive)
REMARK    1  A    between atoms: N1_1  and  C1_5 
REMARK    2  A    between atoms: C1_5  and  C2_6 
REMARK    3  A    between atoms: C2_6  and  N2_7 
REMARK       I    between atoms: C3_9  and  N4_11 
REMARK    4  A    between atoms: C5_13  and  N5_14 
ROOT
HETATM    1  N2  UNL     1      76.879  26.825  42.077  1.00  0.00    -0.363 N 
ATOM      2  H2  UNL     1      77.332  25.916  42.167  1.00  0.00     0.162 HD
HETATM    3  C3  UNL     1      76.950  27.439  40.949  1.00  0.00     0.186 C 
HETATM    4  N3  UNL     1      76.308  28.710  40.842  1.00  0.00    -0.064 NA
HETATM    5  N4  UNL     1      77.643  26.858  39.870  1.00  0.00    -0.349 N 
HETATM    6  C4  UNL     1      77.162  25.750  39.083  1.00  0.00     0.159 C 
HETATM    7  C5  UNL     1      78.287  25.375  38.146  1.00  0.00     0.207 C 
HETATM    8  C6  UNL     1      79.285  26.475  38.208  1.00  0.00     0.042 A 
HETATM    9  C7  UNL     1      78.915  27.895  38.011  1.00  0.00     0.034 A 
HETATM   10  C8  UNL     1      78.925  27.273  39.392  1.00  0.00     0.093 A 
ENDROOT
BRANCH   1  11
HETATM   11  C2  UNL     1      76.183  27.368  43.222  1.00  0.00     0.149 C 
BRANCH  11  12
HETATM   12  C1  UNL     1      76.155  26.378  44.386  1.00  0.00     0.249 C 
BRANCH  12  13
HETATM   13  N1  UNL     1      77.254  25.465  44.181  1.00  0.00    -0.078 N 
ATOM     14  H13 UNL     1      78.151  25.839  44.491  1.00  0.00     0.274 HD
ATOM     15  H12 UNL     1      77.228  24.658  44.803  1.00  0.00     0.274 HD
ATOM     16  H11 UNL     1      77.243  25.211  43.192  1.00  0.00     0.274 HD
ENDBRANCH  12  13
ENDBRANCH  11  12
ENDBRANCH   1  11
BRANCH   7  17
HETATM   17  N5  UNL     1      78.938  24.148  38.579  1.00  0.00    -0.073 N 
ATOM     18  H53 UNL     1      79.698  24.335  39.234  1.00  0.00     0.274 HD
ATOM     19  H52 UNL     1      78.336  23.598  39.193  1.00  0.00     0.274 HD
ATOM     20  H51 UNL     1      79.258  23.601  37.780  1.00  0.00     0.274 HD
ENDBRANCH   7  17
TORSDOF 4
ENDMDL
MODEL 3
REMARK VINA RESULT: -4.056659632      1.212      2.253
REMARK  4 active torsions:
REMARK  status: ('A' for Active; 'I' for Inactive)
REMARK    1  A    between atoms: N1_1  and  C1_5 
REMARK    2  A    between atoms: C1_5  and  C2_6 
REMARK    3  A    between atoms: C2_6  and  N2_7 
REMARK       I    between atoms: C3_9  and  N4_11 
REMARK    4  A    between atoms: C5_13  and  N5_14 
ROOT
HETATM    1  N2  UNL     1      77.910  25.879  42.798  1.00  0.00    -0.363 N 
ATOM      2  H2  UNL     1      78.529  25.127  42.495  1.00  0.00     0.162 HD
HETATM    3  C3  UNL     1      77.419  26.669  41.909  1.00  0.00     0.186 C 
HETATM    4  N3  UNL     1      76.555  27.715  42.354  1.00  0.00    -0.064 NA
HETATM    5  N4  UNL     1      77.737  26.488  40.550  1.00  0.00    -0.349 N 
HETATM    6  C4  UNL     1      77.211  25.438  39.714  1.00  0.00     0.159 C 
HETATM    7  C5  UNL     1      77.935  25.546  38.391  1.00  0.00     0.207 C 
HETATM    8  C6  UNL     1      78.648  26.851  38.395  1.00  0.00     0.042 A 
HETATM    9  C7  UNL     1      77.965  28.128  38.705  1.00  0.00     0.034 A 
HETATM   10  C8  UNL     1      78.628  27.312  39.793  1.00  0.00     0.093 A 
ENDROOT
BRANCH   1  11
HETATM   11  C2  UNL     1      77.622  26.013  44.209  1.00  0.00     0.149 C 
BRANCH  11  12
HETATM   12  C1  UNL     1      76.126  25.880  44.493  1.00  0.00     0.249 C 
BRANCH  12  13
HETATM   13  N1  UNL     1      75.705  27.126  45.086  1.00  0.00    -0.078 N 
ATOM     14  H13 UNL     1      76.305  27.432  45.851  1.00  0.00     0.274 HD
ATOM     15  H12 UNL     1      75.852  27.932  44.477  1.00  0.00     0.274 HD
ATOM     16  H11 UNL     1      74.730  27.005  45.363  1.00  0.00     0.274 HD
ENDBRANCH  12  13
ENDBRANCH  11  12
ENDBRANCH   1  11
BRANCH   7  17
HETATM   17  N5  UNL     1      78.926  24.490  38.251  1.00  0.00    -0.073 N 
ATOM     18  H53 UNL     1      79.294  24.196  39.155  1.00  0.00     0.274 HD
ATOM     19  H52 UNL     1      78.499  23.609  37.964  1.00  0.00     0.274 HD
ATOM     20  H51 UNL     1      79.672  24.770  37.615  1.00  0.00     0.274 HD
ENDBRANCH   7  17
TORSDOF 4
ENDMDL
MODEL 4
REMARK VINA RESULT: -3.890409356      1.930      3.513
REMARK  4 active torsions:
REMARK  status: ('A' for Active; 'I' for Inactive)
REMARK    1  A    between atoms: N1_1  and  C1_5 
REMARK    2  A    between atoms: C1_5  and  C2_6 
REMARK    3  A    between atoms: C2_6  and  N2_7 
REMARK       I    between atoms: C3_9  and  N4_11 
REMARK    4  A    between atoms: C5_13  and  N5_14 
ROOT
HETATM    1  N2  UNL     1      78.455  25.057  41.234  1.00  0.00    -0.363 N 
ATOM      2  H2  UNL     1      79.153  25.161  40.497  1.00  0.00     0.162 HD
HETATM    3  C3  UNL     1      77.499  25.915  41.303  1.00  0.00     0.186 C 
HETATM    4  N3  UNL     1      76.533  25.752  42.341  1.00  0.00    -0.064 NA
HETATM    5  N4  UNL     1      77.429  26.970  40.374  1.00  0.00    -0.349 N 
HETATM    6  C4  UNL     1      77.024  26.831  38.998  1.00  0.00     0.159 C 
HETATM    7  C5  UNL     1      77.241  28.181  38.353  1.00  0.00     0.207 C 
HETATM    8  C6  UNL     1      77.482  29.151  39.453  1.00  0.00     0.042 A 
HETATM    9  C7  UNL     1      76.567  29.284  40.610  1.00  0.00     0.034 A 
HETATM   10  C8  UNL     1      77.747  28.337  40.651  1.00  0.00     0.093 A 
ENDROOT
BRANCH   1  11
HETATM   11  C2  UNL     1      78.584  23.952  42.158  1.00  0.00     0.149 C 
BRANCH  11  12
HETATM   12  C1  UNL     1      79.924  23.234  41.995  1.00  0.00     0.249 C 
BRANCH  12  13
HETATM   13  N1  UNL     1      79.868  22.532  40.736  1.00  0.00    -0.078 N 
ATOM     14  H13 UNL     1      78.922  22.262  40.467  1.00  0.00     0.274 HD
ATOM     15  H12 UNL     1      80.064  23.130  39.932  1.00  0.00     0.274 HD
ATOM     16  H11 UNL     1      80.506  21.740  40.813  1.00  0.00     0.274 HD
ENDBRANCH  12  13
ENDBRANCH  11  12
ENDBRANCH   1  11
BRANCH   7  17
HETATM   17  N5  UNL     1      78.417  28.166  37.496  1.00  0.00    -0.073 N 
ATOM     18  H53 UNL     1      78.829  29.094  37.406  1.00  0.00     0.274 HD
ATOM     19  H52 UNL     1      79.202  27.690  37.941  1.00  0.00     0.274 HD
ATOM     20  H51 UNL     1      78.201  27.761  36.585  1.00  0.00     0.274 HD
ENDBRANCH   7  17
TORSDOF 4
ENDMDL
MODEL 5
REMARK VINA RESULT: -3.740639589      0.983      1.106
REMARK  4 active torsions:
REMARK  status: ('A' for Active; 'I' for Inactive)
REMARK    1  A    between atoms: N1_1  and  C1_5 
REMARK    2  A    between atoms: C1_5  and  C2_6 
REMARK    3  A    between atoms: C2_6  and  N2_7 
REMARK       I    between atoms: C3_9  and  N4_11 
REMARK    4  A    between atoms: C5_13  and  N5_14 
ROOT
HETATM    1  N2  UNL     1      76.220  26.312  42.123  1.00  0.00    -0.363 N 
ATOM      2  H2  UNL     1      75.913  27.184  41.694  1.00  0.00     0.162 HD
HETATM    3  C3  UNL     1      77.157  25.641  41.551  1.00  0.00     0.186 C 
HETATM    4  N3  UNL     1      77.574  24.423  42.167  1.00  0.00    -0.064 NA
HETATM    5  N4  UNL     1      77.735  26.112  40.357  1.00  0.00    -0.349 N 
HETATM    6  C4  UNL     1      78.657  27.216  40.268  1.00  0.00     0.159 C 
HETATM    7  C5  UNL     1      78.894  27.454  38.794  1.00  0.00     0.207 C 
HETATM    8  C6  UNL     1      78.335  26.280  38.073  1.00  0.00     0.042 A 
HETATM    9  C7  UNL     1      78.693  24.887  38.425  1.00  0.00     0.034 A 
HETATM   10  C8  UNL     1      77.498  25.571  39.054  1.00  0.00     0.093 A 
ENDROOT
BRANCH   1  11
HETATM   11  C2  UNL     1      75.586  25.882  43.349  1.00  0.00     0.149 C 
BRANCH  11  12
HETATM   12  C1  UNL     1      76.243  26.516  44.576  1.00  0.00     0.249 C 
BRANCH  12  13
HETATM   13  N1  UNL     1      77.352  25.666  44.937  1.00  0.00    -0.078 N 
ATOM     14  H13 UNL     1      77.122  24.992  45.667  1.00  0.00     0.274 HD
ATOM     15  H12 UNL     1      77.595  24.991  44.212  1.00  0.00     0.274 HD
ATOM     16  H11 UNL     1      78.125  26.283  45.187  1.00  0.00     0.274 HD
ENDBRANCH  12  13
ENDBRANCH  11  12
ENDBRANCH   1  11
BRANCH   7  17
HETATM   17  N5  UNL     1      78.191  28.643  38.338  1.00  0.00    -0.073 N 
ATOM     18  H53 UNL     1      78.377  28.836  37.354  1.00  0.00     0.274 HD
ATOM     19  H52 UNL     1      77.185  28.486  38.278  1.00  0.00     0.274 HD
ATOM     20  H51 UNL     1      78.411  29.446  38.926  1.00  0.00     0.274 HD
ENDBRANCH   7  17
TORSDOF 4
ENDMDL
