MODEL 1
REMARK VINA RESULT: -4.683070565      0.000      0.000
REMARK  5 active torsions:
REMARK  status: ('A' for Active; 'I' for Inactive)
REMARK    1  A    between atoms: C2_2  and  O1_3 
REMARK    2  A    between atoms: C5_7  and  N1_8 
REMARK    3  A    between atoms: N1_8  and  C6_10 
REMARK    4  A    between atoms: C7_13  and  O2_14 
REMARK    5  A    between atoms: O2_14  and  C8_15 
ROOT
HETATM    1  C6  UNL     1      39.487   9.785 -11.460  1.00  0.00     0.680 A 
HETATM    2  N2  UNL     1      40.628   9.394 -12.064  1.00  0.00    -0.169 N 
ATOM      3  H2  UNL     1      40.934   9.867 -12.914  1.00  0.00     0.186 HD
HETATM    4  C7  UNL     1      41.363   8.392 -11.562  1.00  0.00     0.176 A 
HETATM    5  C15 UNL     1      40.988   7.722 -10.414  1.00  0.00     0.078 A 
HETATM    6 BR1  UNL     1      42.023   6.294  -9.687  1.00  0.00    -0.045 Br
HETATM    7  C16 UNL     1      39.825   8.119  -9.798  1.00  0.00     0.129 A 
HETATM    8  N4  UNL     1      39.124   9.130 -10.343  1.00  0.00    -0.201 N 
ATOM      9  H4  UNL     1      38.263   9.418  -9.880  1.00  0.00     0.183 HD
ENDROOT
BRANCH   4  10
HETATM   10  O2  UNL     1      42.543   7.972 -12.166  1.00  0.00    -0.329 OA
BRANCH  10  11
HETATM   11  C8  UNL     1      42.984   8.490 -13.415  1.00  0.00     0.132 C 
HETATM   12  C9  UNL     1      44.448   8.826 -13.249  1.00  0.00     0.032 C 
HETATM   13  C10 UNL     1      44.936   9.855 -14.215  1.00  0.00     0.004 C 
HETATM   14  C11 UNL     1      45.657   9.192 -15.366  1.00  0.00     0.027 C 
HETATM   15  C12 UNL     1      44.697   9.078 -16.515  1.00  0.00     0.232 C 
HETATM   16  N3  UNL     1      43.352   9.205 -16.046  1.00  0.00    -0.075 N 
HETATM   17  C13 UNL     1      42.699   7.953 -15.853  1.00  0.00     0.235 C 
ATOM     18  H32 UNL     1      43.317   9.766 -15.195  1.00  0.00     0.277 HD
ATOM     19  H31 UNL     1      42.809   9.805 -16.666  1.00  0.00     0.277 HD
HETATM   20  C14 UNL     1      42.730   7.443 -14.451  1.00  0.00     0.060 C 
ENDBRANCH  10  11
ENDBRANCH   4  10
BRANCH   1  21
HETATM   21  N1  UNL     1      38.809  10.742 -11.964  1.00  0.00    -0.221 N 
ATOM     22  H1  UNL     1      37.825  10.838 -11.714  1.00  0.00     0.178 HD
BRANCH  21  23
HETATM   23  C5  UNL     1      39.394  11.681 -12.868  1.00  0.00     0.102 C 
HETATM   24  C4  UNL     1      38.582  11.922 -14.100  1.00  0.00     0.029 C 
HETATM   25  C3  UNL     1      37.730  13.133 -13.818  1.00  0.00     0.039 C 
HETATM   26  C2  UNL     1      38.599  13.974 -12.928  1.00  0.00     0.056 C 
HETATM   27  C1  UNL     1      37.754  14.735 -11.947  1.00  0.00     0.045 C 
HETATM   28  C17 UNL     1      39.535  13.042 -12.219  1.00  0.00     0.063 C 
BRANCH  26  29
HETATM   29  O1  UNL     1      39.304  14.929 -13.692  1.00  0.00    -0.390 OA
ATOM     30  H1  UNL     1      39.493  14.527 -14.532  1.00  0.00     0.210 HD
ENDBRANCH  26  29
ENDBRANCH  21  23
ENDBRANCH   1  21
TORSDOF 5
ENDMDL
MODEL 2
REMARK VINA RESULT: -4.575443294      1.163      1.634
REMARK  5 active torsions:
REMARK  status: ('A' for Active; 'I' for Inactive)
REMARK    1  A    between atoms: C2_2  and  O1_3 
REMARK    2  A    between atoms: C5_7  and  N1_8 
REMARK    3  A    between atoms: N1_8  and  C6_10 
REMARK    4  A    between atoms: C7_13  and  O2_14 
REMARK    5  A    between atoms: O2_14  and  C8_15 
ROOT
HETATM    1  C6  UNL     1      39.405  10.605 -12.768  1.00  0.00     0.680 A 
HETATM    2  N2  UNL     1      40.584  10.014 -13.054  1.00  0.00    -0.169 N 
ATOM      3  H2  UNL     1      41.099  10.295 -13.888  1.00  0.00     0.186 HD
HETATM    4  C7  UNL     1      41.085   9.060 -12.255  1.00  0.00     0.176 A 
HETATM    5  C15 UNL     1      40.424   8.646 -11.116  1.00  0.00     0.078 A 
HETATM    6 BR1  UNL     1      41.123   7.292  -9.971  1.00  0.00    -0.045 Br
HETATM    7  C16 UNL     1      39.222   9.249 -10.825  1.00  0.00     0.129 A 
HETATM    8  N4  UNL     1      38.764  10.199 -11.659  1.00  0.00    -0.201 N 
ATOM      9  H4  UNL     1      37.872  10.640 -11.436  1.00  0.00     0.183 HD
ENDROOT
BRANCH   4  10
HETATM   10  O2  UNL     1      42.297   8.437 -12.528  1.00  0.00    -0.329 OA
BRANCH  10  11
HETATM   11  C8  UNL     1      42.951   8.561 -13.786  1.00  0.00     0.132 C 
HETATM   12  C9  UNL     1      44.374   8.978 -13.492  1.00  0.00     0.032 C 
HETATM   13  C10 UNL     1      45.037   9.676 -14.634  1.00  0.00     0.004 C 
HETATM   14  C11 UNL     1      45.925   8.715 -15.390  1.00  0.00     0.027 C 
HETATM   15  C12 UNL     1      45.167   8.223 -16.590  1.00  0.00     0.232 C 
HETATM   16  N3  UNL     1      43.766   8.446 -16.411  1.00  0.00    -0.075 N 
HETATM   17  C13 UNL     1      43.064   7.293 -15.952  1.00  0.00     0.235 C 
ATOM     18  H32 UNL     1      43.601   9.239 -15.791  1.00  0.00     0.277 HD
ATOM     19  H31 UNL     1      43.346   8.809 -17.266  1.00  0.00     0.277 HD
HETATM   20  C14 UNL     1      42.851   7.239 -14.476  1.00  0.00     0.060 C 
ENDBRANCH  10  11
ENDBRANCH   4  10
BRANCH   1  21
HETATM   21  N1  UNL     1      38.955  11.509 -13.549  1.00  0.00    -0.221 N 
ATOM     22  H1  UNL     1      39.100  11.413 -14.554  1.00  0.00     0.178 HD
BRANCH  21  23
HETATM   23  C5  UNL     1      38.253  12.650 -13.053  1.00  0.00     0.102 C 
HETATM   24  C4  UNL     1      39.119  13.618 -12.312  1.00  0.00     0.029 C 
HETATM   25  C3  UNL     1      39.549  14.657 -13.315  1.00  0.00     0.039 C 
HETATM   26  C2  UNL     1      38.369  14.765 -14.237  1.00  0.00     0.056 C 
HETATM   27  C1  UNL     1      38.829  15.073 -15.634  1.00  0.00     0.045 C 
HETATM   28  C17 UNL     1      37.649  13.452 -14.186  1.00  0.00     0.063 C 
BRANCH  26  29
HETATM   29  O1  UNL     1      37.531  15.828 -13.836  1.00  0.00    -0.390 OA
ATOM     30  H1  UNL     1      37.083  15.545 -13.048  1.00  0.00     0.210 HD
ENDBRANCH  26  29
ENDBRANCH  21  23
ENDBRANCH   1  21
TORSDOF 5
ENDMDL
MODEL 3
REMARK VINA RESULT: -4.508296751      5.073      8.978
REMARK  5 active torsions:
REMARK  status: ('A' for Active; 'I' for Inactive)
REMARK    1  A    between atoms: C2_2  and  O1_3 
REMARK    2  A    between atoms: C5_7  and  N1_8 
REMARK    3  A    between atoms: N1_8  and  C6_10 
REMARK    4  A    between atoms: C7_13  and  O2_14 
REMARK    5  A    between atoms: O2_14  and  C8_15 
ROOT
HETATM    1  C6  UNL     1      40.902  13.007 -19.213  1.00  0.00     0.680 A 
HETATM    2  N2  UNL     1      40.538  13.537 -18.027  1.00  0.00    -0.169 N 
ATOM      3  H2  UNL     1      41.088  13.330 -17.193  1.00  0.00     0.186 HD
HETATM    4  C7  UNL     1      39.462  14.332 -17.931  1.00  0.00     0.176 A 
HETATM    5  C15 UNL     1      38.687  14.640 -19.032  1.00  0.00     0.078 A 
HETATM    6 BR1  UNL     1      37.155  15.769 -18.912  1.00  0.00    -0.045 Br
HETATM    7  C16 UNL     1      39.058  14.099 -20.241  1.00  0.00     0.129 A 
HETATM    8  N4  UNL     1      40.145  13.308 -20.282  1.00  0.00    -0.201 N 
ATOM      9  H4  UNL     1      40.412  12.911 -21.182  1.00  0.00     0.183 HD
ENDROOT
BRANCH   4  10
HETATM   10  O2  UNL     1      39.067  14.891 -16.721  1.00  0.00    -0.329 OA
BRANCH  10  11
HETATM   11  C8  UNL     1      39.069  14.152 -15.505  1.00  0.00     0.132 C 
HETATM   12  C9  UNL     1      39.019  15.165 -14.385  1.00  0.00     0.032 C 
HETATM   13  C10 UNL     1      39.557  14.649 -13.091  1.00  0.00     0.004 C 
HETATM   14  C11 UNL     1      38.423  14.225 -12.186  1.00  0.00     0.027 C 
HETATM   15  C12 UNL     1      38.260  12.737 -12.307  1.00  0.00     0.232 C 
HETATM   16  N3  UNL     1      38.882  12.271 -13.507  1.00  0.00    -0.075 N 
HETATM   17  C13 UNL     1      37.966  12.091 -14.585  1.00  0.00     0.235 C 
ATOM     18  H32 UNL     1      39.647  12.887 -13.781  1.00  0.00     0.277 HD
ATOM     19  H31 UNL     1      39.408  11.415 -13.332  1.00  0.00     0.277 HD
HETATM   20  C14 UNL     1      37.885  13.240 -15.533  1.00  0.00     0.060 C 
ENDBRANCH  10  11
ENDBRANCH   4  10
BRANCH   1  21
HETATM   21  N1  UNL     1      41.930  12.253 -19.270  1.00  0.00    -0.221 N 
ATOM     22  H1  UNL     1      42.025  11.601 -20.048  1.00  0.00     0.178 HD
BRANCH  21  23
HETATM   23  C5  UNL     1      42.953  12.300 -18.273  1.00  0.00     0.102 C 
HETATM   24  C4  UNL     1      43.544  10.966 -17.949  1.00  0.00     0.029 C 
HETATM   25  C3  UNL     1      44.770  10.823 -18.813  1.00  0.00     0.039 C 
HETATM   26  C2  UNL     1      45.291  12.227 -18.918  1.00  0.00     0.056 C 
HETATM   27  C1  UNL     1      45.937  12.442 -20.258  1.00  0.00     0.045 C 
HETATM   28  C17 UNL     1      44.121  13.146 -18.734  1.00  0.00     0.063 C 
BRANCH  26  29
HETATM   29  O1  UNL     1      46.284  12.456 -17.942  1.00  0.00    -0.390 OA
ATOM     30  H1  UNL     1      47.096  12.101 -18.284  1.00  0.00     0.210 HD
ENDBRANCH  26  29
ENDBRANCH  21  23
ENDBRANCH   1  21
TORSDOF 5
ENDMDL
MODEL 4
REMARK VINA RESULT: -4.470540712      1.474      1.761
REMARK  5 active torsions:
REMARK  status: ('A' for Active; 'I' for Inactive)
REMARK    1  A    between atoms: C2_2  and  O1_3 
REMARK    2  A    between atoms: C5_7  and  N1_8 
REMARK    3  A    between atoms: N1_8  and  C6_10 
REMARK    4  A    between atoms: C7_13  and  O2_14 
REMARK    5  A    between atoms: O2_14  and  C8_15 
ROOT
HETATM    1  C6  UNL     1      39.818  10.461 -12.486  1.00  0.00     0.680 A 
HETATM    2  N2  UNL     1      40.654   9.906 -13.388  1.00  0.00    -0.169 N 
ATOM      3  H2  UNL     1      40.704  10.291 -14.331  1.00  0.00     0.186 HD
HETATM    4  C7  UNL     1      41.418   8.854 -13.059  1.00  0.00     0.176 A 
HETATM    5  C15 UNL     1      41.384   8.299 -11.795  1.00  0.00     0.078 A 
HETATM    6 BR1  UNL     1      42.464   6.804 -11.313  1.00  0.00    -0.045 Br
HETATM    7  C16 UNL     1      40.531   8.865 -10.877  1.00  0.00     0.129 A 
HETATM    8  N4  UNL     1      39.786   9.918 -11.257  1.00  0.00    -0.201 N 
ATOM      9  H4  UNL     1      39.157  10.331 -10.569  1.00  0.00     0.183 HD
ENDROOT
BRANCH   4  10
HETATM   10  O2  UNL     1      42.288   8.265 -13.970  1.00  0.00    -0.329 OA
BRANCH  10  11
HETATM   11  C8  UNL     1      43.139   9.032 -14.814  1.00  0.00     0.132 C 
HETATM   12  C9  UNL     1      44.555   8.753 -14.363  1.00  0.00     0.032 C 
HETATM   13  C10 UNL     1      45.519   9.835 -14.726  1.00  0.00     0.004 C 
HETATM   14  C11 UNL     1      46.291   9.452 -15.968  1.00  0.00     0.027 C 
HETATM   15  C12 UNL     1      45.642  10.120 -17.146  1.00  0.00     0.232 C 
HETATM   16  N3  UNL     1      44.309  10.515 -16.814  1.00  0.00    -0.075 N 
HETATM   17  C13 UNL     1      43.318   9.591 -17.257  1.00  0.00     0.235 C 
ATOM     18  H32 UNL     1      44.221  10.687 -15.812  1.00  0.00     0.277 HD
ATOM     19  H31 UNL     1      44.112  11.453 -17.164  1.00  0.00     0.277 HD
HETATM   20  C14 UNL     1      42.872   8.612 -16.223  1.00  0.00     0.060 C 
ENDBRANCH  10  11
ENDBRANCH   4  10
BRANCH   1  21
HETATM   21  N1  UNL     1      39.103  11.461 -12.831  1.00  0.00    -0.221 N 
ATOM     22  H1  UNL     1      38.665  11.464 -13.752  1.00  0.00     0.178 HD
BRANCH  21  23
HETATM   23  C5  UNL     1      38.899  12.575 -11.960  1.00  0.00     0.102 C 
HETATM   24  C4  UNL     1      39.681  13.791 -12.339  1.00  0.00     0.029 C 
HETATM   25  C3  UNL     1      38.767  14.635 -13.190  1.00  0.00     0.039 C 
HETATM   26  C2  UNL     1      37.407  14.376 -12.609  1.00  0.00     0.056 C 
HETATM   27  C1  UNL     1      36.363  14.431 -13.688  1.00  0.00     0.045 C 
HETATM   28  C17 UNL     1      37.451  13.018 -11.975  1.00  0.00     0.063 C 
BRANCH  26  29
HETATM   29  O1  UNL     1      37.078  15.374 -11.667  1.00  0.00    -0.390 OA
ATOM     30  H1  UNL     1      37.820  15.965 -11.619  1.00  0.00     0.210 HD
ENDBRANCH  26  29
ENDBRANCH  21  23
ENDBRANCH   1  21
TORSDOF 5
ENDMDL
MODEL 5
REMARK VINA RESULT: -4.380174231      5.525      7.130
REMARK  5 active torsions:
REMARK  status: ('A' for Active; 'I' for Inactive)
REMARK    1  A    between atoms: C2_2  and  O1_3 
REMARK    2  A    between atoms: C5_7  and  N1_8 
REMARK    3  A    between atoms: N1_8  and  C6_10 
REMARK    4  A    between atoms: C7_13  and  O2_14 
REMARK    5  A    between atoms: O2_14  and  C8_15 
ROOT
HETATM    1  C6  UNL     1      38.698  15.255 -16.614  1.00  0.00     0.680 A 
HETATM    2  N2  UNL     1      39.507  14.416 -17.295  1.00  0.00    -0.169 N 
ATOM      3  H2  UNL     1      40.227  13.895 -16.795  1.00  0.00     0.186 HD
HETATM    4  C7  UNL     1      39.377  14.260 -18.620  1.00  0.00     0.176 A 
HETATM    5  C15 UNL     1      38.417  14.945 -19.340  1.00  0.00     0.078 A 
HETATM    6 BR1  UNL     1      38.219  14.734 -21.225  1.00  0.00    -0.045 Br
HETATM    7  C16 UNL     1      37.593  15.799 -18.646  1.00  0.00     0.129 A 
HETATM    8  N4  UNL     1      37.766  15.919 -17.318  1.00  0.00    -0.201 N 
ATOM      9  H4  UNL     1      37.150  16.556 -16.812  1.00  0.00     0.183 HD
ENDROOT
BRANCH   4  10
HETATM   10  O2  UNL     1      40.197  13.403 -19.343  1.00  0.00    -0.329 OA
BRANCH  10  11
HETATM   11  C8  UNL     1      41.381  12.837 -18.792  1.00  0.00     0.132 C 
HETATM   12  C9  UNL     1      41.218  11.337 -18.871  1.00  0.00     0.032 C 
HETATM   13  C10 UNL     1      42.055  10.595 -17.881  1.00  0.00     0.004 C 
HETATM   14  C11 UNL     1      43.306  10.067 -18.546  1.00  0.00     0.027 C 
HETATM   15  C12 UNL     1      44.429  11.020 -18.251  1.00  0.00     0.232 C 
HETATM   16  N3  UNL     1      43.905  12.287 -17.846  1.00  0.00    -0.075 N 
HETATM   17  C13 UNL     1      43.858  13.244 -18.902  1.00  0.00     0.235 C 
ATOM     18  H32 UNL     1      42.986  12.178 -17.416  1.00  0.00     0.277 HD
ATOM     19  H31 UNL     1      44.423  12.653 -17.048  1.00  0.00     0.277 HD
HETATM   20  C14 UNL     1      42.537  13.351 -19.587  1.00  0.00     0.060 C 
ENDBRANCH  10  11
ENDBRANCH   4  10
BRANCH   1  21
HETATM   21  N1  UNL     1      38.849  15.381 -15.353  1.00  0.00    -0.221 N 
ATOM     22  H1  UNL     1      38.763  16.307 -14.933  1.00  0.00     0.178 HD
BRANCH  21  23
HETATM   23  C5  UNL     1      39.135  14.260 -14.515  1.00  0.00     0.102 C 
HETATM   24  C4  UNL     1      39.591  14.633 -13.140  1.00  0.00     0.029 C 
HETATM   25  C3  UNL     1      38.361  14.627 -12.269  1.00  0.00     0.039 C 
HETATM   26  C2  UNL     1      37.519  13.533 -12.856  1.00  0.00     0.056 C 
HETATM   27  C1  UNL     1      36.060  13.864 -12.710  1.00  0.00     0.045 C 
HETATM   28  C17 UNL     1      37.898  13.413 -14.302  1.00  0.00     0.063 C 
BRANCH  26  29
HETATM   29  O1  UNL     1      37.737  12.322 -12.165  1.00  0.00    -0.390 OA
ATOM     30  H1  UNL     1      38.674  12.243 -12.033  1.00  0.00     0.210 HD
ENDBRANCH  26  29
ENDBRANCH  21  23
ENDBRANCH   1  21
TORSDOF 5
ENDMDL
