MODEL 1
REMARK VINA RESULT: -8.973307626      0.000      0.000
REMARK  12 active torsions:
REMARK  status: ('A' for Active; 'I' for Inactive)
REMARK    1  A    between atoms: C2_2  and  C4_4 
REMARK    2  A    between atoms: C4_4  and  N1_5 
REMARK       I    between atoms: N1_5  and  C5_6 
REMARK    3  A    between atoms: N1_5  and  S3_38 
REMARK    4  A    between atoms: C5_6  and  C6_8 
REMARK    5  A    between atoms: C6_8  and  N2_9 
REMARK    6  A    between atoms: C6_8  and  C23_35 
REMARK       I    between atoms: N2_9  and  C7_11 
REMARK    7  A    between atoms: C7_11  and  C8_13 
REMARK    8  A    between atoms: C14_20  and  C15_21 
REMARK       I    between atoms: C15_21  and  N3_23 
REMARK    9  A    between atoms: N3_23  and  C16_25 
REMARK   10  A    between atoms: C16_25  and  C18_27 
REMARK   11  A    between atoms: S3_38  and  N5_41 
REMARK   12  A    between atoms: N5_41  and  C26_43 
ROOT
HETATM    1  N2  UNL     1      11.161  23.727   3.739  1.00  0.00    -0.347 N 
ATOM      2  H2  UNL     1      11.832  24.451   3.481  1.00  0.00     0.163 HD
HETATM    3  C7  UNL     1      11.621  22.422   4.107  1.00  0.00     0.223 C 
HETATM    4  O2  UNL     1      10.753  21.573   4.415  1.00  0.00    -0.273 OA
ENDROOT
BRANCH   3   5
HETATM    5  C8  UNL     1      13.052  22.041   4.138  1.00  0.00     0.092 C 
HETATM    6  C9  UNL     1      13.866  23.288   4.098  1.00  0.00     0.089 C 
HETATM    7  S1  UNL     1      14.605  23.435   5.740  1.00  0.00    -0.158 SA
HETATM    8  C10 UNL     1      13.970  21.882   6.433  1.00  0.00     0.009 C 
HETATM    9  C11 UNL     1      12.957  22.162   7.543  1.00  0.00     0.027 C 
HETATM   10  C12 UNL     1      15.110  21.120   7.064  1.00  0.00     0.021 C 
HETATM   11  C22 UNL     1      13.322  21.214   5.310  1.00  0.00     0.018 C 
HETATM   12  C13 UNL     1      16.186  20.824   6.038  1.00  0.00     0.015 C 
HETATM   13  C14 UNL     1      15.587  20.190   4.820  1.00  0.00     0.078 C 
HETATM   14  C21 UNL     1      14.111  19.995   4.886  1.00  0.00     0.021 C 
BRANCH  13  15
HETATM   15  C15 UNL     1      16.223  18.864   4.614  1.00  0.00     0.222 C 
HETATM   16  O3  UNL     1      15.756  18.066   3.749  1.00  0.00    -0.273 OA
HETATM   17  N3  UNL     1      17.344  18.414   5.334  1.00  0.00    -0.351 N 
ATOM     18  H3  UNL     1      17.730  19.049   6.032  1.00  0.00     0.163 HD
BRANCH  17  19
HETATM   19  C16 UNL     1      17.987  17.157   5.177  1.00  0.00     0.137 C 
HETATM   20  C17 UNL     1      19.079  17.163   4.153  1.00  0.00     0.039 C 
BRANCH  19  21
HETATM   21  C18 UNL     1      18.543  16.695   6.501  1.00  0.00     0.073 A 
HETATM   22  N4  UNL     1      18.126  16.940   7.729  1.00  0.00    -0.361 N 
HETATM   23  C19 UNL     1      18.760  16.438   8.739  1.00  0.00     0.096 A 
ATOM     24  H4  UNL     1      17.305  17.525   7.883  1.00  0.00     0.165 HD
HETATM   25  C20 UNL     1      19.862  15.657   8.473  1.00  0.00     0.068 A 
HETATM   26  S2  UNL     1      19.903  15.703   6.765  1.00  0.00    -0.085 SA
ENDBRANCH  19  21
ENDBRANCH  17  19
ENDBRANCH  13  15
ENDBRANCH   3   5
BRANCH   1  27
HETATM   27  C6  UNL     1       9.723  24.025   3.732  1.00  0.00     0.181 C 
BRANCH  27  28
HETATM   28  C5  UNL     1       9.428  25.272   4.445  1.00  0.00     0.257 C 
HETATM   29  N1  UNL     1       8.165  25.889   4.624  1.00  0.00    -0.226 N 
HETATM   30  O1  UNL     1      10.448  25.852   4.965  1.00  0.00    -0.270 OA
BRANCH  29  31
HETATM   31  C4  UNL     1       6.941  25.338   4.183  1.00  0.00     0.150 C 
BRANCH  31  32
HETATM   32  C2  UNL     1       6.045  26.072   3.278  1.00  0.00    -0.003 C 
HETATM   33  C1  UNL     1       4.594  26.123   3.630  1.00  0.00     0.011 C 
HETATM   34  C3  UNL     1       6.184  25.360   1.895  1.00  0.00     0.011 C 
ENDBRANCH  31  32
ENDBRANCH  29  31
BRANCH  29  35
HETATM   35  S3  UNL     1       8.095  27.412   5.496  1.00  0.00     0.324 S 
HETATM   36  O4  UNL     1       6.707  27.667   5.982  1.00  0.00    -0.182 OA
HETATM   37  O5  UNL     1       8.413  28.503   4.511  1.00  0.00    -0.182 OA
BRANCH  35  38
HETATM   38  N5  UNL     1       9.182  27.321   6.783  1.00  0.00    -0.295 N 
ATOM     39  H5  UNL     1      10.184  27.204   6.635  1.00  0.00     0.174 HD
BRANCH  38  40
HETATM   40  C26 UNL     1       8.611  27.418   8.104  1.00  0.00     0.120 C 
HETATM   41  C27 UNL     1       9.140  26.377   9.047  1.00  0.00     0.054 C 
HETATM   42  C28 UNL     1       9.843  27.277  10.077  1.00  0.00     0.169 C 
HETATM   43  O6  UNL     1       9.082  28.449  10.072  1.00  0.00    -0.389 OA
HETATM   44  C29 UNL     1       8.791  28.740   8.750  1.00  0.00     0.193 C 
ENDBRANCH  38  40
ENDBRANCH  35  38
ENDBRANCH  29  35
ENDBRANCH  27  28
BRANCH  27  45
HETATM   45  C23 UNL     1       9.387  24.224   2.249  1.00  0.00     0.009 C 
HETATM   46  C24 UNL     1       9.073  22.942   1.530  1.00  0.00     0.012 C 
HETATM   47  C25 UNL     1      10.368  25.059   1.506  1.00  0.00     0.012 C 
ENDBRANCH  27  45
ENDBRANCH   1  27
TORSDOF 12
ENDMDL
MODEL 2
REMARK VINA RESULT: -8.842684928      2.415      3.563
REMARK  12 active torsions:
REMARK  status: ('A' for Active; 'I' for Inactive)
REMARK    1  A    between atoms: C2_2  and  C4_4 
REMARK    2  A    between atoms: C4_4  and  N1_5 
REMARK       I    between atoms: N1_5  and  C5_6 
REMARK    3  A    between atoms: N1_5  and  S3_38 
REMARK    4  A    between atoms: C5_6  and  C6_8 
REMARK    5  A    between atoms: C6_8  and  N2_9 
REMARK    6  A    between atoms: C6_8  and  C23_35 
REMARK       I    between atoms: N2_9  and  C7_11 
REMARK    7  A    between atoms: C7_11  and  C8_13 
REMARK    8  A    between atoms: C14_20  and  C15_21 
REMARK       I    between atoms: C15_21  and  N3_23 
REMARK    9  A    between atoms: N3_23  and  C16_25 
REMARK   10  A    between atoms: C16_25  and  C18_27 
REMARK   11  A    between atoms: S3_38  and  N5_41 
REMARK   12  A    between atoms: N5_41  and  C26_43 
ROOT
HETATM    1  N2  UNL     1       8.162  25.474   3.485  1.00  0.00    -0.347 N 
ATOM      2  H2  UNL     1       8.771  26.290   3.535  1.00  0.00     0.163 HD
HETATM    3  C7  UNL     1       8.723  24.157   3.536  1.00  0.00     0.223 C 
HETATM    4  O2  UNL     1       7.927  23.192   3.470  1.00  0.00    -0.273 OA
ENDROOT
BRANCH   3   5
HETATM    5  C8  UNL     1      10.175  23.894   3.660  1.00  0.00     0.092 C 
HETATM    6  C9  UNL     1      10.892  25.197   3.578  1.00  0.00     0.089 C 
HETATM    7  S1  UNL     1      11.531  25.503   5.240  1.00  0.00    -0.158 SA
HETATM    8  C10 UNL     1      10.980  23.950   6.002  1.00  0.00     0.009 C 
HETATM    9  C11 UNL     1       9.892  24.216   7.042  1.00  0.00     0.027 C 
HETATM   10  C12 UNL     1      12.141  23.321   6.734  1.00  0.00     0.021 C 
HETATM   11  C22 UNL     1      10.446  23.164   4.895  1.00  0.00     0.018 C 
HETATM   12  C13 UNL     1      13.288  23.049   5.783  1.00  0.00     0.015 C 
HETATM   13  C14 UNL     1      12.805  22.296   4.582  1.00  0.00     0.078 C 
HETATM   14  C21 UNL     1      11.346  21.989   4.590  1.00  0.00     0.021 C 
BRANCH  13  15
HETATM   15  C15 UNL     1      13.549  21.014   4.494  1.00  0.00     0.222 C 
HETATM   16  O3  UNL     1      13.306  20.084   5.318  1.00  0.00    -0.273 OA
HETATM   17  N3  UNL     1      14.537  20.748   3.529  1.00  0.00    -0.351 N 
ATOM     18  H3  UNL     1      14.740  21.489   2.859  1.00  0.00     0.163 HD
BRANCH  17  19
HETATM   19  C16 UNL     1      15.278  19.542   3.404  1.00  0.00     0.137 C 
HETATM   20  C17 UNL     1      15.811  19.304   2.025  1.00  0.00     0.039 C 
BRANCH  19  21
HETATM   21  C18 UNL     1      16.419  19.534   4.391  1.00  0.00     0.073 A 
HETATM   22  N4  UNL     1      16.526  20.119   5.570  1.00  0.00    -0.361 N 
HETATM   23  C19 UNL     1      17.610  19.982   6.263  1.00  0.00     0.096 A 
ATOM     24  H4  UNL     1      15.755  20.679   5.934  1.00  0.00     0.165 HD
HETATM   25  C20 UNL     1      18.618  19.217   5.722  1.00  0.00     0.068 A 
HETATM   26  S2  UNL     1      17.920  18.743   4.235  1.00  0.00    -0.085 SA
ENDBRANCH  19  21
ENDBRANCH  17  19
ENDBRANCH  13  15
ENDBRANCH   3   5
BRANCH   1  27
HETATM   27  C6  UNL     1       6.710  25.650   3.359  1.00  0.00     0.181 C 
BRANCH  27  28
HETATM   28  C5  UNL     1       6.229  26.760   4.188  1.00  0.00     0.257 C 
HETATM   29  N1  UNL     1       5.124  26.762   5.076  1.00  0.00    -0.226 N 
HETATM   30  O1  UNL     1       6.908  27.845   4.088  1.00  0.00    -0.270 OA
BRANCH  29  31
HETATM   31  C4  UNL     1       4.328  25.630   5.357  1.00  0.00     0.150 C 
BRANCH  31  32
HETATM   32  C2  UNL     1       3.146  25.296   4.548  1.00  0.00    -0.003 C 
HETATM   33  C1  UNL     1       1.816  25.299   5.230  1.00  0.00     0.011 C 
HETATM   34  C3  UNL     1       3.412  23.855   4.008  1.00  0.00     0.011 C 
ENDBRANCH  31  32
ENDBRANCH  29  31
BRANCH  29  35
HETATM   35  S3  UNL     1       4.740  28.249   5.929  1.00  0.00     0.324 S 
HETATM   36  O4  UNL     1       3.823  27.967   7.072  1.00  0.00    -0.182 OA
HETATM   37  O5  UNL     1       3.978  29.125   4.973  1.00  0.00    -0.182 OA
BRANCH  35  38
HETATM   38  N5  UNL     1       6.189  28.926   6.465  1.00  0.00    -0.295 N 
ATOM     39  H5  UNL     1       6.664  29.664   5.946  1.00  0.00     0.174 HD
BRANCH  38  40
HETATM   40  C26 UNL     1       6.717  28.400   7.700  1.00  0.00     0.120 C 
HETATM   41  C27 UNL     1       8.038  27.710   7.523  1.00  0.00     0.054 C 
HETATM   42  C28 UNL     1       8.936  28.622   8.377  1.00  0.00     0.169 C 
HETATM   43  O6  UNL     1       8.081  29.089   9.379  1.00  0.00    -0.389 OA
HETATM   44  C29 UNL     1       6.878  29.409   8.773  1.00  0.00     0.193 C 
ENDBRANCH  38  40
ENDBRANCH  35  38
ENDBRANCH  29  35
ENDBRANCH  27  28
BRANCH  27  45
HETATM   45  C23 UNL     1       6.502  26.021   1.886  1.00  0.00     0.009 C 
HETATM   46  C24 UNL     1       5.549  25.107   1.168  1.00  0.00     0.012 C 
HETATM   47  C25 UNL     1       7.761  26.231   1.124  1.00  0.00     0.012 C 
ENDBRANCH  27  45
ENDBRANCH   1  27
TORSDOF 12
ENDMDL
MODEL 3
REMARK VINA RESULT: -8.824912378      2.731      4.939
REMARK  12 active torsions:
REMARK  status: ('A' for Active; 'I' for Inactive)
REMARK    1  A    between atoms: C2_2  and  C4_4 
REMARK    2  A    between atoms: C4_4  and  N1_5 
REMARK       I    between atoms: N1_5  and  C5_6 
REMARK    3  A    between atoms: N1_5  and  S3_38 
REMARK    4  A    between atoms: C5_6  and  C6_8 
REMARK    5  A    between atoms: C6_8  and  N2_9 
REMARK    6  A    between atoms: C6_8  and  C23_35 
REMARK       I    between atoms: N2_9  and  C7_11 
REMARK    7  A    between atoms: C7_11  and  C8_13 
REMARK    8  A    between atoms: C14_20  and  C15_21 
REMARK       I    between atoms: C15_21  and  N3_23 
REMARK    9  A    between atoms: N3_23  and  C16_25 
REMARK   10  A    between atoms: C16_25  and  C18_27 
REMARK   11  A    between atoms: S3_38  and  N5_41 
REMARK   12  A    between atoms: N5_41  and  C26_43 
ROOT
HETATM    1  N2  UNL     1      10.080  24.766   7.200  1.00  0.00    -0.347 N 
ATOM      2  H2  UNL     1       9.527  23.915   7.100  1.00  0.00     0.163 HD
HETATM    3  C7  UNL     1      11.497  24.681   7.388  1.00  0.00     0.223 C 
HETATM    4  O2  UNL     1      12.126  25.758   7.505  1.00  0.00    -0.273 OA
ENDROOT
BRANCH   3   5
HETATM    5  C8  UNL     1      12.235  23.398   7.451  1.00  0.00     0.092 C 
HETATM    6  C9  UNL     1      11.366  22.333   6.877  1.00  0.00     0.089 C 
HETATM    7  S1  UNL     1      12.134  21.877   5.307  1.00  0.00    -0.158 SA
HETATM    8  C10 UNL     1      13.592  22.953   5.427  1.00  0.00     0.009 C 
HETATM    9  C11 UNL     1      13.536  24.055   4.370  1.00  0.00     0.027 C 
HETATM   10  C12 UNL     1      14.830  22.138   5.145  1.00  0.00     0.021 C 
HETATM   11  C22 UNL     1      13.517  23.527   6.766  1.00  0.00     0.018 C 
HETATM   12  C13 UNL     1      14.952  20.993   6.131  1.00  0.00     0.015 C 
HETATM   13  C14 UNL     1      14.822  21.496   7.536  1.00  0.00     0.078 C 
HETATM   14  C21 UNL     1      14.610  22.967   7.649  1.00  0.00     0.021 C 
BRANCH  13  15
HETATM   15  C15 UNL     1      16.058  21.146   8.282  1.00  0.00     0.222 C 
HETATM   16  O3  UNL     1      16.933  22.032   8.507  1.00  0.00    -0.273 OA
HETATM   17  N3  UNL     1      16.335  19.859   8.774  1.00  0.00    -0.351 N 
ATOM     18  H3  UNL     1      15.636  19.136   8.602  1.00  0.00     0.163 HD
BRANCH  17  19
HETATM   19  C16 UNL     1      17.500  19.472   9.491  1.00  0.00     0.137 C 
HETATM   20  C17 UNL     1      17.342  19.543  10.978  1.00  0.00     0.039 C 
BRANCH  19  21
HETATM   21  C18 UNL     1      17.906  18.074   9.096  1.00  0.00     0.073 A 
HETATM   22  N4  UNL     1      18.171  17.571   7.904  1.00  0.00    -0.361 N 
HETATM   23  C19 UNL     1      18.505  16.327   7.787  1.00  0.00     0.096 A 
ATOM     24  H4  UNL     1      18.114  18.164   7.076  1.00  0.00     0.165 HD
HETATM   25  C20 UNL     1      18.565  15.574   8.939  1.00  0.00     0.068 A 
HETATM   26  S2  UNL     1      18.134  16.731  10.121  1.00  0.00    -0.085 SA
ENDBRANCH  19  21
ENDBRANCH  17  19
ENDBRANCH  13  15
ENDBRANCH   3   5
BRANCH   1  27
HETATM   27  C6  UNL     1       9.423  26.078   7.150  1.00  0.00     0.181 C 
BRANCH  27  28
HETATM   28  C5  UNL     1       8.464  26.158   6.043  1.00  0.00     0.257 C 
HETATM   29  N1  UNL     1       7.491  27.162   5.812  1.00  0.00    -0.226 N 
HETATM   30  O1  UNL     1       8.537  25.199   5.192  1.00  0.00    -0.270 OA
BRANCH  29  31
HETATM   31  C4  UNL     1       7.337  28.318   6.607  1.00  0.00     0.150 C 
BRANCH  31  32
HETATM   32  C2  UNL     1       6.475  28.328   7.799  1.00  0.00    -0.003 C 
HETATM   33  C1  UNL     1       5.027  28.642   7.605  1.00  0.00     0.011 C 
HETATM   34  C3  UNL     1       7.086  29.414   8.740  1.00  0.00     0.011 C 
ENDBRANCH  31  32
ENDBRANCH  29  31
BRANCH  29  35
HETATM   35  S3  UNL     1       6.435  26.997   4.417  1.00  0.00     0.324 S 
HETATM   36  O4  UNL     1       7.203  27.226   3.158  1.00  0.00    -0.182 OA
HETATM   37  O5  UNL     1       5.412  28.096   4.502  1.00  0.00    -0.182 OA
BRANCH  35  38
HETATM   38  N5  UNL     1       5.773  25.446   4.451  1.00  0.00    -0.295 N 
ATOM     39  H5  UNL     1       6.320  24.631   4.730  1.00  0.00     0.174 HD
BRANCH  38  40
HETATM   40  C26 UNL     1       4.387  25.339   4.065  1.00  0.00     0.120 C 
HETATM   41  C27 UNL     1       4.099  24.104   3.262  1.00  0.00     0.054 C 
HETATM   42  C28 UNL     1       3.132  23.381   4.216  1.00  0.00     0.169 C 
HETATM   43  O6  UNL     1       2.476  24.422   4.879  1.00  0.00    -0.389 OA
HETATM   44  C29 UNL     1       3.434  25.369   5.199  1.00  0.00     0.193 C 
ENDBRANCH  38  40
ENDBRANCH  35  38
ENDBRANCH  29  35
ENDBRANCH  27  28
BRANCH  27  45
HETATM   45  C23 UNL     1       8.646  26.161   8.469  1.00  0.00     0.009 C 
HETATM   46  C24 UNL     1       9.478  26.647   9.623  1.00  0.00     0.012 C 
HETATM   47  C25 UNL     1       7.882  24.931   8.807  1.00  0.00     0.012 C 
ENDBRANCH  27  45
ENDBRANCH   1  27
TORSDOF 12
ENDMDL
MODEL 4
REMARK VINA RESULT: -8.784770973      2.131      3.162
REMARK  12 active torsions:
REMARK  status: ('A' for Active; 'I' for Inactive)
REMARK    1  A    between atoms: C2_2  and  C4_4 
REMARK    2  A    between atoms: C4_4  and  N1_5 
REMARK       I    between atoms: N1_5  and  C5_6 
REMARK    3  A    between atoms: N1_5  and  S3_38 
REMARK    4  A    between atoms: C5_6  and  C6_8 
REMARK    5  A    between atoms: C6_8  and  N2_9 
REMARK    6  A    between atoms: C6_8  and  C23_35 
REMARK       I    between atoms: N2_9  and  C7_11 
REMARK    7  A    between atoms: C7_11  and  C8_13 
REMARK    8  A    between atoms: C14_20  and  C15_21 
REMARK       I    between atoms: C15_21  and  N3_23 
REMARK    9  A    between atoms: N3_23  and  C16_25 
REMARK   10  A    between atoms: C16_25  and  C18_27 
REMARK   11  A    between atoms: S3_38  and  N5_41 
REMARK   12  A    between atoms: N5_41  and  C26_43 
ROOT
HETATM    1  N2  UNL     1       8.731  25.209   3.455  1.00  0.00    -0.347 N 
ATOM      2  H2  UNL     1       9.340  26.020   3.562  1.00  0.00     0.163 HD
HETATM    3  C7  UNL     1       9.295  23.894   3.386  1.00  0.00     0.223 C 
HETATM    4  O2  UNL     1       8.499  22.935   3.255  1.00  0.00    -0.273 OA
ENDROOT
BRANCH   3   5
HETATM    5  C8  UNL     1      10.750  23.626   3.461  1.00  0.00     0.092 C 
HETATM    6  C9  UNL     1      11.470  24.919   3.297  1.00  0.00     0.089 C 
HETATM    7  S1  UNL     1      12.179  25.286   4.918  1.00  0.00    -0.158 SA
HETATM    8  C10 UNL     1      11.652  23.768   5.763  1.00  0.00     0.009 C 
HETATM    9  C11 UNL     1      10.609  24.083   6.835  1.00  0.00     0.027 C 
HETATM   10  C12 UNL     1      12.838  23.161   6.471  1.00  0.00     0.021 C 
HETATM   11  C22 UNL     1      11.067  22.944   4.711  1.00  0.00     0.018 C 
HETATM   12  C13 UNL     1      13.944  22.843   5.485  1.00  0.00     0.015 C 
HETATM   13  C14 UNL     1      13.407  22.047   4.335  1.00  0.00     0.078 C 
HETATM   14  C21 UNL     1      11.948  21.750   4.416  1.00  0.00     0.021 C 
BRANCH  13  15
HETATM   15  C15 UNL     1      14.140  20.757   4.267  1.00  0.00     0.222 C 
HETATM   16  O3  UNL     1      13.973  19.886   5.171  1.00  0.00    -0.273 OA
HETATM   17  N3  UNL     1      15.036  20.421   3.238  1.00  0.00    -0.351 N 
ATOM     18  H3  UNL     1      15.178  21.114   2.502  1.00  0.00     0.163 HD
BRANCH  17  19
HETATM   19  C16 UNL     1      15.763  19.204   3.128  1.00  0.00     0.137 C 
HETATM   20  C17 UNL     1      16.407  19.007   1.790  1.00  0.00     0.039 C 
BRANCH  19  21
HETATM   21  C18 UNL     1      16.815  19.135   4.207  1.00  0.00     0.073 A 
HETATM   22  N4  UNL     1      17.310  20.089   4.973  1.00  0.00    -0.361 N 
HETATM   23  C19 UNL     1      18.221  19.807   5.847  1.00  0.00     0.096 A 
ATOM     24  H4  UNL     1      16.975  21.047   4.876  1.00  0.00     0.165 HD
HETATM   25  C20 UNL     1      18.637  18.498   5.933  1.00  0.00     0.068 A 
HETATM   26  S2  UNL     1      17.669  17.758   4.734  1.00  0.00    -0.085 SA
ENDBRANCH  19  21
ENDBRANCH  17  19
ENDBRANCH  13  15
ENDBRANCH   3   5
BRANCH   1  27
HETATM   27  C6  UNL     1       7.276  25.390   3.372  1.00  0.00     0.181 C 
BRANCH  27  28
HETATM   28  C5  UNL     1       6.758  26.114   4.538  1.00  0.00     0.257 C 
HETATM   29  N1  UNL     1       5.404  26.396   4.849  1.00  0.00    -0.226 N 
HETATM   30  O1  UNL     1       7.651  26.524   5.363  1.00  0.00    -0.270 OA
BRANCH  29  31
HETATM   31  C4  UNL     1       4.303  25.947   4.087  1.00  0.00     0.150 C 
BRANCH  31  32
HETATM   32  C2  UNL     1       3.693  24.628   4.312  1.00  0.00    -0.003 C 
HETATM   33  C1  UNL     1       3.585  23.706   3.140  1.00  0.00     0.011 C 
HETATM   34  C3  UNL     1       2.252  24.925   4.832  1.00  0.00     0.011 C 
ENDBRANCH  31  32
ENDBRANCH  29  31
BRANCH  29  35
HETATM   35  S3  UNL     1       5.056  27.319   6.303  1.00  0.00     0.324 S 
HETATM   36  O4  UNL     1       4.515  26.423   7.366  1.00  0.00    -0.182 OA
HETATM   37  O5  UNL     1       3.960  28.290   5.960  1.00  0.00    -0.182 OA
BRANCH  35  38
HETATM   38  N5  UNL     1       6.488  28.058   6.801  1.00  0.00    -0.295 N 
ATOM     39  H5  UNL     1       7.139  28.476   6.136  1.00  0.00     0.174 HD
BRANCH  38  40
HETATM   40  C26 UNL     1       6.739  28.063   8.221  1.00  0.00     0.120 C 
HETATM   41  C27 UNL     1       7.836  27.123   8.624  1.00  0.00     0.054 C 
HETATM   42  C28 UNL     1       8.864  28.126   9.177  1.00  0.00     0.169 C 
HETATM   43  O6  UNL     1       8.077  29.160   9.693  1.00  0.00    -0.389 OA
HETATM   44  C29 UNL     1       7.065  29.398   8.777  1.00  0.00     0.193 C 
ENDBRANCH  38  40
ENDBRANCH  35  38
ENDBRANCH  29  35
ENDBRANCH  27  28
BRANCH  27  45
HETATM   45  C23 UNL     1       7.077  26.267   2.130  1.00  0.00     0.009 C 
HETATM   46  C24 UNL     1       6.281  25.596   1.047  1.00  0.00     0.012 C 
HETATM   47  C25 UNL     1       8.326  26.885   1.610  1.00  0.00     0.012 C 
ENDBRANCH  27  45
ENDBRANCH   1  27
TORSDOF 12
ENDMDL
MODEL 5
REMARK VINA RESULT: -8.754271764      1.496      2.290
REMARK  12 active torsions:
REMARK  status: ('A' for Active; 'I' for Inactive)
REMARK    1  A    between atoms: C2_2  and  C4_4 
REMARK    2  A    between atoms: C4_4  and  N1_5 
REMARK       I    between atoms: N1_5  and  C5_6 
REMARK    3  A    between atoms: N1_5  and  S3_38 
REMARK    4  A    between atoms: C5_6  and  C6_8 
REMARK    5  A    between atoms: C6_8  and  N2_9 
REMARK    6  A    between atoms: C6_8  and  C23_35 
REMARK       I    between atoms: N2_9  and  C7_11 
REMARK    7  A    between atoms: C7_11  and  C8_13 
REMARK    8  A    between atoms: C14_20  and  C15_21 
REMARK       I    between atoms: C15_21  and  N3_23 
REMARK    9  A    between atoms: N3_23  and  C16_25 
REMARK   10  A    between atoms: C16_25  and  C18_27 
REMARK   11  A    between atoms: S3_38  and  N5_41 
REMARK   12  A    between atoms: N5_41  and  C26_43 
ROOT
HETATM    1  N2  UNL     1      10.917  24.088   3.818  1.00  0.00    -0.347 N 
ATOM      2  H2  UNL     1      11.495  24.928   3.824  1.00  0.00     0.163 HD
HETATM    3  C7  UNL     1      11.520  22.802   4.004  1.00  0.00     0.223 C 
HETATM    4  O2  UNL     1      10.762  21.805   3.988  1.00  0.00    -0.273 OA
ENDROOT
BRANCH   3   5
HETATM    5  C8  UNL     1      12.974  22.605   4.210  1.00  0.00     0.092 C 
HETATM    6  C9  UNL     1      13.566  23.911   4.615  1.00  0.00     0.089 C 
HETATM    7  S1  UNL     1      14.019  23.717   6.353  1.00  0.00    -0.158 SA
HETATM    8  C10 UNL     1      13.554  21.972   6.533  1.00  0.00     0.009 C 
HETATM    9  C11 UNL     1      12.355  21.828   7.470  1.00  0.00     0.027 C 
HETATM   10  C12 UNL     1      14.698  21.219   7.167  1.00  0.00     0.021 C 
HETATM   11  C22 UNL     1      13.200  21.543   5.185  1.00  0.00     0.018 C 
HETATM   12  C13 UNL     1      15.949  21.334   6.318  1.00  0.00     0.015 C 
HETATM   13  C14 UNL     1      15.651  20.968   4.896  1.00  0.00     0.078 C 
HETATM   14  C21 UNL     1      14.234  20.582   4.641  1.00  0.00     0.021 C 
BRANCH  13  15
HETATM   15  C15 UNL     1      16.520  19.829   4.507  1.00  0.00     0.222 C 
HETATM   16  O3  UNL     1      17.770  19.998   4.391  1.00  0.00    -0.273 OA
HETATM   17  N3  UNL     1      16.041  18.532   4.250  1.00  0.00    -0.351 N 
ATOM     18  H3  UNL     1      15.036  18.383   4.342  1.00  0.00     0.163 HD
BRANCH  17  19
HETATM   19  C16 UNL     1      16.829  17.411   3.873  1.00  0.00     0.137 C 
HETATM   20  C17 UNL     1      17.617  17.623   2.618  1.00  0.00     0.039 C 
BRANCH  19  21
HETATM   21  C18 UNL     1      17.766  17.041   4.997  1.00  0.00     0.073 A 
HETATM   22  N4  UNL     1      17.765  17.417   6.262  1.00  0.00    -0.361 N 
HETATM   23  C19 UNL     1      18.675  16.974   7.069  1.00  0.00     0.096 A 
ATOM     24  H4  UNL     1      17.047  18.056   6.605  1.00  0.00     0.165 HD
HETATM   25  C20 UNL     1      19.618  16.115   6.552  1.00  0.00     0.068 A 
HETATM   26  S2  UNL     1      19.118  16.006   4.921  1.00  0.00    -0.085 SA
ENDBRANCH  19  21
ENDBRANCH  17  19
ENDBRANCH  13  15
ENDBRANCH   3   5
BRANCH   1  27
HETATM   27  C6  UNL     1       9.467  24.198   3.619  1.00  0.00     0.181 C 
BRANCH  27  28
HETATM   28  C5  UNL     1       8.926  25.403   4.257  1.00  0.00     0.257 C 
HETATM   29  N1  UNL     1       9.346  26.002   5.470  1.00  0.00    -0.226 N 
HETATM   30  O1  UNL     1       7.966  25.968   3.620  1.00  0.00    -0.270 OA
BRANCH  29  31
HETATM   31  C4  UNL     1      10.437  25.549   6.245  1.00  0.00     0.150 C 
BRANCH  31  32
HETATM   32  C2  UNL     1      10.263  24.568   7.326  1.00  0.00    -0.003 C 
HETATM   33  C1  UNL     1       8.886  24.379   7.875  1.00  0.00     0.011 C 
HETATM   34  C3  UNL     1      11.184  25.064   8.485  1.00  0.00     0.011 C 
ENDBRANCH  31  32
ENDBRANCH  29  31
BRANCH  29  35
HETATM   35  S3  UNL     1       8.498  27.434   6.033  1.00  0.00     0.324 S 
HETATM   36  O4  UNL     1       7.061  27.119   6.282  1.00  0.00    -0.182 OA
HETATM   37  O5  UNL     1       8.530  28.437   4.912  1.00  0.00    -0.182 OA
BRANCH  35  38
HETATM   38  N5  UNL     1       9.257  27.964   7.442  1.00  0.00    -0.295 N 
ATOM     39  H5  UNL     1      10.207  28.336   7.436  1.00  0.00     0.174 HD
BRANCH  38  40
HETATM   40  C26 UNL     1       8.485  27.863   8.656  1.00  0.00     0.120 C 
HETATM   41  C27 UNL     1       9.335  27.632   9.871  1.00  0.00     0.054 C 
HETATM   42  C28 UNL     1       9.041  28.922  10.656  1.00  0.00     0.169 C 
HETATM   43  O6  UNL     1       7.729  29.242  10.294  1.00  0.00    -0.389 OA
HETATM   44  C29 UNL     1       7.621  29.035   8.929  1.00  0.00     0.193 C 
ENDBRANCH  38  40
ENDBRANCH  35  38
ENDBRANCH  29  35
ENDBRANCH  27  28
BRANCH  27  45
HETATM   45  C23 UNL     1       9.305  24.340   2.101  1.00  0.00     0.009 C 
HETATM   46  C24 UNL     1       8.907  23.060   1.420  1.00  0.00     0.012 C 
HETATM   47  C25 UNL     1      10.450  25.005   1.423  1.00  0.00     0.012 C 
ENDBRANCH  27  45
ENDBRANCH   1  27
TORSDOF 12
ENDMDL
