MODEL 1
REMARK VINA RESULT: -6.179830131      0.000      0.000
REMARK  5 active torsions:
REMARK  status: ('A' for Active; 'I' for Inactive)
REMARK    1  A    between atoms: C3_3  and  C4_4 
REMARK    2  A    between atoms: C4_4  and  O1_5 
REMARK    3  A    between atoms: O1_5  and  C5_6 
REMARK    4  A    between atoms: C5_6  and  C6_10 
REMARK    5  A    between atoms: C11_18  and  C12_19 
ROOT
HETATM    1  C1  UNL     1      41.559  -5.392  33.272  1.00  0.00     0.012 C 
HETATM    2  C2  UNL     1      41.869  -6.122  32.363  1.00  0.00    -0.115 C 
HETATM    3  C3  UNL     1      42.258  -7.006  31.268  1.00  0.00     0.119 C 
ENDROOT
BRANCH   3   4
HETATM    4  C4  UNL     1      41.934  -6.365  29.915  1.00  0.00     0.189 C 
BRANCH   4   5
HETATM    5  O1  UNL     1      43.012  -5.559  29.495  1.00  0.00    -0.338 OA
BRANCH   5   6
HETATM    6  C5  UNL     1      42.752  -4.395  28.766  1.00  0.00     0.118 C 
HETATM    7  N1  UNL     1      41.541  -4.127  28.447  1.00  0.00    -0.383 N 
ATOM      8  H12 UNL     1      40.797  -4.764  28.732  1.00  0.00     0.158 HD
ATOM      9  H11 UNL     1      41.351  -3.278  27.916  1.00  0.00     0.158 HD
BRANCH   6  10
HETATM   10  C6  UNL     1      43.828  -3.474  28.355  1.00  0.00     0.102 C 
HETATM   11  C7  UNL     1      44.402  -3.860  27.015  1.00  0.00     0.203 C 
HETATM   12  N2  UNL     1      43.466  -4.230  25.992  1.00  0.00    -0.070 N 
HETATM   13  C10 UNL     1      44.564  -2.374  26.738  1.00  0.00     0.030 C 
HETATM   14  C8  UNL     1      44.003  -3.565  24.784  1.00  0.00     0.233 C 
ATOM     15  H22 UNL     1      43.321  -5.234  25.893  1.00  0.00     0.277 HD
ATOM     16  H21 UNL     1      42.495  -4.003  26.204  1.00  0.00     0.277 HD
HETATM   17  C9  UNL     1      44.191  -2.146  25.310  1.00  0.00     0.035 C 
HETATM   18  C11 UNL     1      43.419  -2.160  27.743  1.00  0.00     0.070 C 
BRANCH  18  19
HETATM   19  C12 UNL     1      43.728  -0.967  28.591  1.00  0.00     0.092 C 
HETATM   20  N3  UNL     1      42.846  -0.543  29.434  1.00  0.00    -0.391 N 
ATOM     21  H32 UNL     1      41.967  -1.056  29.478  1.00  0.00     0.157 HD
ATOM     22  H31 UNL     1      43.058   0.270  30.013  1.00  0.00     0.157 HD
HETATM   23  N4  UNL     1      44.943  -0.259  28.531  1.00  0.00    -0.088 NA
ENDBRANCH  18  19
ENDBRANCH   6  10
ENDBRANCH   5   6
ENDBRANCH   4   5
ENDBRANCH   3   4
TORSDOF 5
ENDMDL
MODEL 2
REMARK VINA RESULT: -6.020536396      3.127      5.785
REMARK  5 active torsions:
REMARK  status: ('A' for Active; 'I' for Inactive)
REMARK    1  A    between atoms: C3_3  and  C4_4 
REMARK    2  A    between atoms: C4_4  and  O1_5 
REMARK    3  A    between atoms: O1_5  and  C5_6 
REMARK    4  A    between atoms: C5_6  and  C6_10 
REMARK    5  A    between atoms: C11_18  and  C12_19 
ROOT
HETATM    1  C1  UNL     1      44.180  -3.139  25.416  1.00  0.00     0.012 C 
HETATM    2  C2  UNL     1      43.607  -3.436  26.436  1.00  0.00    -0.115 C 
HETATM    3  C3  UNL     1      42.904  -3.785  27.667  1.00  0.00     0.119 C 
ENDROOT
BRANCH   3   4
HETATM    4  C4  UNL     1      43.862  -3.759  28.861  1.00  0.00     0.189 C 
BRANCH   4   5
HETATM    5  O1  UNL     1      44.350  -2.451  29.059  1.00  0.00    -0.338 OA
BRANCH   5   6
HETATM    6  C5  UNL     1      43.469  -1.444  29.463  1.00  0.00     0.118 C 
HETATM    7  N1  UNL     1      43.399  -0.373  28.765  1.00  0.00    -0.383 N 
ATOM      8  H12 UNL     1      43.983  -0.279  27.934  1.00  0.00     0.158 HD
ATOM      9  H11 UNL     1      42.756   0.362  29.060  1.00  0.00     0.158 HD
BRANCH   6  10
HETATM   10  C6  UNL     1      42.626  -1.581  30.665  1.00  0.00     0.102 C 
HETATM   11  C7  UNL     1      43.459  -1.640  31.920  1.00  0.00     0.203 C 
HETATM   12  N2  UNL     1      44.549  -0.711  32.018  1.00  0.00    -0.070 N 
HETATM   13  C10 UNL     1      42.349  -0.862  32.607  1.00  0.00     0.030 C 
HETATM   14  C8  UNL     1      44.473  -0.247  33.421  1.00  0.00     0.233 C 
ATOM     15  H22 UNL     1      45.455  -1.090  31.746  1.00  0.00     0.277 HD
ATOM     16  H21 UNL     1      44.533   0.035  31.324  1.00  0.00     0.277 HD
HETATM   17  C9  UNL     1      42.999   0.137  33.506  1.00  0.00     0.035 C 
HETATM   18  C11 UNL     1      41.989  -0.329  31.210  1.00  0.00     0.070 C 
BRANCH  18  19
HETATM   19  C12 UNL     1      40.500  -0.289  31.070  1.00  0.00     0.092 C 
HETATM   20  N3  UNL     1      39.958   0.607  30.313  1.00  0.00    -0.391 N 
ATOM     21  H32 UNL     1      40.588   1.253  29.840  1.00  0.00     0.157 HD
ATOM     22  H31 UNL     1      38.943   0.633  30.217  1.00  0.00     0.157 HD
HETATM   23  N4  UNL     1      39.629  -1.182  31.722  1.00  0.00    -0.088 NA
ENDBRANCH  18  19
ENDBRANCH   6  10
ENDBRANCH   5   6
ENDBRANCH   4   5
ENDBRANCH   3   4
TORSDOF 5
ENDMDL
MODEL 3
REMARK VINA RESULT: -5.886577779      3.221      4.812
REMARK  5 active torsions:
REMARK  status: ('A' for Active; 'I' for Inactive)
REMARK    1  A    between atoms: C3_3  and  C4_4 
REMARK    2  A    between atoms: C4_4  and  O1_5 
REMARK    3  A    between atoms: O1_5  and  C5_6 
REMARK    4  A    between atoms: C5_6  and  C6_10 
REMARK    5  A    between atoms: C11_18  and  C12_19 
ROOT
HETATM    1  C1  UNL     1      38.113   1.229  32.389  1.00  0.00     0.012 C 
HETATM    2  C2  UNL     1      38.938   0.807  31.616  1.00  0.00    -0.115 C 
HETATM    3  C3  UNL     1      39.927   0.286  30.677  1.00  0.00     0.119 C 
ENDROOT
BRANCH   3   4
HETATM    4  C4  UNL     1      41.214  -0.104  31.409  1.00  0.00     0.189 C 
BRANCH   4   5
HETATM    5  O1  UNL     1      42.303  -0.079  30.514  1.00  0.00    -0.338 OA
BRANCH   5   6
HETATM    6  C5  UNL     1      42.976  -1.268  30.221  1.00  0.00     0.118 C 
HETATM    7  N1  UNL     1      43.979  -1.601  30.945  1.00  0.00    -0.383 N 
ATOM      8  H12 UNL     1      44.262  -0.996  31.715  1.00  0.00     0.158 HD
ATOM      9  H11 UNL     1      44.469  -2.469  30.731  1.00  0.00     0.158 HD
BRANCH   6  10
HETATM   10  C6  UNL     1      42.566  -2.143  29.106  1.00  0.00     0.102 C 
HETATM   11  C7  UNL     1      43.082  -1.631  27.785  1.00  0.00     0.203 C 
HETATM   12  N2  UNL     1      44.440  -1.169  27.755  1.00  0.00    -0.070 N 
HETATM   13  C10 UNL     1      43.259  -3.084  27.375  1.00  0.00     0.030 C 
HETATM   14  C8  UNL     1      44.957  -1.715  26.481  1.00  0.00     0.233 C 
ATOM     15  H22 UNL     1      44.547  -0.160  27.858  1.00  0.00     0.277 HD
ATOM     16  H21 UNL     1      44.990  -1.418  28.577  1.00  0.00     0.277 HD
HETATM   17  C9  UNL     1      44.544  -3.177  26.620  1.00  0.00     0.035 C 
HETATM   18  C11 UNL     1      43.372  -3.395  28.877  1.00  0.00     0.070 C 
BRANCH  18  19
HETATM   19  C12 UNL     1      42.633  -4.661  29.171  1.00  0.00     0.092 C 
HETATM   20  N3  UNL     1      43.296  -5.724  29.487  1.00  0.00    -0.391 N 
ATOM     21  H32 UNL     1      44.311  -5.641  29.520  1.00  0.00     0.157 HD
ATOM     22  H31 UNL     1      42.791  -6.588  29.689  1.00  0.00     0.157 HD
HETATM   23  N4  UNL     1      41.230  -4.777  29.127  1.00  0.00    -0.088 NA
ENDBRANCH  18  19
ENDBRANCH   6  10
ENDBRANCH   5   6
ENDBRANCH   4   5
ENDBRANCH   3   4
TORSDOF 5
ENDMDL
MODEL 4
REMARK VINA RESULT: -5.793931159      2.149      2.418
REMARK  5 active torsions:
REMARK  status: ('A' for Active; 'I' for Inactive)
REMARK    1  A    between atoms: C3_3  and  C4_4 
REMARK    2  A    between atoms: C4_4  and  O1_5 
REMARK    3  A    between atoms: O1_5  and  C5_6 
REMARK    4  A    between atoms: C5_6  and  C6_10 
REMARK    5  A    between atoms: C11_18  and  C12_19 
ROOT
HETATM    1  C1  UNL     1      38.007  -3.112  29.405  1.00  0.00     0.012 C 
HETATM    2  C2  UNL     1      38.530  -4.086  29.889  1.00  0.00    -0.115 C 
HETATM    3  C3  UNL     1      39.164  -5.258  30.485  1.00  0.00     0.119 C 
ENDROOT
BRANCH   3   4
HETATM    4  C4  UNL     1      40.296  -5.773  29.592  1.00  0.00     0.189 C 
BRANCH   4   5
HETATM    5  O1  UNL     1      41.177  -4.719  29.275  1.00  0.00    -0.338 OA
BRANCH   5   6
HETATM    6  C5  UNL     1      42.556  -4.925  29.377  1.00  0.00     0.118 C 
HETATM    7  N1  UNL     1      42.982  -6.101  29.651  1.00  0.00    -0.383 N 
ATOM      8  H12 UNL     1      42.311  -6.857  29.786  1.00  0.00     0.158 HD
ATOM      9  H11 UNL     1      43.988  -6.251  29.725  1.00  0.00     0.158 HD
BRANCH   6  10
HETATM   10  C6  UNL     1      43.526  -3.831  29.181  1.00  0.00     0.102 C 
HETATM   11  C7  UNL     1      44.188  -3.918  27.830  1.00  0.00     0.203 C 
HETATM   12  N2  UNL     1      43.341  -4.215  26.710  1.00  0.00    -0.070 N 
HETATM   13  C10 UNL     1      44.178  -2.398  27.809  1.00  0.00     0.030 C 
HETATM   14  C8  UNL     1      43.835  -3.299  25.659  1.00  0.00     0.233 C 
ATOM     15  H22 UNL     1      43.322  -5.198  26.442  1.00  0.00     0.277 HD
ATOM     16  H21 UNL     1      42.343  -4.139  26.903  1.00  0.00     0.277 HD
HETATM   17  C9  UNL     1      43.831  -1.977  26.419  1.00  0.00     0.035 C 
HETATM   18  C11 UNL     1      42.981  -2.488  28.770  1.00  0.00     0.070 C 
BRANCH  18  19
HETATM   19  C12 UNL     1      43.113  -1.428  29.818  1.00  0.00     0.092 C 
HETATM   20  N3  UNL     1      42.232  -0.486  29.881  1.00  0.00    -0.391 N 
ATOM     21  H32 UNL     1      41.475  -0.517  29.199  1.00  0.00     0.157 HD
ATOM     22  H31 UNL     1      42.322   0.236  30.596  1.00  0.00     0.157 HD
HETATM   23  N4  UNL     1      44.158  -1.386  30.760  1.00  0.00    -0.088 NA
ENDBRANCH  18  19
ENDBRANCH   6  10
ENDBRANCH   5   6
ENDBRANCH   4   5
ENDBRANCH   3   4
TORSDOF 5
ENDMDL
MODEL 5
REMARK VINA RESULT: -5.697701940      1.996      3.472
REMARK  5 active torsions:
REMARK  status: ('A' for Active; 'I' for Inactive)
REMARK    1  A    between atoms: C3_3  and  C4_4 
REMARK    2  A    between atoms: C4_4  and  O1_5 
REMARK    3  A    between atoms: O1_5  and  C5_6 
REMARK    4  A    between atoms: C5_6  and  C6_10 
REMARK    5  A    between atoms: C11_18  and  C12_19 
ROOT
HETATM    1  C1  UNL     1      37.853  -4.161  29.874  1.00  0.00     0.012 C 
HETATM    2  C2  UNL     1      38.616  -5.017  30.248  1.00  0.00    -0.115 C 
HETATM    3  C3  UNL     1      39.540  -6.047  30.714  1.00  0.00     0.119 C 
ENDROOT
BRANCH   3   4
HETATM    4  C4  UNL     1      40.752  -6.146  29.784  1.00  0.00     0.189 C 
BRANCH   4   5
HETATM    5  O1  UNL     1      41.127  -4.861  29.342  1.00  0.00    -0.338 OA
BRANCH   5   6
HETATM    6  C5  UNL     1      42.344  -4.694  28.676  1.00  0.00     0.118 C 
HETATM    7  N1  UNL     1      43.297  -5.513  28.924  1.00  0.00    -0.383 N 
ATOM      8  H12 UNL     1      43.147  -6.266  29.595  1.00  0.00     0.158 HD
ATOM      9  H11 UNL     1      44.185  -5.392  28.437  1.00  0.00     0.158 HD
BRANCH   6  10
HETATM   10  C6  UNL     1      42.560  -3.606  27.704  1.00  0.00     0.102 C 
HETATM   11  C7  UNL     1      42.600  -2.260  28.383  1.00  0.00     0.203 C 
HETATM   12  N2  UNL     1      43.352  -2.172  29.603  1.00  0.00    -0.070 N 
HETATM   13  C10 UNL     1      43.653  -1.859  27.362  1.00  0.00     0.030 C 
HETATM   14  C8  UNL     1      44.068  -0.885  29.468  1.00  0.00     0.233 C 
ATOM     15  H22 UNL     1      42.794  -2.260  30.451  1.00  0.00     0.277 HD
ATOM     16  H21 UNL     1      43.953  -2.974  29.788  1.00  0.00     0.277 HD
HETATM   17  C9  UNL     1      44.685  -1.056  28.083  1.00  0.00     0.035 C 
HETATM   18  C11 UNL     1      43.973  -3.358  27.244  1.00  0.00     0.070 C 
BRANCH  18  19
HETATM   19  C12 UNL     1      44.217  -3.695  25.808  1.00  0.00     0.092 C 
HETATM   20  N3  UNL     1      44.401  -4.928  25.468  1.00  0.00    -0.391 N 
ATOM     21  H32 UNL     1      44.368  -5.621  26.214  1.00  0.00     0.157 HD
ATOM     22  H31 UNL     1      44.567  -5.158  24.488  1.00  0.00     0.157 HD
HETATM   23  N4  UNL     1      44.261  -2.738  24.776  1.00  0.00    -0.088 NA
ENDBRANCH  18  19
ENDBRANCH   6  10
ENDBRANCH   5   6
ENDBRANCH   4   5
ENDBRANCH   3   4
TORSDOF 5
ENDMDL
