MODEL 1
REMARK VINA RESULT: -6.184130003      0.000      0.000
REMARK  4 active torsions:
REMARK  status: ('A' for Active; 'I' for Inactive)
REMARK    1  A    between atoms: N1_2  and  C3_4 
REMARK    2  A    between atoms: C3_4  and  C5_7 
REMARK    3  A    between atoms: C7_9  and  C8_10 
REMARK    4  A    between atoms: C9_13  and  C10_14 
ROOT
HETATM    1  C5  UNL     1      -4.649   4.092  14.170  1.00  0.00     0.173 C 
HETATM    2  C6  UNL     1      -4.763   3.228  12.923  1.00  0.00     0.057 C 
HETATM    3  C7  UNL     1      -5.068   1.861  13.545  1.00  0.00     0.129 C 
HETATM    4  C9  UNL     1      -4.951   2.150  15.000  1.00  0.00     0.237 C 
HETATM    5  O5  UNL     1      -4.008   3.206  15.026  1.00  0.00    -0.363 OA
ENDROOT
BRANCH   1   6
HETATM    6  C3  UNL     1      -3.940   5.329  13.947  1.00  0.00     0.042 C 
HETATM    7  C4  UNL     1      -4.330   6.492  14.373  1.00  0.00     0.083 C 
HETATM    8 BR1  UNL     1      -5.928   6.723  15.377  1.00  0.00    -0.061 Br
BRANCH   6   9
HETATM    9  N1  UNL     1      -2.715   5.256  13.193  1.00  0.00    -0.390 N 
HETATM   10  C1  UNL     1      -1.510   4.706  13.764  1.00  0.00     0.149 C 
HETATM   11  C2  UNL     1      -2.698   5.742  11.841  1.00  0.00     0.149 C 
ENDBRANCH   6   9
ENDBRANCH   1   6
BRANCH   3  12
HETATM   12  C8  UNL     1      -4.174   0.823  13.033  1.00  0.00     0.180 C 
HETATM   13  O1  UNL     1      -4.490  -0.382  13.039  1.00  0.00    -0.648 OA
HETATM   14  O2  UNL     1      -2.933   1.168  12.524  1.00  0.00    -0.648 OA
ENDBRANCH   3  12
BRANCH   4  15
HETATM   15  C10 UNL     1      -4.569   1.035  15.857  1.00  0.00     0.204 C 
HETATM   16  O3  UNL     1      -3.452   0.997  16.429  1.00  0.00    -0.646 OA
HETATM   17  O4  UNL     1      -5.458  -0.010  16.048  1.00  0.00    -0.646 OA
ENDBRANCH   4  15
TORSDOF 4
ENDMDL
MODEL 2
REMARK VINA RESULT: -6.028766073      1.532      2.212
REMARK  4 active torsions:
REMARK  status: ('A' for Active; 'I' for Inactive)
REMARK    1  A    between atoms: N1_2  and  C3_4 
REMARK    2  A    between atoms: C3_4  and  C5_7 
REMARK    3  A    between atoms: C7_9  and  C8_10 
REMARK    4  A    between atoms: C9_13  and  C10_14 
ROOT
HETATM    1  C5  UNL     1      -5.133   4.160  14.572  1.00  0.00     0.173 C 
HETATM    2  C6  UNL     1      -4.534   2.820  14.173  1.00  0.00     0.057 C 
HETATM    3  C7  UNL     1      -5.401   1.858  14.993  1.00  0.00     0.129 C 
HETATM    4  C9  UNL     1      -6.234   2.798  15.791  1.00  0.00     0.237 C 
HETATM    5  O5  UNL     1      -5.386   3.924  15.917  1.00  0.00    -0.363 OA
ENDROOT
BRANCH   1   6
HETATM    6  C3  UNL     1      -4.259   5.278  14.312  1.00  0.00     0.042 C 
HETATM    7  C4  UNL     1      -4.592   6.525  14.454  1.00  0.00     0.083 C 
HETATM    8 BR1  UNL     1      -6.322   7.054  15.041  1.00  0.00    -0.061 Br
BRANCH   6   9
HETATM    9  N1  UNL     1      -2.925   4.976  13.861  1.00  0.00    -0.390 N 
HETATM   10  C1  UNL     1      -1.889   4.580  14.783  1.00  0.00     0.149 C 
HETATM   11  C2  UNL     1      -2.624   5.073  12.459  1.00  0.00     0.149 C 
ENDBRANCH   6   9
ENDBRANCH   1   6
BRANCH   3  12
HETATM   12  C8  UNL     1      -4.586   0.923  15.767  1.00  0.00     0.180 C 
HETATM   13  O1  UNL     1      -3.567   1.289  16.384  1.00  0.00    -0.648 OA
HETATM   14  O2  UNL     1      -4.938  -0.415  15.829  1.00  0.00    -0.648 OA
ENDBRANCH   3  12
BRANCH   4  15
HETATM   15  C10 UNL     1      -6.715   2.310  17.078  1.00  0.00     0.204 C 
HETATM   16  O3  UNL     1      -6.286   2.778  18.161  1.00  0.00    -0.646 OA
HETATM   17  O4  UNL     1      -7.669   1.306  17.110  1.00  0.00    -0.646 OA
ENDBRANCH   4  15
TORSDOF 4
ENDMDL
MODEL 3
REMARK VINA RESULT: -5.880575331      1.725      2.479
REMARK  4 active torsions:
REMARK  status: ('A' for Active; 'I' for Inactive)
REMARK    1  A    between atoms: N1_2  and  C3_4 
REMARK    2  A    between atoms: C3_4  and  C5_7 
REMARK    3  A    between atoms: C7_9  and  C8_10 
REMARK    4  A    between atoms: C9_13  and  C10_14 
ROOT
HETATM    1  C5  UNL     1      -5.044   4.406  14.708  1.00  0.00     0.173 C 
HETATM    2  C6  UNL     1      -5.079   3.685  13.368  1.00  0.00     0.057 C 
HETATM    3  C7  UNL     1      -5.227   2.230  13.826  1.00  0.00     0.129 C 
HETATM    4  C9  UNL     1      -5.124   2.360  15.305  1.00  0.00     0.237 C 
HETATM    5  O5  UNL     1      -4.301   3.502  15.454  1.00  0.00    -0.363 OA
ENDROOT
BRANCH   1   6
HETATM    6  C3  UNL     1      -4.476   5.730  14.630  1.00  0.00     0.042 C 
HETATM    7  C4  UNL     1      -3.214   5.985  14.470  1.00  0.00     0.083 C 
HETATM    8 BR1  UNL     1      -1.912   4.607  14.310  1.00  0.00    -0.061 Br
BRANCH   6   9
HETATM    9  N1  UNL     1      -5.386   6.841  14.743  1.00  0.00    -0.390 N 
HETATM   10  C1  UNL     1      -6.649   6.855  14.047  1.00  0.00     0.149 C 
HETATM   11  C2  UNL     1      -5.022   7.960  15.568  1.00  0.00     0.149 C 
ENDBRANCH   6   9
ENDBRANCH   1   6
BRANCH   3  12
HETATM   12  C8  UNL     1      -4.232   1.362  13.197  1.00  0.00     0.180 C 
HETATM   13  O1  UNL     1      -3.146   1.803  12.773  1.00  0.00    -0.648 OA
HETATM   14  O2  UNL     1      -4.483   0.008  13.058  1.00  0.00    -0.648 OA
ENDBRANCH   3  12
BRANCH   4  15
HETATM   15  C10 UNL     1      -4.613   1.200  16.027  1.00  0.00     0.204 C 
HETATM   16  O3  UNL     1      -3.446   1.176  16.490  1.00  0.00    -0.646 OA
HETATM   17  O4  UNL     1      -5.432   0.098  16.207  1.00  0.00    -0.646 OA
ENDBRANCH   4  15
TORSDOF 4
ENDMDL
MODEL 4
REMARK VINA RESULT: -5.699563455      2.814      4.137
REMARK  4 active torsions:
REMARK  status: ('A' for Active; 'I' for Inactive)
REMARK    1  A    between atoms: N1_2  and  C3_4 
REMARK    2  A    between atoms: C3_4  and  C5_7 
REMARK    3  A    between atoms: C7_9  and  C8_10 
REMARK    4  A    between atoms: C9_13  and  C10_14 
ROOT
HETATM    1  C5  UNL     1      -3.560   3.020  13.780  1.00  0.00     0.173 C 
HETATM    2  C6  UNL     1      -4.474   1.846  13.459  1.00  0.00     0.057 C 
HETATM    3  C7  UNL     1      -3.898   1.390  12.113  1.00  0.00     0.129 C 
HETATM    4  C9  UNL     1      -2.869   2.432  11.849  1.00  0.00     0.237 C 
HETATM    5  O5  UNL     1      -3.404   3.563  12.512  1.00  0.00    -0.363 OA
ENDROOT
BRANCH   1   6
HETATM    6  C3  UNL     1      -4.115   3.926  14.757  1.00  0.00     0.042 C 
HETATM    7  C4  UNL     1      -3.669   5.122  14.993  1.00  0.00     0.083 C 
HETATM    8 BR1  UNL     1      -2.186   5.857  14.054  1.00  0.00    -0.061 Br
BRANCH   6   9
HETATM    9  N1  UNL     1      -5.242   3.457  15.520  1.00  0.00    -0.390 N 
HETATM   10  C1  UNL     1      -5.100   2.428  16.521  1.00  0.00     0.149 C 
HETATM   11  C2  UNL     1      -6.537   4.030  15.276  1.00  0.00     0.149 C 
ENDBRANCH   6   9
ENDBRANCH   1   6
BRANCH   3  12
HETATM   12  C8  UNL     1      -4.939   1.258  11.097  1.00  0.00     0.180 C 
HETATM   13  O1  UNL     1      -6.011   1.891  11.165  1.00  0.00    -0.648 OA
HETATM   14  O2  UNL     1      -4.752   0.411  10.018  1.00  0.00    -0.648 OA
ENDBRANCH   3  12
BRANCH   4  15
HETATM   15  C10 UNL     1      -2.554   2.697  10.450  1.00  0.00     0.204 C 
HETATM   16  O3  UNL     1      -3.020   3.697   9.849  1.00  0.00    -0.646 OA
HETATM   17  O4  UNL     1      -1.722   1.827   9.765  1.00  0.00    -0.646 OA
ENDBRANCH   4  15
TORSDOF 4
ENDMDL
MODEL 5
REMARK VINA RESULT: -5.697066188      2.426      3.613
REMARK  4 active torsions:
REMARK  status: ('A' for Active; 'I' for Inactive)
REMARK    1  A    between atoms: N1_2  and  C3_4 
REMARK    2  A    between atoms: C3_4  and  C5_7 
REMARK    3  A    between atoms: C7_9  and  C8_10 
REMARK    4  A    between atoms: C9_13  and  C10_14 
ROOT
HETATM    1  C5  UNL     1      -4.858   3.901  12.554  1.00  0.00     0.173 C 
HETATM    2  C6  UNL     1      -3.510   4.087  11.872  1.00  0.00     0.057 C 
HETATM    3  C7  UNL     1      -3.507   2.896  10.907  1.00  0.00     0.129 C 
HETATM    4  C9  UNL     1      -4.759   2.187  11.288  1.00  0.00     0.237 C 
HETATM    5  O5  UNL     1      -4.892   2.517  12.658  1.00  0.00    -0.363 OA
ENDROOT
BRANCH   1   6
HETATM    6  C3  UNL     1      -4.964   4.601  13.812  1.00  0.00     0.042 C 
HETATM    7  C4  UNL     1      -5.153   5.879  13.933  1.00  0.00     0.083 C 
HETATM    8 BR1  UNL     1      -5.321   7.028  12.427  1.00  0.00    -0.061 Br
BRANCH   6   9
HETATM    9  N1  UNL     1      -4.848   3.812  15.012  1.00  0.00    -0.390 N 
HETATM   10  C1  UNL     1      -6.012   3.350  15.726  1.00  0.00     0.149 C 
HETATM   11  C2  UNL     1      -3.539   3.481  15.504  1.00  0.00     0.149 C 
ENDBRANCH   6   9
ENDBRANCH   1   6
BRANCH   3  12
HETATM   12  C8  UNL     1      -2.278   2.112  11.022  1.00  0.00     0.180 C 
HETATM   13  O1  UNL     1      -1.716   1.922  12.118  1.00  0.00    -0.648 OA
HETATM   14  O2  UNL     1      -1.703   1.556   9.891  1.00  0.00    -0.648 OA
ENDBRANCH   3  12
BRANCH   4  15
HETATM   15  C10 UNL     1      -4.791   0.749  11.050  1.00  0.00     0.204 C 
HETATM   16  O3  UNL     1      -4.743  -0.075  11.997  1.00  0.00    -0.646 OA
HETATM   17  O4  UNL     1      -4.878   0.277   9.751  1.00  0.00    -0.646 OA
ENDBRANCH   4  15
TORSDOF 4
ENDMDL
