MODEL 1
REMARK VINA RESULT: -6.422776395      0.000      0.000
REMARK  4 active torsions:
REMARK  status: ('A' for Active; 'I' for Inactive)
REMARK       I    between atoms: N1_2  and  C2_4 
REMARK    1  A    between atoms: C2_4  and  C3_6 
REMARK    2  A    between atoms: C6_9  and  C7_10 
REMARK    3  A    between atoms: C7_10  and  N2_11 
REMARK    4  A    between atoms: C10_15  and  C11_16 
ROOT
HETATM    1  C3  UNL     1      -3.945   1.480  11.950  1.00  0.00     0.104 C 
HETATM    2  C4  UNL     1      -4.444   0.548  10.839  1.00  0.00     0.048 C 
HETATM    3  C5  UNL     1      -4.633   2.812  11.834  1.00  0.00     0.046 C 
HETATM    4  C6  UNL     1      -3.608   3.937  11.831  1.00  0.00     0.018 C 
HETATM    5  C14 UNL     1      -2.722   3.683  10.620  1.00  0.00     0.025 C 
HETATM    6  C15 UNL     1      -2.037   2.354  10.747  1.00  0.00     0.115 C 
HETATM    7  N3  UNL     1      -2.522   1.628  11.880  1.00  0.00    -0.405 N 
ATOM      8  H3  UNL     1      -1.898   1.243  12.589  1.00  0.00     0.154 HD
ENDROOT
BRANCH   4   9
HETATM    9  C7  UNL     1      -4.310   5.268  11.703  1.00  0.00     0.277 C 
BRANCH   9  10
HETATM   10  N2  UNL     1      -4.073   6.047  12.905  1.00  0.00     0.097 N 
HETATM   11  C8  UNL     1      -2.647   5.913  13.252  1.00  0.00     0.295 C 
HETATM   12  C9  UNL     1      -3.083   6.007  14.709  1.00  0.00     0.144 C 
HETATM   13 CL1  UNL     1      -3.320   7.699  15.158  1.00  0.00    -0.121 Cl
HETATM   14  C10 UNL     1      -4.344   5.343  14.141  1.00  0.00     0.246 C 
BRANCH  14  15
HETATM   15  C11 UNL     1      -5.531   5.787  14.931  1.00  0.00     0.012 C 
HETATM   16  C12 UNL     1      -6.574   6.516  14.124  1.00  0.00     0.012 C 
HETATM   17  C13 UNL     1      -6.214   4.513  15.450  1.00  0.00     0.012 C 
ENDBRANCH  14  15
ENDBRANCH   9  10
ENDBRANCH   4   9
BRANCH   1  18
HETATM   18  C2  UNL     1      -4.281   0.799  13.231  1.00  0.00     0.244 C 
HETATM   19  N1  UNL     1      -4.353   1.490  14.463  1.00  0.00    -0.363 N 
HETATM   20  C1  UNL     1      -4.678   0.802  15.683  1.00  0.00     0.149 C 
ATOM     21  H1  UNL     1      -4.172   2.494  14.486  1.00  0.00     0.162 HD
HETATM   22  O1  UNL     1      -4.507  -0.431  13.222  1.00  0.00    -0.271 OA
ENDBRANCH   1  18
TORSDOF 4
ENDMDL
MODEL 2
REMARK VINA RESULT: -6.261864431      2.196      2.837
REMARK  4 active torsions:
REMARK  status: ('A' for Active; 'I' for Inactive)
REMARK       I    between atoms: N1_2  and  C2_4 
REMARK    1  A    between atoms: C2_4  and  C3_6 
REMARK    2  A    between atoms: C6_9  and  C7_10 
REMARK    3  A    between atoms: C7_10  and  N2_11 
REMARK    4  A    between atoms: C10_15  and  C11_16 
ROOT
HETATM    1  C3  UNL     1      -4.047   1.914  11.988  1.00  0.00     0.104 C 
HETATM    2  C4  UNL     1      -5.029   1.009  11.234  1.00  0.00     0.048 C 
HETATM    3  C5  UNL     1      -3.792   3.159  11.184  1.00  0.00     0.046 C 
HETATM    4  C6  UNL     1      -2.296   3.388  11.026  1.00  0.00     0.018 C 
HETATM    5  C14 UNL     1      -1.767   2.160  10.298  1.00  0.00     0.025 C 
HETATM    6  C15 UNL     1      -2.022   0.925  11.109  1.00  0.00     0.115 C 
HETATM    7  N3  UNL     1      -2.826   1.216  12.257  1.00  0.00    -0.405 N 
ATOM      8  H3  UNL     1      -2.548   0.945  13.200  1.00  0.00     0.154 HD
ENDROOT
BRANCH   4   9
HETATM    9  C7  UNL     1      -2.054   4.633  10.207  1.00  0.00     0.277 C 
BRANCH   9  10
HETATM   10  N2  UNL     1      -1.337   5.601  11.018  1.00  0.00     0.097 N 
HETATM   11  C8  UNL     1       0.102   5.435  10.747  1.00  0.00     0.295 C 
HETATM   12  C9  UNL     1       0.332   5.825  12.202  1.00  0.00     0.144 C 
HETATM   13 CL1  UNL     1       0.282   7.583  12.370  1.00  0.00    -0.121 Cl
HETATM   14  C10 UNL     1      -1.040   5.156  12.363  1.00  0.00     0.246 C 
BRANCH  14  15
HETATM   15  C11 UNL     1      -1.781   5.818  13.479  1.00  0.00     0.012 C 
HETATM   16  C12 UNL     1      -3.105   6.410  13.075  1.00  0.00     0.012 C 
HETATM   17  C13 UNL     1      -2.104   4.720  14.503  1.00  0.00     0.012 C 
ENDBRANCH  14  15
ENDBRANCH   9  10
ENDBRANCH   4   9
BRANCH   1  18
HETATM   18  C2  UNL     1      -4.702   2.225  13.289  1.00  0.00     0.244 C 
HETATM   19  N1  UNL     1      -4.378   1.543  14.485  1.00  0.00    -0.363 N 
HETATM   20  C1  UNL     1      -5.032   1.866  15.725  1.00  0.00     0.149 C 
ATOM     21  H1  UNL     1      -3.670   0.809  14.468  1.00  0.00     0.162 HD
HETATM   22  O1  UNL     1      -5.572   3.122  13.329  1.00  0.00    -0.271 OA
ENDBRANCH   1  18
TORSDOF 4
ENDMDL
MODEL 3
REMARK VINA RESULT: -6.246795089      1.470      2.096
REMARK  4 active torsions:
REMARK  status: ('A' for Active; 'I' for Inactive)
REMARK       I    between atoms: N1_2  and  C2_4 
REMARK    1  A    between atoms: C2_4  and  C3_6 
REMARK    2  A    between atoms: C6_9  and  C7_10 
REMARK    3  A    between atoms: C7_10  and  N2_11 
REMARK    4  A    between atoms: C10_15  and  C11_16 
ROOT
HETATM    1  C3  UNL     1      -3.811   1.326  11.918  1.00  0.00     0.104 C 
HETATM    2  C4  UNL     1      -4.577   0.429  10.938  1.00  0.00     0.048 C 
HETATM    3  C5  UNL     1      -4.122   2.769  11.627  1.00  0.00     0.046 C 
HETATM    4  C6  UNL     1      -2.834   3.567  11.479  1.00  0.00     0.018 C 
HETATM    5  C14 UNL     1      -2.089   2.932  10.314  1.00  0.00     0.025 C 
HETATM    6  C15 UNL     1      -1.779   1.495  10.615  1.00  0.00     0.115 C 
HETATM    7  N3  UNL     1      -2.403   1.076  11.833  1.00  0.00    -0.405 N 
ATOM      8  H3  UNL     1      -1.882   0.630  12.588  1.00  0.00     0.154 HD
ENDROOT
BRANCH   4   9
HETATM    9  C7  UNL     1      -3.160   5.009  11.176  1.00  0.00     0.277 C 
BRANCH   9  10
HETATM   10  N2  UNL     1      -4.094   5.504  12.172  1.00  0.00     0.097 N 
HETATM   11  C8  UNL     1      -5.007   6.446  11.501  1.00  0.00     0.295 C 
HETATM   12  C9  UNL     1      -5.041   7.214  12.817  1.00  0.00     0.144 C 
HETATM   13 CL1  UNL     1      -6.188   6.456  13.927  1.00  0.00    -0.121 Cl
HETATM   14  C10 UNL     1      -3.620   6.645  12.926  1.00  0.00     0.246 C 
BRANCH  14  15
HETATM   15  C11 UNL     1      -3.290   6.421  14.365  1.00  0.00     0.012 C 
HETATM   16  C12 UNL     1      -2.675   5.077  14.656  1.00  0.00     0.012 C 
HETATM   17  C13 UNL     1      -2.224   7.462  14.738  1.00  0.00     0.012 C 
ENDBRANCH  14  15
ENDBRANCH   9  10
ENDBRANCH   4   9
BRANCH   1  18
HETATM   18  C2  UNL     1      -4.274   0.929  13.277  1.00  0.00     0.244 C 
HETATM   19  N1  UNL     1      -4.410   1.858  14.335  1.00  0.00    -0.363 N 
HETATM   20  C1  UNL     1      -4.857   1.441  15.637  1.00  0.00     0.149 C 
ATOM     21  H1  UNL     1      -4.188   2.840  14.172  1.00  0.00     0.162 HD
HETATM   22  O1  UNL     1      -4.551  -0.271  13.496  1.00  0.00    -0.271 OA
ENDBRANCH   1  18
TORSDOF 4
ENDMDL
MODEL 4
REMARK VINA RESULT: -6.238304559      0.862      1.134
REMARK  4 active torsions:
REMARK  status: ('A' for Active; 'I' for Inactive)
REMARK       I    between atoms: N1_2  and  C2_4 
REMARK    1  A    between atoms: C2_4  and  C3_6 
REMARK    2  A    between atoms: C6_9  and  C7_10 
REMARK    3  A    between atoms: C7_10  and  N2_11 
REMARK    4  A    between atoms: C10_15  and  C11_16 
ROOT
HETATM    1  C3  UNL     1      -3.874   1.505  11.934  1.00  0.00     0.104 C 
HETATM    2  C4  UNL     1      -4.260   0.588  10.766  1.00  0.00     0.048 C 
HETATM    3  C5  UNL     1      -4.627   2.802  11.825  1.00  0.00     0.046 C 
HETATM    4  C6  UNL     1      -3.668   3.979  11.916  1.00  0.00     0.018 C 
HETATM    5  C14 UNL     1      -2.705   3.818  10.748  1.00  0.00     0.025 C 
HETATM    6  C15 UNL     1      -1.955   2.524  10.868  1.00  0.00     0.115 C 
HETATM    7  N3  UNL     1      -2.459   1.731  11.948  1.00  0.00    -0.405 N 
ATOM      8  H3  UNL     1      -1.854   1.354  12.677  1.00  0.00     0.154 HD
ENDROOT
BRANCH   4   9
HETATM    9  C7  UNL     1      -4.434   5.274  11.794  1.00  0.00     0.277 C 
BRANCH   9  10
HETATM   10  N2  UNL     1      -4.074   6.145  12.899  1.00  0.00     0.097 N 
HETATM   11  C8  UNL     1      -3.461   5.310  13.947  1.00  0.00     0.295 C 
HETATM   12  C9  UNL     1      -4.086   6.268  14.953  1.00  0.00     0.144 C 
HETATM   13 CL1  UNL     1      -3.075   7.708  15.120  1.00  0.00    -0.121 Cl
HETATM   14  C10 UNL     1      -5.141   6.387  13.846  1.00  0.00     0.246 C 
BRANCH  14  15
HETATM   15  C11 UNL     1      -5.729   7.760  13.874  1.00  0.00     0.012 C 
HETATM   16  C12 UNL     1      -6.534   8.113  12.651  1.00  0.00     0.012 C 
HETATM   17  C13 UNL     1      -6.715   7.791  15.051  1.00  0.00     0.012 C 
ENDBRANCH  14  15
ENDBRANCH   9  10
ENDBRANCH   4   9
BRANCH   1  18
HETATM   18  C2  UNL     1      -4.239   0.760  13.171  1.00  0.00     0.244 C 
HETATM   19  N1  UNL     1      -4.295   1.380  14.441  1.00  0.00    -0.363 N 
HETATM   20  C1  UNL     1      -4.649   0.631  15.617  1.00  0.00     0.149 C 
ATOM     21  H1  UNL     1      -4.081   2.374  14.525  1.00  0.00     0.162 HD
HETATM   22  O1  UNL     1      -4.506  -0.458  13.088  1.00  0.00    -0.271 OA
ENDBRANCH   1  18
TORSDOF 4
ENDMDL
MODEL 5
REMARK VINA RESULT: -6.227505482      1.590      1.941
REMARK  4 active torsions:
REMARK  status: ('A' for Active; 'I' for Inactive)
REMARK       I    between atoms: N1_2  and  C2_4 
REMARK    1  A    between atoms: C2_4  and  C3_6 
REMARK    2  A    between atoms: C6_9  and  C7_10 
REMARK    3  A    between atoms: C7_10  and  N2_11 
REMARK    4  A    between atoms: C10_15  and  C11_16 
ROOT
HETATM    1  C3  UNL     1      -3.983   2.102  12.404  1.00  0.00     0.104 C 
HETATM    2  C4  UNL     1      -4.986   1.827  11.277  1.00  0.00     0.048 C 
HETATM    3  C5  UNL     1      -4.118   3.529  12.859  1.00  0.00     0.046 C 
HETATM    4  C6  UNL     1      -2.758   4.212  12.864  1.00  0.00     0.018 C 
HETATM    5  C14 UNL     1      -2.262   4.152  11.426  1.00  0.00     0.025 C 
HETATM    6  C15 UNL     1      -2.127   2.725  10.983  1.00  0.00     0.115 C 
HETATM    7  N3  UNL     1      -2.648   1.825  11.967  1.00  0.00    -0.405 N 
ATOM      8  H3  UNL     1      -2.105   1.042  12.331  1.00  0.00     0.154 HD
ENDROOT
BRANCH   4   9
HETATM    9  C7  UNL     1      -2.909   5.646  13.311  1.00  0.00     0.277 C 
BRANCH   9  10
HETATM   10  N2  UNL     1      -4.134   6.191  12.753  1.00  0.00     0.097 N 
HETATM   11  C8  UNL     1      -3.771   7.358  11.930  1.00  0.00     0.295 C 
HETATM   12  C9  UNL     1      -5.102   7.963  12.357  1.00  0.00     0.144 C 
HETATM   13 CL1  UNL     1      -6.407   7.314  11.358  1.00  0.00    -0.121 Cl
HETATM   14  C10 UNL     1      -4.822   7.129  13.614  1.00  0.00     0.246 C 
BRANCH  14  15
HETATM   15  C11 UNL     1      -6.119   6.684  14.207  1.00  0.00     0.012 C 
HETATM   16  C12 UNL     1      -5.988   5.573  15.216  1.00  0.00     0.012 C 
HETATM   17  C13 UNL     1      -6.684   7.887  14.976  1.00  0.00     0.012 C 
ENDBRANCH  14  15
ENDBRANCH   9  10
ENDBRANCH   4   9
BRANCH   1  18
HETATM   18  C2  UNL     1      -4.325   1.144  13.492  1.00  0.00     0.244 C 
HETATM   19  N1  UNL     1      -4.429   1.539  14.846  1.00  0.00    -0.363 N 
HETATM   20  C1  UNL     1      -4.759   0.588  15.874  1.00  0.00     0.149 C 
ATOM     21  H1  UNL     1      -4.267   2.514  15.098  1.00  0.00     0.162 HD
HETATM   22  O1  UNL     1      -4.528  -0.055  13.202  1.00  0.00    -0.271 OA
ENDBRANCH   1  18
TORSDOF 4
ENDMDL
