MODEL 1
REMARK VINA RESULT: -6.087997046      0.000      0.000
REMARK  6 active torsions:
REMARK  status: ('A' for Active; 'I' for Inactive)
REMARK    1  A    between atoms: O1_2  and  C2_3 
REMARK    2  A    between atoms: C2_3  and  C3_5 
REMARK    3  A    between atoms: C3_5  and  C4_6 
REMARK    4  A    between atoms: C8_10  and  C9_11 
REMARK    5  A    between atoms: C9_11  and  N1_12 
REMARK    6  A    between atoms: C12_16  and  O3_17 
ROOT
HETATM    1  C4  UNL     1      -5.026   3.108  14.960  1.00  0.00     0.024 C 
HETATM    2  C5  UNL     1      -6.396   3.541  15.394  1.00  0.00     0.007 C 
HETATM    3  C6  UNL     1      -6.260   5.033  15.741  1.00  0.00     0.001 C 
HETATM    4  C7  UNL     1      -5.933   5.750  14.450  1.00  0.00     0.009 C 
HETATM    5  C8  UNL     1      -4.644   5.330  13.828  1.00  0.00     0.042 C 
HETATM    6  C12 UNL     1      -4.640   3.833  13.682  1.00  0.00     0.128 C 
ENDROOT
BRANCH   1   7
HETATM    7  C3  UNL     1      -4.844   1.653  14.735  1.00  0.00     0.118 C 
BRANCH   7   8
HETATM    8  C2  UNL     1      -4.666   0.810  15.902  1.00  0.00     0.258 C 
HETATM    9  O2  UNL     1      -3.571   0.720  16.490  1.00  0.00    -0.265 OA
BRANCH   8  10
HETATM   10  O1  UNL     1      -5.736   0.078  16.391  1.00  0.00    -0.326 OA
HETATM   11  C1  UNL     1      -6.519   0.487  17.482  1.00  0.00     0.213 C 
ENDBRANCH   8  10
ENDBRANCH   7   8
ENDBRANCH   1   7
BRANCH   6  12
HETATM   12  O3  UNL     1      -3.346   3.416  13.360  1.00  0.00    -0.395 OA
ATOM     13  H3  UNL     1      -3.136   3.806  12.519  1.00  0.00     0.210 HD
ENDBRANCH   6  12
BRANCH   5  14
HETATM   14  C9  UNL     1      -3.408   5.753  14.557  1.00  0.00     0.257 C 
BRANCH  14  15
HETATM   15  N1  UNL     1      -2.639   6.780  13.935  1.00  0.00    -0.018 N 
HETATM   16  C10 UNL     1      -3.407   7.236  12.761  1.00  0.00     0.287 C 
HETATM   17  C11 UNL     1      -1.346   6.333  13.439  1.00  0.00     0.287 C 
HETATM   18 BR1  UNL     1      -2.343   8.283  15.042  1.00  0.00     0.163 Br
ENDBRANCH  14  15
ENDBRANCH   5  14
TORSDOF 6
ENDMDL
MODEL 2
REMARK VINA RESULT: -5.994591005      0.914      1.071
REMARK  6 active torsions:
REMARK  status: ('A' for Active; 'I' for Inactive)
REMARK    1  A    between atoms: O1_2  and  C2_3 
REMARK    2  A    between atoms: C2_3  and  C3_5 
REMARK    3  A    between atoms: C3_5  and  C4_6 
REMARK    4  A    between atoms: C8_10  and  C9_11 
REMARK    5  A    between atoms: C9_11  and  N1_12 
REMARK    6  A    between atoms: C12_16  and  O3_17 
ROOT
HETATM    1  C4  UNL     1      -5.006   3.106  14.916  1.00  0.00     0.024 C 
HETATM    2  C5  UNL     1      -6.366   3.570  15.346  1.00  0.00     0.007 C 
HETATM    3  C6  UNL     1      -6.205   5.064  15.667  1.00  0.00     0.001 C 
HETATM    4  C7  UNL     1      -5.867   5.755  14.364  1.00  0.00     0.009 C 
HETATM    5  C8  UNL     1      -4.588   5.302  13.747  1.00  0.00     0.042 C 
HETATM    6  C12 UNL     1      -4.610   3.803  13.625  1.00  0.00     0.128 C 
ENDROOT
BRANCH   1   7
HETATM    7  C3  UNL     1      -4.848   1.644  14.715  1.00  0.00     0.118 C 
BRANCH   7   8
HETATM    8  C2  UNL     1      -4.673   0.819  15.894  1.00  0.00     0.258 C 
HETATM    9  O2  UNL     1      -3.582   0.746  16.492  1.00  0.00    -0.265 OA
BRANCH   8  10
HETATM   10  O1  UNL     1      -5.741   0.086  16.385  1.00  0.00    -0.326 OA
HETATM   11  C1  UNL     1      -6.533   0.501  17.467  1.00  0.00     0.213 C 
ENDBRANCH   8  10
ENDBRANCH   7   8
ENDBRANCH   1   7
BRANCH   6  12
HETATM   12  O3  UNL     1      -3.324   3.359  13.308  1.00  0.00    -0.395 OA
ATOM     13  H3  UNL     1      -3.026   2.840  14.046  1.00  0.00     0.210 HD
ENDBRANCH   6  12
BRANCH   5  14
HETATM   14  C9  UNL     1      -3.342   5.716  14.466  1.00  0.00     0.257 C 
BRANCH  14  15
HETATM   15  N1  UNL     1      -2.590   6.760  13.856  1.00  0.00    -0.018 N 
HETATM   16  C10 UNL     1      -1.337   6.155  13.365  1.00  0.00     0.287 C 
HETATM   17  C11 UNL     1      -2.206   7.826  14.771  1.00  0.00     0.287 C 
HETATM   18 BR1  UNL     1      -3.456   7.557  12.376  1.00  0.00     0.163 Br
ENDBRANCH  14  15
ENDBRANCH   5  14
TORSDOF 6
ENDMDL
MODEL 3
REMARK VINA RESULT: -5.884268437      1.978      2.266
REMARK  6 active torsions:
REMARK  status: ('A' for Active; 'I' for Inactive)
REMARK    1  A    between atoms: O1_2  and  C2_3 
REMARK    2  A    between atoms: C2_3  and  C3_5 
REMARK    3  A    between atoms: C3_5  and  C4_6 
REMARK    4  A    between atoms: C8_10  and  C9_11 
REMARK    5  A    between atoms: C9_11  and  N1_12 
REMARK    6  A    between atoms: C12_16  and  O3_17 
ROOT
HETATM    1  C4  UNL     1      -4.379   2.837  14.489  1.00  0.00     0.024 C 
HETATM    2  C5  UNL     1      -5.250   3.894  15.103  1.00  0.00     0.007 C 
HETATM    3  C6  UNL     1      -4.437   5.195  15.012  1.00  0.00     0.001 C 
HETATM    4  C7  UNL     1      -4.288   5.513  13.541  1.00  0.00     0.009 C 
HETATM    5  C8  UNL     1      -3.542   4.480  12.766  1.00  0.00     0.042 C 
HETATM    6  C12 UNL     1      -4.172   3.137  13.013  1.00  0.00     0.128 C 
ENDROOT
BRANCH   1   7
HETATM    7  C3  UNL     1      -4.864   1.440  14.610  1.00  0.00     0.118 C 
BRANCH   7   8
HETATM    8  C2  UNL     1      -4.701   0.782  15.891  1.00  0.00     0.258 C 
HETATM    9  O2  UNL     1      -3.622   0.811  16.516  1.00  0.00    -0.265 OA
BRANCH   8  10
HETATM   10  O1  UNL     1      -5.766   0.098  16.453  1.00  0.00    -0.326 OA
HETATM   11  C1  UNL     1      -6.715   0.699  17.295  1.00  0.00     0.213 C 
ENDBRANCH   8  10
ENDBRANCH   7   8
ENDBRANCH   1   7
BRANCH   6  12
HETATM   12  O3  UNL     1      -3.323   2.144  12.518  1.00  0.00    -0.395 OA
ATOM     13  H3  UNL     1      -3.879   1.492  12.107  1.00  0.00     0.210 HD
ENDBRANCH   6  12
BRANCH   5  14
HETATM   14  C9  UNL     1      -2.076   4.392  13.054  1.00  0.00     0.257 C 
BRANCH  14  15
HETATM   15  N1  UNL     1      -1.210   4.842  12.015  1.00  0.00    -0.018 N 
HETATM   16  C10 UNL     1      -0.306   3.722  11.696  1.00  0.00     0.287 C 
HETATM   17  C11 UNL     1      -0.364   5.965  12.394  1.00  0.00     0.287 C 
HETATM   18 BR1  UNL     1      -2.115   5.315  10.424  1.00  0.00     0.163 Br
ENDBRANCH  14  15
ENDBRANCH   5  14
TORSDOF 6
ENDMDL
MODEL 4
REMARK VINA RESULT: -5.793943202      2.716      2.989
REMARK  6 active torsions:
REMARK  status: ('A' for Active; 'I' for Inactive)
REMARK    1  A    between atoms: O1_2  and  C2_3 
REMARK    2  A    between atoms: C2_3  and  C3_5 
REMARK    3  A    between atoms: C3_5  and  C4_6 
REMARK    4  A    between atoms: C8_10  and  C9_11 
REMARK    5  A    between atoms: C9_11  and  N1_12 
REMARK    6  A    between atoms: C12_16  and  O3_17 
ROOT
HETATM    1  C4  UNL     1      -4.776   3.181  14.926  1.00  0.00     0.024 C 
HETATM    2  C5  UNL     1      -5.197   4.556  15.355  1.00  0.00     0.007 C 
HETATM    3  C6  UNL     1      -4.172   5.512  14.723  1.00  0.00     0.001 C 
HETATM    4  C7  UNL     1      -4.356   5.415  13.225  1.00  0.00     0.009 C 
HETATM    5  C8  UNL     1      -4.090   4.060  12.663  1.00  0.00     0.042 C 
HETATM    6  C12 UNL     1      -4.910   3.051  13.418  1.00  0.00     0.128 C 
ENDROOT
BRANCH   1   7
HETATM    7  C3  UNL     1      -5.506   2.051  15.552  1.00  0.00     0.118 C 
BRANCH   7   8
HETATM    8  C2  UNL     1      -4.825   1.307  16.594  1.00  0.00     0.258 C 
HETATM    9  O2  UNL     1      -3.669   0.868  16.443  1.00  0.00    -0.265 OA
BRANCH   8  10
HETATM   10  O1  UNL     1      -5.466   1.069  17.799  1.00  0.00    -0.326 OA
HETATM   11  C1  UNL     1      -6.325   1.993  18.414  1.00  0.00     0.213 C 
ENDBRANCH   8  10
ENDBRANCH   7   8
ENDBRANCH   1   7
BRANCH   6  12
HETATM   12  O3  UNL     1      -4.465   1.769  13.086  1.00  0.00    -0.395 OA
ATOM     13  H3  UNL     1      -4.893   1.536  12.270  1.00  0.00     0.210 HD
ENDBRANCH   6  12
BRANCH   5  14
HETATM   14  C9  UNL     1      -2.657   3.629  12.670  1.00  0.00     0.257 C 
BRANCH  14  15
HETATM   15  N1  UNL     1      -2.052   3.459  11.391  1.00  0.00    -0.018 N 
HETATM   16  C10 UNL     1      -0.735   4.122  11.449  1.00  0.00     0.287 C 
HETATM   17  C11 UNL     1      -2.786   4.086  10.301  1.00  0.00     0.287 C 
HETATM   18 BR1  UNL     1      -1.760   1.651  10.923  1.00  0.00     0.163 Br
ENDBRANCH  14  15
ENDBRANCH   5  14
TORSDOF 6
ENDMDL
MODEL 5
REMARK VINA RESULT: -5.742910568      1.496      1.882
REMARK  6 active torsions:
REMARK  status: ('A' for Active; 'I' for Inactive)
REMARK    1  A    between atoms: O1_2  and  C2_3 
REMARK    2  A    between atoms: C2_3  and  C3_5 
REMARK    3  A    between atoms: C3_5  and  C4_6 
REMARK    4  A    between atoms: C8_10  and  C9_11 
REMARK    5  A    between atoms: C9_11  and  N1_12 
REMARK    6  A    between atoms: C12_16  and  O3_17 
ROOT
HETATM    1  C4  UNL     1      -4.769   2.804  15.983  1.00  0.00     0.024 C 
HETATM    2  C5  UNL     1      -6.233   2.790  16.314  1.00  0.00     0.007 C 
HETATM    3  C6  UNL     1      -6.648   4.268  16.391  1.00  0.00     0.001 C 
HETATM    4  C7  UNL     1      -6.491   4.835  14.998  1.00  0.00     0.009 C 
HETATM    5  C8  UNL     1      -5.093   4.803  14.479  1.00  0.00     0.042 C 
HETATM    6  C12 UNL     1      -4.561   3.402  14.602  1.00  0.00     0.128 C 
ENDROOT
BRANCH   1   7
HETATM    7  C3  UNL     1      -4.079   1.491  16.024  1.00  0.00     0.118 C 
BRANCH   7   8
HETATM    8  C2  UNL     1      -4.869   0.308  15.745  1.00  0.00     0.258 C 
HETATM    9  O2  UNL     1      -5.689  -0.146  16.566  1.00  0.00    -0.265 OA
BRANCH   8  10
HETATM   10  O1  UNL     1      -4.720  -0.348  14.534  1.00  0.00    -0.326 OA
HETATM   11  C1  UNL     1      -4.280   0.284  13.360  1.00  0.00     0.213 C 
ENDBRANCH   8  10
ENDBRANCH   7   8
ENDBRANCH   1   7
BRANCH   6  12
HETATM   12  O3  UNL     1      -3.182   3.422  14.378  1.00  0.00    -0.395 OA
ATOM     13  H3  UNL     1      -2.770   3.501  15.230  1.00  0.00     0.210 HD
ENDBRANCH   6  12
BRANCH   5  14
HETATM   14  C9  UNL     1      -4.138   5.748  15.138  1.00  0.00     0.257 C 
BRANCH  14  15
HETATM   15  N1  UNL     1      -3.965   7.007  14.494  1.00  0.00    -0.018 N 
HETATM   16  C10 UNL     1      -4.067   6.763  13.043  1.00  0.00     0.287 C 
HETATM   17  C11 UNL     1      -2.662   7.615  14.723  1.00  0.00     0.287 C 
HETATM   18 BR1  UNL     1      -5.284   8.282  14.952  1.00  0.00     0.163 Br
ENDBRANCH  14  15
ENDBRANCH   5  14
TORSDOF 6
ENDMDL
