MODEL 1
REMARK VINA RESULT: -6.423634181      0.000      0.000
REMARK  4 active torsions:
REMARK  status: ('A' for Active; 'I' for Inactive)
REMARK    1  A    between atoms: C2_2  and  C3_3 
REMARK    2  A    between atoms: C3_3  and  C4_4 
REMARK    3  A    between atoms: C4_4  and  N1_5 
REMARK    4  A    between atoms: N4_14  and  C9_16 
ROOT
HETATM    1  N1  UNL     1      -3.635   7.133  14.942  1.00  0.00     0.093 N 
HETATM    2  C5  UNL     1      -2.576   7.772  14.232  1.00  0.00     0.279 C 
HETATM    3  C6  UNL     1      -1.395   6.787  14.289  1.00  0.00     0.089 C 
HETATM    4  C7  UNL     1      -1.898   5.454  13.802  1.00  0.00     0.039 A 
HETATM    5  N2  UNL     1      -1.145   4.414  13.358  1.00  0.00    -0.303 N 
ATOM      6  H2  UNL     1      -0.128   4.382  13.291  1.00  0.00     0.186 HD
HETATM    7  N3  UNL     1      -1.992   3.447  13.028  1.00  0.00    -0.285 N 
ATOM      8  H3  UNL     1      -1.724   2.535  12.659  1.00  0.00     0.188 HD
HETATM    9  C8  UNL     1      -3.273   3.853  13.255  1.00  0.00     0.126 A 
HETATM   10  N4  UNL     1      -4.359   3.190  13.055  1.00  0.00    -0.369 N 
ATOM     11  H4  UNL     1      -5.270   3.597  13.264  1.00  0.00     0.161 HD
HETATM   12  C15 UNL     1      -3.229   5.134  13.751  1.00  0.00     0.039 A 
HETATM   13  C16 UNL     1      -4.251   6.101  14.177  1.00  0.00     0.317 C 
ENDROOT
BRANCH  10  14
HETATM   14  C9  UNL     1      -4.244   1.861  12.531  1.00  0.00     0.092 C 
HETATM   15  C10 UNL     1      -4.447   0.764  13.526  1.00  0.00     0.070 C 
HETATM   16  C11 UNL     1      -4.195  -0.547  12.851  1.00  0.00     0.064 C 
HETATM   17  N5  UNL     1      -4.036  -0.529  11.456  1.00  0.00    -0.378 N 
HETATM   18  C12 UNL     1      -2.741  -0.828  10.953  1.00  0.00     0.154 C 
HETATM   19  C13 UNL     1      -4.822   0.350  10.688  1.00  0.00     0.064 C 
HETATM   20  C14 UNL     1      -5.206   1.628  11.389  1.00  0.00     0.070 C 
ENDBRANCH  10  14
BRANCH   1  21
HETATM   21  C4  UNL     1      -4.554   8.025  15.578  1.00  0.00     0.272 C 
BRANCH  21  22
HETATM   22  C3  UNL     1      -5.905   7.359  15.678  1.00  0.00     0.030 C 
BRANCH  22  23
HETATM   23  C2  UNL     1      -7.031   8.359  15.479  1.00  0.00    -0.003 C 
HETATM   24  C1  UNL     1      -7.546   8.367  14.064  1.00  0.00     0.005 C 
ENDBRANCH  22  23
ENDBRANCH  21  22
ENDBRANCH   1  21
TORSDOF 4
ENDMDL
MODEL 2
REMARK VINA RESULT: -6.260859629      1.975      2.920
REMARK  4 active torsions:
REMARK  status: ('A' for Active; 'I' for Inactive)
REMARK    1  A    between atoms: C2_2  and  C3_3 
REMARK    2  A    between atoms: C3_3  and  C4_4 
REMARK    3  A    between atoms: C4_4  and  N1_5 
REMARK    4  A    between atoms: N4_14  and  C9_16 
ROOT
HETATM    1  N1  UNL     1      -5.570   7.084  13.847  1.00  0.00     0.093 N 
HETATM    2  C5  UNL     1      -5.471   6.934  15.262  1.00  0.00     0.279 C 
HETATM    3  C6  UNL     1      -6.235   5.639  15.590  1.00  0.00     0.089 C 
HETATM    4  C7  UNL     1      -5.682   4.555  14.702  1.00  0.00     0.039 A 
HETATM    5  N2  UNL     1      -5.801   3.214  14.885  1.00  0.00    -0.303 N 
ATOM      6  H2  UNL     1      -6.285   2.744  15.650  1.00  0.00     0.186 HD
HETATM    7  N3  UNL     1      -5.166   2.636  13.875  1.00  0.00    -0.285 N 
ATOM      8  H3  UNL     1      -5.081   1.629  13.736  1.00  0.00     0.188 HD
HETATM    9  C8  UNL     1      -4.643   3.586  13.049  1.00  0.00     0.126 A 
HETATM   10  N4  UNL     1      -3.962   3.406  11.970  1.00  0.00    -0.369 N 
ATOM     11  H4  UNL     1      -3.619   4.198  11.427  1.00  0.00     0.161 HD
HETATM   12  C15 UNL     1      -4.965   4.818  13.564  1.00  0.00     0.039 A 
HETATM   13  C16 UNL     1      -4.695   6.202  13.150  1.00  0.00     0.317 C 
ENDROOT
BRANCH  10  14
HETATM   14  C9  UNL     1      -3.704   2.058  11.558  1.00  0.00     0.092 C 
HETATM   15  C10 UNL     1      -4.380   1.638  10.294  1.00  0.00     0.070 C 
HETATM   16  C11 UNL     1      -4.096   0.188  10.057  1.00  0.00     0.064 C 
HETATM   17  N5  UNL     1      -3.140  -0.420  10.887  1.00  0.00    -0.378 N 
HETATM   18  C12 UNL     1      -3.615  -1.393  11.807  1.00  0.00     0.154 C 
HETATM   19  C13 UNL     1      -2.004   0.313  11.275  1.00  0.00     0.064 C 
HETATM   20  C14 UNL     1      -2.223   1.800  11.394  1.00  0.00     0.070 C 
ENDBRANCH  10  14
BRANCH   1  21
HETATM   21  C4  UNL     1      -5.539   8.436  13.384  1.00  0.00     0.272 C 
BRANCH  21  22
HETATM   22  C3  UNL     1      -6.953   8.950  13.253  1.00  0.00     0.030 C 
BRANCH  22  23
HETATM   23  C2  UNL     1      -7.787   8.052  12.356  1.00  0.00    -0.003 C 
HETATM   24  C1  UNL     1      -7.461   8.237  10.898  1.00  0.00     0.005 C 
ENDBRANCH  22  23
ENDBRANCH  21  22
ENDBRANCH   1  21
TORSDOF 4
ENDMDL
MODEL 3
REMARK VINA RESULT: -6.108401606      1.810      2.342
REMARK  4 active torsions:
REMARK  status: ('A' for Active; 'I' for Inactive)
REMARK    1  A    between atoms: C2_2  and  C3_3 
REMARK    2  A    between atoms: C3_3  and  C4_4 
REMARK    3  A    between atoms: C4_4  and  N1_5 
REMARK    4  A    between atoms: N4_14  and  C9_16 
ROOT
HETATM    1  N1  UNL     1      -2.321   7.390  13.487  1.00  0.00     0.093 N 
HETATM    2  C5  UNL     1      -1.267   7.681  12.572  1.00  0.00     0.279 C 
HETATM    3  C6  UNL     1      -0.252   6.537  12.741  1.00  0.00     0.089 C 
HETATM    4  C7  UNL     1      -1.007   5.242  12.595  1.00  0.00     0.039 A 
HETATM    5  N2  UNL     1      -0.480   4.019  12.324  1.00  0.00    -0.303 N 
ATOM      6  H2  UNL     1       0.506   3.798  12.181  1.00  0.00     0.186 HD
HETATM    7  N3  UNL     1      -1.497   3.169  12.280  1.00  0.00    -0.285 N 
ATOM      8  H3  UNL     1      -1.416   2.169  12.095  1.00  0.00     0.188 HD
HETATM    9  C8  UNL     1      -2.665   3.829  12.520  1.00  0.00     0.126 A 
HETATM   10  N4  UNL     1      -3.855   3.338  12.557  1.00  0.00    -0.369 N 
ATOM     11  H4  UNL     1      -4.663   3.931  12.748  1.00  0.00     0.161 HD
HETATM   12  C15 UNL     1      -2.368   5.155  12.723  1.00  0.00     0.039 A 
HETATM   13  C16 UNL     1      -3.173   6.350  13.015  1.00  0.00     0.317 C 
ENDROOT
BRANCH  10  14
HETATM   14  C9  UNL     1      -4.008   1.932  12.323  1.00  0.00     0.092 C 
HETATM   15  C10 UNL     1      -4.302   1.113  13.537  1.00  0.00     0.070 C 
HETATM   16  C11 UNL     1      -4.330  -0.331  13.145  1.00  0.00     0.064 C 
HETATM   17  N5  UNL     1      -4.292  -0.622  11.772  1.00  0.00    -0.378 N 
HETATM   18  C12 UNL     1      -3.112  -1.244  11.280  1.00  0.00     0.154 C 
HETATM   19  C13 UNL     1      -4.985   0.211  10.875  1.00  0.00     0.064 C 
HETATM   20  C14 UNL     1      -5.091   1.652  11.306  1.00  0.00     0.070 C 
ENDBRANCH  10  14
BRANCH   1  21
HETATM   21  C4  UNL     1      -3.012   8.536  13.991  1.00  0.00     0.272 C 
BRANCH  21  22
HETATM   22  C3  UNL     1      -2.994   8.504  15.500  1.00  0.00     0.030 C 
BRANCH  22  23
HETATM   23  C2  UNL     1      -1.626   8.874  16.046  1.00  0.00    -0.003 C 
HETATM   24  C1  UNL     1      -1.133  10.192  15.511  1.00  0.00     0.005 C 
ENDBRANCH  22  23
ENDBRANCH  21  22
ENDBRANCH   1  21
TORSDOF 4
ENDMDL
MODEL 4
REMARK VINA RESULT: -6.107428879      0.770      1.006
REMARK  4 active torsions:
REMARK  status: ('A' for Active; 'I' for Inactive)
REMARK    1  A    between atoms: C2_2  and  C3_3 
REMARK    2  A    between atoms: C3_3  and  C4_4 
REMARK    3  A    between atoms: C4_4  and  N1_5 
REMARK    4  A    between atoms: N4_14  and  C9_16 
ROOT
HETATM    1  N1  UNL     1      -3.931   7.782  14.096  1.00  0.00     0.093 N 
HETATM    2  C5  UNL     1      -2.594   8.192  13.819  1.00  0.00     0.279 C 
HETATM    3  C6  UNL     1      -1.696   7.143  14.500  1.00  0.00     0.089 C 
HETATM    4  C7  UNL     1      -2.156   5.788  14.030  1.00  0.00     0.039 A 
HETATM    5  N2  UNL     1      -1.453   4.626  14.088  1.00  0.00    -0.303 N 
ATOM      6  H2  UNL     1      -0.512   4.501  14.460  1.00  0.00     0.186 HD
HETATM    7  N3  UNL     1      -2.231   3.687  13.566  1.00  0.00    -0.285 N 
ATOM      8  H3  UNL     1      -1.977   2.703  13.471  1.00  0.00     0.188 HD
HETATM    9  C8  UNL     1      -3.419   4.229  13.177  1.00  0.00     0.126 A 
HETATM   10  N4  UNL     1      -4.419   3.630  12.630  1.00  0.00    -0.369 N 
ATOM     11  H4  UNL     1      -5.266   4.140  12.379  1.00  0.00     0.161 HD
HETATM   12  C15 UNL     1      -3.386   5.572  13.468  1.00  0.00     0.039 A 
HETATM   13  C16 UNL     1      -4.335   6.680  13.290  1.00  0.00     0.317 C 
ENDROOT
BRANCH  10  14
HETATM   14  C9  UNL     1      -4.305   2.222  12.387  1.00  0.00     0.092 C 
HETATM   15  C10 UNL     1      -4.526   1.350  13.579  1.00  0.00     0.070 C 
HETATM   16  C11 UNL     1      -4.272  -0.072  13.186  1.00  0.00     0.064 C 
HETATM   17  N5  UNL     1      -4.095  -0.336  11.818  1.00  0.00    -0.378 N 
HETATM   18  C12 UNL     1      -2.795  -0.734  11.405  1.00  0.00     0.154 C 
HETATM   19  C13 UNL     1      -4.866   0.372  10.878  1.00  0.00     0.064 C 
HETATM   20  C14 UNL     1      -5.253   1.766  11.301  1.00  0.00     0.070 C 
ENDBRANCH  10  14
BRANCH   1  21
HETATM   21  C4  UNL     1      -4.883   8.847  14.161  1.00  0.00     0.272 C 
BRANCH  21  22
HETATM   22  C3  UNL     1      -6.016   8.561  13.205  1.00  0.00     0.030 C 
BRANCH  22  23
HETATM   23  C2  UNL     1      -7.356   8.558  13.919  1.00  0.00    -0.003 C 
HETATM   24  C1  UNL     1      -7.215   8.339  15.402  1.00  0.00     0.005 C 
ENDBRANCH  22  23
ENDBRANCH  21  22
ENDBRANCH   1  21
TORSDOF 4
ENDMDL
MODEL 5
REMARK VINA RESULT: -6.016933554      3.438      7.433
REMARK  4 active torsions:
REMARK  status: ('A' for Active; 'I' for Inactive)
REMARK    1  A    between atoms: C2_2  and  C3_3 
REMARK    2  A    between atoms: C3_3  and  C4_4 
REMARK    3  A    between atoms: C4_4  and  N1_5 
REMARK    4  A    between atoms: N4_14  and  C9_16 
ROOT
HETATM    1  N1  UNL     1      -4.057   1.207  11.509  1.00  0.00     0.093 N 
HETATM    2  C5  UNL     1      -5.015   2.028  12.174  1.00  0.00     0.279 C 
HETATM    3  C6  UNL     1      -4.313   2.522  13.452  1.00  0.00     0.089 C 
HETATM    4  C7  UNL     1      -2.998   3.127  13.036  1.00  0.00     0.039 A 
HETATM    5  N2  UNL     1      -2.230   3.980  13.762  1.00  0.00    -0.303 N 
ATOM      6  H2  UNL     1      -2.431   4.335  14.697  1.00  0.00     0.186 HD
HETATM    7  N3  UNL     1      -1.169   4.262  13.018  1.00  0.00    -0.285 N 
ATOM      8  H3  UNL     1      -0.407   4.881  13.296  1.00  0.00     0.188 HD
HETATM    9  C8  UNL     1      -1.247   3.601  11.829  1.00  0.00     0.126 A 
HETATM   10  N4  UNL     1      -0.404   3.628  10.854  1.00  0.00    -0.369 N 
ATOM     11  H4  UNL     1      -0.566   3.089  10.004  1.00  0.00     0.161 HD
HETATM   12  C15 UNL     1      -2.411   2.871  11.826  1.00  0.00     0.039 A 
HETATM   13  C16 UNL     1      -3.052   1.975  10.853  1.00  0.00     0.317 C 
ENDROOT
BRANCH  10  14
HETATM   14  C9  UNL     1       0.767   4.440  11.004  1.00  0.00     0.092 C 
HETATM   15  C10 UNL     1       1.850   4.185  10.007  1.00  0.00     0.070 C 
HETATM   16  C11 UNL     1       3.033   5.031  10.358  1.00  0.00     0.064 C 
HETATM   17  N5  UNL     1       2.853   6.000  11.359  1.00  0.00    -0.378 N 
HETATM   18  C12 UNL     1       3.533   5.788  12.588  1.00  0.00     0.154 C 
HETATM   19  C13 UNL     1       1.632   6.695  11.427  1.00  0.00     0.064 C 
HETATM   20  C14 UNL     1       0.433   5.914  10.953  1.00  0.00     0.070 C 
ENDBRANCH  10  14
BRANCH   1  21
HETATM   21  C4  UNL     1      -4.616   0.160  10.712  1.00  0.00     0.272 C 
BRANCH  21  22
HETATM   22  C3  UNL     1      -4.546  -1.139  11.478  1.00  0.00     0.030 C 
BRANCH  22  23
HETATM   23  C2  UNL     1      -3.141  -1.717  11.461  1.00  0.00    -0.003 C 
HETATM   24  C1  UNL     1      -3.140  -3.222  11.495  1.00  0.00     0.005 C 
ENDBRANCH  22  23
ENDBRANCH  21  22
ENDBRANCH   1  21
TORSDOF 4
ENDMDL
