MODEL 1
REMARK VINA RESULT: -6.843788913      0.000      0.000
REMARK  17 active torsions:
REMARK  status: ('A' for Active; 'I' for Inactive)
REMARK    1  A    between atoms: N1_1  and  C1_5 
REMARK    2  A    between atoms: C1_5  and  C2_6 
REMARK    3  A    between atoms: C2_6  and  C3_7 
REMARK    4  A    between atoms: C3_7  and  C4_8 
REMARK    5  A    between atoms: C4_8  and  C5_9 
REMARK    6  A    between atoms: C5_9  and  N2_10 
REMARK    7  A    between atoms: C5_9  and  C16_27 
REMARK    8  A    between atoms: N2_10  and  S1_12 
REMARK    9  A    between atoms: S1_12  and  N3_15 
REMARK   10  A    between atoms: N3_15  and  C6_17 
REMARK   11  A    between atoms: C6_17  and  C7_18 
REMARK   12  A    between atoms: C7_18  and  C8_19 
REMARK       I    between atoms: C16_27  and  N4_29 
REMARK   13  A    between atoms: N4_29  and  C17_31 
REMARK   14  A    between atoms: C17_31  and  C18_32 
REMARK       I    between atoms: C18_32  and  N5_34 
REMARK   15  A    between atoms: N5_34  and  C19_36 
REMARK   16  A    between atoms: C19_36  and  C20_37 
REMARK   17  A    between atoms: C20_37  and  C21_38 
ROOT
HETATM    1  C5  UNL     1      13.740  21.094  12.678  1.00  0.00     0.186 C 
ENDROOT
BRANCH   1   2
HETATM    2  C4  UNL     1      13.741  22.003  11.535  1.00  0.00     0.035 C 
BRANCH   2   3
HETATM    3  C3  UNL     1      14.953  22.657  11.053  1.00  0.00     0.004 C 
BRANCH   3   4
HETATM    4  C2  UNL     1      15.738  21.921  10.009  1.00  0.00     0.027 C 
BRANCH   4   5
HETATM    5  C1  UNL     1      15.842  22.825   8.800  1.00  0.00     0.229 C 
BRANCH   5   6
HETATM    6  N1  UNL     1      16.260  22.121   7.617  1.00  0.00    -0.079 N 
ATOM      7  H13 UNL     1      16.727  21.246   7.857  1.00  0.00     0.274 HD
ATOM      8  H12 UNL     1      15.457  21.744   7.112  1.00  0.00     0.274 HD
ATOM      9  H11 UNL     1      16.843  22.692   7.006  1.00  0.00     0.274 HD
ENDBRANCH   5   6
ENDBRANCH   4   5
ENDBRANCH   3   4
ENDBRANCH   2   3
ENDBRANCH   1   2
BRANCH   1  10
HETATM   10  N2  UNL     1      12.711  21.212  13.651  1.00  0.00    -0.289 N 
ATOM     11  H2  UNL     1      11.871  21.748  13.432  1.00  0.00     0.174 HD
BRANCH  10  12
HETATM   12  S1  UNL     1      12.856  20.486  15.142  1.00  0.00     0.315 S 
HETATM   13  O1  UNL     1      12.313  21.313  16.286  1.00  0.00    -0.183 OA
HETATM   14  O2  UNL     1      12.111  19.172  15.226  1.00  0.00    -0.183 OA
BRANCH  12  15
HETATM   15  N3  UNL     1      14.482  20.140  15.526  1.00  0.00    -0.303 N 
ATOM     16  H3  UNL     1      14.961  19.320  15.151  1.00  0.00     0.173 HD
BRANCH  15  17
HETATM   17  C6  UNL     1      15.132  21.056  16.397  1.00  0.00     0.134 C 
BRANCH  17  18
HETATM   18  C7  UNL     1      16.604  21.178  16.052  1.00  0.00     0.025 C 
BRANCH  18  19
HETATM   19  C8  UNL     1      16.729  21.603  14.611  1.00  0.00    -0.013 C 
HETATM   20  C9  UNL     1      18.131  21.458  14.157  1.00  0.00     0.005 C 
HETATM   21  C10 UNL     1      18.225  21.978  12.735  1.00  0.00     0.000 C 
HETATM   22  C11 UNL     1      19.022  23.237  12.730  1.00  0.00     0.000 C 
HETATM   23  C12 UNL     1      18.048  24.414  12.698  1.00  0.00     0.000 C 
HETATM   24  C13 UNL     1      17.820  24.948  14.063  1.00  0.00     0.000 C 
HETATM   25  C14 UNL     1      17.120  24.047  15.016  1.00  0.00     0.000 C 
HETATM   26  C15 UNL     1      16.206  23.041  14.444  1.00  0.00     0.005 C 
ENDBRANCH  18  19
ENDBRANCH  17  18
ENDBRANCH  15  17
ENDBRANCH  12  15
ENDBRANCH  10  12
ENDBRANCH   1  10
BRANCH   1  27
HETATM   27  C16 UNL     1      13.635  19.677  12.095  1.00  0.00     0.242 C 
HETATM   28  O3  UNL     1      14.697  19.064  11.848  1.00  0.00    -0.271 OA
HETATM   29  N4  UNL     1      12.398  19.073  11.837  1.00  0.00    -0.341 N 
ATOM     30  H4  UNL     1      11.555  19.608  12.048  1.00  0.00     0.163 HD
BRANCH  29  31
HETATM   31  C17 UNL     1      12.230  17.741  11.293  1.00  0.00     0.114 C 
HETATM   32  C22 UNL     1      12.961  17.536  10.020  1.00  0.00     0.041 C 
HETATM   33  C23 UNL     1      12.040  16.833   9.059  1.00  0.00     0.003 C 
HETATM   34  C24 UNL     1      10.663  17.106   9.561  1.00  0.00     0.003 C 
HETATM   35  C25 UNL     1      10.789  17.449  11.017  1.00  0.00     0.041 C 
BRANCH  31  36
HETATM   36  C18 UNL     1      12.683  16.768  12.344  1.00  0.00     0.246 C 
HETATM   37  O4  UNL     1      11.880  16.374  13.225  1.00  0.00    -0.271 OA
HETATM   38  N5  UNL     1      14.008  16.269  12.377  1.00  0.00    -0.358 N 
ATOM     39  H5  UNL     1      14.667  16.586  11.666  1.00  0.00     0.162 HD
BRANCH  38  40
HETATM   40  C19 UNL     1      14.459  15.351  13.355  1.00  0.00     0.133 C 
BRANCH  40  41
HETATM   41  C20 UNL     1      15.210  15.948  14.505  1.00  0.00     0.133 C 
BRANCH  41  42
HETATM   42  C21 UNL     1      16.348  16.790  14.006  1.00  0.00     0.174 C 
HETATM   43  O5  UNL     1      17.026  16.297  13.068  1.00  0.00    -0.648 OA
HETATM   44  O6  UNL     1      16.584  18.011  14.577  1.00  0.00    -0.648 OA
ENDBRANCH  41  42
ENDBRANCH  40  41
ENDBRANCH  38  40
ENDBRANCH  31  36
ENDBRANCH  29  31
ENDBRANCH   1  27
TORSDOF 17
ENDMDL
MODEL 2
REMARK VINA RESULT: -6.611835993      2.392      6.181
REMARK  17 active torsions:
REMARK  status: ('A' for Active; 'I' for Inactive)
REMARK    1  A    between atoms: N1_1  and  C1_5 
REMARK    2  A    between atoms: C1_5  and  C2_6 
REMARK    3  A    between atoms: C2_6  and  C3_7 
REMARK    4  A    between atoms: C3_7  and  C4_8 
REMARK    5  A    between atoms: C4_8  and  C5_9 
REMARK    6  A    between atoms: C5_9  and  N2_10 
REMARK    7  A    between atoms: C5_9  and  C16_27 
REMARK    8  A    between atoms: N2_10  and  S1_12 
REMARK    9  A    between atoms: S1_12  and  N3_15 
REMARK   10  A    between atoms: N3_15  and  C6_17 
REMARK   11  A    between atoms: C6_17  and  C7_18 
REMARK   12  A    between atoms: C7_18  and  C8_19 
REMARK       I    between atoms: C16_27  and  N4_29 
REMARK   13  A    between atoms: N4_29  and  C17_31 
REMARK   14  A    between atoms: C17_31  and  C18_32 
REMARK       I    between atoms: C18_32  and  N5_34 
REMARK   15  A    between atoms: N5_34  and  C19_36 
REMARK   16  A    between atoms: C19_36  and  C20_37 
REMARK   17  A    between atoms: C20_37  and  C21_38 
ROOT
HETATM    1  C5  UNL     1      15.273  22.613  15.787  1.00  0.00     0.186 C 
ENDROOT
BRANCH   1   2
HETATM    2  C4  UNL     1      15.568  24.038  15.665  1.00  0.00     0.035 C 
BRANCH   2   3
HETATM    3  C3  UNL     1      15.016  24.866  14.597  1.00  0.00     0.004 C 
BRANCH   3   4
HETATM    4  C2  UNL     1      15.879  25.053  13.385  1.00  0.00     0.027 C 
BRANCH   4   5
HETATM    5  C1  UNL     1      17.273  25.385  13.870  1.00  0.00     0.229 C 
BRANCH   5   6
HETATM    6  N1  UNL     1      18.270  24.495  13.335  1.00  0.00    -0.079 N 
ATOM      7  H13 UNL     1      17.845  23.779  12.746  1.00  0.00     0.274 HD
ATOM      8  H12 UNL     1      18.844  24.965  12.634  1.00  0.00     0.274 HD
ATOM      9  H11 UNL     1      18.849  24.075  14.062  1.00  0.00     0.274 HD
ENDBRANCH   5   6
ENDBRANCH   4   5
ENDBRANCH   3   4
ENDBRANCH   2   3
ENDBRANCH   1   2
BRANCH   1  10
HETATM   10  N2  UNL     1      14.102  22.096  15.170  1.00  0.00    -0.289 N 
ATOM     11  H2  UNL     1      13.941  22.265  14.177  1.00  0.00     0.174 HD
BRANCH  10  12
HETATM   12  S1  UNL     1      12.990  21.220  16.044  1.00  0.00     0.315 S 
HETATM   13  O1  UNL     1      13.428  20.900  17.456  1.00  0.00    -0.183 OA
HETATM   14  O2  UNL     1      11.670  21.944  16.202  1.00  0.00    -0.183 OA
BRANCH  12  15
HETATM   15  N3  UNL     1      12.629  19.727  15.300  1.00  0.00    -0.303 N 
ATOM     16  H3  UNL     1      12.883  18.836  15.729  1.00  0.00     0.173 HD
BRANCH  15  17
HETATM   17  C6  UNL     1      11.956  19.793  14.049  1.00  0.00     0.134 C 
BRANCH  17  18
HETATM   18  C7  UNL     1      12.813  19.208  12.943  1.00  0.00     0.025 C 
BRANCH  18  19
HETATM   19  C8  UNL     1      12.023  19.227  11.659  1.00  0.00    -0.013 C 
HETATM   20  C9  UNL     1      10.871  18.301  11.756  1.00  0.00     0.005 C 
HETATM   21  C10 UNL     1      10.159  18.287  10.416  1.00  0.00     0.000 C 
HETATM   22  C11 UNL     1      10.360  16.958   9.774  1.00  0.00     0.000 C 
HETATM   23  C12 UNL     1      11.486  17.092   8.750  1.00  0.00     0.000 C 
HETATM   24  C13 UNL     1      12.779  16.644   9.326  1.00  0.00     0.000 C 
HETATM   25  C14 UNL     1      13.325  17.466  10.438  1.00  0.00     0.000 C 
HETATM   26  C15 UNL     1      12.945  18.890  10.473  1.00  0.00     0.005 C 
ENDBRANCH  18  19
ENDBRANCH  17  18
ENDBRANCH  15  17
ENDBRANCH  12  15
ENDBRANCH  10  12
ENDBRANCH   1  10
BRANCH   1  27
HETATM   27  C16 UNL     1      16.464  21.876  15.157  1.00  0.00     0.242 C 
HETATM   28  O3  UNL     1      17.615  22.296  15.410  1.00  0.00    -0.271 OA
HETATM   29  N4  UNL     1      16.289  20.767  14.319  1.00  0.00    -0.341 N 
ATOM     30  H4  UNL     1      15.334  20.459  14.133  1.00  0.00     0.163 HD
BRANCH  29  31
HETATM   31  C17 UNL     1      17.368  20.027  13.697  1.00  0.00     0.114 C 
HETATM   32  C22 UNL     1      18.484  19.733  14.627  1.00  0.00     0.041 C 
HETATM   33  C23 UNL     1      19.777  20.034  13.917  1.00  0.00     0.003 C 
HETATM   34  C24 UNL     1      19.414  20.976  12.820  1.00  0.00     0.003 C 
HETATM   35  C25 UNL     1      17.950  20.787  12.548  1.00  0.00     0.041 C 
BRANCH  31  36
HETATM   36  C18 UNL     1      16.780  18.764  13.137  1.00  0.00     0.246 C 
HETATM   37  O4  UNL     1      16.264  18.764  11.992  1.00  0.00    -0.271 OA
HETATM   38  N5  UNL     1      16.785  17.550  13.866  1.00  0.00    -0.358 N 
ATOM     39  H5  UNL     1      17.201  17.542  14.798  1.00  0.00     0.162 HD
BRANCH  38  40
HETATM   40  C19 UNL     1      16.239  16.347  13.359  1.00  0.00     0.133 C 
BRANCH  40  41
HETATM   41  C20 UNL     1      14.850  16.025  13.816  1.00  0.00     0.133 C 
BRANCH  41  42
HETATM   42  C21 UNL     1      14.703  16.309  15.283  1.00  0.00     0.174 C 
HETATM   43  O5  UNL     1      14.276  17.455  15.580  1.00  0.00    -0.648 OA
HETATM   44  O6  UNL     1      15.027  15.340  16.193  1.00  0.00    -0.648 OA
ENDBRANCH  41  42
ENDBRANCH  40  41
ENDBRANCH  38  40
ENDBRANCH  31  36
ENDBRANCH  29  31
ENDBRANCH   1  27
TORSDOF 17
ENDMDL
MODEL 3
REMARK VINA RESULT: -6.477841085      2.676      7.622
REMARK  17 active torsions:
REMARK  status: ('A' for Active; 'I' for Inactive)
REMARK    1  A    between atoms: N1_1  and  C1_5 
REMARK    2  A    between atoms: C1_5  and  C2_6 
REMARK    3  A    between atoms: C2_6  and  C3_7 
REMARK    4  A    between atoms: C3_7  and  C4_8 
REMARK    5  A    between atoms: C4_8  and  C5_9 
REMARK    6  A    between atoms: C5_9  and  N2_10 
REMARK    7  A    between atoms: C5_9  and  C16_27 
REMARK    8  A    between atoms: N2_10  and  S1_12 
REMARK    9  A    between atoms: S1_12  and  N3_15 
REMARK   10  A    between atoms: N3_15  and  C6_17 
REMARK   11  A    between atoms: C6_17  and  C7_18 
REMARK   12  A    between atoms: C7_18  and  C8_19 
REMARK       I    between atoms: C16_27  and  N4_29 
REMARK   13  A    between atoms: N4_29  and  C17_31 
REMARK   14  A    between atoms: C17_31  and  C18_32 
REMARK       I    between atoms: C18_32  and  N5_34 
REMARK   15  A    between atoms: N5_34  and  C19_36 
REMARK   16  A    between atoms: C19_36  and  C20_37 
REMARK   17  A    between atoms: C20_37  and  C21_38 
ROOT
HETATM    1  C5  UNL     1      14.517  18.805  13.188  1.00  0.00     0.186 C 
ENDROOT
BRANCH   1   2
HETATM    2  C4  UNL     1      14.954  17.897  12.130  1.00  0.00     0.035 C 
BRANCH   2   3
HETATM    3  C3  UNL     1      14.298  16.620  11.870  1.00  0.00     0.004 C 
BRANCH   3   4
HETATM    4  C2  UNL     1      15.114  15.387  12.120  1.00  0.00     0.027 C 
BRANCH   4   5
HETATM    5  C1  UNL     1      16.140  15.732  13.177  1.00  0.00     0.229 C 
BRANCH   5   6
HETATM    6  N1  UNL     1      15.635  15.564  14.514  1.00  0.00    -0.079 N 
ATOM      7  H13 UNL     1      14.749  16.055  14.636  1.00  0.00     0.274 HD
ATOM      8  H12 UNL     1      15.314  14.607  14.667  1.00  0.00     0.274 HD
ATOM      9  H11 UNL     1      16.310  15.843  15.225  1.00  0.00     0.274 HD
ENDBRANCH   5   6
ENDBRANCH   4   5
ENDBRANCH   3   4
ENDBRANCH   2   3
ENDBRANCH   1   2
BRANCH   1  10
HETATM   10  N2  UNL     1      13.553  18.353  14.129  1.00  0.00    -0.289 N 
ATOM     11  H2  UNL     1      13.559  17.377  14.425  1.00  0.00     0.174 HD
BRANCH  10  12
HETATM   12  S1  UNL     1      12.415  19.393  14.755  1.00  0.00     0.315 S 
HETATM   13  O1  UNL     1      11.016  18.821  14.802  1.00  0.00    -0.183 OA
HETATM   14  O2  UNL     1      12.717  19.798  16.182  1.00  0.00    -0.183 OA
BRANCH  12  15
HETATM   15  N3  UNL     1      12.315  20.842  13.858  1.00  0.00    -0.303 N 
ATOM     16  H3  UNL     1      12.981  21.603  13.990  1.00  0.00     0.173 HD
BRANCH  15  17
HETATM   17  C6  UNL     1      11.251  20.929  12.919  1.00  0.00     0.134 C 
BRANCH  17  18
HETATM   18  C7  UNL     1      11.776  20.843  11.499  1.00  0.00     0.025 C 
BRANCH  18  19
HETATM   19  C8  UNL     1      11.739  19.403  11.056  1.00  0.00    -0.013 C 
HETATM   20  C9  UNL     1      12.221  19.286   9.661  1.00  0.00     0.005 C 
HETATM   21  C10 UNL     1      12.084  17.838   9.231  1.00  0.00     0.000 C 
HETATM   22  C11 UNL     1      11.015  17.738   8.198  1.00  0.00     0.000 C 
HETATM   23  C12 UNL     1       9.735  17.263   8.885  1.00  0.00     0.000 C 
HETATM   24  C13 UNL     1       8.856  18.412   9.215  1.00  0.00     0.000 C 
HETATM   25  C14 UNL     1       9.370  19.366  10.232  1.00  0.00     0.000 C 
HETATM   26  C15 UNL     1      10.317  18.839  11.232  1.00  0.00     0.005 C 
ENDBRANCH  18  19
ENDBRANCH  17  18
ENDBRANCH  15  17
ENDBRANCH  12  15
ENDBRANCH  10  12
ENDBRANCH   1  10
BRANCH   1  27
HETATM   27  C16 UNL     1      15.777  19.166  13.987  1.00  0.00     0.242 C 
HETATM   28  O3  UNL     1      15.914  18.664  15.126  1.00  0.00    -0.271 OA
HETATM   29  N4  UNL     1      16.754  20.031  13.478  1.00  0.00    -0.341 N 
ATOM     30  H4  UNL     1      16.603  20.423  12.549  1.00  0.00     0.163 HD
BRANCH  29  31
HETATM   31  C17 UNL     1      17.965  20.408  14.179  1.00  0.00     0.114 C 
HETATM   32  C22 UNL     1      18.510  19.321  15.026  1.00  0.00     0.041 C 
HETATM   33  C23 UNL     1      18.888  19.912  16.358  1.00  0.00     0.003 C 
HETATM   34  C24 UNL     1      18.094  21.168  16.473  1.00  0.00     0.003 C 
HETATM   35  C25 UNL     1      17.724  21.579  15.078  1.00  0.00     0.041 C 
BRANCH  31  36
HETATM   36  C18 UNL     1      18.962  20.844  13.145  1.00  0.00     0.246 C 
HETATM   37  O4  UNL     1      19.133  20.160  12.106  1.00  0.00    -0.271 OA
HETATM   38  N5  UNL     1      19.733  22.022  13.302  1.00  0.00    -0.358 N 
ATOM     39  H5  UNL     1      19.601  22.583  14.144  1.00  0.00     0.162 HD
BRANCH  38  40
HETATM   40  C19 UNL     1      20.678  22.456  12.342  1.00  0.00     0.133 C 
BRANCH  40  41
HETATM   41  C20 UNL     1      20.530  23.874  11.883  1.00  0.00     0.133 C 
BRANCH  41  42
HETATM   42  C21 UNL     1      19.253  24.463  12.409  1.00  0.00     0.174 C 
HETATM   43  O5  UNL     1      19.355  25.149  13.459  1.00  0.00    -0.648 OA
HETATM   44  O6  UNL     1      18.080  24.232  11.742  1.00  0.00    -0.648 OA
ENDBRANCH  41  42
ENDBRANCH  40  41
ENDBRANCH  38  40
ENDBRANCH  31  36
ENDBRANCH  29  31
ENDBRANCH   1  27
TORSDOF 17
ENDMDL
MODEL 4
REMARK VINA RESULT: -6.466333214      1.140      1.696
REMARK  17 active torsions:
REMARK  status: ('A' for Active; 'I' for Inactive)
REMARK    1  A    between atoms: N1_1  and  C1_5 
REMARK    2  A    between atoms: C1_5  and  C2_6 
REMARK    3  A    between atoms: C2_6  and  C3_7 
REMARK    4  A    between atoms: C3_7  and  C4_8 
REMARK    5  A    between atoms: C4_8  and  C5_9 
REMARK    6  A    between atoms: C5_9  and  N2_10 
REMARK    7  A    between atoms: C5_9  and  C16_27 
REMARK    8  A    between atoms: N2_10  and  S1_12 
REMARK    9  A    between atoms: S1_12  and  N3_15 
REMARK   10  A    between atoms: N3_15  and  C6_17 
REMARK   11  A    between atoms: C6_17  and  C7_18 
REMARK   12  A    between atoms: C7_18  and  C8_19 
REMARK       I    between atoms: C16_27  and  N4_29 
REMARK   13  A    between atoms: N4_29  and  C17_31 
REMARK   14  A    between atoms: C17_31  and  C18_32 
REMARK       I    between atoms: C18_32  and  N5_34 
REMARK   15  A    between atoms: N5_34  and  C19_36 
REMARK   16  A    between atoms: C19_36  and  C20_37 
REMARK   17  A    between atoms: C20_37  and  C21_38 
ROOT
HETATM    1  C5  UNL     1      13.917  21.193  12.870  1.00  0.00     0.186 C 
ENDROOT
BRANCH   1   2
HETATM    2  C4  UNL     1      13.969  22.140  11.760  1.00  0.00     0.035 C 
BRANCH   2   3
HETATM    3  C3  UNL     1      12.843  22.998  11.407  1.00  0.00     0.004 C 
BRANCH   3   4
HETATM    4  C2  UNL     1      11.988  22.540  10.263  1.00  0.00     0.027 C 
BRANCH   4   5
HETATM    5  C1  UNL     1      12.884  21.788   9.303  1.00  0.00     0.229 C 
BRANCH   5   6
HETATM    6  N1  UNL     1      12.202  20.704   8.646  1.00  0.00    -0.079 N 
ATOM      7  H13 UNL     1      12.363  19.821   9.132  1.00  0.00     0.274 HD
ATOM      8  H12 UNL     1      11.192  20.777   8.769  1.00  0.00     0.274 HD
ATOM      9  H11 UNL     1      12.447  20.629   7.659  1.00  0.00     0.274 HD
ENDBRANCH   5   6
ENDBRANCH   4   5
ENDBRANCH   3   4
ENDBRANCH   2   3
ENDBRANCH   1   2
BRANCH   1  10
HETATM   10  N2  UNL     1      12.869  21.304  13.823  1.00  0.00    -0.289 N 
ATOM     11  H2  UNL     1      12.039  21.853  13.596  1.00  0.00     0.174 HD
BRANCH  10  12
HETATM   12  S1  UNL     1      12.974  20.552  15.303  1.00  0.00     0.315 S 
HETATM   13  O1  UNL     1      12.389  21.352  16.446  1.00  0.00    -0.183 OA
HETATM   14  O2  UNL     1      12.238  19.230  15.340  1.00  0.00    -0.183 OA
BRANCH  12  15
HETATM   15  N3  UNL     1      14.591  20.210  15.731  1.00  0.00    -0.303 N 
ATOM     16  H3  UNL     1      15.013  19.298  15.555  1.00  0.00     0.173 HD
BRANCH  15  17
HETATM   17  C6  UNL     1      15.316  21.267  16.346  1.00  0.00     0.134 C 
BRANCH  17  18
HETATM   18  C7  UNL     1      16.808  21.000  16.296  1.00  0.00     0.025 C 
BRANCH  18  19
HETATM   19  C8  UNL     1      17.486  22.173  15.634  1.00  0.00    -0.013 C 
HETATM   20  C9  UNL     1      16.480  23.180  15.227  1.00  0.00     0.005 C 
HETATM   21  C10 UNL     1      17.197  24.296  14.490  1.00  0.00     0.000 C 
HETATM   22  C11 UNL     1      16.809  24.256  13.053  1.00  0.00     0.000 C 
HETATM   23  C12 UNL     1      17.919  23.543  12.282  1.00  0.00     0.000 C 
HETATM   24  C13 UNL     1      17.583  22.112  12.075  1.00  0.00     0.000 C 
HETATM   25  C14 UNL     1      17.517  21.267  13.296  1.00  0.00     0.000 C 
HETATM   26  C15 UNL     1      18.337  21.683  14.449  1.00  0.00     0.005 C 
ENDBRANCH  18  19
ENDBRANCH  17  18
ENDBRANCH  15  17
ENDBRANCH  12  15
ENDBRANCH  10  12
ENDBRANCH   1  10
BRANCH   1  27
HETATM   27  C16 UNL     1      13.789  19.800  12.236  1.00  0.00     0.242 C 
HETATM   28  O3  UNL     1      14.836  19.234  11.847  1.00  0.00    -0.271 OA
HETATM   29  N4  UNL     1      12.550  19.166  12.085  1.00  0.00    -0.341 N 
ATOM     30  H4  UNL     1      11.720  19.663  12.411  1.00  0.00     0.163 HD
BRANCH  29  31
HETATM   31  C17 UNL     1      12.362  17.854  11.500  1.00  0.00     0.114 C 
HETATM   32  C22 UNL     1      13.132  17.659  10.249  1.00  0.00     0.041 C 
HETATM   33  C23 UNL     1      12.225  17.010   9.238  1.00  0.00     0.003 C 
HETATM   34  C24 UNL     1      10.840  17.313   9.697  1.00  0.00     0.003 C 
HETATM   35  C25 UNL     1      10.924  17.615  11.165  1.00  0.00     0.041 C 
BRANCH  31  36
HETATM   36  C18 UNL     1      12.746  16.841  12.540  1.00  0.00     0.246 C 
HETATM   37  O4  UNL     1      11.870  16.344  13.289  1.00  0.00    -0.271 OA
HETATM   38  N5  UNL     1      14.087  16.418  12.709  1.00  0.00    -0.358 N 
ATOM     39  H5  UNL     1      14.805  16.818  12.105  1.00  0.00     0.162 HD
BRANCH  38  40
HETATM   40  C19 UNL     1      14.474  15.464  13.680  1.00  0.00     0.133 C 
BRANCH  40  41
HETATM   41  C20 UNL     1      15.895  15.554  14.145  1.00  0.00     0.133 C 
BRANCH  41  42
HETATM   42  C21 UNL     1      16.483  16.884  13.771  1.00  0.00     0.174 C 
HETATM   43  O5  UNL     1      17.136  16.914  12.696  1.00  0.00    -0.648 OA
HETATM   44  O6  UNL     1      16.287  17.962  14.592  1.00  0.00    -0.648 OA
ENDBRANCH  41  42
ENDBRANCH  40  41
ENDBRANCH  38  40
ENDBRANCH  31  36
ENDBRANCH  29  31
ENDBRANCH   1  27
TORSDOF 17
ENDMDL
MODEL 5
REMARK VINA RESULT: -6.381158803      2.358      7.019
REMARK  17 active torsions:
REMARK  status: ('A' for Active; 'I' for Inactive)
REMARK    1  A    between atoms: N1_1  and  C1_5 
REMARK    2  A    between atoms: C1_5  and  C2_6 
REMARK    3  A    between atoms: C2_6  and  C3_7 
REMARK    4  A    between atoms: C3_7  and  C4_8 
REMARK    5  A    between atoms: C4_8  and  C5_9 
REMARK    6  A    between atoms: C5_9  and  N2_10 
REMARK    7  A    between atoms: C5_9  and  C16_27 
REMARK    8  A    between atoms: N2_10  and  S1_12 
REMARK    9  A    between atoms: S1_12  and  N3_15 
REMARK   10  A    between atoms: N3_15  and  C6_17 
REMARK   11  A    between atoms: C6_17  and  C7_18 
REMARK   12  A    between atoms: C7_18  and  C8_19 
REMARK       I    between atoms: C16_27  and  N4_29 
REMARK   13  A    between atoms: N4_29  and  C17_31 
REMARK   14  A    between atoms: C17_31  and  C18_32 
REMARK       I    between atoms: C18_32  and  N5_34 
REMARK   15  A    between atoms: N5_34  and  C19_36 
REMARK   16  A    between atoms: C19_36  and  C20_37 
REMARK   17  A    between atoms: C20_37  and  C21_38 
ROOT
HETATM    1  C5  UNL     1      17.069  19.141  13.518  1.00  0.00     0.186 C 
ENDROOT
BRANCH   1   2
HETATM    2  C4  UNL     1      18.165  19.915  14.097  1.00  0.00     0.035 C 
BRANCH   2   3
HETATM    3  C3  UNL     1      18.589  19.757  15.484  1.00  0.00     0.004 C 
BRANCH   3   4
HETATM    4  C2  UNL     1      18.211  20.860  16.427  1.00  0.00     0.027 C 
BRANCH   4   5
HETATM    5  C1  UNL     1      17.765  22.038  15.588  1.00  0.00     0.229 C 
BRANCH   5   6
HETATM    6  N1  UNL     1      16.403  22.421  15.854  1.00  0.00    -0.079 N 
ATOM      7  H13 UNL     1      16.155  22.240  16.827  1.00  0.00     0.274 HD
ATOM      8  H12 UNL     1      16.298  23.435  15.844  1.00  0.00     0.274 HD
ATOM      9  H11 UNL     1      15.740  21.977  15.219  1.00  0.00     0.274 HD
ENDBRANCH   5   6
ENDBRANCH   4   5
ENDBRANCH   3   4
ENDBRANCH   2   3
ENDBRANCH   1   2
BRANCH   1  10
HETATM   10  N2  UNL     1      16.406  18.177  14.322  1.00  0.00    -0.289 N 
ATOM     11  H2  UNL     1      16.100  18.430  15.262  1.00  0.00     0.174 HD
BRANCH  10  12
HETATM   12  S1  UNL     1      16.119  16.639  13.754  1.00  0.00     0.315 S 
HETATM   13  O1  UNL     1      17.233  16.080  12.897  1.00  0.00    -0.183 OA
HETATM   14  O2  UNL     1      15.941  15.629  14.867  1.00  0.00    -0.183 OA
BRANCH  12  15
HETATM   15  N3  UNL     1      14.700  16.564  12.809  1.00  0.00    -0.303 N 
ATOM     16  H3  UNL     1      14.692  16.139  11.882  1.00  0.00     0.173 HD
BRANCH  15  17
HETATM   17  C6  UNL     1      13.528  17.127  13.387  1.00  0.00     0.134 C 
BRANCH  17  18
HETATM   18  C7  UNL     1      12.843  18.065  12.413  1.00  0.00     0.025 C 
BRANCH  18  19
HETATM   19  C8  UNL     1      12.317  17.258  11.253  1.00  0.00    -0.013 C 
HETATM   20  C9  UNL     1      12.880  17.766   9.982  1.00  0.00     0.005 C 
HETATM   21  C10 UNL     1      12.257  16.984   8.841  1.00  0.00     0.000 C 
HETATM   22  C11 UNL     1      11.358  17.885   8.067  1.00  0.00     0.000 C 
HETATM   23  C12 UNL     1       9.923  17.632   8.527  1.00  0.00     0.000 C 
HETATM   24  C13 UNL     1       9.510  18.630   9.544  1.00  0.00     0.000 C 
HETATM   25  C14 UNL     1      10.224  18.578  10.847  1.00  0.00     0.000 C 
HETATM   26  C15 UNL     1      10.778  17.275  11.260  1.00  0.00     0.005 C 
ENDBRANCH  18  19
ENDBRANCH  17  18
ENDBRANCH  15  17
ENDBRANCH  12  15
ENDBRANCH  10  12
ENDBRANCH   1  10
BRANCH   1  27
HETATM   27  C16 UNL     1      16.007  20.163  13.089  1.00  0.00     0.242 C 
HETATM   28  O3  UNL     1      15.020  20.335  13.840  1.00  0.00    -0.271 OA
HETATM   29  N4  UNL     1      16.116  20.889  11.896  1.00  0.00    -0.341 N 
ATOM     30  H4  UNL     1      16.932  20.716  11.309  1.00  0.00     0.163 HD
BRANCH  29  31
HETATM   31  C17 UNL     1      15.152  21.868  11.437  1.00  0.00     0.114 C 
HETATM   32  C22 UNL     1      13.872  21.264  10.998  1.00  0.00     0.041 C 
HETATM   33  C23 UNL     1      13.472  21.908   9.698  1.00  0.00     0.003 C 
HETATM   34  C24 UNL     1      14.732  22.467   9.130  1.00  0.00     0.003 C 
HETATM   35  C25 UNL     1      15.685  22.645  10.275  1.00  0.00     0.041 C 
BRANCH  31  36
HETATM   36  C18 UNL     1      14.937  22.844  12.557  1.00  0.00     0.246 C 
HETATM   37  O4  UNL     1      15.879  23.581  12.940  1.00  0.00    -0.271 OA
HETATM   38  N5  UNL     1      13.687  22.967  13.211  1.00  0.00    -0.358 N 
ATOM     39  H5  UNL     1      12.917  22.371  12.907  1.00  0.00     0.162 HD
BRANCH  38  40
HETATM   40  C19 UNL     1      13.459  23.880  14.268  1.00  0.00     0.133 C 
BRANCH  40  41
HETATM   41  C20 UNL     1      12.405  23.478  15.254  1.00  0.00     0.133 C 
BRANCH  41  42
HETATM   42  C21 UNL     1      12.517  22.015  15.571  1.00  0.00     0.174 C 
HETATM   43  O5  UNL     1      13.409  21.699  16.400  1.00  0.00    -0.648 OA
HETATM   44  O6  UNL     1      11.671  21.127  14.963  1.00  0.00    -0.648 OA
ENDBRANCH  41  42
ENDBRANCH  40  41
ENDBRANCH  38  40
ENDBRANCH  31  36
ENDBRANCH  29  31
ENDBRANCH   1  27
TORSDOF 17
ENDMDL
