MODEL 1
REMARK VINA RESULT: -6.020272284      0.000      0.000
REMARK  21 active torsions:
REMARK  status: ('A' for Active; 'I' for Inactive)
REMARK       I    between atoms: C2_2  and  N1_4 
REMARK    1  A    between atoms: N1_4  and  C3_6 
REMARK    2  A    between atoms: C3_6  and  C4_7 
REMARK    3  A    between atoms: C3_6  and  C24_36 
REMARK    4  A    between atoms: C4_7  and  N2_8 
REMARK    5  A    between atoms: N2_8  and  C5_9 
REMARK    6  A    between atoms: N2_8  and  C9_13 
REMARK    7  A    between atoms: C5_9  and  C6_10 
REMARK    8  A    between atoms: C9_13  and  C10_14 
REMARK    9  A    between atoms: C10_14  and  O2_15 
REMARK   10  A    between atoms: C10_14  and  C11_17 
REMARK   11  A    between atoms: C11_17  and  O3_18 
REMARK   12  A    between atoms: C11_17  and  C12_20 
REMARK   13  A    between atoms: C12_20  and  C13_21 
REMARK   14  A    between atoms: C12_20  and  N3_25 
REMARK   15  A    between atoms: C13_21  and  C14_22 
REMARK       I    between atoms: N3_25  and  C17_27 
REMARK       I    between atoms: C17_27  and  N4_29 
REMARK   16  A    between atoms: C24_36  and  N5_37 
REMARK   17  A    between atoms: C24_36  and  C25_41 
REMARK   18  A    between atoms: C25_41  and  C26_42 
REMARK       I    between atoms: C26_42  and  N6_44 
REMARK   19  A    between atoms: N6_44  and  C27_46 
REMARK   20  A    between atoms: C27_46  and  C28_47 
REMARK   21  A    between atoms: C28_47  and  C29_48 
ROOT
HETATM    1  N2  UNL     1      10.773  20.896   7.966  1.00  0.00    -0.365 N 
ENDROOT
BRANCH   1   2
HETATM    2  C4  UNL     1       9.674  20.145   8.376  1.00  0.00     0.117 C 
BRANCH   2   3
HETATM    3  C3  UNL     1       9.689  19.224   9.518  1.00  0.00     0.062 C 
BRANCH   3   4
HETATM    4  N1  UNL     1       8.793  19.696  10.582  1.00  0.00    -0.328 N 
HETATM    5  C2  UNL     1       9.130  19.947  11.903  1.00  0.00     0.218 C 
HETATM    6  C1  UNL     1       8.111  20.419  12.857  1.00  0.00     0.117 C 
HETATM    7  O1  UNL     1      10.289  19.784  12.320  1.00  0.00    -0.274 OA
ATOM      8  H1  UNL     1       7.820  19.855  10.322  1.00  0.00     0.168 HD
ENDBRANCH   3   4
BRANCH   3   9
HETATM    9  C24 UNL     1       9.696  17.781   9.397  1.00  0.00     0.262 C 
BRANCH   9  10
HETATM   10  N5  UNL     1      10.303  17.498   8.032  1.00  0.00    -0.066 N 
ATOM     11  H53 UNL     1      10.020  18.161   7.310  1.00  0.00     0.275 HD
ATOM     12  H52 UNL     1      11.304  17.685   7.979  1.00  0.00     0.275 HD
ATOM     13  H51 UNL     1      10.052  16.531   7.823  1.00  0.00     0.275 HD
ENDBRANCH   9  10
BRANCH   9  14
HETATM   14  C25 UNL     1      10.317  16.831  10.287  1.00  0.00     0.086 C 
BRANCH  14  15
HETATM   15  C26 UNL     1      11.648  16.969  10.828  1.00  0.00     0.239 C 
HETATM   16  O5  UNL     1      12.745  17.110  10.250  1.00  0.00    -0.269 OA
HETATM   17  N6  UNL     1      11.762  16.942  12.274  1.00  0.00    -0.358 N 
ATOM     18  H6  UNL     1      10.921  16.824  12.839  1.00  0.00     0.162 HD
BRANCH  17  19
HETATM   19  C27 UNL     1      13.027  17.078  12.924  1.00  0.00     0.123 C 
BRANCH  19  20
HETATM   20  C28 UNL     1      13.812  15.854  13.145  1.00  0.00     0.023 C 
BRANCH  20  21
HETATM   21  C29 UNL     1      15.194  15.763  12.632  1.00  0.00    -0.021 C 
HETATM   22  C30 UNL     1      16.253  15.204  13.508  1.00  0.00     0.009 C 
HETATM   23  C31 UNL     1      15.700  17.094  12.101  1.00  0.00     0.009 C 
ENDBRANCH  20  21
ENDBRANCH  19  20
ENDBRANCH  17  19
ENDBRANCH  14  15
ENDBRANCH   9  14
ENDBRANCH   3   9
ENDBRANCH   2   3
ENDBRANCH   1   2
BRANCH   1  24
HETATM   24  C5  UNL     1      10.959  22.222   8.338  1.00  0.00     0.067 C 
BRANCH  24  25
HETATM   25  C6  UNL     1      11.843  22.419   9.565  1.00  0.00     0.016 C 
HETATM   26  C7  UNL     1      12.953  23.386   9.382  1.00  0.00     0.015 C 
HETATM   27  C8  UNL     1      10.914  22.964  10.654  1.00  0.00     0.015 C 
ENDBRANCH  24  25
ENDBRANCH   1  24
BRANCH   1  28
HETATM   28  C9  UNL     1      11.283  20.503   6.673  1.00  0.00     0.162 C 
BRANCH  28  29
HETATM   29  C10 UNL     1      12.635  19.885   6.647  1.00  0.00     0.167 C 
BRANCH  29  30
HETATM   30  O2  UNL     1      12.921  19.143   7.790  1.00  0.00    -0.391 OA
ATOM     31  H2  UNL     1      13.851  19.001   7.921  1.00  0.00     0.210 HD
ENDBRANCH  29  30
BRANCH  29  32
HETATM   32  C11 UNL     1      12.593  18.867   5.496  1.00  0.00     0.171 C 
BRANCH  32  33
HETATM   33  O3  UNL     1      12.571  17.564   5.919  1.00  0.00    -0.391 OA
ATOM     34  H3  UNL     1      12.949  16.956   5.294  1.00  0.00     0.210 HD
ENDBRANCH  32  33
BRANCH  32  35
HETATM   35  C12 UNL     1      13.594  19.125   4.424  1.00  0.00     0.117 C 
BRANCH  35  36
HETATM   36  C13 UNL     1      13.754  20.557   4.054  1.00  0.00     0.031 C 
BRANCH  36  37
HETATM   37  C14 UNL     1      12.976  21.006   2.850  1.00  0.00    -0.021 C 
HETATM   38  C15 UNL     1      13.783  21.435   1.679  1.00  0.00     0.009 C 
HETATM   39  C16 UNL     1      12.102  22.183   3.287  1.00  0.00     0.009 C 
ENDBRANCH  36  37
ENDBRANCH  35  36
BRANCH  35  40
HETATM   40  N3  UNL     1      13.409  18.220   3.323  1.00  0.00    -0.336 N 
HETATM   41  C17 UNL     1      14.428  17.391   2.785  1.00  0.00     0.318 C 
HETATM   42  O4  UNL     1      15.570  17.512   3.377  1.00  0.00    -0.247 OA
HETATM   43  N4  UNL     1      14.285  16.498   1.711  1.00  0.00    -0.334 N 
HETATM   44  C18 UNL     1      15.485  15.785   1.322  1.00  0.00     0.127 C 
HETATM   45  C23 UNL     1      12.992  16.373   1.115  1.00  0.00     0.127 C 
HETATM   46  C19 UNL     1      15.883  16.103  -0.098  1.00  0.00     0.020 C 
HETATM   47  C20 UNL     1      15.222  17.399  -0.542  1.00  0.00     0.002 C 
HETATM   48  C21 UNL     1      13.868  17.046  -1.111  1.00  0.00     0.002 C 
HETATM   49  C22 UNL     1      12.821  17.346  -0.050  1.00  0.00     0.020 C 
ATOM     50  H3  UNL     1      12.483  18.170   2.900  1.00  0.00     0.164 HD
ENDBRANCH  35  40
ENDBRANCH  32  35
ENDBRANCH  29  32
ENDBRANCH  28  29
ENDBRANCH   1  28
TORSDOF 21
ENDMDL
MODEL 2
REMARK VINA RESULT: -5.977877681      2.737      4.419
REMARK  21 active torsions:
REMARK  status: ('A' for Active; 'I' for Inactive)
REMARK       I    between atoms: C2_2  and  N1_4 
REMARK    1  A    between atoms: N1_4  and  C3_6 
REMARK    2  A    between atoms: C3_6  and  C4_7 
REMARK    3  A    between atoms: C3_6  and  C24_36 
REMARK    4  A    between atoms: C4_7  and  N2_8 
REMARK    5  A    between atoms: N2_8  and  C5_9 
REMARK    6  A    between atoms: N2_8  and  C9_13 
REMARK    7  A    between atoms: C5_9  and  C6_10 
REMARK    8  A    between atoms: C9_13  and  C10_14 
REMARK    9  A    between atoms: C10_14  and  O2_15 
REMARK   10  A    between atoms: C10_14  and  C11_17 
REMARK   11  A    between atoms: C11_17  and  O3_18 
REMARK   12  A    between atoms: C11_17  and  C12_20 
REMARK   13  A    between atoms: C12_20  and  C13_21 
REMARK   14  A    between atoms: C12_20  and  N3_25 
REMARK   15  A    between atoms: C13_21  and  C14_22 
REMARK       I    between atoms: N3_25  and  C17_27 
REMARK       I    between atoms: C17_27  and  N4_29 
REMARK   16  A    between atoms: C24_36  and  N5_37 
REMARK   17  A    between atoms: C24_36  and  C25_41 
REMARK   18  A    between atoms: C25_41  and  C26_42 
REMARK       I    between atoms: C26_42  and  N6_44 
REMARK   19  A    between atoms: N6_44  and  C27_46 
REMARK   20  A    between atoms: C27_46  and  C28_47 
REMARK   21  A    between atoms: C28_47  and  C29_48 
ROOT
HETATM    1  N2  UNL     1      11.030  17.816   9.596  1.00  0.00    -0.365 N 
ENDROOT
BRANCH   1   2
HETATM    2  C4  UNL     1      11.190  16.788  10.521  1.00  0.00     0.117 C 
BRANCH   2   3
HETATM    3  C3  UNL     1      11.726  16.976  11.874  1.00  0.00     0.062 C 
BRANCH   3   4
HETATM    4  N1  UNL     1      13.176  17.203  11.836  1.00  0.00    -0.328 N 
HETATM    5  C2  UNL     1      14.155  16.433  12.442  1.00  0.00     0.218 C 
HETATM    6  C1  UNL     1      15.578  16.793  12.310  1.00  0.00     0.117 C 
HETATM    7  O1  UNL     1      13.868  15.423  13.107  1.00  0.00    -0.274 OA
ATOM      8  H1  UNL     1      13.496  18.015  11.308  1.00  0.00     0.168 HD
ENDBRANCH   3   4
BRANCH   3   9
HETATM    9  C24 UNL     1      11.069  17.752  12.906  1.00  0.00     0.262 C 
BRANCH   9  10
HETATM   10  N5  UNL     1      11.757  17.355  14.203  1.00  0.00    -0.066 N 
ATOM     11  H53 UNL     1      12.691  16.967  14.072  1.00  0.00     0.275 HD
ATOM     12  H52 UNL     1      12.038  18.148  14.779  1.00  0.00     0.275 HD
ATOM     13  H51 UNL     1      11.108  16.718  14.667  1.00  0.00     0.275 HD
ENDBRANCH   9  10
BRANCH   9  14
HETATM   14  C25 UNL     1      10.939  19.186  12.975  1.00  0.00     0.086 C 
BRANCH  14  15
HETATM   15  C26 UNL     1      10.424  19.904  14.116  1.00  0.00     0.239 C 
HETATM   16  O5  UNL     1       9.533  19.594  14.932  1.00  0.00    -0.269 OA
HETATM   17  N6  UNL     1      11.018  21.201  14.383  1.00  0.00    -0.358 N 
ATOM     18  H6  UNL     1      11.753  21.550  13.768  1.00  0.00     0.162 HD
BRANCH  17  19
HETATM   19  C27 UNL     1      10.596  22.000  15.490  1.00  0.00     0.123 C 
BRANCH  19  20
HETATM   20  C28 UNL     1      11.613  22.824  16.160  1.00  0.00     0.023 C 
BRANCH  20  21
HETATM   21  C29 UNL     1      12.826  22.190  16.714  1.00  0.00    -0.021 C 
HETATM   22  C30 UNL     1      12.862  21.840  18.155  1.00  0.00     0.009 C 
HETATM   23  C31 UNL     1      14.084  22.985  16.407  1.00  0.00     0.009 C 
ENDBRANCH  20  21
ENDBRANCH  19  20
ENDBRANCH  17  19
ENDBRANCH  14  15
ENDBRANCH   9  14
ENDBRANCH   3   9
ENDBRANCH   2   3
ENDBRANCH   1   2
BRANCH   1  24
HETATM   24  C5  UNL     1       9.787  18.212   9.118  1.00  0.00     0.067 C 
BRANCH  24  25
HETATM   25  C6  UNL     1       9.094  19.278   9.960  1.00  0.00     0.016 C 
HETATM   26  C7  UNL     1       9.533  20.668   9.687  1.00  0.00     0.015 C 
HETATM   27  C8  UNL     1       7.607  19.173   9.610  1.00  0.00     0.015 C 
ENDBRANCH  24  25
ENDBRANCH   1  24
BRANCH   1  28
HETATM   28  C9  UNL     1      12.149  17.951   8.692  1.00  0.00     0.162 C 
BRANCH  28  29
HETATM   29  C10 UNL     1      11.943  18.809   7.496  1.00  0.00     0.167 C 
BRANCH  29  30
HETATM   30  O2  UNL     1      13.067  19.560   7.160  1.00  0.00    -0.391 OA
ATOM     31  H2  UNL     1      13.697  19.627   7.868  1.00  0.00     0.210 HD
ENDBRANCH  29  30
BRANCH  29  32
HETATM   32  C11 UNL     1      11.737  17.832   6.326  1.00  0.00     0.171 C 
BRANCH  32  33
HETATM   33  O3  UNL     1      12.198  16.568   6.582  1.00  0.00    -0.391 OA
ATOM     34  H3  UNL     1      11.605  16.048   7.111  1.00  0.00     0.210 HD
ENDBRANCH  32  33
BRANCH  32  35
HETATM   35  C12 UNL     1      12.175  18.367   5.008  1.00  0.00     0.117 C 
BRANCH  35  36
HETATM   36  C13 UNL     1      11.233  19.335   4.384  1.00  0.00     0.031 C 
BRANCH  36  37
HETATM   37  C14 UNL     1      10.903  19.080   2.942  1.00  0.00    -0.021 C 
HETATM   38  C15 UNL     1      11.654  19.892   1.951  1.00  0.00     0.009 C 
HETATM   39  C16 UNL     1       9.410  19.362   2.759  1.00  0.00     0.009 C 
ENDBRANCH  36  37
ENDBRANCH  35  36
BRANCH  35  40
HETATM   40  N3  UNL     1      12.628  17.307   4.151  1.00  0.00    -0.336 N 
HETATM   41  C17 UNL     1      13.940  17.209   3.618  1.00  0.00     0.318 C 
HETATM   42  O4  UNL     1      14.724  18.174   3.972  1.00  0.00    -0.247 OA
HETATM   43  N4  UNL     1      14.416  16.191   2.777  1.00  0.00    -0.334 N 
HETATM   44  C18 UNL     1      15.789  16.330   2.335  1.00  0.00     0.127 C 
HETATM   45  C23 UNL     1      13.522  15.127   2.444  1.00  0.00     0.127 C 
HETATM   46  C19 UNL     1      15.880  16.449   0.834  1.00  0.00     0.020 C 
HETATM   47  C20 UNL     1      14.530  16.862   0.267  1.00  0.00     0.002 C 
HETATM   48  C21 UNL     1      13.739  15.600   0.014  1.00  0.00     0.002 C 
HETATM   49  C22 UNL     1      12.753  15.429   1.160  1.00  0.00     0.020 C 
ATOM     50  H3  UNL     1      11.961  16.574   3.908  1.00  0.00     0.164 HD
ENDBRANCH  35  40
ENDBRANCH  32  35
ENDBRANCH  29  32
ENDBRANCH  28  29
ENDBRANCH   1  28
TORSDOF 21
ENDMDL
MODEL 3
REMARK VINA RESULT: -5.777548270      2.820      4.713
REMARK  21 active torsions:
REMARK  status: ('A' for Active; 'I' for Inactive)
REMARK       I    between atoms: C2_2  and  N1_4 
REMARK    1  A    between atoms: N1_4  and  C3_6 
REMARK    2  A    between atoms: C3_6  and  C4_7 
REMARK    3  A    between atoms: C3_6  and  C24_36 
REMARK    4  A    between atoms: C4_7  and  N2_8 
REMARK    5  A    between atoms: N2_8  and  C5_9 
REMARK    6  A    between atoms: N2_8  and  C9_13 
REMARK    7  A    between atoms: C5_9  and  C6_10 
REMARK    8  A    between atoms: C9_13  and  C10_14 
REMARK    9  A    between atoms: C10_14  and  O2_15 
REMARK   10  A    between atoms: C10_14  and  C11_17 
REMARK   11  A    between atoms: C11_17  and  O3_18 
REMARK   12  A    between atoms: C11_17  and  C12_20 
REMARK   13  A    between atoms: C12_20  and  C13_21 
REMARK   14  A    between atoms: C12_20  and  N3_25 
REMARK   15  A    between atoms: C13_21  and  C14_22 
REMARK       I    between atoms: N3_25  and  C17_27 
REMARK       I    between atoms: C17_27  and  N4_29 
REMARK   16  A    between atoms: C24_36  and  N5_37 
REMARK   17  A    between atoms: C24_36  and  C25_41 
REMARK   18  A    between atoms: C25_41  and  C26_42 
REMARK       I    between atoms: C26_42  and  N6_44 
REMARK   19  A    between atoms: N6_44  and  C27_46 
REMARK   20  A    between atoms: C27_46  and  C28_47 
REMARK   21  A    between atoms: C28_47  and  C29_48 
ROOT
HETATM    1  N2  UNL     1       6.776  20.242   9.707  1.00  0.00    -0.365 N 
ENDROOT
BRANCH   1   2
HETATM    2  C4  UNL     1       7.242  19.734  10.916  1.00  0.00     0.117 C 
BRANCH   2   3
HETATM    3  C3  UNL     1       7.227  20.479  12.180  1.00  0.00     0.062 C 
BRANCH   3   4
HETATM    4  N1  UNL     1       6.050  20.125  12.983  1.00  0.00    -0.328 N 
HETATM    5  C2  UNL     1       4.803  20.730  12.943  1.00  0.00     0.218 C 
HETATM    6  C1  UNL     1       3.715  20.257  13.817  1.00  0.00     0.117 C 
HETATM    7  O1  UNL     1       4.566  21.679  12.176  1.00  0.00    -0.274 OA
ATOM      8  H1  UNL     1       6.161  19.353  13.640  1.00  0.00     0.168 HD
ENDBRANCH   3   4
BRANCH   3   9
HETATM    9  C24 UNL     1       8.401  20.721  12.993  1.00  0.00     0.262 C 
BRANCH   9  10
HETATM   10  N5  UNL     1       8.106  20.057  14.329  1.00  0.00    -0.066 N 
ATOM     11  H53 UNL     1       7.267  20.411  14.788  1.00  0.00     0.275 HD
ATOM     12  H52 UNL     1       7.797  19.088  14.248  1.00  0.00     0.275 HD
ATOM     13  H51 UNL     1       8.957  20.173  14.880  1.00  0.00     0.275 HD
ENDBRANCH   9  10
BRANCH   9  14
HETATM   14  C25 UNL     1       9.765  20.363  12.690  1.00  0.00     0.086 C 
BRANCH  14  15
HETATM   15  C26 UNL     1      10.414  19.159  13.152  1.00  0.00     0.239 C 
HETATM   16  O5  UNL     1      10.598  18.734  14.310  1.00  0.00    -0.269 OA
HETATM   17  N6  UNL     1      10.950  18.283  12.127  1.00  0.00    -0.358 N 
ATOM     18  H6  UNL     1      10.857  18.545  11.146  1.00  0.00     0.162 HD
BRANCH  17  19
HETATM   19  C27 UNL     1      11.607  17.059  12.463  1.00  0.00     0.123 C 
BRANCH  19  20
HETATM   20  C28 UNL     1      13.051  17.115  12.737  1.00  0.00     0.023 C 
BRANCH  20  21
HETATM   21  C29 UNL     1      14.001  16.465  11.812  1.00  0.00    -0.021 C 
HETATM   22  C30 UNL     1      15.453  16.725  11.970  1.00  0.00     0.009 C 
HETATM   23  C31 UNL     1      13.650  16.714  10.355  1.00  0.00     0.009 C 
ENDBRANCH  20  21
ENDBRANCH  19  20
ENDBRANCH  17  19
ENDBRANCH  14  15
ENDBRANCH   9  14
ENDBRANCH   3   9
ENDBRANCH   2   3
ENDBRANCH   1   2
BRANCH   1  24
HETATM   24  C5  UNL     1       5.474  20.048   9.260  1.00  0.00     0.067 C 
BRANCH  24  25
HETATM   25  C6  UNL     1       5.079  18.587   9.071  1.00  0.00     0.016 C 
HETATM   26  C7  UNL     1       4.050  18.093  10.018  1.00  0.00     0.015 C 
HETATM   27  C8  UNL     1       4.501  18.501   7.655  1.00  0.00     0.015 C 
ENDBRANCH  24  25
ENDBRANCH   1  24
BRANCH   1  28
HETATM   28  C9  UNL     1       7.802  20.345   8.696  1.00  0.00     0.162 C 
BRANCH  28  29
HETATM   29  C10 UNL     1       9.119  19.735   9.014  1.00  0.00     0.167 C 
BRANCH  29  30
HETATM   30  O2  UNL     1       9.164  18.366   8.764  1.00  0.00    -0.391 OA
ATOM     31  H2  UNL     1       8.798  17.844   9.469  1.00  0.00     0.210 HD
ENDBRANCH  29  30
BRANCH  29  32
HETATM   32  C11 UNL     1      10.110  20.366   8.022  1.00  0.00     0.171 C 
BRANCH  32  33
HETATM   33  O3  UNL     1       9.509  20.880   6.902  1.00  0.00    -0.391 OA
ATOM     34  H3  UNL     1       8.605  20.607   6.798  1.00  0.00     0.210 HD
ENDBRANCH  32  33
BRANCH  32  35
HETATM   35  C12 UNL     1      11.290  19.510   7.720  1.00  0.00     0.117 C 
BRANCH  35  36
HETATM   36  C13 UNL     1      12.607  20.161   7.957  1.00  0.00     0.031 C 
BRANCH  36  37
HETATM   37  C14 UNL     1      12.916  21.339   7.079  1.00  0.00    -0.021 C 
HETATM   38  C15 UNL     1      14.073  21.179   6.162  1.00  0.00     0.009 C 
HETATM   39  C16 UNL     1      13.194  22.531   7.997  1.00  0.00     0.009 C 
ENDBRANCH  36  37
ENDBRANCH  35  36
BRANCH  35  40
HETATM   40  N3  UNL     1      11.142  18.866   6.444  1.00  0.00    -0.336 N 
HETATM   41  C17 UNL     1      11.535  17.530   6.169  1.00  0.00     0.318 C 
HETATM   42  O4  UNL     1      12.052  16.915   7.182  1.00  0.00    -0.247 OA
HETATM   43  N4  UNL     1      11.408  16.869   4.937  1.00  0.00    -0.334 N 
HETATM   44  C18 UNL     1      11.916  15.512   4.896  1.00  0.00     0.127 C 
HETATM   45  C23 UNL     1      10.796  17.579   3.858  1.00  0.00     0.127 C 
HETATM   46  C19 UNL     1      13.036  15.369   3.895  1.00  0.00     0.020 C 
HETATM   47  C20 UNL     1      13.621  16.737   3.577  1.00  0.00     0.002 C 
HETATM   48  C21 UNL     1      12.818  17.320   2.438  1.00  0.00     0.002 C 
HETATM   49  C22 UNL     1      11.835  18.322   3.022  1.00  0.00     0.020 C 
ATOM     50  H3  UNL     1      10.726  19.405   5.685  1.00  0.00     0.164 HD
ENDBRANCH  35  40
ENDBRANCH  32  35
ENDBRANCH  29  32
ENDBRANCH  28  29
ENDBRANCH   1  28
TORSDOF 21
ENDMDL
MODEL 4
REMARK VINA RESULT: -5.694121512      3.350      6.232
REMARK  21 active torsions:
REMARK  status: ('A' for Active; 'I' for Inactive)
REMARK       I    between atoms: C2_2  and  N1_4 
REMARK    1  A    between atoms: N1_4  and  C3_6 
REMARK    2  A    between atoms: C3_6  and  C4_7 
REMARK    3  A    between atoms: C3_6  and  C24_36 
REMARK    4  A    between atoms: C4_7  and  N2_8 
REMARK    5  A    between atoms: N2_8  and  C5_9 
REMARK    6  A    between atoms: N2_8  and  C9_13 
REMARK    7  A    between atoms: C5_9  and  C6_10 
REMARK    8  A    between atoms: C9_13  and  C10_14 
REMARK    9  A    between atoms: C10_14  and  O2_15 
REMARK   10  A    between atoms: C10_14  and  C11_17 
REMARK   11  A    between atoms: C11_17  and  O3_18 
REMARK   12  A    between atoms: C11_17  and  C12_20 
REMARK   13  A    between atoms: C12_20  and  C13_21 
REMARK   14  A    between atoms: C12_20  and  N3_25 
REMARK   15  A    between atoms: C13_21  and  C14_22 
REMARK       I    between atoms: N3_25  and  C17_27 
REMARK       I    between atoms: C17_27  and  N4_29 
REMARK   16  A    between atoms: C24_36  and  N5_37 
REMARK   17  A    between atoms: C24_36  and  C25_41 
REMARK   18  A    between atoms: C25_41  and  C26_42 
REMARK       I    between atoms: C26_42  and  N6_44 
REMARK   19  A    between atoms: N6_44  and  C27_46 
REMARK   20  A    between atoms: C27_46  and  C28_47 
REMARK   21  A    between atoms: C28_47  and  C29_48 
ROOT
HETATM    1  N2  UNL     1      10.716  18.503  11.066  1.00  0.00    -0.365 N 
ENDROOT
BRANCH   1   2
HETATM    2  C4  UNL     1      10.469  19.658  11.802  1.00  0.00     0.117 C 
BRANCH   2   3
HETATM    3  C3  UNL     1       9.130  20.112  12.194  1.00  0.00     0.062 C 
BRANCH   3   4
HETATM    4  N1  UNL     1       8.113  19.609  11.262  1.00  0.00    -0.328 N 
HETATM    5  C2  UNL     1       7.816  20.109  10.004  1.00  0.00     0.218 C 
HETATM    6  C1  UNL     1       6.760  19.490   9.184  1.00  0.00     0.117 C 
HETATM    7  O1  UNL     1       8.424  21.085   9.533  1.00  0.00    -0.274 OA
ATOM      8  H1  UNL     1       7.567  18.805  11.574  1.00  0.00     0.168 HD
ENDBRANCH   3   4
BRANCH   3   9
HETATM    9  C24 UNL     1       8.656  20.158  13.562  1.00  0.00     0.262 C 
BRANCH   9  10
HETATM   10  N5  UNL     1       9.658  19.337  14.359  1.00  0.00    -0.066 N 
ATOM     11  H53 UNL     1       9.354  19.127  15.310  1.00  0.00     0.275 HD
ATOM     12  H52 UNL     1       9.740  18.370  14.046  1.00  0.00     0.275 HD
ATOM     13  H51 UNL     1      10.532  19.862  14.313  1.00  0.00     0.275 HD
ENDBRANCH   9  10
BRANCH   9  14
HETATM   14  C25 UNL     1       8.409  21.330  14.365  1.00  0.00     0.086 C 
BRANCH  14  15
HETATM   15  C26 UNL     1       8.934  21.534  15.694  1.00  0.00     0.239 C 
HETATM   16  O5  UNL     1       8.825  20.836  16.722  1.00  0.00    -0.269 OA
HETATM   17  N6  UNL     1       9.719  22.738  15.898  1.00  0.00    -0.358 N 
ATOM     18  H6  UNL     1       9.861  23.379  15.118  1.00  0.00     0.162 HD
BRANCH  17  19
HETATM   19  C27 UNL     1      10.298  23.042  17.169  1.00  0.00     0.123 C 
BRANCH  19  20
HETATM   20  C28 UNL     1      11.727  23.388  17.199  1.00  0.00     0.023 C 
BRANCH  20  21
HETATM   21  C29 UNL     1      12.744  22.317  17.165  1.00  0.00    -0.021 C 
HETATM   22  C30 UNL     1      13.143  21.662  18.434  1.00  0.00     0.009 C 
HETATM   23  C31 UNL     1      14.016  22.753  16.458  1.00  0.00     0.009 C 
ENDBRANCH  20  21
ENDBRANCH  19  20
ENDBRANCH  17  19
ENDBRANCH  14  15
ENDBRANCH   9  14
ENDBRANCH   3   9
ENDBRANCH   2   3
ENDBRANCH   1   2
BRANCH   1  24
HETATM   24  C5  UNL     1      11.060  17.293  11.658  1.00  0.00     0.067 C 
BRANCH  24  25
HETATM   25  C6  UNL     1      12.274  17.360  12.579  1.00  0.00     0.016 C 
HETATM   26  C7  UNL     1      12.090  16.706  13.898  1.00  0.00     0.015 C 
HETATM   27  C8  UNL     1      13.392  16.623  11.836  1.00  0.00     0.015 C 
ENDBRANCH  24  25
ENDBRANCH   1  24
BRANCH   1  28
HETATM   28  C9  UNL     1      11.260  18.765   9.755  1.00  0.00     0.162 C 
BRANCH  28  29
HETATM   29  C10 UNL     1      10.650  18.029   8.617  1.00  0.00     0.167 C 
BRANCH  29  30
HETATM   30  O2  UNL     1       9.934  18.853   7.752  1.00  0.00    -0.391 OA
ATOM     31  H2  UNL     1       9.166  18.432   7.384  1.00  0.00     0.210 HD
ENDBRANCH  29  30
BRANCH  29  32
HETATM   32  C11 UNL     1      11.835  17.499   7.793  1.00  0.00     0.171 C 
BRANCH  32  33
HETATM   33  O3  UNL     1      12.967  17.290   8.536  1.00  0.00    -0.391 OA
ATOM     34  H3  UNL     1      13.000  16.433   8.944  1.00  0.00     0.210 HD
ENDBRANCH  32  33
BRANCH  32  35
HETATM   35  C12 UNL     1      12.084  18.257   6.536  1.00  0.00     0.117 C 
BRANCH  35  36
HETATM   36  C13 UNL     1      12.619  17.441   5.413  1.00  0.00     0.031 C 
BRANCH  36  37
HETATM   37  C14 UNL     1      11.680  16.409   4.857  1.00  0.00    -0.021 C 
HETATM   38  C15 UNL     1      12.313  15.168   4.341  1.00  0.00     0.009 C 
HETATM   39  C16 UNL     1      10.907  17.065   3.712  1.00  0.00     0.009 C 
ENDBRANCH  36  37
ENDBRANCH  35  36
BRANCH  35  40
HETATM   40  N3  UNL     1      12.795  19.476   6.806  1.00  0.00    -0.336 N 
HETATM   41  C17 UNL     1      12.409  20.755   6.324  1.00  0.00     0.318 C 
HETATM   42  O4  UNL     1      11.337  20.742   5.602  1.00  0.00    -0.247 OA
HETATM   43  N4  UNL     1      13.079  21.964   6.565  1.00  0.00    -0.334 N 
HETATM   44  C18 UNL     1      12.508  23.137   5.933  1.00  0.00     0.127 C 
HETATM   45  C23 UNL     1      14.238  21.931   7.400  1.00  0.00     0.127 C 
HETATM   46  C19 UNL     1      13.475  23.773   4.965  1.00  0.00     0.020 C 
HETATM   47  C20 UNL     1      14.551  22.770   4.577  1.00  0.00     0.002 C 
HETATM   48  C21 UNL     1      15.661  22.878   5.596  1.00  0.00     0.002 C 
HETATM   49  C22 UNL     1      15.509  21.727   6.578  1.00  0.00     0.020 C 
ATOM     50  H3  UNL     1      13.634  19.419   7.383  1.00  0.00     0.164 HD
ENDBRANCH  35  40
ENDBRANCH  32  35
ENDBRANCH  29  32
ENDBRANCH  28  29
ENDBRANCH   1  28
TORSDOF 21
ENDMDL
MODEL 5
REMARK VINA RESULT: -5.682247289      2.618      9.809
REMARK  21 active torsions:
REMARK  status: ('A' for Active; 'I' for Inactive)
REMARK       I    between atoms: C2_2  and  N1_4 
REMARK    1  A    between atoms: N1_4  and  C3_6 
REMARK    2  A    between atoms: C3_6  and  C4_7 
REMARK    3  A    between atoms: C3_6  and  C24_36 
REMARK    4  A    between atoms: C4_7  and  N2_8 
REMARK    5  A    between atoms: N2_8  and  C5_9 
REMARK    6  A    between atoms: N2_8  and  C9_13 
REMARK    7  A    between atoms: C5_9  and  C6_10 
REMARK    8  A    between atoms: C9_13  and  C10_14 
REMARK    9  A    between atoms: C10_14  and  O2_15 
REMARK   10  A    between atoms: C10_14  and  C11_17 
REMARK   11  A    between atoms: C11_17  and  O3_18 
REMARK   12  A    between atoms: C11_17  and  C12_20 
REMARK   13  A    between atoms: C12_20  and  C13_21 
REMARK   14  A    between atoms: C12_20  and  N3_25 
REMARK   15  A    between atoms: C13_21  and  C14_22 
REMARK       I    between atoms: N3_25  and  C17_27 
REMARK       I    between atoms: C17_27  and  N4_29 
REMARK   16  A    between atoms: C24_36  and  N5_37 
REMARK   17  A    between atoms: C24_36  and  C25_41 
REMARK   18  A    between atoms: C25_41  and  C26_42 
REMARK       I    between atoms: C26_42  and  N6_44 
REMARK   19  A    between atoms: N6_44  and  C27_46 
REMARK   20  A    between atoms: C27_46  and  C28_47 
REMARK   21  A    between atoms: C28_47  and  C29_48 
ROOT
HETATM    1  N2  UNL     1      12.104  17.958   5.220  1.00  0.00    -0.365 N 
ENDROOT
BRANCH   1   2
HETATM    2  C4  UNL     1      13.155  18.657   4.633  1.00  0.00     0.117 C 
BRANCH   2   3
HETATM    3  C3  UNL     1      13.226  20.120   4.555  1.00  0.00     0.062 C 
BRANCH   3   4
HETATM    4  N1  UNL     1      14.370  20.630   5.322  1.00  0.00    -0.328 N 
HETATM    5  C2  UNL     1      14.326  21.311   6.528  1.00  0.00     0.218 C 
HETATM    6  C1  UNL     1      15.569  21.761   7.178  1.00  0.00     0.117 C 
HETATM    7  O1  UNL     1      13.248  21.559   7.095  1.00  0.00    -0.274 OA
ATOM      8  H1  UNL     1      15.295  20.466   4.924  1.00  0.00     0.168 HD
ENDBRANCH   3   4
BRANCH   3   9
HETATM    9  C24 UNL     1      12.983  20.881   3.347  1.00  0.00     0.262 C 
BRANCH   9  10
HETATM   10  N5  UNL     1      14.145  21.858   3.250  1.00  0.00    -0.066 N 
ATOM     11  H53 UNL     1      15.061  21.410   3.266  1.00  0.00     0.275 HD
ATOM     12  H52 UNL     1      14.242  22.292   2.331  1.00  0.00     0.275 HD
ATOM     13  H51 UNL     1      13.999  22.525   4.008  1.00  0.00     0.275 HD
ENDBRANCH   9  10
BRANCH   9  14
HETATM   14  C25 UNL     1      12.810  20.370   2.009  1.00  0.00     0.086 C 
BRANCH  14  15
HETATM   15  C26 UNL     1      13.895  20.019   1.124  1.00  0.00     0.239 C 
HETATM   16  O5  UNL     1      14.882  20.685   0.752  1.00  0.00    -0.269 OA
HETATM   17  N6  UNL     1      13.858  18.683   0.559  1.00  0.00    -0.358 N 
ATOM     18  H6  UNL     1      13.085  18.062   0.797  1.00  0.00     0.162 HD
BRANCH  17  19
HETATM   19  C27 UNL     1      14.882  18.220  -0.324  1.00  0.00     0.123 C 
BRANCH  19  20
HETATM   20  C28 UNL     1      15.554  16.957   0.018  1.00  0.00     0.023 C 
BRANCH  20  21
HETATM   21  C29 UNL     1      15.144  16.208   1.223  1.00  0.00    -0.021 C 
HETATM   22  C30 UNL     1      15.988  16.283   2.441  1.00  0.00     0.009 C 
HETATM   23  C31 UNL     1      14.895  14.738   0.931  1.00  0.00     0.009 C 
ENDBRANCH  20  21
ENDBRANCH  19  20
ENDBRANCH  17  19
ENDBRANCH  14  15
ENDBRANCH   9  14
ENDBRANCH   3   9
ENDBRANCH   2   3
ENDBRANCH   1   2
BRANCH   1  24
HETATM   24  C5  UNL     1      11.440  16.918   4.580  1.00  0.00     0.067 C 
BRANCH  24  25
HETATM   25  C6  UNL     1      12.293  16.139   3.584  1.00  0.00     0.016 C 
HETATM   26  C7  UNL     1      12.884  14.888   4.118  1.00  0.00     0.015 C 
HETATM   27  C8  UNL     1      11.346  15.765   2.440  1.00  0.00     0.015 C 
ENDBRANCH  24  25
ENDBRANCH   1  24
BRANCH   1  28
HETATM   28  C9  UNL     1      11.328  18.757   6.140  1.00  0.00     0.162 C 
BRANCH  28  29
HETATM   29  C10 UNL     1      11.488  18.458   7.587  1.00  0.00     0.167 C 
BRANCH  29  30
HETATM   30  O2  UNL     1      12.769  18.725   8.064  1.00  0.00    -0.391 OA
ATOM     31  H2  UNL     1      12.844  19.577   8.477  1.00  0.00     0.210 HD
ENDBRANCH  29  30
BRANCH  29  32
HETATM   32  C11 UNL     1      10.564  19.451   8.311  1.00  0.00     0.171 C 
BRANCH  32  33
HETATM   33  O3  UNL     1      11.214  20.566   8.771  1.00  0.00    -0.391 OA
ATOM     34  H3  UNL     1      10.946  20.828   9.644  1.00  0.00     0.210 HD
ENDBRANCH  32  33
BRANCH  32  35
HETATM   35  C12 UNL     1       9.678  18.820   9.328  1.00  0.00     0.117 C 
BRANCH  35  36
HETATM   36  C13 UNL     1      10.050  17.428   9.700  1.00  0.00     0.031 C 
BRANCH  36  37
HETATM   37  C14 UNL     1      10.636  17.259  11.073  1.00  0.00    -0.021 C 
HETATM   38  C15 UNL     1      10.516  18.430  11.978  1.00  0.00     0.009 C 
HETATM   39  C16 UNL     1      12.122  16.938  10.898  1.00  0.00     0.009 C 
ENDBRANCH  36  37
ENDBRANCH  35  36
BRANCH  35  40
HETATM   40  N3  UNL     1       8.295  19.021   8.996  1.00  0.00    -0.336 N 
HETATM   41  C17 UNL     1       7.432  19.928   9.666  1.00  0.00     0.318 C 
HETATM   42  O4  UNL     1       7.999  20.580  10.626  1.00  0.00    -0.247 OA
HETATM   43  N4  UNL     1       6.077  20.148   9.371  1.00  0.00    -0.334 N 
HETATM   44  C18 UNL     1       5.395  21.102  10.222  1.00  0.00     0.127 C 
HETATM   45  C23 UNL     1       5.506  19.429   8.276  1.00  0.00     0.127 C 
HETATM   46  C19 UNL     1       4.254  20.462  10.972  1.00  0.00     0.020 C 
HETATM   47  C20 UNL     1       4.435  18.952  10.995  1.00  0.00     0.002 C 
HETATM   48  C21 UNL     1       3.789  18.397   9.748  1.00  0.00     0.002 C 
HETATM   49  C22 UNL     1       4.890  18.110   8.739  1.00  0.00     0.020 C 
ATOM     50  H3  UNL     1       7.907  18.475   8.227  1.00  0.00     0.164 HD
ENDBRANCH  35  40
ENDBRANCH  32  35
ENDBRANCH  29  32
ENDBRANCH  28  29
ENDBRANCH   1  28
TORSDOF 21
ENDMDL
