MODEL 1
REMARK VINA RESULT: -6.935752112      0.000      0.000
REMARK  17 active torsions:
REMARK  status: ('A' for Active; 'I' for Inactive)
REMARK    1  A    between atoms: N1_2  and  C2_5 
REMARK    2  A    between atoms: C3_7  and  C4_8 
REMARK    3  A    between atoms: C4_8  and  N2_9 
REMARK       I    between atoms: N2_9  and  C5_11 
REMARK    4  A    between atoms: C5_11  and  C6_13 
REMARK    5  A    between atoms: C7_18  and  O3_19 
REMARK    6  A    between atoms: C8_21  and  N5_22 
REMARK    7  A    between atoms: N5_22  and  C9_25 
REMARK    8  A    between atoms: C9_25  and  C10_26 
REMARK    9  A    between atoms: C10_26  and  N6_27 
REMARK   10  A    between atoms: C11_31  and  O4_32 
REMARK   11  A    between atoms: C12_34  and  N7_35 
REMARK   12  A    between atoms: N7_35  and  C13_37 
REMARK   13  A    between atoms: C13_37  and  C14_38 
REMARK   14  A    between atoms: C14_38  and  N8_39 
REMARK   15  A    between atoms: N8_39  and  C15_42 
REMARK   16  A    between atoms: C15_42  and  C16_43 
REMARK   17  A    between atoms: C16_43  and  O5_44 
ROOT
HETATM    1  C2  UNL     1       7.340 109.431  78.114  1.00  0.00     0.370 C 
HETATM    2  O1  UNL     1       8.679 109.543  78.520  1.00  0.00    -0.345 OA
HETATM    3  C3  UNL     1       9.105 108.664  79.459  1.00  0.00     0.173 C 
HETATM    4  C7  UNL     1       8.178 107.688  80.048  1.00  0.00     0.182 C 
HETATM    5  C8  UNL     1       7.894 106.618  79.066  1.00  0.00     0.251 C 
HETATM    6  C11 UNL     1       7.854 106.983  77.612  1.00  0.00     0.201 C 
HETATM    7  C12 UNL     1       7.147 108.210  77.274  1.00  0.00     0.070 C 
ENDROOT
BRANCH   7   8
HETATM    8  N7  UNL     1       7.112 108.411  75.863  1.00  0.00    -0.389 N 
ATOM      9  H7  UNL     1       7.857 108.915  75.382  1.00  0.00     0.159 HD
BRANCH   8  10
HETATM   10  C13 UNL     1       6.004 107.886  75.154  1.00  0.00     0.147 C 
BRANCH  10  11
HETATM   11  C14 UNL     1       6.012 108.328  73.681  1.00  0.00     0.251 C 
BRANCH  11  12
HETATM   12  N8  UNL     1       6.563 109.644  73.630  1.00  0.00    -0.072 N 
ATOM     13  H82 UNL     1       7.069 109.857  74.491  1.00  0.00     0.277 HD
ATOM     14  H81 UNL     1       7.336 109.687  72.965  1.00  0.00     0.277 HD
BRANCH  12  15
HETATM   15  C15 UNL     1       5.597 110.654  73.349  1.00  0.00     0.258 C 
BRANCH  15  16
HETATM   16  C16 UNL     1       6.013 111.884  74.179  1.00  0.00     0.191 C 
BRANCH  16  17
HETATM   17  O5  UNL     1       7.385 111.883  74.413  1.00  0.00    -0.399 OA
ATOM     18  H5  UNL     1       7.818 112.537  73.878  1.00  0.00     0.209 HD
ENDBRANCH  16  17
ENDBRANCH  15  16
ENDBRANCH  12  15
ENDBRANCH  11  12
ENDBRANCH  10  11
ENDBRANCH   8  10
ENDBRANCH   7   8
BRANCH   1  19
HETATM   19  N1  UNL     1       7.138 110.613  77.301  1.00  0.00    -0.047 N 
HETATM   20  C1  UNL     1       7.688 111.803  77.972  1.00  0.00     0.270 C 
ATOM     21  H12 UNL     1       6.157 110.738  77.052  1.00  0.00     0.280 HD
ATOM     22  H11 UNL     1       7.520 110.497  76.363  1.00  0.00     0.280 HD
ENDBRANCH   1  19
BRANCH   6  23
HETATM   23  O4  UNL     1       9.060 106.868  76.933  1.00  0.00    -0.387 OA
ATOM     24  H4  UNL     1       9.154 106.092  76.393  1.00  0.00     0.210 HD
ENDBRANCH   6  23
BRANCH   5  25
HETATM   25  N5  UNL     1       8.893 105.577  79.153  1.00  0.00    -0.064 N 
ATOM     26  H52 UNL     1       9.655 105.739  78.495  1.00  0.00     0.277 HD
ATOM     27  H51 UNL     1       9.418 105.639  80.026  1.00  0.00     0.277 HD
BRANCH  25  28
HETATM   28  C9  UNL     1       8.316 104.256  78.977  1.00  0.00     0.260 C 
BRANCH  28  29
HETATM   29  C10 UNL     1       7.222 104.109  80.012  1.00  0.00     0.257 C 
BRANCH  29  30
HETATM   30  N6  UNL     1       7.347 102.801  80.607  1.00  0.00    -0.078 N 
ATOM     31  H63 UNL     1       6.822 102.086  80.104  1.00  0.00     0.274 HD
ATOM     32  H62 UNL     1       8.276 102.399  80.485  1.00  0.00     0.274 HD
ATOM     33  H61 UNL     1       7.073 102.875  81.587  1.00  0.00     0.274 HD
ENDBRANCH  29  30
ENDBRANCH  28  29
ENDBRANCH  25  28
ENDBRANCH   5  25
BRANCH   3  34
HETATM   34  C4  UNL     1      10.090 109.301  80.431  1.00  0.00     0.157 C 
BRANCH  34  35
HETATM   35  N2  UNL     1      10.424 110.656  80.083  1.00  0.00    -0.352 N 
HETATM   36  C5  UNL     1      11.554 110.845  79.235  1.00  0.00     0.282 C 
HETATM   37  O2  UNL     1      12.241 109.842  78.843  1.00  0.00    -0.265 OA
ATOM     38  H2  UNL     1       9.877 111.446  80.427  1.00  0.00     0.162 HD
BRANCH  36  39
HETATM   39  C6  UNL     1      11.993 112.125  78.772  1.00  0.00     0.178 C 
HETATM   40  N3  UNL     1      11.825 113.175  79.554  1.00  0.00    -0.383 N 
ATOM     41  H32 UNL     1      11.368 113.030  80.454  1.00  0.00     0.157 HD
ATOM     42  H31 UNL     1      12.139 114.088  79.223  1.00  0.00     0.157 HD
HETATM   43  N4  UNL     1      12.615 112.322  77.546  1.00  0.00    -0.077 NA
ENDBRANCH  36  39
ENDBRANCH  34  35
ENDBRANCH   3  34
BRANCH   4  44
HETATM   44  O3  UNL     1       8.882 107.069  81.113  1.00  0.00    -0.391 OA
ATOM     45  H3  UNL     1       8.402 106.275  81.320  1.00  0.00     0.210 HD
ENDBRANCH   4  44
TORSDOF 17
ENDMDL
MODEL 2
REMARK VINA RESULT: -6.905560072      2.430      7.323
REMARK  17 active torsions:
REMARK  status: ('A' for Active; 'I' for Inactive)
REMARK    1  A    between atoms: N1_2  and  C2_5 
REMARK    2  A    between atoms: C3_7  and  C4_8 
REMARK    3  A    between atoms: C4_8  and  N2_9 
REMARK       I    between atoms: N2_9  and  C5_11 
REMARK    4  A    between atoms: C5_11  and  C6_13 
REMARK    5  A    between atoms: C7_18  and  O3_19 
REMARK    6  A    between atoms: C8_21  and  N5_22 
REMARK    7  A    between atoms: N5_22  and  C9_25 
REMARK    8  A    between atoms: C9_25  and  C10_26 
REMARK    9  A    between atoms: C10_26  and  N6_27 
REMARK   10  A    between atoms: C11_31  and  O4_32 
REMARK   11  A    between atoms: C12_34  and  N7_35 
REMARK   12  A    between atoms: N7_35  and  C13_37 
REMARK   13  A    between atoms: C13_37  and  C14_38 
REMARK   14  A    between atoms: C14_38  and  N8_39 
REMARK   15  A    between atoms: N8_39  and  C15_42 
REMARK   16  A    between atoms: C15_42  and  C16_43 
REMARK   17  A    between atoms: C16_43  and  O5_44 
ROOT
HETATM    1  C2  UNL     1       7.374 106.890  81.047  1.00  0.00     0.370 C 
HETATM    2  O1  UNL     1       8.125 105.852  80.474  1.00  0.00    -0.345 OA
HETATM    3  C3  UNL     1       7.857 105.552  79.180  1.00  0.00     0.173 C 
HETATM    4  C7  UNL     1       6.792 106.254  78.452  1.00  0.00     0.182 C 
HETATM    5  C8  UNL     1       7.238 107.625  78.120  1.00  0.00     0.251 C 
HETATM    6  C11 UNL     1       8.144 108.329  79.085  1.00  0.00     0.201 C 
HETATM    7  C12 UNL     1       7.800 108.212  80.496  1.00  0.00     0.070 C 
ENDROOT
BRANCH   7   8
HETATM    8  N7  UNL     1       8.686 108.981  81.306  1.00  0.00    -0.389 N 
ATOM      9  H7  UNL     1       9.585 108.606  81.610  1.00  0.00     0.159 HD
BRANCH   8  10
HETATM   10  C13 UNL     1       8.272 110.284  81.675  1.00  0.00     0.147 C 
BRANCH  10  11
HETATM   11  C14 UNL     1       8.972 111.362  80.828  1.00  0.00     0.251 C 
BRANCH  11  12
HETATM   12  N8  UNL     1      10.358 111.342  81.168  1.00  0.00    -0.072 N 
ATOM     13  H82 UNL     1      10.541 111.936  81.977  1.00  0.00     0.277 HD
ATOM     14  H81 UNL     1      10.621 110.437  81.560  1.00  0.00     0.277 HD
BRANCH  12  15
HETATM   15  C15 UNL     1      11.214 111.690  80.082  1.00  0.00     0.258 C 
BRANCH  15  16
HETATM   16  C16 UNL     1      11.667 110.358  79.453  1.00  0.00     0.191 C 
BRANCH  16  17
HETATM   17  O5  UNL     1      11.794 109.370  80.425  1.00  0.00    -0.399 OA
ATOM     18  H5  UNL     1      12.165 109.727  81.223  1.00  0.00     0.209 HD
ENDBRANCH  16  17
ENDBRANCH  15  16
ENDBRANCH  12  15
ENDBRANCH  11  12
ENDBRANCH  10  11
ENDBRANCH   8  10
ENDBRANCH   7   8
BRANCH   1  19
HETATM   19  N1  UNL     1       7.723 106.818  82.451  1.00  0.00    -0.047 N 
HETATM   20  C1  UNL     1       7.423 105.482  82.991  1.00  0.00     0.270 C 
ATOM     21  H12 UNL     1       7.271 107.555  82.992  1.00  0.00     0.280 HD
ATOM     22  H11 UNL     1       8.694 107.083  82.614  1.00  0.00     0.280 HD
ENDBRANCH   1  19
BRANCH   6  23
HETATM   23  O4  UNL     1       9.504 108.159  78.862  1.00  0.00    -0.387 OA
ATOM     24  H4  UNL     1      10.079 108.567  79.499  1.00  0.00     0.210 HD
ENDBRANCH   6  23
BRANCH   5  25
HETATM   25  N5  UNL     1       7.963 107.630  76.870  1.00  0.00    -0.064 N 
ATOM     26  H52 UNL     1       8.962 107.764  77.022  1.00  0.00     0.277 HD
ATOM     27  H51 UNL     1       7.987 106.700  76.452  1.00  0.00     0.277 HD
BRANCH  25  28
HETATM   28  C9  UNL     1       7.434 108.612  75.940  1.00  0.00     0.260 C 
BRANCH  28  29
HETATM   29  C10 UNL     1       7.537 108.011  74.555  1.00  0.00     0.257 C 
BRANCH  29  30
HETATM   30  N6  UNL     1       6.820 106.760  74.560  1.00  0.00    -0.078 N 
ATOM     31  H63 UNL     1       7.110 106.142  75.318  1.00  0.00     0.274 HD
ATOM     32  H62 UNL     1       5.844 106.865  74.835  1.00  0.00     0.274 HD
ATOM     33  H61 UNL     1       6.928 106.334  73.639  1.00  0.00     0.274 HD
ENDBRANCH  29  30
ENDBRANCH  28  29
ENDBRANCH  25  28
ENDBRANCH   5  25
BRANCH   3  34
HETATM   34  C4  UNL     1       7.959 104.056  78.909  1.00  0.00     0.157 C 
BRANCH  34  35
HETATM   35  N2  UNL     1       7.895 103.264  80.109  1.00  0.00    -0.352 N 
HETATM   36  C5  UNL     1       7.946 101.849  79.951  1.00  0.00     0.282 C 
HETATM   37  O2  UNL     1       8.012 101.332  78.785  1.00  0.00    -0.265 OA
ATOM     38  H2  UNL     1       7.817 103.695  81.030  1.00  0.00     0.162 HD
BRANCH  36  39
HETATM   39  C6  UNL     1       7.928 100.927  81.045  1.00  0.00     0.178 C 
HETATM   40  N3  UNL     1       7.352 101.294  82.174  1.00  0.00    -0.383 N 
ATOM     41  H32 UNL     1       6.959 102.234  82.225  1.00  0.00     0.157 HD
ATOM     42  H31 UNL     1       7.339 100.637  82.954  1.00  0.00     0.157 HD
HETATM   43  N4  UNL     1       8.463  99.648  80.975  1.00  0.00    -0.077 NA
ENDBRANCH  36  39
ENDBRANCH  34  35
ENDBRANCH   3  34
BRANCH   4  44
HETATM   44  O3  UNL     1       6.647 105.576  77.214  1.00  0.00    -0.391 OA
ATOM     45  H3  UNL     1       7.528 105.430  76.889  1.00  0.00     0.210 HD
ENDBRANCH   4  44
TORSDOF 17
ENDMDL
MODEL 3
REMARK VINA RESULT: -6.855457978      1.977      5.736
REMARK  17 active torsions:
REMARK  status: ('A' for Active; 'I' for Inactive)
REMARK    1  A    between atoms: N1_2  and  C2_5 
REMARK    2  A    between atoms: C3_7  and  C4_8 
REMARK    3  A    between atoms: C4_8  and  N2_9 
REMARK       I    between atoms: N2_9  and  C5_11 
REMARK    4  A    between atoms: C5_11  and  C6_13 
REMARK    5  A    between atoms: C7_18  and  O3_19 
REMARK    6  A    between atoms: C8_21  and  N5_22 
REMARK    7  A    between atoms: N5_22  and  C9_25 
REMARK    8  A    between atoms: C9_25  and  C10_26 
REMARK    9  A    between atoms: C10_26  and  N6_27 
REMARK   10  A    between atoms: C11_31  and  O4_32 
REMARK   11  A    between atoms: C12_34  and  N7_35 
REMARK   12  A    between atoms: N7_35  and  C13_37 
REMARK   13  A    between atoms: C13_37  and  C14_38 
REMARK   14  A    between atoms: C14_38  and  N8_39 
REMARK   15  A    between atoms: N8_39  and  C15_42 
REMARK   16  A    between atoms: C15_42  and  C16_43 
REMARK   17  A    between atoms: C16_43  and  O5_44 
ROOT
HETATM    1  C2  UNL     1       8.079 108.983  78.545  1.00  0.00     0.370 C 
HETATM    2  O1  UNL     1       6.817 108.651  78.028  1.00  0.00    -0.345 OA
HETATM    3  C3  UNL     1       6.708 107.445  77.420  1.00  0.00     0.173 C 
HETATM    4  C7  UNL     1       7.879 106.571  77.272  1.00  0.00     0.182 C 
HETATM    5  C8  UNL     1       8.214 105.965  78.581  1.00  0.00     0.251 C 
HETATM    6  C11 UNL     1       7.971 106.774  79.819  1.00  0.00     0.201 C 
HETATM    7  C12 UNL     1       8.375 108.172  79.766  1.00  0.00     0.070 C 
ENDROOT
BRANCH   7   8
HETATM    8  N7  UNL     1       8.165 108.817  81.020  1.00  0.00    -0.389 N 
ATOM      9  H7  UNL     1       7.287 109.290  81.231  1.00  0.00     0.159 HD
BRANCH   8  10
HETATM   10  C13 UNL     1       9.221 108.775  81.963  1.00  0.00     0.147 C 
BRANCH  10  11
HETATM   11  C14 UNL     1      10.560 109.198  81.333  1.00  0.00     0.251 C 
BRANCH  11  12
HETATM   12  N8  UNL     1      10.647 110.620  81.424  1.00  0.00    -0.072 N 
ATOM     13  H82 UNL     1       9.729 111.028  81.602  1.00  0.00     0.277 HD
ATOM     14  H81 UNL     1      11.125 110.899  82.281  1.00  0.00     0.277 HD
BRANCH  12  15
HETATM   15  C15 UNL     1      11.256 111.225  80.286  1.00  0.00     0.258 C 
BRANCH  15  16
HETATM   16  C16 UNL     1      11.540 110.080  79.295  1.00  0.00     0.191 C 
BRANCH  16  17
HETATM   17  O5  UNL     1      12.638 110.379  78.494  1.00  0.00    -0.399 OA
ATOM     18  H5  UNL     1      13.095 109.586  78.240  1.00  0.00     0.209 HD
ENDBRANCH  16  17
ENDBRANCH  15  16
ENDBRANCH  12  15
ENDBRANCH  11  12
ENDBRANCH  10  11
ENDBRANCH   8  10
ENDBRANCH   7   8
BRANCH   1  19
HETATM   19  N1  UNL     1       7.932 110.376  78.915  1.00  0.00    -0.047 N 
HETATM   20  C1  UNL     1       7.432 111.163  77.776  1.00  0.00     0.270 C 
ATOM     21  H12 UNL     1       8.799 110.761  79.291  1.00  0.00     0.280 HD
ATOM     22  H11 UNL     1       7.344 110.488  79.741  1.00  0.00     0.280 HD
ENDBRANCH   1  19
BRANCH   6  23
HETATM   23  O4  UNL     1       6.723 106.611  80.405  1.00  0.00    -0.387 OA
ATOM     24  H4  UNL     1       6.423 105.714  80.488  1.00  0.00     0.210 HD
ENDBRANCH   6  23
BRANCH   5  25
HETATM   25  N5  UNL     1       7.455 104.752  78.783  1.00  0.00    -0.064 N 
ATOM     26  H52 UNL     1       6.668 104.909  79.412  1.00  0.00     0.277 HD
ATOM     27  H51 UNL     1       6.940 104.493  77.942  1.00  0.00     0.277 HD
BRANCH  25  28
HETATM   28  C9  UNL     1       8.291 103.659  79.247  1.00  0.00     0.260 C 
BRANCH  28  29
HETATM   29  C10 UNL     1       7.504 102.917  80.306  1.00  0.00     0.257 C 
BRANCH  29  30
HETATM   30  N6  UNL     1       6.321 103.688  80.600  1.00  0.00    -0.078 N 
ATOM     31  H63 UNL     1       6.466 104.366  81.347  1.00  0.00     0.274 HD
ATOM     32  H62 UNL     1       6.086 104.349  79.860  1.00  0.00     0.274 HD
ATOM     33  H61 UNL     1       5.563 103.035  80.801  1.00  0.00     0.274 HD
ENDBRANCH  29  30
ENDBRANCH  28  29
ENDBRANCH  25  28
ENDBRANCH   5  25
BRANCH   3  34
HETATM   34  C4  UNL     1       5.773 107.495  76.218  1.00  0.00     0.157 C 
BRANCH  34  35
HETATM   35  N2  UNL     1       6.110 108.542  75.290  1.00  0.00    -0.352 N 
HETATM   36  C5  UNL     1       6.583 108.140  74.008  1.00  0.00     0.282 C 
HETATM   37  O2  UNL     1       6.724 106.902  73.731  1.00  0.00    -0.265 OA
ATOM     38  H2  UNL     1       6.014 109.527  75.539  1.00  0.00     0.162 HD
BRANCH  36  39
HETATM   39  C6  UNL     1       6.925 109.058  72.965  1.00  0.00     0.178 C 
HETATM   40  N3  UNL     1       5.970 109.794  72.428  1.00  0.00    -0.383 N 
ATOM     41  H32 UNL     1       5.018 109.661  72.770  1.00  0.00     0.157 HD
ATOM     42  H31 UNL     1       6.214 110.448  71.685  1.00  0.00     0.157 HD
HETATM   43  N4  UNL     1       8.221 109.238  72.500  1.00  0.00    -0.077 NA
ENDBRANCH  36  39
ENDBRANCH  34  35
ENDBRANCH   3  34
BRANCH   4  44
HETATM   44  O3  UNL     1       7.469 105.500  76.436  1.00  0.00    -0.391 OA
ATOM     45  H3  UNL     1       8.242 105.234  75.950  1.00  0.00     0.210 HD
ENDBRANCH   4  44
TORSDOF 17
ENDMDL
MODEL 4
REMARK VINA RESULT: -6.798606116      1.738      5.465
REMARK  17 active torsions:
REMARK  status: ('A' for Active; 'I' for Inactive)
REMARK    1  A    between atoms: N1_2  and  C2_5 
REMARK    2  A    between atoms: C3_7  and  C4_8 
REMARK    3  A    between atoms: C4_8  and  N2_9 
REMARK       I    between atoms: N2_9  and  C5_11 
REMARK    4  A    between atoms: C5_11  and  C6_13 
REMARK    5  A    between atoms: C7_18  and  O3_19 
REMARK    6  A    between atoms: C8_21  and  N5_22 
REMARK    7  A    between atoms: N5_22  and  C9_25 
REMARK    8  A    between atoms: C9_25  and  C10_26 
REMARK    9  A    between atoms: C10_26  and  N6_27 
REMARK   10  A    between atoms: C11_31  and  O4_32 
REMARK   11  A    between atoms: C12_34  and  N7_35 
REMARK   12  A    between atoms: N7_35  and  C13_37 
REMARK   13  A    between atoms: C13_37  and  C14_38 
REMARK   14  A    between atoms: C14_38  and  N8_39 
REMARK   15  A    between atoms: N8_39  and  C15_42 
REMARK   16  A    between atoms: C15_42  and  C16_43 
REMARK   17  A    between atoms: C16_43  and  O5_44 
ROOT
HETATM    1  C2  UNL     1       8.141 109.189  78.610  1.00  0.00     0.370 C 
HETATM    2  O1  UNL     1       6.935 108.854  77.975  1.00  0.00    -0.345 OA
HETATM    3  C3  UNL     1       6.906 107.674  77.311  1.00  0.00     0.173 C 
HETATM    4  C7  UNL     1       8.106 106.831  77.226  1.00  0.00     0.182 C 
HETATM    5  C8  UNL     1       8.345 106.176  78.531  1.00  0.00     0.251 C 
HETATM    6  C11 UNL     1       7.981 106.925  79.777  1.00  0.00     0.201 C 
HETATM    7  C12 UNL     1       8.355 108.332  79.816  1.00  0.00     0.070 C 
ENDROOT
BRANCH   7   8
HETATM    8  N7  UNL     1       8.026 108.917  81.075  1.00  0.00    -0.389 N 
ATOM      9  H7  UNL     1       7.082 109.247  81.274  1.00  0.00     0.159 HD
BRANCH   8  10
HETATM   10  C13 UNL     1       9.059 109.022  82.038  1.00  0.00     0.147 C 
BRANCH  10  11
HETATM   11  C14 UNL     1      10.425 109.277  81.378  1.00  0.00     0.251 C 
BRANCH  11  12
HETATM   12  N8  UNL     1      10.689 110.677  81.465  1.00  0.00    -0.072 N 
ATOM     13  H82 UNL     1       9.844 111.189  81.717  1.00  0.00     0.277 HD
ATOM     14  H81 UNL     1      11.264 110.887  82.281  1.00  0.00     0.277 HD
BRANCH  12  15
HETATM   15  C15 UNL     1      11.274 111.219  80.283  1.00  0.00     0.258 C 
BRANCH  15  16
HETATM   16  C16 UNL     1      11.606 110.014  79.381  1.00  0.00     0.191 C 
BRANCH  16  17
HETATM   17  O5  UNL     1      12.616 110.334  78.479  1.00  0.00    -0.399 OA
ATOM     18  H5  UNL     1      13.294 110.848  78.901  1.00  0.00     0.209 HD
ENDBRANCH  16  17
ENDBRANCH  15  16
ENDBRANCH  12  15
ENDBRANCH  11  12
ENDBRANCH  10  11
ENDBRANCH   8  10
ENDBRANCH   7   8
BRANCH   1  19
HETATM   19  N1  UNL     1       7.931 110.561  79.024  1.00  0.00    -0.047 N 
HETATM   20  C1  UNL     1       7.484 111.382  77.887  1.00  0.00     0.270 C 
ATOM     21  H12 UNL     1       8.760 110.953  79.471  1.00  0.00     0.280 HD
ATOM     22  H11 UNL     1       7.287 110.624  79.813  1.00  0.00     0.280 HD
ENDBRANCH   1  19
BRANCH   6  23
HETATM   23  O4  UNL     1       6.693 106.711  80.250  1.00  0.00    -0.387 OA
ATOM     24  H4  UNL     1       6.001 106.801  79.606  1.00  0.00     0.210 HD
ENDBRANCH   6  23
BRANCH   5  25
HETATM   25  N5  UNL     1       7.601 104.940  78.619  1.00  0.00    -0.064 N 
ATOM     26  H52 UNL     1       6.758 105.054  79.181  1.00  0.00     0.277 HD
ATOM     27  H51 UNL     1       7.168 104.704  77.725  1.00  0.00     0.277 HD
BRANCH  25  28
HETATM   28  C9  UNL     1       8.420 103.847  79.112  1.00  0.00     0.260 C 
BRANCH  28  29
HETATM   29  C10 UNL     1       7.570 103.060  80.086  1.00  0.00     0.257 C 
BRANCH  29  30
HETATM   30  N6  UNL     1       6.387 103.835  80.368  1.00  0.00    -0.078 N 
ATOM     31  H63 UNL     1       5.918 103.543  81.225  1.00  0.00     0.274 HD
ATOM     32  H62 UNL     1       6.600 104.793  80.648  1.00  0.00     0.274 HD
ATOM     33  H61 UNL     1       5.779 103.789  79.550  1.00  0.00     0.274 HD
ENDBRANCH  29  30
ENDBRANCH  28  29
ENDBRANCH  25  28
ENDBRANCH   5  25
BRANCH   3  34
HETATM   34  C4  UNL     1       6.073 107.757  76.038  1.00  0.00     0.157 C 
BRANCH  34  35
HETATM   35  N2  UNL     1       5.795 109.111  75.637  1.00  0.00    -0.352 N 
HETATM   36  C5  UNL     1       6.669 109.690  74.673  1.00  0.00     0.282 C 
HETATM   37  O2  UNL     1       7.665 109.028  74.224  1.00  0.00    -0.265 OA
ATOM     38  H2  UNL     1       5.010 109.632  76.026  1.00  0.00     0.162 HD
BRANCH  36  39
HETATM   39  C6  UNL     1       6.507 111.011  74.148  1.00  0.00     0.178 C 
HETATM   40  N3  UNL     1       5.471 111.263  73.370  1.00  0.00    -0.383 N 
ATOM     41  H32 UNL     1       4.836 110.493  73.160  1.00  0.00     0.157 HD
ATOM     42  H31 UNL     1       5.356 112.205  72.996  1.00  0.00     0.157 HD
HETATM   43  N4  UNL     1       7.372 112.059  74.435  1.00  0.00    -0.077 NA
ENDBRANCH  36  39
ENDBRANCH  34  35
ENDBRANCH   3  34
BRANCH   4  44
HETATM   44  O3  UNL     1       7.792 105.789  76.314  1.00  0.00    -0.391 OA
ATOM     45  H3  UNL     1       7.521 106.216  75.509  1.00  0.00     0.210 HD
ENDBRANCH   4  44
TORSDOF 17
ENDMDL
MODEL 5
REMARK VINA RESULT: -6.769792572      1.737      2.028
REMARK  17 active torsions:
REMARK  status: ('A' for Active; 'I' for Inactive)
REMARK    1  A    between atoms: N1_2  and  C2_5 
REMARK    2  A    between atoms: C3_7  and  C4_8 
REMARK    3  A    between atoms: C4_8  and  N2_9 
REMARK       I    between atoms: N2_9  and  C5_11 
REMARK    4  A    between atoms: C5_11  and  C6_13 
REMARK    5  A    between atoms: C7_18  and  O3_19 
REMARK    6  A    between atoms: C8_21  and  N5_22 
REMARK    7  A    between atoms: N5_22  and  C9_25 
REMARK    8  A    between atoms: C9_25  and  C10_26 
REMARK    9  A    between atoms: C10_26  and  N6_27 
REMARK   10  A    between atoms: C11_31  and  O4_32 
REMARK   11  A    between atoms: C12_34  and  N7_35 
REMARK   12  A    between atoms: N7_35  and  C13_37 
REMARK   13  A    between atoms: C13_37  and  C14_38 
REMARK   14  A    between atoms: C14_38  and  N8_39 
REMARK   15  A    between atoms: N8_39  and  C15_42 
REMARK   16  A    between atoms: C15_42  and  C16_43 
REMARK   17  A    between atoms: C16_43  and  O5_44 
ROOT
HETATM    1  C2  UNL     1       7.611 108.736  78.734  1.00  0.00     0.370 C 
HETATM    2  O1  UNL     1       8.775 108.836  79.513  1.00  0.00    -0.345 OA
HETATM    3  C3  UNL     1       8.714 108.320  80.764  1.00  0.00     0.173 C 
HETATM    4  C7  UNL     1       7.465 107.743  81.278  1.00  0.00     0.182 C 
HETATM    5  C8  UNL     1       7.229 106.427  80.644  1.00  0.00     0.251 C 
HETATM    6  C11 UNL     1       7.676 106.233  79.226  1.00  0.00     0.201 C 
HETATM    7  C12 UNL     1       7.387 107.323  78.304  1.00  0.00     0.070 C 
ENDROOT
BRANCH   7   8
HETATM    8  N7  UNL     1       7.789 106.993  76.976  1.00  0.00    -0.389 N 
ATOM      9  H7  UNL     1       8.711 107.251  76.624  1.00  0.00     0.159 HD
BRANCH   8  10
HETATM   10  C13 UNL     1       6.862 106.296  76.165  1.00  0.00     0.147 C 
BRANCH  10  11
HETATM   11  C14 UNL     1       6.757 106.917  74.762  1.00  0.00     0.251 C 
BRANCH  11  12
HETATM   12  N8  UNL     1       7.619 108.054  74.730  1.00  0.00    -0.072 N 
ATOM     13  H82 UNL     1       7.548 108.586  75.598  1.00  0.00     0.277 HD
ATOM     14  H81 UNL     1       8.597 107.768  74.787  1.00  0.00     0.277 HD
BRANCH  12  15
HETATM   15  C15 UNL     1       7.404 108.898  73.601  1.00  0.00     0.258 C 
BRANCH  15  16
HETATM   16  C16 UNL     1       6.638 110.127  74.127  1.00  0.00     0.191 C 
BRANCH  16  17
HETATM   17  O5  UNL     1       7.422 111.273  74.040  1.00  0.00    -0.399 OA
ATOM     18  H5  UNL     1       8.126 111.250  74.678  1.00  0.00     0.209 HD
ENDBRANCH  16  17
ENDBRANCH  15  16
ENDBRANCH  12  15
ENDBRANCH  11  12
ENDBRANCH  10  11
ENDBRANCH   8  10
ENDBRANCH   7   8
BRANCH   1  19
HETATM   19  N1  UNL     1       7.914 109.551  77.576  1.00  0.00    -0.047 N 
HETATM   20  C1  UNL     1       7.386 110.914  77.749  1.00  0.00     0.270 C 
ATOM     21  H12 UNL     1       7.580 109.122  76.713  1.00  0.00     0.280 HD
ATOM     22  H11 UNL     1       8.913 109.555  77.367  1.00  0.00     0.280 HD
ENDBRANCH   1  19
BRANCH   6  23
HETATM   23  O4  UNL     1       8.964 105.739  79.067  1.00  0.00    -0.387 OA
ATOM     24  H4  UNL     1       9.654 106.392  79.047  1.00  0.00     0.210 HD
ENDBRANCH   6  23
BRANCH   5  25
HETATM   25  N5  UNL     1       7.902 105.384  81.384  1.00  0.00    -0.064 N 
ATOM     26  H52 UNL     1       8.802 105.153  80.963  1.00  0.00     0.277 HD
ATOM     27  H51 UNL     1       8.230 105.724  82.288  1.00  0.00     0.277 HD
BRANCH  25  28
HETATM   28  C9  UNL     1       7.072 104.202  81.534  1.00  0.00     0.260 C 
BRANCH  28  29
HETATM   29  C10 UNL     1       6.427 104.284  82.901  1.00  0.00     0.257 C 
BRANCH  29  30
HETATM   30  N6  UNL     1       7.475 104.460  83.876  1.00  0.00    -0.078 N 
ATOM     31  H63 UNL     1       7.121 104.738  84.791  1.00  0.00     0.274 HD
ATOM     32  H62 UNL     1       7.904 103.578  84.158  1.00  0.00     0.274 HD
ATOM     33  H61 UNL     1       8.150 105.123  83.494  1.00  0.00     0.274 HD
ENDBRANCH  29  30
ENDBRANCH  28  29
ENDBRANCH  25  28
ENDBRANCH   5  25
BRANCH   3  34
HETATM   34  C4  UNL     1       9.509 109.153  81.762  1.00  0.00     0.157 C 
BRANCH  34  35
HETATM   35  N2  UNL     1       9.549 110.550  81.421  1.00  0.00    -0.352 N 
HETATM   36  C5  UNL     1      10.714 111.016  80.745  1.00  0.00     0.282 C 
HETATM   37  O2  UNL     1      11.678 110.217  80.494  1.00  0.00    -0.265 OA
ATOM     38  H2  UNL     1       8.780 111.178  81.652  1.00  0.00     0.162 HD
BRANCH  36  39
HETATM   39  C6  UNL     1      10.890 112.366  80.307  1.00  0.00     0.178 C 
HETATM   40  N3  UNL     1      12.098 112.896  80.355  1.00  0.00    -0.383 N 
ATOM     41  H32 UNL     1      12.855 112.322  80.723  1.00  0.00     0.157 HD
ATOM     42  H31 UNL     1      12.224 113.859  80.043  1.00  0.00     0.157 HD
HETATM   43  N4  UNL     1       9.858 113.149  79.806  1.00  0.00    -0.077 NA
ENDBRANCH  36  39
ENDBRANCH  34  35
ENDBRANCH   3  34
BRANCH   4  44
HETATM   44  O3  UNL     1       7.688 107.483  82.655  1.00  0.00    -0.391 OA
ATOM     45  H3  UNL     1       7.702 106.537  82.746  1.00  0.00     0.210 HD
ENDBRANCH   4  44
TORSDOF 17
ENDMDL
