MODEL 1
REMARK VINA RESULT: -6.012849747      0.000      0.000
REMARK  5 active torsions:
REMARK  status: ('A' for Active; 'I' for Inactive)
REMARK    1  A    between atoms: C2_3  and  C3_4 
REMARK    2  A    between atoms: C3_4  and  C4_5 
REMARK    3  A    between atoms: C4_5  and  C5_6 
REMARK    4  A    between atoms: C6_7  and  N2_8 
REMARK    5  A    between atoms: N2_8  and  C7_10 
ROOT
HETATM    1  N1  UNL     1      -2.271  -1.721   3.806  1.00  0.00    -0.197 NA
HETATM    2  C1  UNL     1      -2.210  -0.777   3.161  1.00  0.00     0.059 C 
HETATM    3  C2  UNL     1      -2.118   0.427   2.331  1.00  0.00     0.124 C 
ENDROOT
BRANCH   3   4
HETATM    4  C3  UNL     1      -0.743   0.993   2.456  1.00  0.00     0.018 C 
BRANCH   4   5
HETATM    5  C4  UNL     1      -0.717   1.991   3.606  1.00  0.00     0.029 C 
BRANCH   5   6
HETATM    6  C5  UNL     1       0.135   1.433   4.660  1.00  0.00    -0.010 C 
HETATM    7  C6  UNL     1       1.041   0.494   4.434  1.00  0.00     0.085 C 
BRANCH   7   8
HETATM    8  N2  UNL     1       1.850  -0.026   5.472  1.00  0.00    -0.363 N 
ATOM      9  H2  UNL     1       2.863   0.082   5.423  1.00  0.00     0.165 HD
BRANCH   8  10
HETATM   10  C7  UNL     1       1.275  -0.693   6.575  1.00  0.00     0.173 C 
HETATM   11  N3  UNL     1       1.975  -0.884   7.633  1.00  0.00    -0.395 N 
ATOM     12  H32 UNL     1       2.938  -0.550   7.661  1.00  0.00     0.156 HD
ATOM     13  H31 UNL     1       1.559  -1.366   8.430  1.00  0.00     0.156 HD
ENDBRANCH   8  10
ENDBRANCH   7   8
ENDBRANCH   5   6
ENDBRANCH   4   5
ENDBRANCH   3   4
TORSDOF 5
ENDMDL
MODEL 2
REMARK VINA RESULT: -5.789704207      1.011      1.258
REMARK  5 active torsions:
REMARK  status: ('A' for Active; 'I' for Inactive)
REMARK    1  A    between atoms: C2_3  and  C3_4 
REMARK    2  A    between atoms: C3_4  and  C4_5 
REMARK    3  A    between atoms: C4_5  and  C5_6 
REMARK    4  A    between atoms: C6_7  and  N2_8 
REMARK    5  A    between atoms: N2_8  and  C7_10 
ROOT
HETATM    1  N1  UNL     1      -3.420  -0.634   4.453  1.00  0.00    -0.197 NA
HETATM    2  C1  UNL     1      -3.118   0.346   3.944  1.00  0.00     0.059 C 
HETATM    3  C2  UNL     1      -2.719   1.596   3.290  1.00  0.00     0.124 C 
ENDROOT
BRANCH   3   4
HETATM    4  C3  UNL     1      -1.270   1.835   3.554  1.00  0.00     0.018 C 
BRANCH   4   5
HETATM    5  C4  UNL     1      -0.442   0.941   2.640  1.00  0.00     0.029 C 
BRANCH   5   6
HETATM    6  C5  UNL     1       0.545   0.247   3.472  1.00  0.00    -0.010 C 
HETATM    7  C6  UNL     1       0.770   0.561   4.738  1.00  0.00     0.085 C 
BRANCH   7   8
HETATM    8  N2  UNL     1       1.730  -0.128   5.518  1.00  0.00    -0.363 N 
ATOM      9  H2  UNL     1       2.721  -0.029   5.298  1.00  0.00     0.165 HD
BRANCH   8  10
HETATM   10  C7  UNL     1       1.335  -0.949   6.595  1.00  0.00     0.173 C 
HETATM   11  N3  UNL     1       1.994  -0.908   7.695  1.00  0.00    -0.395 N 
ATOM     12  H32 UNL     1       2.794  -0.280   7.774  1.00  0.00     0.156 HD
ATOM     13  H31 UNL     1       1.708  -1.502   8.474  1.00  0.00     0.156 HD
ENDBRANCH   8  10
ENDBRANCH   7   8
ENDBRANCH   5   6
ENDBRANCH   4   5
ENDBRANCH   3   4
TORSDOF 5
ENDMDL
MODEL 3
REMARK VINA RESULT: -5.606694952      1.543      1.679
REMARK  5 active torsions:
REMARK  status: ('A' for Active; 'I' for Inactive)
REMARK    1  A    between atoms: C2_3  and  C3_4 
REMARK    2  A    between atoms: C3_4  and  C4_5 
REMARK    3  A    between atoms: C4_5  and  C5_6 
REMARK    4  A    between atoms: C6_7  and  N2_8 
REMARK    5  A    between atoms: N2_8  and  C7_10 
ROOT
HETATM    1  N1  UNL     1      -2.253  -1.748   3.719  1.00  0.00    -0.197 NA
HETATM    2  C1  UNL     1      -2.109  -0.770   3.141  1.00  0.00     0.059 C 
HETATM    3  C2  UNL     1      -1.911   0.479   2.400  1.00  0.00     0.124 C 
ENDROOT
BRANCH   3   4
HETATM    4  C3  UNL     1      -0.531   0.982   2.665  1.00  0.00     0.018 C 
BRANCH   4   5
HETATM    5  C4  UNL     1      -0.566   1.929   3.857  1.00  0.00     0.029 C 
BRANCH   5   6
HETATM    6  C5  UNL     1      -0.042   1.203   5.017  1.00  0.00    -0.010 C 
HETATM    7  C6  UNL     1      -0.812   0.758   5.998  1.00  0.00     0.085 C 
BRANCH   7   8
HETATM    8  N2  UNL     1      -0.277   0.059   7.106  1.00  0.00    -0.363 N 
ATOM      9  H2  UNL     1       0.371   0.534   7.735  1.00  0.00     0.165 HD
BRANCH   8  10
HETATM   10  C7  UNL     1      -0.628  -1.285   7.353  1.00  0.00     0.173 C 
HETATM   11  N3  UNL     1      -0.652  -2.121   6.380  1.00  0.00    -0.395 N 
ATOM     12  H32 UNL     1      -0.417  -1.799   5.440  1.00  0.00     0.156 HD
ATOM     13  H31 UNL     1      -0.905  -3.093   6.559  1.00  0.00     0.156 HD
ENDBRANCH   8  10
ENDBRANCH   7   8
ENDBRANCH   5   6
ENDBRANCH   4   5
ENDBRANCH   3   4
TORSDOF 5
ENDMDL
MODEL 4
REMARK VINA RESULT: -5.545816873      1.104      1.170
REMARK  5 active torsions:
REMARK  status: ('A' for Active; 'I' for Inactive)
REMARK    1  A    between atoms: C2_3  and  C3_4 
REMARK    2  A    between atoms: C3_4  and  C4_5 
REMARK    3  A    between atoms: C4_5  and  C5_6 
REMARK    4  A    between atoms: C6_7  and  N2_8 
REMARK    5  A    between atoms: N2_8  and  C7_10 
ROOT
HETATM    1  N1  UNL     1      -2.279  -1.689   3.724  1.00  0.00    -0.197 NA
HETATM    2  C1  UNL     1      -2.101  -0.690   3.193  1.00  0.00     0.059 C 
HETATM    3  C2  UNL     1      -1.864   0.592   2.524  1.00  0.00     0.124 C 
ENDROOT
BRANCH   3   4
HETATM    4  C3  UNL     1      -1.707   1.654   3.561  1.00  0.00     0.018 C 
BRANCH   4   5
HETATM    5  C4  UNL     1      -0.248   1.718   3.992  1.00  0.00     0.029 C 
BRANCH   5   6
HETATM    6  C5  UNL     1      -0.175   1.271   5.386  1.00  0.00    -0.010 C 
HETATM    7  C6  UNL     1       0.337   0.104   5.744  1.00  0.00     0.085 C 
BRANCH   7   8
HETATM    8  N2  UNL     1       0.393  -0.302   7.098  1.00  0.00    -0.363 N 
ATOM      9  H2  UNL     1      -0.361  -0.041   7.734  1.00  0.00     0.165 HD
BRANCH   8  10
HETATM   10  C7  UNL     1       1.479  -1.061   7.583  1.00  0.00     0.173 C 
HETATM   11  N3  UNL     1       2.247  -1.667   6.752  1.00  0.00    -0.395 N 
ATOM     12  H32 UNL     1       2.060  -1.590   5.752  1.00  0.00     0.156 HD
ATOM     13  H31 UNL     1       3.033  -2.215   7.103  1.00  0.00     0.156 HD
ENDBRANCH   8  10
ENDBRANCH   7   8
ENDBRANCH   5   6
ENDBRANCH   4   5
ENDBRANCH   3   4
TORSDOF 5
ENDMDL
MODEL 5
REMARK VINA RESULT: -5.479259632      1.112      1.600
REMARK  5 active torsions:
REMARK  status: ('A' for Active; 'I' for Inactive)
REMARK    1  A    between atoms: C2_3  and  C3_4 
REMARK    2  A    between atoms: C3_4  and  C4_5 
REMARK    3  A    between atoms: C4_5  and  C5_6 
REMARK    4  A    between atoms: C6_7  and  N2_8 
REMARK    5  A    between atoms: N2_8  and  C7_10 
ROOT
HETATM    1  N1  UNL     1      -2.466  -1.464   3.764  1.00  0.00    -0.197 NA
HETATM    2  C1  UNL     1      -1.992  -0.566   3.235  1.00  0.00     0.059 C 
HETATM    3  C2  UNL     1      -1.373   0.580   2.564  1.00  0.00     0.124 C 
ENDROOT
BRANCH   3   4
HETATM    4  C3  UNL     1      -0.308   1.138   3.448  1.00  0.00     0.018 C 
BRANCH   4   5
HETATM    5  C4  UNL     1       0.851   0.152   3.516  1.00  0.00     0.029 C 
BRANCH   5   6
HETATM    6  C5  UNL     1       1.369   0.169   4.887  1.00  0.00    -0.010 C 
HETATM    7  C6  UNL     1       1.361  -0.894   5.675  1.00  0.00     0.085 C 
BRANCH   7   8
HETATM    8  N2  UNL     1       1.870  -0.848   6.995  1.00  0.00    -0.363 N 
ATOM      9  H2  UNL     1       2.535  -0.119   7.253  1.00  0.00     0.165 HD
BRANCH   8  10
HETATM   10  C7  UNL     1       1.470  -1.797   7.960  1.00  0.00     0.173 C 
HETATM   11  N3  UNL     1       1.632  -3.047   7.721  1.00  0.00    -0.395 N 
ATOM     12  H32 UNL     1       2.048  -3.336   6.835  1.00  0.00     0.156 HD
ATOM     13  H31 UNL     1       1.343  -3.733   8.418  1.00  0.00     0.156 HD
ENDBRANCH   8  10
ENDBRANCH   7   8
ENDBRANCH   5   6
ENDBRANCH   4   5
ENDBRANCH   3   4
TORSDOF 5
ENDMDL
