MODEL 1
REMARK VINA RESULT: -6.837909142      0.000      0.000
REMARK  11 active torsions:
REMARK  status: ('A' for Active; 'I' for Inactive)
REMARK    1  A    between atoms: N1_1  and  C1_5 
REMARK    2  A    between atoms: C1_5  and  C2_6 
REMARK    3  A    between atoms: C2_6  and  C3_7 
REMARK    4  A    between atoms: C3_7  and  C4_8 
REMARK    5  A    between atoms: C4_8  and  C5_9 
REMARK    6  A    between atoms: C5_9  and  N2_10 
REMARK    7  A    between atoms: N2_10  and  C6_12 
REMARK    8  A    between atoms: C7_17  and  C8_18 
REMARK    9  A    between atoms: N6_20  and  O1_22 
REMARK   10  A    between atoms: N7_24  and  N8_25 
REMARK   11  A    between atoms: N8_25  and  N9_27 
ROOT
HETATM    1  C6  UNL     1      16.937  13.087  28.583  1.00  0.00     0.717 A 
HETATM    2  N3  UNL     1      16.426  12.750  29.768  1.00  0.00    -0.129 N 
ATOM      3  H3  UNL     1      16.736  13.100  30.674  1.00  0.00     0.205 HD
HETATM    4  N4  UNL     1      15.451  11.886  29.564  1.00  0.00    -0.266 N 
ATOM      5  H4  UNL     1      14.883  11.459  30.296  1.00  0.00     0.189 HD
HETATM    6  C7  UNL     1      15.316  11.652  28.232  1.00  0.00     0.205 A 
HETATM    7  N7  UNL     1      16.257  12.415  27.644  1.00  0.00    -0.050 N 
ENDROOT
BRANCH   1   8
HETATM    8  N2  UNL     1      17.889  13.893  28.375  1.00  0.00    -0.223 N 
ATOM      9  H2  UNL     1      17.654  14.819  28.017  1.00  0.00     0.177 HD
BRANCH   8  10
HETATM   10  C5  UNL     1      19.287  13.599  28.607  1.00  0.00     0.138 C 
BRANCH  10  11
HETATM   11  C4  UNL     1      19.657  12.230  28.088  1.00  0.00     0.020 C 
BRANCH  11  12
HETATM   12  C3  UNL     1      20.203  11.339  29.155  1.00  0.00     0.003 C 
BRANCH  12  13
HETATM   13  C2  UNL     1      19.659   9.956  29.024  1.00  0.00     0.027 C 
BRANCH  13  14
HETATM   14  C1  UNL     1      20.538   8.970  29.779  1.00  0.00     0.229 C 
BRANCH  14  15
HETATM   15  N1  UNL     1      21.672   9.673  30.329  1.00  0.00    -0.079 N 
ATOM     16  H13 UNL     1      21.701  10.650  30.035  1.00  0.00     0.274 HD
ATOM     17  H12 UNL     1      21.582   9.828  31.333  1.00  0.00     0.274 HD
ATOM     18  H11 UNL     1      22.526   9.170  30.088  1.00  0.00     0.274 HD
ENDBRANCH  14  15
ENDBRANCH  13  14
ENDBRANCH  12  13
ENDBRANCH  11  12
ENDBRANCH  10  11
ENDBRANCH   8  10
ENDBRANCH   1   8
BRANCH   7  19
HETATM   19  N8  UNL     1      16.431  12.444  26.258  1.00  0.00    -0.226 N 
ATOM     20  H8  UNL     1      17.054  11.764  25.820  1.00  0.00     0.209 HD
BRANCH  19  21
HETATM   21  N9  UNL     1      15.776  13.376  25.459  1.00  0.00    -0.330 N 
ATOM     22  H92 UNL     1      15.987  13.388  24.461  1.00  0.00     0.178 HD
ATOM     23  H91 UNL     1      15.102  14.034  25.849  1.00  0.00     0.178 HD
ENDBRANCH  19  21
ENDBRANCH   7  19
BRANCH   6  24
HETATM   24  C8  UNL     1      14.367  10.771  27.578  1.00  0.00     0.184 C 
HETATM   25  N5  UNL     1      13.815  11.094  26.311  1.00  0.00    -0.077 NA
HETATM   26  N6  UNL     1      14.027   9.680  28.166  1.00  0.00    -0.252 N 
ATOM     27  H6  UNL     1      14.424   9.446  29.076  1.00  0.00     0.195 HD
BRANCH  26  28
HETATM   28  O1  UNL     1      13.119   8.816  27.562  1.00  0.00    -0.288 OA
ATOM     29  H1  UNL     1      12.684   8.147  28.077  1.00  0.00     0.244 HD
ENDBRANCH  26  28
ENDBRANCH   6  24
TORSDOF 11
ENDMDL
MODEL 2
REMARK VINA RESULT: -6.834323059      2.028      3.479
REMARK  11 active torsions:
REMARK  status: ('A' for Active; 'I' for Inactive)
REMARK    1  A    between atoms: N1_1  and  C1_5 
REMARK    2  A    between atoms: C1_5  and  C2_6 
REMARK    3  A    between atoms: C2_6  and  C3_7 
REMARK    4  A    between atoms: C3_7  and  C4_8 
REMARK    5  A    between atoms: C4_8  and  C5_9 
REMARK    6  A    between atoms: C5_9  and  N2_10 
REMARK    7  A    between atoms: N2_10  and  C6_12 
REMARK    8  A    between atoms: C7_17  and  C8_18 
REMARK    9  A    between atoms: N6_20  and  O1_22 
REMARK   10  A    between atoms: N7_24  and  N8_25 
REMARK   11  A    between atoms: N8_25  and  N9_27 
ROOT
HETATM    1  C6  UNL     1      16.177  10.710  30.159  1.00  0.00     0.717 A 
HETATM    2  N3  UNL     1      16.563  11.985  30.203  1.00  0.00    -0.129 N 
ATOM      3  H3  UNL     1      17.059  12.434  30.973  1.00  0.00     0.205 HD
HETATM    4  N4  UNL     1      16.191  12.566  29.079  1.00  0.00    -0.266 N 
ATOM      5  H4  UNL     1      16.356  13.544  28.841  1.00  0.00     0.189 HD
HETATM    6  C7  UNL     1      15.555  11.665  28.286  1.00  0.00     0.205 A 
HETATM    7  N7  UNL     1      15.560  10.514  28.986  1.00  0.00    -0.050 N 
ENDROOT
BRANCH   1   8
HETATM    8  N2  UNL     1      16.356   9.838  31.058  1.00  0.00    -0.223 N 
ATOM      9  H2  UNL     1      15.941  10.011  31.973  1.00  0.00     0.177 HD
BRANCH   8  10
HETATM   10  C5  UNL     1      17.107   8.613  30.884  1.00  0.00     0.138 C 
BRANCH  10  11
HETATM   11  C4  UNL     1      18.399   8.641  31.666  1.00  0.00     0.020 C 
BRANCH  11  12
HETATM   12  C3  UNL     1      19.574   8.213  30.850  1.00  0.00     0.003 C 
BRANCH  12  13
HETATM   13  C2  UNL     1      19.612   8.938  29.546  1.00  0.00     0.027 C 
BRANCH  13  14
HETATM   14  C1  UNL     1      20.637  10.061  29.597  1.00  0.00     0.229 C 
BRANCH  14  15
HETATM   15  N1  UNL     1      21.790   9.614  30.340  1.00  0.00    -0.079 N 
ATOM     16  H13 UNL     1      22.667   9.883  29.894  1.00  0.00     0.274 HD
ATOM     17  H12 UNL     1      21.910  10.126  31.215  1.00  0.00     0.274 HD
ATOM     18  H11 UNL     1      21.722   8.607  30.486  1.00  0.00     0.274 HD
ENDBRANCH  14  15
ENDBRANCH  13  14
ENDBRANCH  12  13
ENDBRANCH  11  12
ENDBRANCH  10  11
ENDBRANCH   8  10
ENDBRANCH   1   8
BRANCH   7  19
HETATM   19  N8  UNL     1      14.989   9.340  28.490  1.00  0.00    -0.226 N 
ATOM     20  H8  UNL     1      15.536   8.744  27.869  1.00  0.00     0.209 HD
BRANCH  19  21
HETATM   21  N9  UNL     1      13.692   8.963  28.822  1.00  0.00    -0.330 N 
ATOM     22  H92 UNL     1      13.100   9.642  29.301  1.00  0.00     0.178 HD
ATOM     23  H91 UNL     1      13.330   8.036  28.598  1.00  0.00     0.178 HD
ENDBRANCH  19  21
ENDBRANCH   7  19
BRANCH   6  24
HETATM   24  C8  UNL     1      14.988  11.887  26.969  1.00  0.00     0.184 C 
HETATM   25  N5  UNL     1      13.873  11.138  26.511  1.00  0.00    -0.077 NA
HETATM   26  N6  UNL     1      15.514  12.782  26.211  1.00  0.00    -0.252 N 
ATOM     27  H6  UNL     1      16.315  13.321  26.539  1.00  0.00     0.195 HD
BRANCH  26  28
HETATM   28  O1  UNL     1      14.991  13.016  24.943  1.00  0.00    -0.288 OA
ATOM     29  H1  UNL     1      14.105  13.343  24.847  1.00  0.00     0.244 HD
ENDBRANCH  26  28
ENDBRANCH   6  24
TORSDOF 11
ENDMDL
MODEL 3
REMARK VINA RESULT: -6.787223207      2.406      3.611
REMARK  11 active torsions:
REMARK  status: ('A' for Active; 'I' for Inactive)
REMARK    1  A    between atoms: N1_1  and  C1_5 
REMARK    2  A    between atoms: C1_5  and  C2_6 
REMARK    3  A    between atoms: C2_6  and  C3_7 
REMARK    4  A    between atoms: C3_7  and  C4_8 
REMARK    5  A    between atoms: C4_8  and  C5_9 
REMARK    6  A    between atoms: C5_9  and  N2_10 
REMARK    7  A    between atoms: N2_10  and  C6_12 
REMARK    8  A    between atoms: C7_17  and  C8_18 
REMARK    9  A    between atoms: N6_20  and  O1_22 
REMARK   10  A    between atoms: N7_24  and  N8_25 
REMARK   11  A    between atoms: N8_25  and  N9_27 
ROOT
HETATM    1  C6  UNL     1      16.141  10.733  30.235  1.00  0.00     0.717 A 
HETATM    2  N3  UNL     1      16.518  12.012  30.275  1.00  0.00    -0.129 N 
ATOM      3  H3  UNL     1      17.000  12.469  31.049  1.00  0.00     0.205 HD
HETATM    4  N4  UNL     1      16.160  12.581  29.141  1.00  0.00    -0.266 N 
ATOM      5  H4  UNL     1      16.323  13.558  28.898  1.00  0.00     0.189 HD
HETATM    6  C7  UNL     1      15.541  11.670  28.345  1.00  0.00     0.205 A 
HETATM    7  N7  UNL     1      15.543  10.525  29.054  1.00  0.00    -0.050 N 
ENDROOT
BRANCH   1   8
HETATM    8  N2  UNL     1      16.312   9.869  31.143  1.00  0.00    -0.223 N 
ATOM      9  H2  UNL     1      15.914  10.065  32.062  1.00  0.00     0.177 HD
BRANCH   8  10
HETATM   10  C5  UNL     1      17.030   8.624  30.976  1.00  0.00     0.138 C 
BRANCH  10  11
HETATM   11  C4  UNL     1      18.471   8.755  31.410  1.00  0.00     0.020 C 
BRANCH  11  12
HETATM   12  C3  UNL     1      19.396   9.001  30.264  1.00  0.00     0.003 C 
BRANCH  12  13
HETATM   13  C2  UNL     1      20.556   8.062  30.304  1.00  0.00     0.027 C 
BRANCH  13  14
HETATM   14  C1  UNL     1      20.355   7.021  31.396  1.00  0.00     0.229 C 
BRANCH  14  15
HETATM   15  N1  UNL     1      21.423   6.054  31.327  1.00  0.00    -0.079 N 
ATOM     16  H13 UNL     1      22.264   6.436  30.894  1.00  0.00     0.274 HD
ATOM     17  H12 UNL     1      21.816   5.844  32.245  1.00  0.00     0.274 HD
ATOM     18  H11 UNL     1      21.086   5.218  30.849  1.00  0.00     0.274 HD
ENDBRANCH  14  15
ENDBRANCH  13  14
ENDBRANCH  12  13
ENDBRANCH  11  12
ENDBRANCH  10  11
ENDBRANCH   8  10
ENDBRANCH   1   8
BRANCH   7  19
HETATM   19  N8  UNL     1      14.986   9.343  28.559  1.00  0.00    -0.226 N 
ATOM     20  H8  UNL     1      15.553   8.737  27.965  1.00  0.00     0.209 HD
BRANCH  19  21
HETATM   21  N9  UNL     1      13.679   8.972  28.856  1.00  0.00    -0.330 N 
ATOM     22  H92 UNL     1      12.970   9.703  28.904  1.00  0.00     0.178 HD
ATOM     23  H91 UNL     1      13.425   7.999  29.025  1.00  0.00     0.178 HD
ENDBRANCH  19  21
ENDBRANCH   7  19
BRANCH   6  24
HETATM   24  C8  UNL     1      14.994  11.878  27.018  1.00  0.00     0.184 C 
HETATM   25  N5  UNL     1      13.878  11.132  26.556  1.00  0.00    -0.077 NA
HETATM   26  N6  UNL     1      15.536  12.759  26.255  1.00  0.00    -0.252 N 
ATOM     27  H6  UNL     1      16.336  13.296  26.586  1.00  0.00     0.195 HD
BRANCH  26  28
HETATM   28  O1  UNL     1      15.032  12.980  24.978  1.00  0.00    -0.288 OA
ATOM     29  H1  UNL     1      15.553  12.757  24.215  1.00  0.00     0.244 HD
ENDBRANCH  26  28
ENDBRANCH   6  24
TORSDOF 11
ENDMDL
MODEL 4
REMARK VINA RESULT: -6.785962355      2.257      3.615
REMARK  11 active torsions:
REMARK  status: ('A' for Active; 'I' for Inactive)
REMARK    1  A    between atoms: N1_1  and  C1_5 
REMARK    2  A    between atoms: C1_5  and  C2_6 
REMARK    3  A    between atoms: C2_6  and  C3_7 
REMARK    4  A    between atoms: C3_7  and  C4_8 
REMARK    5  A    between atoms: C4_8  and  C5_9 
REMARK    6  A    between atoms: C5_9  and  N2_10 
REMARK    7  A    between atoms: N2_10  and  C6_12 
REMARK    8  A    between atoms: C7_17  and  C8_18 
REMARK    9  A    between atoms: N6_20  and  O1_22 
REMARK   10  A    between atoms: N7_24  and  N8_25 
REMARK   11  A    between atoms: N8_25  and  N9_27 
ROOT
HETATM    1  C6  UNL     1      14.958   9.819  29.708  1.00  0.00     0.717 A 
HETATM    2  N3  UNL     1      14.024   9.119  29.062  1.00  0.00    -0.129 N 
ATOM      3  H3  UNL     1      13.559   8.281  29.409  1.00  0.00     0.205 HD
HETATM    4  N4  UNL     1      13.807   9.700  27.898  1.00  0.00    -0.266 N 
ATOM      5  H4  UNL     1      13.141   9.378  27.197  1.00  0.00     0.189 HD
HETATM    6  C7  UNL     1      14.605  10.793  27.775  1.00  0.00     0.205 A 
HETATM    7  N7  UNL     1      15.313  10.843  28.920  1.00  0.00    -0.050 N 
ENDROOT
BRANCH   1   8
HETATM    8  N2  UNL     1      15.429   9.567  30.855  1.00  0.00    -0.223 N 
ATOM      9  H2  UNL     1      15.093  10.131  31.636  1.00  0.00     0.177 HD
BRANCH   8  10
HETATM   10  C5  UNL     1      16.408   8.540  31.140  1.00  0.00     0.138 C 
BRANCH  10  11
HETATM   11  C4  UNL     1      17.800   8.984  30.759  1.00  0.00     0.020 C 
BRANCH  11  12
HETATM   12  C3  UNL     1      18.858   8.320  31.577  1.00  0.00     0.003 C 
BRANCH  12  13
HETATM   13  C2  UNL     1      20.012   7.908  30.725  1.00  0.00     0.027 C 
BRANCH  13  14
HETATM   14  C1  UNL     1      20.429   9.051  29.812  1.00  0.00     0.229 C 
BRANCH  14  15
HETATM   15  N1  UNL     1      21.621   9.668  30.342  1.00  0.00    -0.079 N 
ATOM     16  H13 UNL     1      21.901  10.491  29.809  1.00  0.00     0.274 HD
ATOM     17  H12 UNL     1      21.455  10.126  31.238  1.00  0.00     0.274 HD
ATOM     18  H11 UNL     1      22.362   8.969  30.395  1.00  0.00     0.274 HD
ENDBRANCH  14  15
ENDBRANCH  13  14
ENDBRANCH  12  13
ENDBRANCH  11  12
ENDBRANCH  10  11
ENDBRANCH   8  10
ENDBRANCH   1   8
BRANCH   7  19
HETATM   19  N8  UNL     1      16.254  11.845  29.169  1.00  0.00    -0.226 N 
ATOM     20  H8  UNL     1      15.959  12.698  29.644  1.00  0.00     0.209 HD
BRANCH  19  21
HETATM   21  N9  UNL     1      17.584  11.709  28.784  1.00  0.00    -0.330 N 
ATOM     22  H92 UNL     1      17.878  10.823  28.372  1.00  0.00     0.178 HD
ATOM     23  H91 UNL     1      18.256  12.466  28.905  1.00  0.00     0.178 HD
ENDBRANCH  19  21
ENDBRANCH   7  19
BRANCH   6  24
HETATM   24  C8  UNL     1      14.682  11.713  26.656  1.00  0.00     0.184 C 
HETATM   25  N5  UNL     1      15.824  12.530  26.453  1.00  0.00    -0.077 NA
HETATM   26  N6  UNL     1      13.694  11.779  25.838  1.00  0.00    -0.252 N 
ATOM     27  H6  UNL     1      12.873  11.191  25.982  1.00  0.00     0.195 HD
BRANCH  26  28
HETATM   28  O1  UNL     1      13.741  12.651  24.756  1.00  0.00    -0.288 OA
ATOM     29  H1  UNL     1      13.555  12.333  23.880  1.00  0.00     0.244 HD
ENDBRANCH  26  28
ENDBRANCH   6  24
TORSDOF 11
ENDMDL
MODEL 5
REMARK VINA RESULT: -6.719704525      3.462      5.851
REMARK  11 active torsions:
REMARK  status: ('A' for Active; 'I' for Inactive)
REMARK    1  A    between atoms: N1_1  and  C1_5 
REMARK    2  A    between atoms: C1_5  and  C2_6 
REMARK    3  A    between atoms: C2_6  and  C3_7 
REMARK    4  A    between atoms: C3_7  and  C4_8 
REMARK    5  A    between atoms: C4_8  and  C5_9 
REMARK    6  A    between atoms: C5_9  and  N2_10 
REMARK    7  A    between atoms: N2_10  and  C6_12 
REMARK    8  A    between atoms: C7_17  and  C8_18 
REMARK    9  A    between atoms: N6_20  and  O1_22 
REMARK   10  A    between atoms: N7_24  and  N8_25 
REMARK   11  A    between atoms: N8_25  and  N9_27 
ROOT
HETATM    1  C6  UNL     1      16.573   9.028  29.824  1.00  0.00     0.717 A 
HETATM    2  N3  UNL     1      16.662   9.253  31.135  1.00  0.00    -0.129 N 
ATOM      3  H3  UNL     1      15.940   9.671  31.721  1.00  0.00     0.205 HD
HETATM    4  N4  UNL     1      17.847   8.841  31.543  1.00  0.00    -0.266 N 
ATOM      5  H4  UNL     1      18.188   8.892  32.503  1.00  0.00     0.189 HD
HETATM    6  C7  UNL     1      18.546   8.340  30.491  1.00  0.00     0.205 A 
HETATM    7  N7  UNL     1      17.726   8.469  29.430  1.00  0.00    -0.050 N 
ENDROOT
BRANCH   1   8
HETATM    8  N2  UNL     1      15.584   9.292  29.081  1.00  0.00    -0.223 N 
ATOM      9  H2  UNL     1      14.784   8.660  29.118  1.00  0.00     0.177 HD
BRANCH   8  10
HETATM   10  C5  UNL     1      15.504  10.422  28.181  1.00  0.00     0.138 C 
BRANCH  10  11
HETATM   11  C4  UNL     1      15.369  11.722  28.938  1.00  0.00     0.020 C 
BRANCH  11  12
HETATM   12  C3  UNL     1      16.584  12.583  28.823  1.00  0.00     0.003 C 
BRANCH  12  13
HETATM   13  C2  UNL     1      17.425  12.165  27.663  1.00  0.00     0.027 C 
BRANCH  13  14
HETATM   14  C1  UNL     1      17.538  13.302  26.657  1.00  0.00     0.229 C 
BRANCH  14  15
HETATM   15  N1  UNL     1      16.465  13.192  25.699  1.00  0.00    -0.079 N 
ATOM     16  H13 UNL     1      16.806  13.021  24.754  1.00  0.00     0.274 HD
ATOM     17  H12 UNL     1      15.926  12.334  25.816  1.00  0.00     0.274 HD
ATOM     18  H11 UNL     1      15.881  14.027  25.756  1.00  0.00     0.274 HD
ENDBRANCH  14  15
ENDBRANCH  13  14
ENDBRANCH  12  13
ENDBRANCH  11  12
ENDBRANCH  10  11
ENDBRANCH   8  10
ENDBRANCH   1   8
BRANCH   7  19
HETATM   19  N8  UNL     1      18.097   8.057  28.148  1.00  0.00    -0.226 N 
ATOM     20  H8  UNL     1      17.769   7.155  27.801  1.00  0.00     0.209 HD
BRANCH  19  21
HETATM   21  N9  UNL     1      18.903   8.844  27.334  1.00  0.00    -0.330 N 
ATOM     22  H92 UNL     1      18.868   9.857  27.455  1.00  0.00     0.178 HD
ATOM     23  H91 UNL     1      19.517   8.434  26.630  1.00  0.00     0.178 HD
ENDBRANCH  19  21
ENDBRANCH   7  19
BRANCH   6  24
HETATM   24  C8  UNL     1      19.885   7.784  30.500  1.00  0.00     0.184 C 
HETATM   25  N5  UNL     1      20.902   8.299  29.655  1.00  0.00    -0.077 NA
HETATM   26  N6  UNL     1      20.146   6.807  31.294  1.00  0.00    -0.252 N 
ATOM     27  H6  UNL     1      19.416   6.437  31.903  1.00  0.00     0.195 HD
BRANCH  26  28
HETATM   28  O1  UNL     1      21.422   6.254  31.324  1.00  0.00    -0.288 OA
ATOM     29  H1  UNL     1      21.965   6.267  30.545  1.00  0.00     0.244 HD
ENDBRANCH  26  28
ENDBRANCH   6  24
TORSDOF 11
ENDMDL
