MODEL 1
REMARK VINA RESULT: -6.340128978      0.000      0.000
REMARK  10 active torsions:
REMARK  status: ('A' for Active; 'I' for Inactive)
REMARK    1  A    between atoms: C2_2  and  C3_3 
REMARK    2  A    between atoms: C3_3  and  C4_4 
REMARK    3  A    between atoms: C4_4  and  N1_5 
REMARK    4  A    between atoms: N1_5  and  C5_7 
REMARK    5  A    between atoms: C6_10  and  N3_11 
REMARK    6  A    between atoms: N3_11  and  N4_12 
REMARK    7  A    between atoms: N3_11  and  C9_20 
REMARK    8  A    between atoms: N4_12  and  C7_14 
REMARK    9  A    between atoms: C7_14  and  C8_15 
REMARK   10  A    between atoms: C8_15  and  N5_16 
ROOT
HETATM    1  N3  UNL     1      56.470  -7.374  13.501  1.00  0.00    -0.269 N 
ENDROOT
BRANCH   1   2
HETATM    2  C6  UNL     1      57.525  -7.804  12.658  1.00  0.00     0.197 A 
HETATM    3  N2  UNL     1      58.824  -7.662  12.875  1.00  0.00    -0.167 N 
HETATM    4  C5  UNL     1      59.668  -8.127  11.989  1.00  0.00     0.686 A 
ATOM      5  H2  UNL     1      59.161  -7.197  13.718  1.00  0.00     0.186 HD
HETATM    6  N6  UNL     1      59.177  -8.726  10.903  1.00  0.00    -0.157 N 
HETATM    7  S1  UNL     1      57.518  -8.621  11.152  1.00  0.00     0.040 SA
ATOM      8  H6  UNL     1      59.680  -9.143  10.120  1.00  0.00     0.193 HD
BRANCH   4   9
HETATM    9  N1  UNL     1      60.969  -7.965  12.192  1.00  0.00    -0.225 N 
ATOM     10  H1  UNL     1      61.284  -7.758  13.140  1.00  0.00     0.177 HD
BRANCH   9  11
HETATM   11  C4  UNL     1      61.948  -8.064  11.170  1.00  0.00     0.138 C 
BRANCH  11  12
HETATM   12  C3  UNL     1      62.964  -9.171  11.444  1.00  0.00     0.020 C 
BRANCH  12  13
HETATM   13  C2  UNL     1      62.470 -10.498  10.914  1.00  0.00    -0.003 C 
HETATM   14  C1  UNL     1      63.250 -11.598  11.602  1.00  0.00     0.005 C 
ENDBRANCH  12  13
ENDBRANCH  11  12
ENDBRANCH   9  11
ENDBRANCH   4   9
ENDBRANCH   1   2
BRANCH   1  15
HETATM   15  N4  UNL     1      55.764  -6.230  13.231  1.00  0.00    -0.330 N 
ATOM     16  H4  UNL     1      55.841  -5.404  13.826  1.00  0.00     0.180 HD
BRANCH  15  17
HETATM   17  C7  UNL     1      54.919  -6.244  12.085  1.00  0.00     0.166 C 
BRANCH  17  18
HETATM   18  C8  UNL     1      53.875  -5.142  12.200  1.00  0.00     0.250 C 
BRANCH  18  19
HETATM   19  N5  UNL     1      52.801  -5.506  11.256  1.00  0.00    -0.078 N 
ATOM     20  H53 UNL     1      52.809  -4.955  10.397  1.00  0.00     0.274 HD
ATOM     21  H52 UNL     1      52.934  -6.417  10.818  1.00  0.00     0.274 HD
ATOM     22  H51 UNL     1      51.930  -5.428  11.782  1.00  0.00     0.274 HD
ENDBRANCH  18  19
ENDBRANCH  17  18
ENDBRANCH  15  17
ENDBRANCH   1  15
BRANCH   1  23
HETATM   23  C9  UNL     1      56.131  -8.166  14.642  1.00  0.00     0.110 C 
HETATM   24  C10 UNL     1      56.155  -9.633  14.296  1.00  0.00     0.027 C 
HETATM   25  C11 UNL     1      55.337 -10.455  15.267  1.00  0.00     0.002 C 
HETATM   26  C12 UNL     1      55.259  -9.866  16.634  1.00  0.00     0.000 C 
HETATM   27  C13 UNL     1      54.896  -8.420  16.698  1.00  0.00     0.002 C 
HETATM   28  C14 UNL     1      54.807  -7.846  15.276  1.00  0.00     0.027 C 
ENDBRANCH   1  23
TORSDOF 10
ENDMDL
MODEL 2
REMARK VINA RESULT: -6.261630683      2.691      8.175
REMARK  10 active torsions:
REMARK  status: ('A' for Active; 'I' for Inactive)
REMARK    1  A    between atoms: C2_2  and  C3_3 
REMARK    2  A    between atoms: C3_3  and  C4_4 
REMARK    3  A    between atoms: C4_4  and  N1_5 
REMARK    4  A    between atoms: N1_5  and  C5_7 
REMARK    5  A    between atoms: C6_10  and  N3_11 
REMARK    6  A    between atoms: N3_11  and  N4_12 
REMARK    7  A    between atoms: N3_11  and  C9_20 
REMARK    8  A    between atoms: N4_12  and  C7_14 
REMARK    9  A    between atoms: C7_14  and  C8_15 
REMARK   10  A    between atoms: C8_15  and  N5_16 
ROOT
HETATM    1  N3  UNL     1      62.740  -9.072  10.927  1.00  0.00    -0.269 N 
ENDROOT
BRANCH   1   2
HETATM    2  C6  UNL     1      61.472  -8.718  11.452  1.00  0.00     0.197 A 
HETATM    3  N2  UNL     1      60.811  -9.335  12.421  1.00  0.00    -0.167 N 
HETATM    4  C5  UNL     1      59.647  -8.867  12.791  1.00  0.00     0.686 A 
ATOM      5  H2  UNL     1      61.204 -10.162  12.871  1.00  0.00     0.186 HD
HETATM    6  N6  UNL     1      59.176  -7.783  12.171  1.00  0.00    -0.157 N 
HETATM    7  S1  UNL     1      60.397  -7.441  11.067  1.00  0.00     0.040 SA
ATOM      8  H6  UNL     1      58.299  -7.287  12.328  1.00  0.00     0.193 HD
BRANCH   4   9
HETATM    9  N1  UNL     1      58.972  -9.496  13.744  1.00  0.00    -0.225 N 
ATOM     10  H1  UNL     1      59.441 -10.252  14.243  1.00  0.00     0.177 HD
BRANCH   9  11
HETATM   11  C4  UNL     1      57.639  -9.180  14.110  1.00  0.00     0.138 C 
BRANCH  11  12
HETATM   12  C3  UNL     1      57.245  -9.795  15.453  1.00  0.00     0.020 C 
BRANCH  12  13
HETATM   13  C2  UNL     1      55.740  -9.837  15.604  1.00  0.00    -0.003 C 
HETATM   14  C1  UNL     1      55.276  -8.468  16.052  1.00  0.00     0.005 C 
ENDBRANCH  12  13
ENDBRANCH  11  12
ENDBRANCH   9  11
ENDBRANCH   4   9
ENDBRANCH   1   2
BRANCH   1  15
HETATM   15  N4  UNL     1      63.427  -8.226  10.095  1.00  0.00    -0.330 N 
ATOM     16  H4  UNL     1      63.857  -7.369  10.444  1.00  0.00     0.180 HD
BRANCH  15  17
HETATM   17  C7  UNL     1      63.513  -8.595   8.722  1.00  0.00     0.166 C 
BRANCH  17  18
HETATM   18  C8  UNL     1      64.701  -7.897   8.075  1.00  0.00     0.250 C 
BRANCH  18  19
HETATM   19  N5  UNL     1      64.141  -7.090   6.973  1.00  0.00    -0.078 N 
ATOM     20  H53 UNL     1      63.134  -7.203   6.855  1.00  0.00     0.274 HD
ATOM     21  H52 UNL     1      64.129  -6.088   7.166  1.00  0.00     0.274 HD
ATOM     22  H51 UNL     1      64.679  -7.340   6.144  1.00  0.00     0.274 HD
ENDBRANCH  18  19
ENDBRANCH  17  18
ENDBRANCH  15  17
ENDBRANCH   1  15
BRANCH   1  23
HETATM   23  C9  UNL     1      63.312 -10.330  11.292  1.00  0.00     0.110 C 
HETATM   24  C10 UNL     1      64.809 -10.212  11.429  1.00  0.00     0.027 C 
HETATM   25  C11 UNL     1      65.494 -11.555  11.305  1.00  0.00     0.002 C 
HETATM   26  C12 UNL     1      64.649 -12.702  11.745  1.00  0.00     0.000 C 
HETATM   27  C13 UNL     1      63.265 -12.739  11.190  1.00  0.00     0.002 C 
HETATM   28  C14 UNL     1      63.005 -11.471  10.363  1.00  0.00     0.027 C 
ENDBRANCH   1  23
TORSDOF 10
ENDMDL
MODEL 3
REMARK VINA RESULT: -6.177133514      1.145      1.247
REMARK  10 active torsions:
REMARK  status: ('A' for Active; 'I' for Inactive)
REMARK    1  A    between atoms: C2_2  and  C3_3 
REMARK    2  A    between atoms: C3_3  and  C4_4 
REMARK    3  A    between atoms: C4_4  and  N1_5 
REMARK    4  A    between atoms: N1_5  and  C5_7 
REMARK    5  A    between atoms: C6_10  and  N3_11 
REMARK    6  A    between atoms: N3_11  and  N4_12 
REMARK    7  A    between atoms: N3_11  and  C9_20 
REMARK    8  A    between atoms: N4_12  and  C7_14 
REMARK    9  A    between atoms: C7_14  and  C8_15 
REMARK   10  A    between atoms: C8_15  and  N5_16 
ROOT
HETATM    1  N3  UNL     1      56.792  -7.799  13.444  1.00  0.00    -0.269 N 
ENDROOT
BRANCH   1   2
HETATM    2  C6  UNL     1      58.089  -8.233  13.072  1.00  0.00     0.197 A 
HETATM    3  N2  UNL     1      58.834  -7.758  12.084  1.00  0.00    -0.167 N 
HETATM    4  C5  UNL     1      60.020  -8.273  11.882  1.00  0.00     0.686 A 
ATOM      5  H2  UNL     1      58.488  -7.004  11.491  1.00  0.00     0.186 HD
HETATM    6  N6  UNL     1      60.426  -9.258  12.686  1.00  0.00    -0.157 N 
HETATM    7  S1  UNL     1      59.114  -9.442  13.721  1.00  0.00     0.040 SA
ATOM      8  H6  UNL     1      61.308  -9.769  12.675  1.00  0.00     0.193 HD
BRANCH   4   9
HETATM    9  N1  UNL     1      60.758  -7.816  10.880  1.00  0.00    -0.225 N 
ATOM     10  H1  UNL     1      60.281  -7.523  10.027  1.00  0.00     0.177 HD
BRANCH   9  11
HETATM   11  C4  UNL     1      62.172  -7.710  10.922  1.00  0.00     0.138 C 
BRANCH  11  12
HETATM   12  C3  UNL     1      62.864  -8.910  10.277  1.00  0.00     0.020 C 
BRANCH  12  13
HETATM   13  C2  UNL     1      63.761  -9.613  11.271  1.00  0.00    -0.003 C 
HETATM   14  C1  UNL     1      63.295 -11.047  11.390  1.00  0.00     0.005 C 
ENDBRANCH  12  13
ENDBRANCH  11  12
ENDBRANCH   9  11
ENDBRANCH   4   9
ENDBRANCH   1   2
BRANCH   1  15
HETATM   15  N4  UNL     1      56.112  -6.871  12.698  1.00  0.00    -0.330 N 
ATOM     16  H4  UNL     1      56.057  -5.893  12.986  1.00  0.00     0.180 HD
BRANCH  15  17
HETATM   17  C7  UNL     1      55.483  -7.331  11.506  1.00  0.00     0.166 C 
BRANCH  17  18
HETATM   18  C8  UNL     1      54.343  -6.395  11.130  1.00  0.00     0.250 C 
BRANCH  18  19
HETATM   19  N5  UNL     1      54.191  -5.469  12.269  1.00  0.00    -0.078 N 
ATOM     20  H53 UNL     1      54.468  -4.511  12.056  1.00  0.00     0.274 HD
ATOM     21  H52 UNL     1      53.219  -5.265  12.504  1.00  0.00     0.274 HD
ATOM     22  H51 UNL     1      54.718  -5.884  13.038  1.00  0.00     0.274 HD
ENDBRANCH  18  19
ENDBRANCH  17  18
ENDBRANCH  15  17
ENDBRANCH   1  15
BRANCH   1  23
HETATM   23  C9  UNL     1      56.184  -8.359  14.610  1.00  0.00     0.110 C 
HETATM   24  C10 UNL     1      55.839  -9.809  14.384  1.00  0.00     0.027 C 
HETATM   25  C11 UNL     1      54.772 -10.291  15.343  1.00  0.00     0.002 C 
HETATM   26  C12 UNL     1      54.768  -9.569  16.647  1.00  0.00     0.000 C 
HETATM   27  C13 UNL     1      54.799  -8.079  16.565  1.00  0.00     0.002 C 
HETATM   28  C14 UNL     1      54.955  -7.646  15.100  1.00  0.00     0.027 C 
ENDBRANCH   1  23
TORSDOF 10
ENDMDL
MODEL 4
REMARK VINA RESULT: -6.075250834      3.266      8.918
REMARK  10 active torsions:
REMARK  status: ('A' for Active; 'I' for Inactive)
REMARK    1  A    between atoms: C2_2  and  C3_3 
REMARK    2  A    between atoms: C3_3  and  C4_4 
REMARK    3  A    between atoms: C4_4  and  N1_5 
REMARK    4  A    between atoms: N1_5  and  C5_7 
REMARK    5  A    between atoms: C6_10  and  N3_11 
REMARK    6  A    between atoms: N3_11  and  N4_12 
REMARK    7  A    between atoms: N3_11  and  C9_20 
REMARK    8  A    between atoms: N4_12  and  C7_14 
REMARK    9  A    between atoms: C7_14  and  C8_15 
REMARK   10  A    between atoms: C8_15  and  N5_16 
ROOT
HETATM    1  N3  UNL     1      63.029 -11.275  10.894  1.00  0.00    -0.269 N 
ENDROOT
BRANCH   1   2
HETATM    2  C6  UNL     1      62.476  -9.973  10.975  1.00  0.00     0.197 A 
HETATM    3  N2  UNL     1      61.365  -9.618  11.604  1.00  0.00    -0.167 N 
HETATM    4  C5  UNL     1      61.000  -8.362  11.585  1.00  0.00     0.686 A 
ATOM      5  H2  UNL     1      60.804 -10.313  12.097  1.00  0.00     0.186 HD
HETATM    6  N6  UNL     1      61.769  -7.491  10.926  1.00  0.00    -0.157 N 
HETATM    7  S1  UNL     1      63.003  -8.471  10.342  1.00  0.00     0.040 SA
ATOM      8  H6  UNL     1      61.640  -6.487  10.808  1.00  0.00     0.193 HD
BRANCH   4   9
HETATM    9  N1  UNL     1      59.877  -8.007  12.194  1.00  0.00    -0.225 N 
ATOM     10  H1  UNL     1      59.941  -7.353  12.974  1.00  0.00     0.177 HD
BRANCH   9  11
HETATM   11  C4  UNL     1      58.593  -8.483  11.826  1.00  0.00     0.138 C 
BRANCH  11  12
HETATM   12  C3  UNL     1      57.694  -8.724  13.038  1.00  0.00     0.020 C 
BRANCH  12  13
HETATM   13  C2  UNL     1      58.454  -9.430  14.139  1.00  0.00    -0.003 C 
HETATM   14  C1  UNL     1      57.473  -9.775  15.238  1.00  0.00     0.005 C 
ENDBRANCH  12  13
ENDBRANCH  11  12
ENDBRANCH   9  11
ENDBRANCH   4   9
ENDBRANCH   1   2
BRANCH   1  15
HETATM   15  N4  UNL     1      63.733 -11.815  11.940  1.00  0.00    -0.330 N 
ATOM     16  H4  UNL     1      63.311 -12.496  12.571  1.00  0.00     0.180 HD
BRANCH  15  17
HETATM   17  C7  UNL     1      65.080 -11.381  12.108  1.00  0.00     0.166 C 
BRANCH  17  18
HETATM   18  C8  UNL     1      65.990 -12.587  12.290  1.00  0.00     0.250 C 
BRANCH  18  19
HETATM   19  N5  UNL     1      65.323 -13.447  13.287  1.00  0.00    -0.078 N 
ATOM     20  H53 UNL     1      64.689 -12.940  13.905  1.00  0.00     0.274 HD
ATOM     21  H52 UNL     1      64.625 -14.073  12.884  1.00  0.00     0.274 HD
ATOM     22  H51 UNL     1      66.072 -13.933  13.781  1.00  0.00     0.274 HD
ENDBRANCH  18  19
ENDBRANCH  17  18
ENDBRANCH  15  17
ENDBRANCH   1  15
BRANCH   1  23
HETATM   23  C9  UNL     1      62.829 -12.040   9.703  1.00  0.00     0.110 C 
HETATM   24  C10 UNL     1      62.936 -13.515   9.995  1.00  0.00     0.027 C 
HETATM   25  C11 UNL     1      63.240 -14.316   8.748  1.00  0.00     0.002 C 
HETATM   26  C12 UNL     1      62.726 -13.693   7.495  1.00  0.00     0.000 C 
HETATM   27  C13 UNL     1      63.046 -12.247   7.310  1.00  0.00     0.002 C 
HETATM   28  C14 UNL     1      63.752 -11.709   8.564  1.00  0.00     0.027 C 
ENDBRANCH   1  23
TORSDOF 10
ENDMDL
MODEL 5
REMARK VINA RESULT: -5.896171400      2.932      8.868
REMARK  10 active torsions:
REMARK  status: ('A' for Active; 'I' for Inactive)
REMARK    1  A    between atoms: C2_2  and  C3_3 
REMARK    2  A    between atoms: C3_3  and  C4_4 
REMARK    3  A    between atoms: C4_4  and  N1_5 
REMARK    4  A    between atoms: N1_5  and  C5_7 
REMARK    5  A    between atoms: C6_10  and  N3_11 
REMARK    6  A    between atoms: N3_11  and  N4_12 
REMARK    7  A    between atoms: N3_11  and  C9_20 
REMARK    8  A    between atoms: N4_12  and  C7_14 
REMARK    9  A    between atoms: C7_14  and  C8_15 
REMARK   10  A    between atoms: C8_15  and  N5_16 
ROOT
HETATM    1  N3  UNL     1      62.994  -9.611  10.845  1.00  0.00    -0.269 N 
ENDROOT
BRANCH   1   2
HETATM    2  C6  UNL     1      61.808  -9.060  11.392  1.00  0.00     0.197 A 
HETATM    3  N2  UNL     1      61.042  -9.595  12.331  1.00  0.00    -0.167 N 
HETATM    4  C5  UNL     1      59.979  -8.944  12.728  1.00  0.00     0.686 A 
ATOM      5  H2  UNL     1      61.277 -10.501  12.738  1.00  0.00     0.186 HD
HETATM    6  N6  UNL     1      59.716  -7.763  12.165  1.00  0.00    -0.157 N 
HETATM    7  S1  UNL     1      60.984  -7.593  11.075  1.00  0.00     0.040 SA
ATOM      8  H6  UNL     1      58.942  -7.125  12.349  1.00  0.00     0.193 HD
BRANCH   4   9
HETATM    9  N1  UNL     1      59.197  -9.487  13.651  1.00  0.00    -0.225 N 
ATOM     10  H1  UNL     1      59.596 -10.207  14.254  1.00  0.00     0.177 HD
BRANCH   9  11
HETATM   11  C4  UNL     1      57.839  -9.129  13.850  1.00  0.00     0.138 C 
BRANCH  11  12
HETATM   12  C3  UNL     1      57.281  -9.672  15.164  1.00  0.00     0.020 C 
BRANCH  12  13
HETATM   13  C2  UNL     1      55.821 -10.036  15.019  1.00  0.00    -0.003 C 
HETATM   14  C1  UNL     1      55.069  -9.432  16.185  1.00  0.00     0.005 C 
ENDBRANCH  12  13
ENDBRANCH  11  12
ENDBRANCH   9  11
ENDBRANCH   4   9
ENDBRANCH   1   2
BRANCH   1  15
HETATM   15  N4  UNL     1      63.275 -10.949  10.957  1.00  0.00    -0.330 N 
ATOM     16  H4  UNL     1      63.890 -11.305  11.689  1.00  0.00     0.180 HD
BRANCH  15  17
HETATM   17  C7  UNL     1      62.670 -11.820  10.005  1.00  0.00     0.166 C 
BRANCH  17  18
HETATM   18  C8  UNL     1      63.383 -13.164  10.011  1.00  0.00     0.250 C 
BRANCH  18  19
HETATM   19  N5  UNL     1      62.474 -14.104   9.326  1.00  0.00    -0.078 N 
ATOM     20  H53 UNL     1      61.761 -13.643   8.761  1.00  0.00     0.274 HD
ATOM     21  H52 UNL     1      62.917 -14.619   8.565  1.00  0.00     0.274 HD
ATOM     22  H51 UNL     1      62.092 -14.704  10.057  1.00  0.00     0.274 HD
ENDBRANCH  18  19
ENDBRANCH  17  18
ENDBRANCH  15  17
ENDBRANCH   1  15
BRANCH   1  23
HETATM   23  C9  UNL     1      63.901  -8.751  10.151  1.00  0.00     0.110 C 
HETATM   24  C10 UNL     1      63.546  -8.675   8.688  1.00  0.00     0.027 C 
HETATM   25  C11 UNL     1      64.718  -8.222   7.846  1.00  0.00     0.002 C 
HETATM   26  C12 UNL     1      65.675  -7.342   8.575  1.00  0.00     0.000 C 
HETATM   27  C13 UNL     1      66.117  -7.831   9.914  1.00  0.00     0.002 C 
HETATM   28  C14 UNL     1      65.354  -9.114  10.274  1.00  0.00     0.027 C 
ENDBRANCH   1  23
TORSDOF 10
ENDMDL
