MODEL 1
REMARK VINA RESULT: -6.279973161      0.000      0.000
REMARK  6 active torsions:
REMARK  status: ('A' for Active; 'I' for Inactive)
REMARK    1  A    between atoms: C3_3  and  C6_6 
REMARK    2  A    between atoms: C6_6  and  N1_8 
REMARK    3  A    between atoms: N1_8  and  N2_10 
REMARK    4  A    between atoms: N2_10  and  C7_12 
REMARK    5  A    between atoms: C7_12  and  N3_14 
REMARK    6  A    between atoms: N3_14  and  N4_16 
REMARK       I    between atoms: N4_16  and  C8_18 
ROOT
HETATM    1  C1  UNL     1      21.010 -13.847  26.906  1.00  0.00     0.018 C 
HETATM    2  C2  UNL     1      20.824 -14.255  25.775  1.00  0.00    -0.075 C 
HETATM    3  C3  UNL     1      20.586 -14.742  24.459  1.00  0.00     0.052 C 
HETATM    4  C4  UNL     1      21.574 -14.885  23.606  1.00  0.00    -0.007 C 
HETATM    5  C5  UNL     1      22.948 -14.535  24.018  1.00  0.00     0.037 C 
ENDROOT
BRANCH   3   6
HETATM    6  C6  UNL     1      19.238 -15.091  24.046  1.00  0.00     0.133 C 
HETATM    7  S1  UNL     1      18.087 -15.512  25.146  1.00  0.00    -0.058 SA
BRANCH   6   8
HETATM    8  N1  UNL     1      18.831 -15.091  22.683  1.00  0.00    -0.287 N 
ATOM      9  H1  UNL     1      18.837 -15.969  22.164  1.00  0.00     0.188 HD
BRANCH   8  10
HETATM   10  N2  UNL     1      18.427 -13.927  22.040  1.00  0.00    -0.274 N 
ATOM     11  H2  UNL     1      17.931 -13.220  22.583  1.00  0.00     0.189 HD
BRANCH  10  12
HETATM   12  C7  UNL     1      18.671 -13.674  20.670  1.00  0.00     0.205 C 
HETATM   13  S2  UNL     1      20.211 -13.535  20.154  1.00  0.00    -0.038 SA
BRANCH  12  14
HETATM   14  N3  UNL     1      17.567 -13.546  19.766  1.00  0.00    -0.273 N 
ATOM     15  H3  UNL     1      17.732 -13.193  18.824  1.00  0.00     0.189 HD
BRANCH  14  16
HETATM   16  N4  UNL     1      16.268 -13.894  20.149  1.00  0.00    -0.268 N 
HETATM   17  C8  UNL     1      15.344 -12.909  20.558  1.00  0.00     0.232 C 
HETATM   18  C9  UNL     1      13.980 -13.306  20.956  1.00  0.00     0.119 C 
HETATM   19  O1  UNL     1      15.679 -11.702  20.581  1.00  0.00    -0.272 OA
ATOM     20  H4  UNL     1      15.985 -14.874  20.132  1.00  0.00     0.190 HD
ENDBRANCH  14  16
ENDBRANCH  12  14
ENDBRANCH  10  12
ENDBRANCH   8  10
ENDBRANCH   6   8
ENDBRANCH   3   6
TORSDOF 6
ENDMDL
MODEL 2
REMARK VINA RESULT: -6.085193169      1.280      1.940
REMARK  6 active torsions:
REMARK  status: ('A' for Active; 'I' for Inactive)
REMARK    1  A    between atoms: C3_3  and  C6_6 
REMARK    2  A    between atoms: C6_6  and  N1_8 
REMARK    3  A    between atoms: N1_8  and  N2_10 
REMARK    4  A    between atoms: N2_10  and  C7_12 
REMARK    5  A    between atoms: C7_12  and  N3_14 
REMARK    6  A    between atoms: N3_14  and  N4_16 
REMARK       I    between atoms: N4_16  and  C8_18 
ROOT
HETATM    1  C1  UNL     1      23.283 -14.637  23.932  1.00  0.00     0.018 C 
HETATM    2  C2  UNL     1      22.075 -14.669  24.078  1.00  0.00    -0.075 C 
HETATM    3  C3  UNL     1      20.660 -14.705  24.225  1.00  0.00     0.052 C 
HETATM    4  C4  UNL     1      20.092 -14.349  25.354  1.00  0.00    -0.007 C 
HETATM    5  C5  UNL     1      20.933 -13.906  26.484  1.00  0.00     0.037 C 
ENDROOT
BRANCH   3   6
HETATM    6  C6  UNL     1      19.825 -15.139  23.118  1.00  0.00     0.133 C 
HETATM    7  S1  UNL     1      19.968 -16.649  22.478  1.00  0.00    -0.058 SA
BRANCH   6   8
HETATM    8  N1  UNL     1      18.845 -14.297  22.524  1.00  0.00    -0.287 N 
ATOM      9  H1  UNL     1      17.945 -14.179  22.987  1.00  0.00     0.188 HD
BRANCH   8  10
HETATM   10  N2  UNL     1      19.083 -13.630  21.326  1.00  0.00    -0.274 N 
ATOM     11  H2  UNL     1      19.628 -12.768  21.351  1.00  0.00     0.189 HD
BRANCH  10  12
HETATM   12  C7  UNL     1      18.607 -14.089  20.077  1.00  0.00     0.205 C 
HETATM   13  S2  UNL     1      19.565 -13.947  18.765  1.00  0.00    -0.038 SA
BRANCH  12  14
HETATM   14  N3  UNL     1      17.299 -14.667  19.986  1.00  0.00    -0.273 N 
ATOM     15  H3  UNL     1      17.181 -15.665  20.161  1.00  0.00     0.189 HD
BRANCH  14  16
HETATM   16  N4  UNL     1      16.182 -13.892  19.662  1.00  0.00    -0.268 N 
HETATM   17  C8  UNL     1      15.519 -13.127  20.647  1.00  0.00     0.232 C 
HETATM   18  C9  UNL     1      14.343 -12.319  20.276  1.00  0.00     0.119 C 
HETATM   19  O1  UNL     1      15.930 -13.133  21.830  1.00  0.00    -0.272 OA
ATOM     20  H4  UNL     1      15.840 -13.879  18.700  1.00  0.00     0.190 HD
ENDBRANCH  14  16
ENDBRANCH  12  14
ENDBRANCH  10  12
ENDBRANCH   8  10
ENDBRANCH   6   8
ENDBRANCH   3   6
TORSDOF 6
ENDMDL
MODEL 3
REMARK VINA RESULT: -5.988499007      1.985      2.655
REMARK  6 active torsions:
REMARK  status: ('A' for Active; 'I' for Inactive)
REMARK    1  A    between atoms: C3_3  and  C6_6 
REMARK    2  A    between atoms: C6_6  and  N1_8 
REMARK    3  A    between atoms: N1_8  and  N2_10 
REMARK    4  A    between atoms: N2_10  and  C7_12 
REMARK    5  A    between atoms: C7_12  and  N3_14 
REMARK    6  A    between atoms: N3_14  and  N4_16 
REMARK       I    between atoms: N4_16  and  C8_18 
ROOT
HETATM    1  C1  UNL     1      18.516 -15.286  25.178  1.00  0.00     0.018 C 
HETATM    2  C2  UNL     1      19.690 -14.971  25.146  1.00  0.00    -0.075 C 
HETATM    3  C3  UNL     1      21.068 -14.619  25.091  1.00  0.00     0.052 C 
HETATM    4  C4  UNL     1      21.651 -14.025  26.106  1.00  0.00    -0.007 C 
HETATM    5  C5  UNL     1      20.866 -13.718  27.319  1.00  0.00     0.037 C 
ENDROOT
BRANCH   3   6
HETATM    6  C6  UNL     1      21.849 -14.919  23.902  1.00  0.00     0.133 C 
HETATM    7  S1  UNL     1      23.480 -14.693  23.871  1.00  0.00    -0.058 SA
BRANCH   6   8
HETATM    8  N1  UNL     1      21.262 -15.416  22.707  1.00  0.00    -0.287 N 
ATOM      9  H1  UNL     1      21.210 -16.424  22.562  1.00  0.00     0.188 HD
BRANCH   8  10
HETATM   10  N2  UNL     1      20.757 -14.565  21.730  1.00  0.00    -0.274 N 
ATOM     11  H2  UNL     1      21.398 -13.911  21.279  1.00  0.00     0.189 HD
BRANCH  10  12
HETATM   12  C7  UNL     1      19.401 -14.561  21.332  1.00  0.00     0.205 C 
HETATM   13  S2  UNL     1      18.649 -15.985  21.074  1.00  0.00    -0.038 SA
BRANCH  12  14
HETATM   14  N3  UNL     1      18.716 -13.314  21.162  1.00  0.00    -0.273 N 
ATOM     15  H3  UNL     1      19.242 -12.492  20.867  1.00  0.00     0.189 HD
BRANCH  14  16
HETATM   16  N4  UNL     1      17.342 -13.202  21.391  1.00  0.00    -0.268 N 
HETATM   17  C8  UNL     1      16.432 -13.102  20.316  1.00  0.00     0.232 C 
HETATM   18  C9  UNL     1      14.988 -12.985  20.588  1.00  0.00     0.119 C 
HETATM   19  O1  UNL     1      16.850 -13.117  19.135  1.00  0.00    -0.272 OA
ATOM     20  H4  UNL     1      16.991 -13.191  22.350  1.00  0.00     0.190 HD
ENDBRANCH  14  16
ENDBRANCH  12  14
ENDBRANCH  10  12
ENDBRANCH   8  10
ENDBRANCH   6   8
ENDBRANCH   3   6
TORSDOF 6
ENDMDL
MODEL 4
REMARK VINA RESULT: -5.910245132      2.159      2.826
REMARK  6 active torsions:
REMARK  status: ('A' for Active; 'I' for Inactive)
REMARK    1  A    between atoms: C3_3  and  C6_6 
REMARK    2  A    between atoms: C6_6  and  N1_8 
REMARK    3  A    between atoms: N1_8  and  N2_10 
REMARK    4  A    between atoms: N2_10  and  C7_12 
REMARK    5  A    between atoms: C7_12  and  N3_14 
REMARK    6  A    between atoms: N3_14  and  N4_16 
REMARK       I    between atoms: N4_16  and  C8_18 
ROOT
HETATM    1  C1  UNL     1      20.796 -13.906  26.643  1.00  0.00     0.018 C 
HETATM    2  C2  UNL     1      20.737 -14.226  25.471  1.00  0.00    -0.075 C 
HETATM    3  C3  UNL     1      20.646 -14.608  24.103  1.00  0.00     0.052 C 
HETATM    4  C4  UNL     1      21.728 -14.825  23.392  1.00  0.00    -0.007 C 
HETATM    5  C5  UNL     1      23.056 -14.668  24.020  1.00  0.00     0.037 C 
ENDROOT
BRANCH   3   6
HETATM    6  C6  UNL     1      19.344 -14.766  23.477  1.00  0.00     0.133 C 
HETATM    7  S1  UNL     1      18.062 -15.377  24.311  1.00  0.00    -0.058 SA
BRANCH   6   8
HETATM    8  N1  UNL     1      19.099 -14.410  22.123  1.00  0.00    -0.287 N 
ATOM      9  H1  UNL     1      19.559 -14.935  21.380  1.00  0.00     0.188 HD
BRANCH   8  10
HETATM   10  N2  UNL     1      18.247 -13.364  21.784  1.00  0.00    -0.274 N 
ATOM     11  H2  UNL     1      18.392 -12.457  22.229  1.00  0.00     0.189 HD
BRANCH  10  12
HETATM   12  C7  UNL     1      17.190 -13.495  20.855  1.00  0.00     0.205 C 
HETATM   13  S2  UNL     1      15.827 -12.629  21.080  1.00  0.00    -0.038 SA
BRANCH  12  14
HETATM   14  N3  UNL     1      17.334 -14.382  19.738  1.00  0.00    -0.273 N 
ATOM     15  H3  UNL     1      17.046 -15.355  19.834  1.00  0.00     0.189 HD
BRANCH  14  16
HETATM   16  N4  UNL     1      17.862 -13.940  18.521  1.00  0.00    -0.268 N 
HETATM   17  C8  UNL     1      19.254 -13.772  18.353  1.00  0.00     0.232 C 
HETATM   18  C9  UNL     1      19.782 -13.305  17.058  1.00  0.00     0.119 C 
HETATM   19  O1  UNL     1      20.037 -14.020  19.298  1.00  0.00    -0.272 OA
ATOM     20  H4  UNL     1      17.233 -13.737  17.744  1.00  0.00     0.190 HD
ENDBRANCH  14  16
ENDBRANCH  12  14
ENDBRANCH  10  12
ENDBRANCH   8  10
ENDBRANCH   6   8
ENDBRANCH   3   6
TORSDOF 6
ENDMDL
MODEL 5
REMARK VINA RESULT: -5.889655009      1.890      2.431
REMARK  6 active torsions:
REMARK  status: ('A' for Active; 'I' for Inactive)
REMARK    1  A    between atoms: C3_3  and  C6_6 
REMARK    2  A    between atoms: C6_6  and  N1_8 
REMARK    3  A    between atoms: N1_8  and  N2_10 
REMARK    4  A    between atoms: N2_10  and  C7_12 
REMARK    5  A    between atoms: C7_12  and  N3_14 
REMARK    6  A    between atoms: N3_14  and  N4_16 
REMARK       I    between atoms: N4_16  and  C8_18 
ROOT
HETATM    1  C1  UNL     1      20.952 -13.834  27.019  1.00  0.00     0.018 C 
HETATM    2  C2  UNL     1      20.630 -14.425  26.005  1.00  0.00    -0.075 C 
HETATM    3  C3  UNL     1      20.270 -15.104  24.807  1.00  0.00     0.052 C 
HETATM    4  C4  UNL     1      19.098 -15.683  24.689  1.00  0.00    -0.007 C 
HETATM    5  C5  UNL     1      18.142 -15.628  25.814  1.00  0.00     0.037 C 
ENDROOT
BRANCH   3   6
HETATM    6  C6  UNL     1      21.204 -15.161  23.695  1.00  0.00     0.133 C 
HETATM    7  S1  UNL     1      22.780 -14.722  23.878  1.00  0.00    -0.058 SA
BRANCH   6   8
HETATM    8  N1  UNL     1      20.820 -15.593  22.396  1.00  0.00    -0.287 N 
ATOM      9  H1  UNL     1      21.119 -16.511  22.070  1.00  0.00     0.188 HD
BRANCH   8  10
HETATM   10  N2  UNL     1      20.048 -14.796  21.559  1.00  0.00    -0.274 N 
ATOM     11  H2  UNL     1      20.330 -13.825  21.417  1.00  0.00     0.189 HD
BRANCH  10  12
HETATM   12  C7  UNL     1      18.892 -15.263  20.893  1.00  0.00     0.205 C 
HETATM   13  S2  UNL     1      18.392 -16.793  21.158  1.00  0.00    -0.038 SA
BRANCH  12  14
HETATM   14  N3  UNL     1      18.184 -14.391  20.004  1.00  0.00    -0.273 N 
ATOM     15  H3  UNL     1      18.707 -13.848  19.317  1.00  0.00     0.189 HD
BRANCH  14  16
HETATM   16  N4  UNL     1      16.792 -14.269  20.058  1.00  0.00    -0.268 N 
HETATM   17  C8  UNL     1      16.186 -13.090  20.544  1.00  0.00     0.232 C 
HETATM   18  C9  UNL     1      14.716 -12.990  20.589  1.00  0.00     0.119 C 
HETATM   19  O1  UNL     1      16.894 -12.133  20.934  1.00  0.00    -0.272 OA
ATOM     20  H4  UNL     1      16.207 -15.042  19.741  1.00  0.00     0.190 HD
ENDBRANCH  14  16
ENDBRANCH  12  14
ENDBRANCH  10  12
ENDBRANCH   8  10
ENDBRANCH   6   8
ENDBRANCH   3   6
TORSDOF 6
ENDMDL
