MODEL 1
REMARK VINA RESULT: -7.072039803      0.000      0.000
REMARK  3 active torsions:
REMARK  status: ('A' for Active; 'I' for Inactive)
REMARK    1  A    between atoms: C2_2  and  N1_4 
REMARK       I    between atoms: N1_4  and  C4_6 
REMARK       I    between atoms: C4_6  and  N2_8 
REMARK    2  A    between atoms: C7_11  and  C8_12 
REMARK       I    between atoms: C8_12  and  N3_14 
REMARK    3  A    between atoms: N3_14  and  C9_16 
ROOT
HETATM    1  C8  UNL     1      10.601   6.832  23.416  1.00  0.00     0.222 C 
HETATM    2  O2  UNL     1      10.416   7.089  22.183  1.00  0.00    -0.273 OA
HETATM    3  N3  UNL     1       9.800   5.828  24.014  1.00  0.00    -0.351 N 
ATOM      4  H3  UNL     1       9.937   5.611  25.001  1.00  0.00     0.163 HD
ENDROOT
BRANCH   1   5
HETATM    5  C7  UNL     1      11.623   7.562  24.181  1.00  0.00     0.081 C 
HETATM    6  C6  UNL     1      11.030   8.688  25.003  1.00  0.00     0.034 C 
HETATM    7  C5  UNL     1      12.137   9.113  25.979  1.00  0.00     0.128 C 
HETATM    8  N2  UNL     1      13.226   9.585  25.161  1.00  0.00    -0.334 N 
HETATM    9  C4  UNL     1      14.340  10.190  25.766  1.00  0.00     0.318 C 
HETATM   10  C16 UNL     1      13.214   9.458  23.726  1.00  0.00     0.128 C 
HETATM   11  N1  UNL     1      14.379  10.329  27.189  1.00  0.00    -0.339 N 
HETATM   12  O1  UNL     1      15.276  10.594  25.039  1.00  0.00    -0.247 OA
ATOM     13  H1  UNL     1      13.599   9.988  27.749  1.00  0.00     0.164 HD
HETATM   14  C15 UNL     1      12.639   8.159  23.245  1.00  0.00     0.034 C 
BRANCH  11  15
HETATM   15  C2  UNL     1      15.508  10.945  27.842  1.00  0.00     0.078 C 
HETATM   16  C1  UNL     1      16.414   9.835  28.360  1.00  0.00     0.032 C 
HETATM   17  C3  UNL     1      15.135  11.920  28.903  1.00  0.00     0.032 C 
ENDBRANCH  11  15
ENDBRANCH   1   5
BRANCH   3  18
HETATM   18  C9  UNL     1       8.798   5.108  23.275  1.00  0.00     0.138 C 
HETATM   19  C10 UNL     1       7.463   5.059  23.939  1.00  0.00     0.032 C 
HETATM   20  C11 UNL     1       7.418   4.266  25.204  1.00  0.00     0.008 C 
HETATM   21  C12 UNL     1       8.472   3.217  25.338  1.00  0.00     0.061 C 
HETATM   22  C13 UNL     1       9.085   2.801  24.055  1.00  0.00     0.051 A 
HETATM   23  N4  UNL     1       9.632   1.846  23.291  1.00  0.00    -0.303 N 
HETATM   24  C14 UNL     1       9.248   3.712  23.047  1.00  0.00     0.072 A 
HETATM   25  N5  UNL     1       9.793   2.709  22.321  1.00  0.00    -0.301 N 
ATOM     26  H4  UNL     1       9.838   0.855  23.415  1.00  0.00     0.186 HD
ATOM     27  H5  UNL     1      10.182   2.648  21.380  1.00  0.00     0.186 HD
ENDBRANCH   3  18
TORSDOF 3
ENDMDL
MODEL 2
REMARK VINA RESULT: -6.843398923      1.312      1.575
REMARK  3 active torsions:
REMARK  status: ('A' for Active; 'I' for Inactive)
REMARK    1  A    between atoms: C2_2  and  N1_4 
REMARK       I    between atoms: N1_4  and  C4_6 
REMARK       I    between atoms: C4_6  and  N2_8 
REMARK    2  A    between atoms: C7_11  and  C8_12 
REMARK       I    between atoms: C8_12  and  N3_14 
REMARK    3  A    between atoms: N3_14  and  C9_16 
ROOT
HETATM    1  C8  UNL     1      10.113   6.568  23.162  1.00  0.00     0.222 C 
HETATM    2  O2  UNL     1       9.272   7.048  22.335  1.00  0.00    -0.273 OA
HETATM    3  N3  UNL     1       9.867   5.274  23.686  1.00  0.00    -0.351 N 
ATOM      4  H3  UNL     1      10.532   4.876  24.348  1.00  0.00     0.163 HD
ENDROOT
BRANCH   1   5
HETATM    5  C7  UNL     1      11.299   7.346  23.551  1.00  0.00     0.081 C 
HETATM    6  C6  UNL     1      10.988   8.818  23.728  1.00  0.00     0.034 C 
HETATM    7  C5  UNL     1      12.206   9.413  24.448  1.00  0.00     0.128 C 
HETATM    8  N2  UNL     1      13.326   9.221  23.559  1.00  0.00    -0.334 N 
HETATM    9  C4  UNL     1      14.568   9.797  23.869  1.00  0.00     0.318 C 
HETATM   10  C16 UNL     1      13.214   8.449  22.348  1.00  0.00     0.128 C 
HETATM   11  N1  UNL     1      14.708  10.569  25.065  1.00  0.00    -0.339 N 
HETATM   12  O1  UNL     1      15.527   9.620  23.085  1.00  0.00    -0.247 OA
ATOM     13  H1  UNL     1      13.904  10.692  25.681  1.00  0.00     0.164 HD
HETATM   14  C15 UNL     1      12.364   7.222  22.496  1.00  0.00     0.034 C 
BRANCH  11  15
HETATM   15  C2  UNL     1      15.969  11.174  25.413  1.00  0.00     0.078 C 
HETATM   16  C1  UNL     1      16.191  10.972  26.907  1.00  0.00     0.032 C 
HETATM   17  C3  UNL     1      16.088  12.602  25.006  1.00  0.00     0.032 C 
ENDBRANCH  11  15
ENDBRANCH   1   5
BRANCH   3  18
HETATM   18  C9  UNL     1       8.711   4.506  23.312  1.00  0.00     0.138 C 
HETATM   19  C10 UNL     1       7.534   4.693  24.211  1.00  0.00     0.032 C 
HETATM   20  C11 UNL     1       7.711   4.168  25.597  1.00  0.00     0.008 C 
HETATM   21  C12 UNL     1       8.728   3.085  25.745  1.00  0.00     0.061 C 
HETATM   22  C13 UNL     1       9.055   2.379  24.485  1.00  0.00     0.051 A 
HETATM   23  N4  UNL     1       9.401   1.254  23.846  1.00  0.00    -0.303 N 
HETATM   24  C14 UNL     1       9.050   3.061  23.298  1.00  0.00     0.072 A 
HETATM   25  N5  UNL     1       9.400   1.895  22.706  1.00  0.00    -0.301 N 
ATOM     26  H4  UNL     1       9.588   0.292  24.131  1.00  0.00     0.186 HD
ATOM     27  H5  UNL     1       9.590   1.621  21.742  1.00  0.00     0.186 HD
ENDBRANCH   3  18
TORSDOF 3
ENDMDL
MODEL 3
REMARK VINA RESULT: -6.809567012      4.822      9.441
REMARK  3 active torsions:
REMARK  status: ('A' for Active; 'I' for Inactive)
REMARK    1  A    between atoms: C2_2  and  N1_4 
REMARK       I    between atoms: N1_4  and  C4_6 
REMARK       I    between atoms: C4_6  and  N2_8 
REMARK    2  A    between atoms: C7_11  and  C8_12 
REMARK       I    between atoms: C8_12  and  N3_14 
REMARK    3  A    between atoms: N3_14  and  C9_16 
ROOT
HETATM    1  C8  UNL     1      14.710  10.965  21.132  1.00  0.00     0.222 C 
HETATM    2  O2  UNL     1      15.889  10.832  21.594  1.00  0.00    -0.273 OA
HETATM    3  N3  UNL     1      14.440  12.086  20.309  1.00  0.00    -0.351 N 
ATOM      4  H3  UNL     1      13.500  12.205  19.931  1.00  0.00     0.163 HD
ENDROOT
BRANCH   1   5
HETATM    5  C7  UNL     1      13.671   9.975  21.454  1.00  0.00     0.081 C 
HETATM    6  C6  UNL     1      12.716  10.468  22.521  1.00  0.00     0.034 C 
HETATM    7  C5  UNL     1      11.528   9.497  22.493  1.00  0.00     0.128 C 
HETATM    8  N2  UNL     1      12.066   8.203  22.834  1.00  0.00    -0.334 N 
HETATM    9  C4  UNL     1      11.196   7.120  23.042  1.00  0.00     0.318 C 
HETATM   10  C16 UNL     1      13.482   7.977  22.972  1.00  0.00     0.128 C 
HETATM   11  N1  UNL     1       9.785   7.315  22.911  1.00  0.00    -0.339 N 
HETATM   12  O1  UNL     1      11.682   6.005  23.338  1.00  0.00    -0.247 OA
ATOM     13  H1  UNL     1       9.425   8.237  22.669  1.00  0.00     0.164 HD
HETATM   14  C15 UNL     1      14.306   8.705  21.953  1.00  0.00     0.034 C 
BRANCH  11  15
HETATM   15  C2  UNL     1       8.864   6.224  23.118  1.00  0.00     0.078 C 
HETATM   16  C1  UNL     1       7.628   6.486  22.268  1.00  0.00     0.032 C 
HETATM   17  C3  UNL     1       8.532   5.976  24.548  1.00  0.00     0.032 C 
ENDBRANCH  11  15
ENDBRANCH   1   5
BRANCH   3  18
HETATM   18  C9  UNL     1      15.449  13.059  19.988  1.00  0.00     0.138 C 
HETATM   19  C10 UNL     1      15.448  14.258  20.878  1.00  0.00     0.032 C 
HETATM   20  C11 UNL     1      14.246  15.134  20.753  1.00  0.00     0.008 C 
HETATM   21  C12 UNL     1      13.523  15.044  19.450  1.00  0.00     0.061 C 
HETATM   22  C13 UNL     1      14.333  14.492  18.340  1.00  0.00     0.051 A 
HETATM   23  N4  UNL     1      14.644  14.466  17.037  1.00  0.00    -0.303 N 
HETATM   24  C14 UNL     1      15.271  13.527  18.591  1.00  0.00     0.072 A 
HETATM   25  N5  UNL     1      15.542  13.543  17.266  1.00  0.00    -0.301 N 
ATOM     26  H4  UNL     1      14.316  14.961  16.208  1.00  0.00     0.186 HD
ATOM     27  H5  UNL     1      16.195  13.031  16.672  1.00  0.00     0.186 HD
ENDBRANCH   3  18
TORSDOF 3
ENDMDL
MODEL 4
REMARK VINA RESULT: -6.740476141      1.941      2.412
REMARK  3 active torsions:
REMARK  status: ('A' for Active; 'I' for Inactive)
REMARK    1  A    between atoms: C2_2  and  N1_4 
REMARK       I    between atoms: N1_4  and  C4_6 
REMARK       I    between atoms: C4_6  and  N2_8 
REMARK    2  A    between atoms: C7_11  and  C8_12 
REMARK       I    between atoms: C8_12  and  N3_14 
REMARK    3  A    between atoms: N3_14  and  C9_16 
ROOT
HETATM    1  C8  UNL     1       9.468   6.705  23.039  1.00  0.00     0.222 C 
HETATM    2  O2  UNL     1       8.521   7.035  22.254  1.00  0.00    -0.273 OA
HETATM    3  N3  UNL     1       9.420   5.422  23.637  1.00  0.00    -0.351 N 
ATOM      4  H3  UNL     1      10.172   5.143  24.267  1.00  0.00     0.163 HD
ENDROOT
BRANCH   1   5
HETATM    5  C7  UNL     1      10.571   7.641  23.305  1.00  0.00     0.081 C 
HETATM    6  C6  UNL     1      11.921   6.954  23.300  1.00  0.00     0.034 C 
HETATM    7  C5  UNL     1      12.959   8.085  23.246  1.00  0.00     0.128 C 
HETATM    8  N2  UNL     1      12.771   8.853  24.452  1.00  0.00    -0.334 N 
HETATM    9  C4  UNL     1      13.676   9.878  24.772  1.00  0.00     0.318 C 
HETATM   10  C16 UNL     1      11.673   8.605  25.351  1.00  0.00     0.128 C 
HETATM   11  N1  UNL     1      14.775  10.146  23.897  1.00  0.00    -0.339 N 
HETATM   12  O1  UNL     1      13.497  10.533  25.823  1.00  0.00    -0.247 OA
ATOM     13  H1  UNL     1      14.890   9.591  23.049  1.00  0.00     0.164 HD
HETATM   14  C15 UNL     1      10.385   8.287  24.651  1.00  0.00     0.034 C 
BRANCH  11  15
HETATM   15  C2  UNL     1      15.723  11.190  24.198  1.00  0.00     0.078 C 
HETATM   16  C1  UNL     1      15.259  12.460  23.496  1.00  0.00     0.032 C 
HETATM   17  C3  UNL     1      17.133  10.839  23.872  1.00  0.00     0.032 C 
ENDBRANCH  11  15
ENDBRANCH   1   5
BRANCH   3  18
HETATM   18  C9  UNL     1       8.346   4.500  23.382  1.00  0.00     0.138 C 
HETATM   19  C10 UNL     1       7.232   4.569  24.374  1.00  0.00     0.032 C 
HETATM   20  C11 UNL     1       7.588   4.121  25.753  1.00  0.00     0.008 C 
HETATM   21  C12 UNL     1       8.745   3.181  25.840  1.00  0.00     0.061 C 
HETATM   22  C13 UNL     1       9.057   2.478  24.575  1.00  0.00     0.051 A 
HETATM   23  N4  UNL     1       9.491   1.383  23.937  1.00  0.00    -0.303 N 
HETATM   24  C14 UNL     1       8.867   3.110  23.376  1.00  0.00     0.072 A 
HETATM   25  N5  UNL     1       9.314   1.977  22.786  1.00  0.00    -0.301 N 
ATOM     26  H4  UNL     1       9.823   0.463  24.229  1.00  0.00     0.186 HD
ATOM     27  H5  UNL     1       9.459   1.696  21.816  1.00  0.00     0.186 HD
ENDBRANCH   3  18
TORSDOF 3
ENDMDL
MODEL 5
REMARK VINA RESULT: -6.726190234      4.918      9.586
REMARK  3 active torsions:
REMARK  status: ('A' for Active; 'I' for Inactive)
REMARK    1  A    between atoms: C2_2  and  N1_4 
REMARK       I    between atoms: N1_4  and  C4_6 
REMARK       I    between atoms: C4_6  and  N2_8 
REMARK    2  A    between atoms: C7_11  and  C8_12 
REMARK       I    between atoms: C8_12  and  N3_14 
REMARK    3  A    between atoms: N3_14  and  C9_16 
ROOT
HETATM    1  C8  UNL     1      14.987  11.068  21.311  1.00  0.00     0.222 C 
HETATM    2  O2  UNL     1      16.194  10.823  21.633  1.00  0.00    -0.273 OA
HETATM    3  N3  UNL     1      14.735  12.180  20.469  1.00  0.00    -0.351 N 
ATOM      4  H3  UNL     1      13.774  12.389  20.201  1.00  0.00     0.163 HD
ENDROOT
BRANCH   1   5
HETATM    5  C7  UNL     1      13.898  10.212  21.805  1.00  0.00     0.081 C 
HETATM    6  C6  UNL     1      13.260   9.398  20.699  1.00  0.00     0.034 C 
HETATM    7  C5  UNL     1      12.408   8.335  21.408  1.00  0.00     0.128 C 
HETATM    8  N2  UNL     1      11.413   9.061  22.159  1.00  0.00    -0.334 N 
HETATM    9  C4  UNL     1      10.379   8.362  22.803  1.00  0.00     0.318 C 
HETATM   10  C16 UNL     1      11.442  10.496  22.275  1.00  0.00     0.128 C 
HETATM   11  N1  UNL     1      10.326   6.936  22.704  1.00  0.00    -0.339 N 
HETATM   12  O1  UNL     1       9.526   9.009  23.450  1.00  0.00    -0.247 OA
ATOM     13  H1  UNL     1      11.039   6.441  22.169  1.00  0.00     0.164 HD
HETATM   14  C15 UNL     1      12.824  11.057  22.436  1.00  0.00     0.034 C 
BRANCH  11  15
HETATM   15  C2  UNL     1       9.278   6.188  23.353  1.00  0.00     0.078 C 
HETATM   16  C1  UNL     1       9.847   4.832  23.752  1.00  0.00     0.032 C 
HETATM   17  C3  UNL     1       8.031   6.070  22.548  1.00  0.00     0.032 C 
ENDBRANCH  11  15
ENDBRANCH   1   5
BRANCH   3  18
HETATM   18  C9  UNL     1      15.793  13.023  19.980  1.00  0.00     0.138 C 
HETATM   19  C10 UNL     1      16.060  14.224  20.826  1.00  0.00     0.032 C 
HETATM   20  C11 UNL     1      14.962  15.235  20.847  1.00  0.00     0.008 C 
HETATM   21  C12 UNL     1      14.053  15.216  19.663  1.00  0.00     0.061 C 
HETATM   22  C13 UNL     1      14.624  14.558  18.466  1.00  0.00     0.051 A 
HETATM   23  N4  UNL     1      14.739  14.479  17.133  1.00  0.00    -0.303 N 
HETATM   24  C14 UNL     1      15.471  13.492  18.609  1.00  0.00     0.072 A 
HETATM   25  N5  UNL     1      15.547  13.459  17.259  1.00  0.00    -0.301 N 
ATOM     26  H4  UNL     1      14.353  14.999  16.345  1.00  0.00     0.186 HD
ATOM     27  H5  UNL     1      16.044  12.865  16.594  1.00  0.00     0.186 HD
ENDBRANCH   3  18
TORSDOF 3
ENDMDL
