MODEL 1
REMARK VINA RESULT: -6.739359681      0.000      0.000
REMARK  3 active torsions:
REMARK  status: ('A' for Active; 'I' for Inactive)
REMARK    1  A    between atoms: C5_5  and  C6_6 
REMARK    2  A    between atoms: C7_7  and  N1_8 
REMARK       I    between atoms: N1_8  and  C8_10 
REMARK    3  A    between atoms: C8_10  and  C9_12 
REMARK       I    between atoms: N2_20  and  C17_21 
ROOT
HETATM    1  C6  UNL     1      10.203   6.923  24.098  1.00  0.00     0.115 C 
HETATM    2  C7  UNL     1       9.173   7.955  23.599  1.00  0.00     0.107 C 
HETATM    3  C13 UNL     1       9.412   9.173  24.511  1.00  0.00     0.027 C 
HETATM    4  C14 UNL     1      10.528  10.048  24.097  1.00  0.00     0.004 C 
HETATM    5  C15 UNL     1      11.864   9.786  24.712  1.00  0.00     0.020 C 
HETATM    6  C16 UNL     1      12.226   8.338  24.834  1.00  0.00     0.126 C 
HETATM    7  N2  UNL     1      11.468   7.518  23.865  1.00  0.00    -0.349 N 
HETATM    8  C17 UNL     1      12.184   7.433  22.658  1.00  0.00     0.184 C 
HETATM    9  N3  UNL     1      11.769   7.813  21.498  1.00  0.00    -0.374 N 
ATOM     10  H31 UNL     1      12.288   7.752  20.622  1.00  0.00     0.158 HD
ATOM     11  H32 UNL     1      10.828   8.205  21.470  1.00  0.00     0.158 HD
HETATM   12  N4  UNL     1      13.487   6.890  22.697  1.00  0.00    -0.064 NA
ENDROOT
BRANCH   1  13
HETATM   13  C5  UNL     1       9.912   5.553  23.728  1.00  0.00     0.036 C 
HETATM   14  C4  UNL     1       8.976   4.871  24.744  1.00  0.00     0.010 C 
HETATM   15  C3  UNL     1       8.339   3.650  24.108  1.00  0.00     0.033 C 
HETATM   16  C2  UNL     1       9.478   2.704  23.778  1.00  0.00     0.181 C 
HETATM   17  C1  UNL     1       9.010   1.442  23.141  1.00  0.00     0.040 C 
HETATM   18  N5  UNL     1      10.363   3.377  22.870  1.00  0.00    -0.071 N 
HETATM   19  C18 UNL     1      10.979   4.565  23.474  1.00  0.00     0.239 C 
ATOM     20  H52 UNL     1      11.071   2.739  22.504  1.00  0.00     0.277 HD
ATOM     21  H51 UNL     1       9.890   3.610  21.997  1.00  0.00     0.277 HD
ENDBRANCH   1  13
BRANCH   2  22
HETATM   22  N1  UNL     1       7.823   7.538  23.819  1.00  0.00    -0.354 N 
HETATM   23  C8  UNL     1       6.952   7.058  22.812  1.00  0.00     0.222 C 
HETATM   24  O1  UNL     1       7.390   6.994  21.642  1.00  0.00    -0.273 OA
ATOM     25  H1  UNL     1       7.461   7.589  24.771  1.00  0.00     0.162 HD
BRANCH  23  26
HETATM   26  C9  UNL     1       5.558   6.627  23.043  1.00  0.00     0.082 A 
HETATM   27  C10 UNL     1       4.540   7.761  23.379  1.00  0.00     0.019 A 
HETATM   28  C11 UNL     1       4.977   6.784  24.386  1.00  0.00    -0.005 A 
HETATM   29  C12 UNL     1       3.937   5.842  24.929  1.00  0.00     0.011 C 
ENDBRANCH  23  26
ENDBRANCH   2  22
TORSDOF 3
ENDMDL
MODEL 2
REMARK VINA RESULT: -6.387496879      2.854      5.713
REMARK  3 active torsions:
REMARK  status: ('A' for Active; 'I' for Inactive)
REMARK    1  A    between atoms: C5_5  and  C6_6 
REMARK    2  A    between atoms: C7_7  and  N1_8 
REMARK       I    between atoms: N1_8  and  C8_10 
REMARK    3  A    between atoms: C8_10  and  C9_12 
REMARK       I    between atoms: N2_20  and  C17_21 
ROOT
HETATM    1  C6  UNL     1       6.913   5.258  24.505  1.00  0.00     0.115 C 
HETATM    2  C7  UNL     1       7.317   4.938  25.957  1.00  0.00     0.107 C 
HETATM    3  C13 UNL     1       7.785   3.473  25.886  1.00  0.00     0.027 C 
HETATM    4  C14 UNL     1       9.179   3.289  25.432  1.00  0.00     0.004 C 
HETATM    5  C15 UNL     1       9.394   3.045  23.973  1.00  0.00     0.020 C 
HETATM    6  C16 UNL     1       8.553   3.888  23.065  1.00  0.00     0.126 C 
HETATM    7  N2  UNL     1       8.104   5.120  23.749  1.00  0.00    -0.349 N 
HETATM    8  C17 UNL     1       9.054   6.139  23.557  1.00  0.00     0.184 C 
HETATM    9  N3  UNL     1       9.691   6.771  24.482  1.00  0.00    -0.374 N 
ATOM     10  H31 UNL     1      10.380   7.510  24.343  1.00  0.00     0.158 HD
ATOM     11  H32 UNL     1       9.468   6.499  25.440  1.00  0.00     0.158 HD
HETATM   12  N4  UNL     1       9.363   6.515  22.231  1.00  0.00    -0.064 NA
ENDROOT
BRANCH   1  13
HETATM   13  C5  UNL     1       6.033   6.400  24.361  1.00  0.00     0.036 C 
HETATM   14  C4  UNL     1       4.549   5.992  24.428  1.00  0.00     0.010 C 
HETATM   15  C3  UNL     1       3.701   7.211  24.738  1.00  0.00     0.033 C 
HETATM   16  C2  UNL     1       3.895   8.166  23.575  1.00  0.00     0.181 C 
HETATM   17  C1  UNL     1       3.117   9.426  23.731  1.00  0.00     0.040 C 
HETATM   18  N5  UNL     1       5.291   8.493  23.499  1.00  0.00    -0.071 N 
HETATM   19  C18 UNL     1       6.121   7.318  23.208  1.00  0.00     0.239 C 
ATOM     20  H52 UNL     1       5.458   9.240  22.825  1.00  0.00     0.277 HD
ATOM     21  H51 UNL     1       5.606   8.967  24.346  1.00  0.00     0.277 HD
ENDBRANCH   1  13
BRANCH   2  22
HETATM   22  N1  UNL     1       6.205   4.969  26.858  1.00  0.00    -0.354 N 
HETATM   23  C8  UNL     1       6.065   5.876  27.934  1.00  0.00     0.222 C 
HETATM   24  O1  UNL     1       6.977   6.713  28.118  1.00  0.00    -0.273 OA
ATOM     25  H1  UNL     1       5.460   4.288  26.713  1.00  0.00     0.162 HD
BRANCH  23  26
HETATM   26  C9  UNL     1       4.916   5.906  28.862  1.00  0.00     0.082 A 
HETATM   27  C10 UNL     1       3.524   5.580  28.236  1.00  0.00     0.019 A 
HETATM   28  C11 UNL     1       3.880   6.936  28.681  1.00  0.00    -0.005 A 
HETATM   29  C12 UNL     1       3.101   7.508  29.835  1.00  0.00     0.011 C 
ENDBRANCH  23  26
ENDBRANCH   2  22
TORSDOF 3
ENDMDL
MODEL 3
REMARK VINA RESULT: -6.247190760      5.188      9.361
REMARK  3 active torsions:
REMARK  status: ('A' for Active; 'I' for Inactive)
REMARK    1  A    between atoms: C5_5  and  C6_6 
REMARK    2  A    between atoms: C7_7  and  N1_8 
REMARK       I    between atoms: N1_8  and  C8_10 
REMARK    3  A    between atoms: C8_10  and  C9_12 
REMARK       I    between atoms: N2_20  and  C17_21 
ROOT
HETATM    1  C6  UNL     1      13.410  10.526  22.768  1.00  0.00     0.115 C 
HETATM    2  C7  UNL     1      14.333  10.185  23.954  1.00  0.00     0.107 C 
HETATM    3  C13 UNL     1      13.352   9.787  25.072  1.00  0.00     0.027 C 
HETATM    4  C14 UNL     1      12.874   8.390  25.009  1.00  0.00     0.004 C 
HETATM    5  C15 UNL     1      11.587   8.141  24.292  1.00  0.00     0.020 C 
HETATM    6  C16 UNL     1      11.419   8.910  23.018  1.00  0.00     0.126 C 
HETATM    7  N2  UNL     1      12.729   9.320  22.469  1.00  0.00    -0.349 N 
HETATM    8  C17 UNL     1      13.217   8.315  21.614  1.00  0.00     0.184 C 
HETATM    9  N3  UNL     1      14.330   7.678  21.744  1.00  0.00    -0.374 N 
ATOM     10  H31 UNL     1      14.683   6.949  21.124  1.00  0.00     0.158 HD
ATOM     11  H32 UNL     1      14.903   7.945  22.545  1.00  0.00     0.158 HD
HETATM   12  N4  UNL     1      12.423   7.946  20.505  1.00  0.00    -0.064 NA
ENDROOT
BRANCH   1  13
HETATM   13  C5  UNL     1      14.024  11.344  21.742  1.00  0.00     0.036 C 
HETATM   14  C4  UNL     1      13.011  11.758  20.657  1.00  0.00     0.010 C 
HETATM   15  C3  UNL     1      13.549  12.951  19.889  1.00  0.00     0.033 C 
HETATM   16  C2  UNL     1      14.823  12.478  19.216  1.00  0.00     0.181 C 
HETATM   17  C1  UNL     1      15.479  13.547  18.412  1.00  0.00     0.040 C 
HETATM   18  N5  UNL     1      15.734  12.050  20.240  1.00  0.00    -0.071 N 
HETATM   19  C18 UNL     1      15.218  10.900  20.995  1.00  0.00     0.239 C 
ATOM     20  H52 UNL     1      16.658  11.854  19.855  1.00  0.00     0.277 HD
ATOM     21  H51 UNL     1      15.979  12.820  20.862  1.00  0.00     0.277 HD
ENDBRANCH   1  13
BRANCH   2  22
HETATM   22  N1  UNL     1      15.059  11.321  24.433  1.00  0.00    -0.354 N 
HETATM   23  C8  UNL     1      16.469  11.434  24.440  1.00  0.00     0.222 C 
HETATM   24  O1  UNL     1      17.135  10.471  23.998  1.00  0.00    -0.273 OA
ATOM     25  H1  UNL     1      14.520  12.108  24.795  1.00  0.00     0.162 HD
BRANCH  23  26
HETATM   26  C9  UNL     1      17.215  12.609  24.934  1.00  0.00     0.082 A 
HETATM   27  C10 UNL     1      17.263  13.841  23.977  1.00  0.00     0.019 A 
HETATM   28  C11 UNL     1      18.449  13.014  24.241  1.00  0.00    -0.005 A 
HETATM   29  C12 UNL     1      19.599  13.669  24.958  1.00  0.00     0.011 C 
ENDBRANCH  23  26
ENDBRANCH   2  22
TORSDOF 3
ENDMDL
MODEL 4
REMARK VINA RESULT: -6.240831881      1.985      5.086
REMARK  3 active torsions:
REMARK  status: ('A' for Active; 'I' for Inactive)
REMARK    1  A    between atoms: C5_5  and  C6_6 
REMARK    2  A    between atoms: C7_7  and  N1_8 
REMARK       I    between atoms: N1_8  and  C8_10 
REMARK    3  A    between atoms: C8_10  and  C9_12 
REMARK       I    between atoms: N2_20  and  C17_21 
ROOT
HETATM    1  C6  UNL     1       9.214   7.713  24.841  1.00  0.00     0.115 C 
HETATM    2  C7  UNL     1       8.263   6.518  24.640  1.00  0.00     0.107 C 
HETATM    3  C13 UNL     1       7.244   6.671  25.784  1.00  0.00     0.027 C 
HETATM    4  C14 UNL     1       6.147   7.622  25.512  1.00  0.00     0.004 C 
HETATM    5  C15 UNL     1       6.333   9.030  25.979  1.00  0.00     0.020 C 
HETATM    6  C16 UNL     1       7.704   9.588  25.759  1.00  0.00     0.126 C 
HETATM    7  N2  UNL     1       8.405   8.864  24.677  1.00  0.00    -0.349 N 
HETATM    8  C17 UNL     1       8.127   9.479  23.442  1.00  0.00     0.184 C 
HETATM    9  N3  UNL     1       7.576   8.919  22.420  1.00  0.00    -0.374 N 
ATOM     10  H31 UNL     1       7.375   9.365  21.524  1.00  0.00     0.158 HD
ATOM     11  H32 UNL     1       7.330   7.935  22.531  1.00  0.00     0.158 HD
HETATM   12  N4  UNL     1       8.468  10.841  23.288  1.00  0.00    -0.064 NA
ENDROOT
BRANCH   1  13
HETATM   13  C5  UNL     1      10.503   7.574  24.195  1.00  0.00     0.036 C 
HETATM   14  C4  UNL     1      11.490   8.670  24.642  1.00  0.00     0.010 C 
HETATM   15  C3  UNL     1      12.909   8.236  24.326  1.00  0.00     0.033 C 
HETATM   16  C2  UNL     1      12.980   8.098  22.817  1.00  0.00     0.181 C 
HETATM   17  C1  UNL     1      14.327   7.674  22.341  1.00  0.00     0.040 C 
HETATM   18  N5  UNL     1      12.019   7.110  22.416  1.00  0.00    -0.071 N 
HETATM   19  C18 UNL     1      10.643   7.518  22.726  1.00  0.00     0.239 C 
ATOM     20  H52 UNL     1      12.121   6.875  21.428  1.00  0.00     0.277 HD
ATOM     21  H51 UNL     1      12.234   6.199  22.821  1.00  0.00     0.277 HD
ENDBRANCH   1  13
BRANCH   2  22
HETATM   22  N1  UNL     1       8.912   5.258  24.837  1.00  0.00    -0.354 N 
HETATM   23  C8  UNL     1       8.286   3.997  24.694  1.00  0.00     0.222 C 
HETATM   24  O1  UNL     1       7.077   3.976  24.375  1.00  0.00    -0.273 OA
ATOM     25  H1  UNL     1       9.898   5.269  25.099  1.00  0.00     0.162 HD
BRANCH  23  26
HETATM   26  C9  UNL     1       8.960   2.698  24.898  1.00  0.00     0.082 A 
HETATM   27  C10 UNL     1       9.699   2.110  23.656  1.00  0.00     0.019 A 
HETATM   28  C11 UNL     1       8.460   1.515  24.178  1.00  0.00    -0.005 A 
HETATM   29  C12 UNL     1       8.551   0.126  24.749  1.00  0.00     0.011 C 
ENDBRANCH  23  26
ENDBRANCH   2  22
TORSDOF 3
ENDMDL
MODEL 5
REMARK VINA RESULT: -6.237677807      6.834      9.864
REMARK  3 active torsions:
REMARK  status: ('A' for Active; 'I' for Inactive)
REMARK    1  A    between atoms: C5_5  and  C6_6 
REMARK    2  A    between atoms: C7_7  and  N1_8 
REMARK       I    between atoms: N1_8  and  C8_10 
REMARK    3  A    between atoms: C8_10  and  C9_12 
REMARK       I    between atoms: N2_20  and  C17_21 
ROOT
HETATM    1  C6  UNL     1      15.736  12.824  23.244  1.00  0.00     0.115 C 
HETATM    2  C7  UNL     1      16.623  13.645  22.288  1.00  0.00     0.107 C 
HETATM    3  C13 UNL     1      16.827  14.975  23.037  1.00  0.00     0.027 C 
HETATM    4  C14 UNL     1      17.897  14.955  24.055  1.00  0.00     0.004 C 
HETATM    5  C15 UNL     1      17.496  14.646  25.461  1.00  0.00     0.020 C 
HETATM    6  C16 UNL     1      16.491  13.545  25.599  1.00  0.00     0.126 C 
HETATM    7  N2  UNL     1      16.512  12.656  24.418  1.00  0.00    -0.349 N 
HETATM    8  C17 UNL     1      17.441  11.620  24.623  1.00  0.00     0.184 C 
HETATM    9  N3  UNL     1      18.464  11.358  23.885  1.00  0.00    -0.374 N 
ATOM     10  H31 UNL     1      19.139  10.607  24.034  1.00  0.00     0.158 HD
ATOM     11  H32 UNL     1      18.595  11.965  23.075  1.00  0.00     0.158 HD
HETATM   12  N4  UNL     1      17.260  10.780  25.744  1.00  0.00    -0.064 NA
ENDROOT
BRANCH   1  13
HETATM   13  C5  UNL     1      15.031  11.724  22.618  1.00  0.00     0.036 C 
HETATM   14  C4  UNL     1      14.062  11.033  23.596  1.00  0.00     0.010 C 
HETATM   15  C3  UNL     1      13.039  10.230  22.816  1.00  0.00     0.033 C 
HETATM   16  C2  UNL     1      13.820   9.167  22.067  1.00  0.00     0.181 C 
HETATM   17  C1  UNL     1      12.947   8.285  21.244  1.00  0.00     0.040 C 
HETATM   18  N5  UNL     1      14.751   9.831  21.198  1.00  0.00    -0.071 N 
HETATM   19  C18 UNL     1      15.741  10.618  21.945  1.00  0.00     0.239 C 
ATOM     20  H52 UNL     1      15.205   9.169  20.568  1.00  0.00     0.277 HD
ATOM     21  H51 UNL     1      14.268  10.405  20.508  1.00  0.00     0.277 HD
ENDBRANCH   1  13
BRANCH   2  22
HETATM   22  N1  UNL     1      15.962  13.964  21.060  1.00  0.00    -0.354 N 
HETATM   23  C8  UNL     1      16.620  14.299  19.853  1.00  0.00     0.222 C 
HETATM   24  O1  UNL     1      17.871  14.320  19.854  1.00  0.00    -0.273 OA
ATOM     25  H1  UNL     1      14.942  13.950  21.054  1.00  0.00     0.162 HD
BRANCH  23  26
HETATM   26  C9  UNL     1      15.933  14.628  18.586  1.00  0.00     0.082 A 
HETATM   27  C10 UNL     1      15.351  16.071  18.480  1.00  0.00     0.019 A 
HETATM   28  C11 UNL     1      14.485  14.889  18.608  1.00  0.00    -0.005 A 
HETATM   29  C12 UNL     1      13.590  14.563  17.443  1.00  0.00     0.011 C 
ENDBRANCH  23  26
ENDBRANCH   2  22
TORSDOF 3
ENDMDL
