MODEL 1
REMARK VINA RESULT: -8.169128898      0.000      0.000
REMARK  21 active torsions:
REMARK  status: ('A' for Active; 'I' for Inactive)
REMARK    1  A    between atoms: N1_2  and  C4_5 
REMARK    2  A    between atoms: C4_5  and  C5_6 
REMARK    3  A    between atoms: C5_6  and  C6_7 
REMARK    4  A    between atoms: C6_7  and  C7_8 
REMARK    5  A    between atoms: C7_8  and  C8_9 
REMARK    6  A    between atoms: C8_9  and  C9_10 
REMARK    7  A    between atoms: C12_13  and  C13_14 
REMARK    8  A    between atoms: C13_14  and  C14_15 
REMARK    9  A    between atoms: C16_20  and  C17_21 
REMARK   10  A    between atoms: C17_21  and  C18_22 
REMARK   11  A    between atoms: C18_22  and  O2_23 
REMARK   12  A    between atoms: C18_22  and  N3_25 
REMARK   13  A    between atoms: N3_25  and  C19_27 
REMARK   14  A    between atoms: C19_27  and  C20_28 
REMARK   15  A    between atoms: C20_28  and  C21_29 
REMARK   16  A    between atoms: C21_29  and  C22_30 
REMARK   17  A    between atoms: C22_30  and  C23_31 
REMARK       I    between atoms: C23_31  and  N4_33 
REMARK   18  A    between atoms: N4_33  and  C24_35 
REMARK   19  A    between atoms: C24_35  and  C25_36 
REMARK   20  A    between atoms: C25_36  and  N5_37 
REMARK       I    between atoms: N5_37  and  C26_39 
REMARK   21  A    between atoms: N8_45  and  N9_47 
ROOT
HETATM    1  C14 UNL     1      -9.879  16.349  26.904  1.00  0.00     0.159 C 
HETATM    2  N2  UNL     1      -8.467  16.498  27.227  1.00  0.00    -0.347 N 
ATOM      3  H2  UNL     1      -7.772  16.133  26.576  1.00  0.00     0.163 HD
HETATM    4  C15 UNL     1      -8.024  17.131  28.415  1.00  0.00     0.241 C 
HETATM    5  O1  UNL     1      -6.934  17.739  28.423  1.00  0.00    -0.271 OA
HETATM    6  C16 UNL     1      -8.898  17.038  29.611  1.00  0.00     0.179 C 
HETATM    7  N7  UNL     1     -10.223  17.483  29.154  1.00  0.00    -0.363 N 
ATOM      8  H7  UNL     1     -10.735  18.229  29.624  1.00  0.00     0.161 HD
HETATM    9  C27 UNL     1     -10.756  16.798  27.995  1.00  0.00     0.117 C 
HETATM   10  N8  UNL     1     -12.015  16.574  27.938  1.00  0.00    -0.273 N 
ATOM     11  H8  UNL     1     -12.589  16.902  28.715  1.00  0.00     0.190 HD
ENDROOT
BRANCH   6  12
HETATM   12  C17 UNL     1      -8.992  15.599  30.032  1.00  0.00     0.088 C 
BRANCH  12  13
HETATM   13  C18 UNL     1      -9.812  15.342  31.254  1.00  0.00     0.215 C 
BRANCH  13  14
HETATM   14  O2  UNL     1     -11.169  15.564  30.934  1.00  0.00    -0.377 OA
ATOM     15  H2  UNL     1     -11.409  14.979  30.225  1.00  0.00     0.212 HD
ENDBRANCH  13  14
BRANCH  13  16
HETATM   16  N3  UNL     1      -9.484  16.367  32.223  1.00  0.00    -0.397 N 
ATOM     17  H3  UNL     1      -9.957  17.270  32.245  1.00  0.00     0.155 HD
BRANCH  16  18
HETATM   18  C19 UNL     1      -8.447  16.019  33.149  1.00  0.00     0.116 C 
BRANCH  18  19
HETATM   19  C20 UNL     1      -8.979  14.884  34.018  1.00  0.00     0.020 C 
BRANCH  19  20
HETATM   20  C21 UNL     1      -9.981  15.337  35.039  1.00  0.00     0.011 C 
BRANCH  20  21
HETATM   21  C22 UNL     1     -11.062  14.299  35.123  1.00  0.00     0.103 C 
BRANCH  21  22
HETATM   22  C23 UNL     1     -12.114  14.583  34.070  1.00  0.00     0.217 C 
HETATM   23  O3  UNL     1     -12.237  15.800  33.812  1.00  0.00    -0.274 OA
HETATM   24  N4  UNL     1     -12.778  13.495  33.551  1.00  0.00    -0.360 N 
ATOM     25  H4  UNL     1     -12.486  12.595  33.935  1.00  0.00     0.162 HD
BRANCH  24  26
HETATM   26  C24 UNL     1     -13.799  13.417  32.573  1.00  0.00     0.142 C 
BRANCH  26  27
HETATM   27  C25 UNL     1     -13.639  12.422  31.489  1.00  0.00     0.143 C 
BRANCH  27  28
HETATM   28  N5  UNL     1     -12.572  12.648  30.577  1.00  0.00    -0.344 N 
HETATM   29  C26 UNL     1     -12.791  13.271  29.292  1.00  0.00     0.328 C 
HETATM   30  N6  UNL     1     -11.737  13.498  28.369  1.00  0.00    -0.040 NA
HETATM   31  O4  UNL     1     -13.948  13.616  28.994  1.00  0.00    -0.251 OA
ATOM     32  H5  UNL     1     -11.627  12.364  30.836  1.00  0.00     0.163 HD
ENDBRANCH  27  28
ENDBRANCH  26  27
ENDBRANCH  24  26
ENDBRANCH  21  22
ENDBRANCH  20  21
ENDBRANCH  19  20
ENDBRANCH  18  19
ENDBRANCH  16  18
ENDBRANCH  13  16
ENDBRANCH  12  13
ENDBRANCH   6  12
BRANCH   1  33
HETATM   33  C13 UNL     1     -10.115  17.189  25.678  1.00  0.00     0.098 C 
BRANCH  33  34
HETATM   34  C12 UNL     1      -9.730  16.398  24.485  1.00  0.00     0.055 A 
HETATM   35  C11 UNL     1      -9.498  15.041  24.467  1.00  0.00     0.035 A 
HETATM   36  C10 UNL     1      -9.172  14.739  23.165  1.00  0.00     0.035 A 
HETATM   37  C9  UNL     1      -9.220  15.926  22.450  1.00  0.00     0.053 A 
HETATM   38  O5  UNL     1      -9.556  16.871  23.282  1.00  0.00    -0.319 OA
BRANCH  37  39
HETATM   39  C8  UNL     1      -8.936  16.078  20.993  1.00  0.00     0.065 C 
BRANCH  39  40
HETATM   40  C7  UNL     1      -7.480  16.487  20.774  1.00  0.00     0.006 C 
BRANCH  40  41
HETATM   41  C6  UNL     1      -7.364  17.994  20.682  1.00  0.00     0.002 C 
BRANCH  41  42
HETATM   42  C5  UNL     1      -6.896  18.600  21.980  1.00  0.00     0.028 C 
BRANCH  42  43
HETATM   43  C4  UNL     1      -5.522  18.128  22.369  1.00  0.00     0.236 C 
BRANCH  43  44
HETATM   44  N1  UNL     1      -5.222  18.326  23.755  1.00  0.00    -0.079 N 
HETATM   45  C1  UNL     1      -5.068  19.735  24.096  1.00  0.00     0.271 C 
HETATM   46  C2  UNL     1      -6.237  17.793  24.639  1.00  0.00     0.271 C 
HETATM   47  C3  UNL     1      -3.978  17.674  24.135  1.00  0.00     0.271 C 
ENDBRANCH  43  44
ENDBRANCH  42  43
ENDBRANCH  41  42
ENDBRANCH  40  41
ENDBRANCH  39  40
ENDBRANCH  37  39
ENDBRANCH  33  34
ENDBRANCH   1  33
BRANCH  10  48
HETATM   48  N9  UNL     1     -12.654  15.921  26.905  1.00  0.00    -0.248 N 
HETATM   49  N10 UNL     1     -13.903  15.719  26.903  1.00  0.00    -0.331 N 
ATOM     50 2H10 UNL     1     -14.441  16.057  27.701  1.00  0.00     0.178 HD
ATOM     51 1H10 UNL     1     -14.375  15.236  26.139  1.00  0.00     0.178 HD
ATOM     52  H9  UNL     1     -12.100  15.589  26.115  1.00  0.00     0.207 HD
ENDBRANCH  10  48
TORSDOF 21
ENDMDL
MODEL 2
REMARK VINA RESULT: -8.067023953      2.223      9.443
REMARK  21 active torsions:
REMARK  status: ('A' for Active; 'I' for Inactive)
REMARK    1  A    between atoms: N1_2  and  C4_5 
REMARK    2  A    between atoms: C4_5  and  C5_6 
REMARK    3  A    between atoms: C5_6  and  C6_7 
REMARK    4  A    between atoms: C6_7  and  C7_8 
REMARK    5  A    between atoms: C7_8  and  C8_9 
REMARK    6  A    between atoms: C8_9  and  C9_10 
REMARK    7  A    between atoms: C12_13  and  C13_14 
REMARK    8  A    between atoms: C13_14  and  C14_15 
REMARK    9  A    between atoms: C16_20  and  C17_21 
REMARK   10  A    between atoms: C17_21  and  C18_22 
REMARK   11  A    between atoms: C18_22  and  O2_23 
REMARK   12  A    between atoms: C18_22  and  N3_25 
REMARK   13  A    between atoms: N3_25  and  C19_27 
REMARK   14  A    between atoms: C19_27  and  C20_28 
REMARK   15  A    between atoms: C20_28  and  C21_29 
REMARK   16  A    between atoms: C21_29  and  C22_30 
REMARK   17  A    between atoms: C22_30  and  C23_31 
REMARK       I    between atoms: C23_31  and  N4_33 
REMARK   18  A    between atoms: N4_33  and  C24_35 
REMARK   19  A    between atoms: C24_35  and  C25_36 
REMARK   20  A    between atoms: C25_36  and  N5_37 
REMARK       I    between atoms: N5_37  and  C26_39 
REMARK   21  A    between atoms: N8_45  and  N9_47 
ROOT
HETATM    1  C14 UNL     1     -10.063  16.048  26.918  1.00  0.00     0.159 C 
HETATM    2  N2  UNL     1      -9.183  15.285  26.045  1.00  0.00    -0.347 N 
ATOM      3  H2  UNL     1      -9.139  14.272  26.155  1.00  0.00     0.163 HD
HETATM    4  C15 UNL     1      -8.385  15.900  25.048  1.00  0.00     0.241 C 
HETATM    5  O1  UNL     1      -8.109  15.275  24.003  1.00  0.00    -0.271 OA
HETATM    6  C16 UNL     1      -7.912  17.283  25.304  1.00  0.00     0.179 C 
HETATM    7  N7  UNL     1      -9.120  18.043  25.657  1.00  0.00    -0.363 N 
ATOM      8  H7  UNL     1      -9.380  18.902  25.171  1.00  0.00     0.161 HD
HETATM    9  C27 UNL     1      -9.918  17.499  26.735  1.00  0.00     0.117 C 
HETATM   10  N8  UNL     1     -10.493  18.308  27.544  1.00  0.00    -0.273 N 
ATOM     11  H8  UNL     1     -10.368  19.307  27.382  1.00  0.00     0.190 HD
ENDROOT
BRANCH   6  12
HETATM   12  C17 UNL     1      -6.989  17.269  26.488  1.00  0.00     0.088 C 
BRANCH  12  13
HETATM   13  C18 UNL     1      -6.358  18.580  26.824  1.00  0.00     0.215 C 
BRANCH  13  14
HETATM   14  O2  UNL     1      -7.353  19.432  27.349  1.00  0.00    -0.377 OA
ATOM     15  H2  UNL     1      -7.003  19.865  28.118  1.00  0.00     0.212 HD
ENDBRANCH  13  14
BRANCH  13  16
HETATM   16  N3  UNL     1      -5.953  19.201  25.580  1.00  0.00    -0.397 N 
ATOM     17  H3  UNL     1      -6.581  19.284  24.780  1.00  0.00     0.155 HD
BRANCH  16  18
HETATM   18  C19 UNL     1      -4.606  19.689  25.553  1.00  0.00     0.116 C 
BRANCH  18  19
HETATM   19  C20 UNL     1      -3.687  18.494  25.790  1.00  0.00     0.020 C 
BRANCH  19  20
HETATM   20  C21 UNL     1      -3.818  17.427  24.744  1.00  0.00     0.011 C 
BRANCH  20  21
HETATM   21  C22 UNL     1      -3.025  17.852  23.543  1.00  0.00     0.103 C 
BRANCH  21  22
HETATM   22  C23 UNL     1      -3.971  18.174  22.404  1.00  0.00     0.217 C 
HETATM   23  O3  UNL     1      -3.418  18.778  21.460  1.00  0.00    -0.274 OA
HETATM   24  N4  UNL     1      -5.279  17.772  22.556  1.00  0.00    -0.360 N 
ATOM     25  H4  UNL     1      -5.477  17.289  23.432  1.00  0.00     0.162 HD
BRANCH  24  26
HETATM   26  C24 UNL     1      -6.394  17.918  21.695  1.00  0.00     0.142 C 
BRANCH  26  27
HETATM   27  C25 UNL     1      -6.645  16.845  20.707  1.00  0.00     0.143 C 
BRANCH  27  28
HETATM   28  N5  UNL     1      -7.845  16.100  20.875  1.00  0.00    -0.344 N 
HETATM   29  C26 UNL     1      -9.145  16.707  20.704  1.00  0.00     0.328 C 
HETATM   30  N6  UNL     1     -10.351  15.978  20.875  1.00  0.00    -0.040 NA
HETATM   31  O4  UNL     1      -9.198  17.911  20.399  1.00  0.00    -0.251 OA
ATOM     32  H5  UNL     1      -7.786  15.112  21.122  1.00  0.00     0.163 HD
ENDBRANCH  27  28
ENDBRANCH  26  27
ENDBRANCH  24  26
ENDBRANCH  21  22
ENDBRANCH  20  21
ENDBRANCH  19  20
ENDBRANCH  18  19
ENDBRANCH  16  18
ENDBRANCH  13  16
ENDBRANCH  12  13
ENDBRANCH   6  12
BRANCH   1  33
HETATM   33  C13 UNL     1     -11.465  15.624  26.568  1.00  0.00     0.098 C 
BRANCH  33  34
HETATM   34  C12 UNL     1     -11.993  14.788  27.672  1.00  0.00     0.055 A 
HETATM   35  C11 UNL     1     -11.740  13.446  27.849  1.00  0.00     0.035 A 
HETATM   36  C10 UNL     1     -12.426  13.088  28.987  1.00  0.00     0.035 A 
HETATM   37  C9  UNL     1     -13.066  14.228  29.449  1.00  0.00     0.053 A 
HETATM   38  O5  UNL     1     -12.773  15.201  28.633  1.00  0.00    -0.319 OA
BRANCH  37  39
HETATM   39  C8  UNL     1     -13.929  14.311  30.663  1.00  0.00     0.065 C 
BRANCH  39  40
HETATM   40  C7  UNL     1     -13.143  13.894  31.905  1.00  0.00     0.006 C 
BRANCH  40  41
HETATM   41  C6  UNL     1     -13.281  14.941  32.991  1.00  0.00     0.002 C 
BRANCH  41  42
HETATM   42  C5  UNL     1     -11.981  15.167  33.719  1.00  0.00     0.028 C 
BRANCH  42  43
HETATM   43  C4  UNL     1     -10.897  15.677  32.810  1.00  0.00     0.236 C 
BRANCH  43  44
HETATM   44  N1  UNL     1      -9.662  15.938  33.485  1.00  0.00    -0.079 N 
HETATM   45  C1  UNL     1      -8.980  14.715  33.891  1.00  0.00     0.271 C 
HETATM   46  C2  UNL     1      -8.722  16.691  32.682  1.00  0.00     0.271 C 
HETATM   47  C3  UNL     1      -9.866  16.716  34.698  1.00  0.00     0.271 C 
ENDBRANCH  43  44
ENDBRANCH  42  43
ENDBRANCH  41  42
ENDBRANCH  40  41
ENDBRANCH  39  40
ENDBRANCH  37  39
ENDBRANCH  33  34
ENDBRANCH   1  33
BRANCH  10  48
HETATM   48  N9  UNL     1     -11.268  17.928  28.620  1.00  0.00    -0.248 N 
HETATM   49  N10 UNL     1     -10.762  17.591  29.731  1.00  0.00    -0.331 N 
ATOM     50 2H10 UNL     1      -9.746  17.607  29.816  1.00  0.00     0.178 HD
ATOM     51 1H10 UNL     1     -11.335  17.311  30.526  1.00  0.00     0.178 HD
ATOM     52  H9  UNL     1     -12.282  17.919  28.518  1.00  0.00     0.207 HD
ENDBRANCH  10  48
TORSDOF 21
ENDMDL
MODEL 3
REMARK VINA RESULT: -8.031134691      1.925     10.424
REMARK  21 active torsions:
REMARK  status: ('A' for Active; 'I' for Inactive)
REMARK    1  A    between atoms: N1_2  and  C4_5 
REMARK    2  A    between atoms: C4_5  and  C5_6 
REMARK    3  A    between atoms: C5_6  and  C6_7 
REMARK    4  A    between atoms: C6_7  and  C7_8 
REMARK    5  A    between atoms: C7_8  and  C8_9 
REMARK    6  A    between atoms: C8_9  and  C9_10 
REMARK    7  A    between atoms: C12_13  and  C13_14 
REMARK    8  A    between atoms: C13_14  and  C14_15 
REMARK    9  A    between atoms: C16_20  and  C17_21 
REMARK   10  A    between atoms: C17_21  and  C18_22 
REMARK   11  A    between atoms: C18_22  and  O2_23 
REMARK   12  A    between atoms: C18_22  and  N3_25 
REMARK   13  A    between atoms: N3_25  and  C19_27 
REMARK   14  A    between atoms: C19_27  and  C20_28 
REMARK   15  A    between atoms: C20_28  and  C21_29 
REMARK   16  A    between atoms: C21_29  and  C22_30 
REMARK   17  A    between atoms: C22_30  and  C23_31 
REMARK       I    between atoms: C23_31  and  N4_33 
REMARK   18  A    between atoms: N4_33  and  C24_35 
REMARK   19  A    between atoms: C24_35  and  C25_36 
REMARK   20  A    between atoms: C25_36  and  N5_37 
REMARK       I    between atoms: N5_37  and  C26_39 
REMARK   21  A    between atoms: N8_45  and  N9_47 
ROOT
HETATM    1  C14 UNL     1      -9.352  16.610  28.388  1.00  0.00     0.159 C 
HETATM    2  N2  UNL     1      -9.917  15.271  28.307  1.00  0.00    -0.347 N 
ATOM      3  H2  UNL     1      -9.781  14.631  29.090  1.00  0.00     0.163 HD
HETATM    4  C15 UNL     1     -10.651  14.825  27.180  1.00  0.00     0.241 C 
HETATM    5  O1  UNL     1     -11.559  13.981  27.326  1.00  0.00    -0.271 OA
HETATM    6  C16 UNL     1     -10.295  15.398  25.857  1.00  0.00     0.179 C 
HETATM    7  N7  UNL     1     -10.322  16.855  26.051  1.00  0.00    -0.363 N 
ATOM      8  H7  UNL     1     -10.878  17.470  25.456  1.00  0.00     0.161 HD
HETATM    9  C27 UNL     1      -9.513  17.365  27.137  1.00  0.00     0.117 C 
HETATM   10  N8  UNL     1      -8.920  18.491  26.987  1.00  0.00    -0.273 N 
ATOM     11  H8  UNL     1      -9.058  18.983  26.105  1.00  0.00     0.190 HD
ENDROOT
BRANCH   6  12
HETATM   12  C17 UNL     1      -8.893  14.985  25.511  1.00  0.00     0.088 C 
BRANCH  12  13
HETATM   13  C18 UNL     1      -8.393  15.464  24.188  1.00  0.00     0.215 C 
BRANCH  13  14
HETATM   14  O2  UNL     1      -8.002  16.814  24.321  1.00  0.00    -0.377 OA
ATOM     15  H2  UNL     1      -7.264  16.970  23.745  1.00  0.00     0.212 HD
ENDBRANCH  13  14
BRANCH  13  16
HETATM   16  N3  UNL     1      -9.520  15.490  23.279  1.00  0.00    -0.397 N 
ATOM     17  H3  UNL     1     -10.416  15.908  23.530  1.00  0.00     0.155 HD
BRANCH  16  18
HETATM   18  C19 UNL     1      -9.286  14.886  22.001  1.00  0.00     0.116 C 
BRANCH  18  19
HETATM   19  C20 UNL     1      -9.858  15.826  20.944  1.00  0.00     0.020 C 
BRANCH  19  20
HETATM   20  C21 UNL     1      -9.079  17.099  20.797  1.00  0.00     0.011 C 
BRANCH  20  21
HETATM   21  C22 UNL     1      -7.635  16.741  20.597  1.00  0.00     0.103 C 
BRANCH  21  22
HETATM   22  C23 UNL     1      -6.764  17.745  21.325  1.00  0.00     0.217 C 
HETATM   23  O3  UNL     1      -7.405  18.718  21.776  1.00  0.00    -0.274 OA
HETATM   24  N4  UNL     1      -5.418  17.461  21.391  1.00  0.00    -0.360 N 
ATOM     25  H4  UNL     1      -5.144  16.589  20.938  1.00  0.00     0.162 HD
BRANCH  24  26
HETATM   26  C24 UNL     1      -4.352  18.179  21.986  1.00  0.00     0.142 C 
BRANCH  26  27
HETATM   27  C25 UNL     1      -3.926  17.779  23.345  1.00  0.00     0.143 C 
BRANCH  27  28
HETATM   28  N5  UNL     1      -4.960  17.390  24.241  1.00  0.00    -0.344 N 
HETATM   29  C26 UNL     1      -4.950  17.790  25.630  1.00  0.00     0.328 C 
HETATM   30  N6  UNL     1      -5.971  17.405  26.538  1.00  0.00    -0.040 NA
HETATM   31  O4  UNL     1      -4.009  18.495  26.034  1.00  0.00    -0.251 OA
ATOM     32  H5  UNL     1      -5.728  16.814  23.896  1.00  0.00     0.163 HD
ENDBRANCH  27  28
ENDBRANCH  26  27
ENDBRANCH  24  26
ENDBRANCH  21  22
ENDBRANCH  20  21
ENDBRANCH  19  20
ENDBRANCH  18  19
ENDBRANCH  16  18
ENDBRANCH  13  16
ENDBRANCH  12  13
ENDBRANCH   6  12
BRANCH   1  33
HETATM   33  C13 UNL     1     -10.086  17.304  29.504  1.00  0.00     0.098 C 
BRANCH  33  34
HETATM   34  C12 UNL     1      -9.561  16.802  30.796  1.00  0.00     0.055 A 
HETATM   35  C11 UNL     1      -8.502  17.340  31.492  1.00  0.00     0.035 A 
HETATM   36  C10 UNL     1      -8.367  16.562  32.619  1.00  0.00     0.035 A 
HETATM   37  C9  UNL     1      -9.349  15.585  32.556  1.00  0.00     0.053 A 
HETATM   38  O5  UNL     1     -10.024  15.777  31.458  1.00  0.00    -0.319 OA
BRANCH  37  39
HETATM   39  C8  UNL     1      -9.579  14.516  33.570  1.00  0.00     0.065 C 
BRANCH  39  40
HETATM   40  C7  UNL     1      -9.933  15.132  34.923  1.00  0.00     0.006 C 
BRANCH  40  41
HETATM   41  C6  UNL     1     -11.384  15.569  34.940  1.00  0.00     0.002 C 
BRANCH  41  42
HETATM   42  C5  UNL     1     -12.288  14.531  34.325  1.00  0.00     0.028 C 
BRANCH  42  43
HETATM   43  C4  UNL     1     -13.176  15.107  33.257  1.00  0.00     0.236 C 
BRANCH  43  44
HETATM   44  N1  UNL     1     -13.761  14.115  32.406  1.00  0.00    -0.079 N 
HETATM   45  C1  UNL     1     -12.924  13.807  31.253  1.00  0.00     0.271 C 
HETATM   46  C2  UNL     1     -14.013  12.860  33.084  1.00  0.00     0.271 C 
HETATM   47  C3  UNL     1     -15.045  14.548  31.877  1.00  0.00     0.271 C 
ENDBRANCH  43  44
ENDBRANCH  42  43
ENDBRANCH  41  42
ENDBRANCH  40  41
ENDBRANCH  39  40
ENDBRANCH  37  39
ENDBRANCH  33  34
ENDBRANCH   1  33
BRANCH  10  48
HETATM   48  N9  UNL     1      -8.108  19.086  27.930  1.00  0.00    -0.248 N 
HETATM   49  N10 UNL     1      -7.329  20.042  27.644  1.00  0.00    -0.331 N 
ATOM     50 2H10 UNL     1      -7.314  20.371  26.679  1.00  0.00     0.178 HD
ATOM     51 1H10 UNL     1      -6.730  20.481  28.341  1.00  0.00     0.178 HD
ATOM     52  H9  UNL     1      -8.137  18.744  28.891  1.00  0.00     0.207 HD
ENDBRANCH  10  48
TORSDOF 21
ENDMDL
MODEL 4
REMARK VINA RESULT: -7.856172762      2.038     10.750
REMARK  21 active torsions:
REMARK  status: ('A' for Active; 'I' for Inactive)
REMARK    1  A    between atoms: N1_2  and  C4_5 
REMARK    2  A    between atoms: C4_5  and  C5_6 
REMARK    3  A    between atoms: C5_6  and  C6_7 
REMARK    4  A    between atoms: C6_7  and  C7_8 
REMARK    5  A    between atoms: C7_8  and  C8_9 
REMARK    6  A    between atoms: C8_9  and  C9_10 
REMARK    7  A    between atoms: C12_13  and  C13_14 
REMARK    8  A    between atoms: C13_14  and  C14_15 
REMARK    9  A    between atoms: C16_20  and  C17_21 
REMARK   10  A    between atoms: C17_21  and  C18_22 
REMARK   11  A    between atoms: C18_22  and  O2_23 
REMARK   12  A    between atoms: C18_22  and  N3_25 
REMARK   13  A    between atoms: N3_25  and  C19_27 
REMARK   14  A    between atoms: C19_27  and  C20_28 
REMARK   15  A    between atoms: C20_28  and  C21_29 
REMARK   16  A    between atoms: C21_29  and  C22_30 
REMARK   17  A    between atoms: C22_30  and  C23_31 
REMARK       I    between atoms: C23_31  and  N4_33 
REMARK   18  A    between atoms: N4_33  and  C24_35 
REMARK   19  A    between atoms: C24_35  and  C25_36 
REMARK   20  A    between atoms: C25_36  and  N5_37 
REMARK       I    between atoms: N5_37  and  C26_39 
REMARK   21  A    between atoms: N8_45  and  N9_47 
ROOT
HETATM    1  C14 UNL     1      -9.019  16.833  28.659  1.00  0.00     0.159 C 
HETATM    2  N2  UNL     1      -9.645  15.520  28.711  1.00  0.00    -0.347 N 
ATOM      3  H2  UNL     1      -9.497  14.936  29.534  1.00  0.00     0.163 HD
HETATM    4  C15 UNL     1     -10.453  15.024  27.658  1.00  0.00     0.241 C 
HETATM    5  O1  UNL     1     -11.388  14.237  27.912  1.00  0.00    -0.271 OA
HETATM    6  C16 UNL     1     -10.139  15.476  26.279  1.00  0.00     0.179 C 
HETATM    7  N7  UNL     1     -10.093  16.943  26.358  1.00  0.00    -0.363 N 
ATOM      8  H7  UNL     1     -10.651  17.536  25.743  1.00  0.00     0.161 HD
HETATM    9  C27 UNL     1      -9.209  17.497  27.361  1.00  0.00     0.117 C 
HETATM   10  N8  UNL     1      -8.576  18.578  27.096  1.00  0.00    -0.273 N 
ATOM     11  H8  UNL     1      -8.737  19.007  26.185  1.00  0.00     0.190 HD
ENDROOT
BRANCH   6  12
HETATM   12  C17 UNL     1      -8.776  14.971  25.902  1.00  0.00     0.088 C 
BRANCH  12  13
HETATM   13  C18 UNL     1      -8.360  15.243  24.493  1.00  0.00     0.215 C 
BRANCH  13  14
HETATM   14  O2  UNL     1      -8.000  16.605  24.390  1.00  0.00    -0.377 OA
ATOM     15  H2  UNL     1      -8.420  17.080  25.096  1.00  0.00     0.212 HD
ENDBRANCH  13  14
BRANCH  13  16
HETATM   16  N3  UNL     1      -9.534  15.103  23.657  1.00  0.00    -0.397 N 
ATOM     17  H3  UNL     1     -10.475  15.300  23.997  1.00  0.00     0.155 HD
BRANCH  16  18
HETATM   18  C19 UNL     1      -9.277  14.669  22.316  1.00  0.00     0.116 C 
BRANCH  18  19
HETATM   19  C20 UNL     1     -10.189  15.476  21.396  1.00  0.00     0.020 C 
BRANCH  19  20
HETATM   20  C21 UNL     1      -9.459  16.127  20.259  1.00  0.00     0.011 C 
BRANCH  20  21
HETATM   21  C22 UNL     1      -7.986  16.034  20.536  1.00  0.00     0.103 C 
BRANCH  21  22
HETATM   22  C23 UNL     1      -7.459  17.403  20.915  1.00  0.00     0.217 C 
HETATM   23  O3  UNL     1      -8.038  18.336  20.319  1.00  0.00    -0.274 OA
HETATM   24  N4  UNL     1      -6.441  17.438  21.841  1.00  0.00    -0.360 N 
ATOM     25  H4  UNL     1      -6.143  16.523  22.181  1.00  0.00     0.162 HD
BRANCH  24  26
HETATM   26  C24 UNL     1      -5.738  18.534  22.398  1.00  0.00     0.142 C 
BRANCH  26  27
HETATM   27  C25 UNL     1      -4.637  18.237  23.341  1.00  0.00     0.143 C 
BRANCH  27  28
HETATM   28  N5  UNL     1      -4.953  17.379  24.430  1.00  0.00    -0.344 N 
HETATM   29  C26 UNL     1      -5.410  17.899  25.698  1.00  0.00     0.328 C 
HETATM   30  N6  UNL     1      -5.724  17.056  26.796  1.00  0.00    -0.040 NA
HETATM   31  O4  UNL     1      -5.529  19.131  25.822  1.00  0.00    -0.251 OA
ATOM     32  H5  UNL     1      -4.854  16.370  24.313  1.00  0.00     0.163 HD
ENDBRANCH  27  28
ENDBRANCH  26  27
ENDBRANCH  24  26
ENDBRANCH  21  22
ENDBRANCH  20  21
ENDBRANCH  19  20
ENDBRANCH  18  19
ENDBRANCH  16  18
ENDBRANCH  13  16
ENDBRANCH  12  13
ENDBRANCH   6  12
BRANCH   1  33
HETATM   33  C13 UNL     1      -9.665  17.645  29.750  1.00  0.00     0.098 C 
BRANCH  33  34
HETATM   34  C12 UNL     1      -9.684  16.834  30.990  1.00  0.00     0.055 A 
HETATM   35  C11 UNL     1      -8.597  16.579  31.796  1.00  0.00     0.035 A 
HETATM   36  C10 UNL     1      -9.072  15.794  32.821  1.00  0.00     0.035 A 
HETATM   37  C9  UNL     1     -10.427  15.606  32.592  1.00  0.00     0.053 A 
HETATM   38  O5  UNL     1     -10.732  16.244  31.498  1.00  0.00    -0.319 OA
BRANCH  37  39
HETATM   39  C8  UNL     1     -11.354  14.816  33.452  1.00  0.00     0.065 C 
BRANCH  39  40
HETATM   40  C7  UNL     1     -10.759  14.633  34.848  1.00  0.00     0.006 C 
BRANCH  40  41
HETATM   41  C6  UNL     1     -11.563  13.618  35.635  1.00  0.00     0.002 C 
BRANCH  41  42
HETATM   42  C5  UNL     1     -12.768  13.141  34.866  1.00  0.00     0.028 C 
BRANCH  42  43
HETATM   43  C4  UNL     1     -12.845  11.641  34.794  1.00  0.00     0.236 C 
BRANCH  43  44
HETATM   44  N1  UNL     1     -13.724  11.164  33.769  1.00  0.00    -0.079 N 
HETATM   45  C1  UNL     1     -13.317   9.864  33.248  1.00  0.00     0.271 C 
HETATM   46  C2  UNL     1     -15.094  11.023  34.214  1.00  0.00     0.271 C 
HETATM   47  C3  UNL     1     -13.764  12.068  32.630  1.00  0.00     0.271 C 
ENDBRANCH  43  44
ENDBRANCH  42  43
ENDBRANCH  41  42
ENDBRANCH  40  41
ENDBRANCH  39  40
ENDBRANCH  37  39
ENDBRANCH  33  34
ENDBRANCH   1  33
BRANCH  10  48
HETATM   48  N9  UNL     1      -7.694  19.205  27.950  1.00  0.00    -0.248 N 
HETATM   49  N10 UNL     1      -7.281  20.385  27.748  1.00  0.00    -0.331 N 
ATOM     50 2H10 UNL     1      -7.624  20.874  26.921  1.00  0.00     0.178 HD
ATOM     51 1H10 UNL     1      -6.629  20.848  28.380  1.00  0.00     0.178 HD
ATOM     52  H9  UNL     1      -7.362  18.701  28.772  1.00  0.00     0.207 HD
ENDBRANCH  10  48
TORSDOF 21
ENDMDL
MODEL 5
REMARK VINA RESULT: -7.686889173      2.128     10.469
REMARK  21 active torsions:
REMARK  status: ('A' for Active; 'I' for Inactive)
REMARK    1  A    between atoms: N1_2  and  C4_5 
REMARK    2  A    between atoms: C4_5  and  C5_6 
REMARK    3  A    between atoms: C5_6  and  C6_7 
REMARK    4  A    between atoms: C6_7  and  C7_8 
REMARK    5  A    between atoms: C7_8  and  C8_9 
REMARK    6  A    between atoms: C8_9  and  C9_10 
REMARK    7  A    between atoms: C12_13  and  C13_14 
REMARK    8  A    between atoms: C13_14  and  C14_15 
REMARK    9  A    between atoms: C16_20  and  C17_21 
REMARK   10  A    between atoms: C17_21  and  C18_22 
REMARK   11  A    between atoms: C18_22  and  O2_23 
REMARK   12  A    between atoms: C18_22  and  N3_25 
REMARK   13  A    between atoms: N3_25  and  C19_27 
REMARK   14  A    between atoms: C19_27  and  C20_28 
REMARK   15  A    between atoms: C20_28  and  C21_29 
REMARK   16  A    between atoms: C21_29  and  C22_30 
REMARK   17  A    between atoms: C22_30  and  C23_31 
REMARK       I    between atoms: C23_31  and  N4_33 
REMARK   18  A    between atoms: N4_33  and  C24_35 
REMARK   19  A    between atoms: C24_35  and  C25_36 
REMARK   20  A    between atoms: C25_36  and  N5_37 
REMARK       I    between atoms: N5_37  and  C26_39 
REMARK   21  A    between atoms: N8_45  and  N9_47 
ROOT
HETATM    1  C14 UNL     1      -8.827  16.950  28.478  1.00  0.00     0.159 C 
HETATM    2  N2  UNL     1      -9.448  15.634  28.463  1.00  0.00    -0.347 N 
ATOM      3  H2  UNL     1      -9.271  14.997  29.240  1.00  0.00     0.163 HD
HETATM    4  C15 UNL     1     -10.290  15.205  27.406  1.00  0.00     0.241 C 
HETATM    5  O1  UNL     1     -11.214  14.400  27.638  1.00  0.00    -0.271 OA
HETATM    6  C16 UNL     1     -10.023  15.751  26.051  1.00  0.00     0.179 C 
HETATM    7  N7  UNL     1      -9.978  17.209  26.227  1.00  0.00    -0.363 N 
ATOM      8  H7  UNL     1     -10.558  17.840  25.672  1.00  0.00     0.161 HD
HETATM    9  C27 UNL     1      -9.062  17.698  27.235  1.00  0.00     0.117 C 
HETATM   10  N8  UNL     1      -8.441  18.797  27.022  1.00  0.00    -0.273 N 
ATOM     11  H8  UNL     1      -8.632  19.286  26.148  1.00  0.00     0.190 HD
ENDROOT
BRANCH   6  12
HETATM   12  C17 UNL     1      -8.673  15.278  25.596  1.00  0.00     0.088 C 
BRANCH  12  13
HETATM   13  C18 UNL     1      -8.306  15.643  24.194  1.00  0.00     0.215 C 
BRANCH  13  14
HETATM   14  O2  UNL     1      -8.059  17.032  24.145  1.00  0.00    -0.377 OA
ATOM     15  H2  UNL     1      -7.927  17.281  23.239  1.00  0.00     0.212 HD
ENDBRANCH  13  14
BRANCH  13  16
HETATM   16  N3  UNL     1      -9.481  15.444  23.371  1.00  0.00    -0.397 N 
ATOM     17  H3  UNL     1     -10.416  15.713  23.677  1.00  0.00     0.155 HD
BRANCH  16  18
HETATM   18  C19 UNL     1      -9.234  14.841  22.094  1.00  0.00     0.116 C 
BRANCH  18  19
HETATM   19  C20 UNL     1      -9.965  15.679  21.049  1.00  0.00     0.020 C 
BRANCH  19  20
HETATM   20  C21 UNL     1      -9.228  16.929  20.670  1.00  0.00     0.011 C 
BRANCH  20  21
HETATM   21  C22 UNL     1      -7.801  16.560  20.382  1.00  0.00     0.103 C 
BRANCH  21  22
HETATM   22  C23 UNL     1      -6.880  17.557  21.054  1.00  0.00     0.217 C 
HETATM   23  O3  UNL     1      -7.465  18.597  21.426  1.00  0.00    -0.274 OA
HETATM   24  N4  UNL     1      -5.555  17.197  21.164  1.00  0.00    -0.360 N 
ATOM     25  H4  UNL     1      -5.330  16.281  20.776  1.00  0.00     0.162 HD
BRANCH  24  26
HETATM   26  C24 UNL     1      -4.455  17.889  21.726  1.00  0.00     0.142 C 
BRANCH  26  27
HETATM   27  C25 UNL     1      -4.639  18.508  23.058  1.00  0.00     0.143 C 
BRANCH  27  28
HETATM   28  N5  UNL     1      -4.920  17.620  24.133  1.00  0.00    -0.344 N 
HETATM   29  C26 UNL     1      -5.380  18.103  25.415  1.00  0.00     0.328 C 
HETATM   30  N6  UNL     1      -5.658  17.230  26.499  1.00  0.00    -0.040 NA
HETATM   31  O4  UNL     1      -5.534  19.328  25.563  1.00  0.00    -0.251 OA
ATOM     32  H5  UNL     1      -4.793  16.617  23.996  1.00  0.00     0.163 HD
ENDBRANCH  27  28
ENDBRANCH  26  27
ENDBRANCH  24  26
ENDBRANCH  21  22
ENDBRANCH  20  21
ENDBRANCH  19  20
ENDBRANCH  18  19
ENDBRANCH  16  18
ENDBRANCH  13  16
ENDBRANCH  12  13
ENDBRANCH   6  12
BRANCH   1  33
HETATM   33  C13 UNL     1      -9.438  17.684  29.642  1.00  0.00     0.098 C 
BRANCH  33  34
HETATM   34  C12 UNL     1      -9.753  16.700  30.705  1.00  0.00     0.055 A 
HETATM   35  C11 UNL     1      -8.846  16.162  31.590  1.00  0.00     0.035 A 
HETATM   36  C10 UNL     1      -9.571  15.305  32.387  1.00  0.00     0.035 A 
HETATM   37  C9  UNL     1     -10.886  15.361  31.949  1.00  0.00     0.053 A 
HETATM   38  O5  UNL     1     -10.933  16.202  30.954  1.00  0.00    -0.319 OA
BRANCH  37  39
HETATM   39  C8  UNL     1     -12.028  14.592  32.523  1.00  0.00     0.065 C 
BRANCH  39  40
HETATM   40  C7  UNL     1     -13.069  14.300  31.443  1.00  0.00     0.006 C 
BRANCH  40  41
HETATM   41  C6  UNL     1     -12.598  13.172  30.549  1.00  0.00     0.002 C 
BRANCH  41  42
HETATM   42  C5  UNL     1     -13.539  11.995  30.590  1.00  0.00     0.028 C 
BRANCH  42  43
HETATM   43  C4  UNL     1     -13.728  11.462  31.983  1.00  0.00     0.236 C 
BRANCH  43  44
HETATM   44  N1  UNL     1     -13.978  10.052  32.025  1.00  0.00    -0.079 N 
HETATM   45  C1  UNL     1     -15.233   9.690  31.377  1.00  0.00     0.271 C 
HETATM   46  C2  UNL     1     -12.940   9.271  31.387  1.00  0.00     0.271 C 
HETATM   47  C3  UNL     1     -14.066   9.561  33.392  1.00  0.00     0.271 C 
ENDBRANCH  43  44
ENDBRANCH  42  43
ENDBRANCH  41  42
ENDBRANCH  40  41
ENDBRANCH  39  40
ENDBRANCH  37  39
ENDBRANCH  33  34
ENDBRANCH   1  33
BRANCH  10  48
HETATM   48  N9  UNL     1      -7.531  19.369  27.886  1.00  0.00    -0.248 N 
HETATM   49  N10 UNL     1      -7.154  20.572  27.771  1.00  0.00    -0.331 N 
ATOM     50 2H10 UNL     1      -7.546  21.123  27.007  1.00  0.00     0.178 HD
ATOM     51 1H10 UNL     1      -6.482  20.995  28.410  1.00  0.00     0.178 HD
ATOM     52  H9  UNL     1      -7.149  18.804  28.645  1.00  0.00     0.207 HD
ENDBRANCH  10  48
TORSDOF 21
ENDMDL
