MODEL 1
REMARK VINA RESULT: -6.366366233      0.000      0.000
REMARK  15 active torsions:
REMARK  status: ('A' for Active; 'I' for Inactive)
REMARK    1  A    between atoms: C3_6  and  C4_7 
REMARK       I    between atoms: C4_7  and  N2_9 
REMARK    2  A    between atoms: N2_9  and  C5_11 
REMARK    3  A    between atoms: C6_12  and  N3_13 
REMARK    4  A    between atoms: C7_14  and  C8_15 
REMARK    5  A    between atoms: N4_17  and  C10_18 
REMARK    6  A    between atoms: C11_20  and  C12_21 
REMARK    7  A    between atoms: C12_21  and  O3_22 
REMARK    8  A    between atoms: C12_21  and  C13_24 
REMARK    9  A    between atoms: C13_24  and  O4_25 
REMARK   10  A    between atoms: C14_27  and  O5_28 
REMARK   11  A    between atoms: C15_30  and  O6_31 
REMARK   12  A    between atoms: N10_51  and  N11_52 
REMARK   13  A    between atoms: C22_55  and  N12_56 
REMARK   14  A    between atoms: C24_61  and  O9_62 
REMARK   15  A    between atoms: C25_64  and  O10_65 
ROOT
HETATM    1  N3  UNL     1      25.805   2.682   3.639  1.00  0.00    -0.284 N 
HETATM    2  C7  UNL     1      26.396   3.770   4.228  1.00  0.00     0.142 A 
HETATM    3  N7  UNL     1      25.521   4.172   5.163  1.00  0.00    -0.333 N 
ATOM      4  H7  UNL     1      25.680   4.971   5.776  1.00  0.00     0.168 HD
HETATM    5  C16 UNL     1      24.427   3.420   5.206  1.00  0.00     0.147 A 
HETATM    6  C17 UNL     1      23.268   3.420   5.970  1.00  0.00     0.277 A 
HETATM    7  O7  UNL     1      23.158   4.311   6.839  1.00  0.00    -0.266 OA
HETATM    8  N8  UNL     1      22.302   2.511   5.790  1.00  0.00    -0.318 N 
ATOM      9  H8  UNL     1      21.454   2.522   6.357  1.00  0.00     0.169 HD
HETATM   10  C18 UNL     1      22.492   1.584   4.836  1.00  0.00     0.185 A 
HETATM   11  N9  UNL     1      23.607   1.580   4.095  1.00  0.00    -0.336 N 
ATOM     12  H9  UNL     1      23.699   0.854   3.384  1.00  0.00     0.168 HD
HETATM   13  C19 UNL     1      24.616   2.460   4.219  1.00  0.00     0.145 A 
ENDROOT
BRANCH   1  14
HETATM   14  C6  UNL     1      26.436   1.972   2.580  1.00  0.00     0.272 C 
HETATM   15  C5  UNL     1      25.660   1.582   1.394  1.00  0.00     0.231 C 
HETATM   16  N10 UNL     1      25.606   0.105   1.432  1.00  0.00    -0.181 NA
HETATM   17  C20 UNL     1      25.880  -0.117   2.860  1.00  0.00     0.215 C 
HETATM   18  O8  UNL     1      26.956   0.740   3.037  1.00  0.00    -0.341 OA
HETATM   19  C21 UNL     1      26.327  -1.573   3.013  1.00  0.00     0.058 C 
BRANCH  15  20
HETATM   20  N2  UNL     1      26.372   1.971   0.156  1.00  0.00    -0.337 N 
HETATM   21  C4  UNL     1      26.352   3.293  -0.334  1.00  0.00     0.252 C 
HETATM   22  O1  UNL     1      25.679   4.127   0.364  1.00  0.00    -0.271 OA
ATOM     23  H2  UNL     1      26.893   1.260  -0.359  1.00  0.00     0.164 HD
BRANCH  21  24
HETATM   24  C3  UNL     1      27.032   3.772  -1.554  1.00  0.00     0.302 C 
HETATM   25  N1  UNL     1      27.658   2.635  -2.213  1.00  0.00    -0.054 N 
HETATM   26  C2  UNL     1      29.079   2.594  -2.068  1.00  0.00     0.214 C 
ATOM     27  H12 UNL     1      27.396   2.603  -3.198  1.00  0.00     0.278 HD
ATOM     28  H11 UNL     1      27.239   1.761  -1.896  1.00  0.00     0.278 HD
HETATM   29  C1  UNL     1      29.507   1.143  -2.270  1.00  0.00     0.043 C 
HETATM   30  C25 UNL     1      29.571   2.981  -0.694  1.00  0.00     0.179 C 
HETATM   31  C24 UNL     1      29.000   4.295  -0.222  1.00  0.00     0.174 C 
HETATM   32  C22 UNL     1      28.078   4.828  -1.270  1.00  0.00     0.155 C 
BRANCH  30  33
HETATM   33  O10 UNL     1      30.968   3.060  -0.747  1.00  0.00    -0.391 OA
ATOM     34  H10 UNL     1      31.232   3.835  -0.264  1.00  0.00     0.210 HD
ENDBRANCH  30  33
BRANCH  31  35
HETATM   35  O9  UNL     1      30.049   5.192   0.012  1.00  0.00    -0.391 OA
ATOM     36  H9  UNL     1      29.920   5.650   0.834  1.00  0.00     0.210 HD
ENDBRANCH  31  35
BRANCH  32  37
HETATM   37  N12 UNL     1      27.472   6.064  -0.881  1.00  0.00    -0.357 N 
HETATM   38  C23 UNL     1      27.293   7.014  -1.708  1.00  0.00     0.197 C 
HETATM   39  N13 UNL     1      27.706   6.841  -3.056  1.00  0.00    -0.067 NA
HETATM   40  N14 UNL     1      26.696   8.237  -1.338  1.00  0.00    -0.067 NA
ATOM     41  H12 UNL     1      27.176   6.188   0.088  1.00  0.00     0.162 HD
ENDBRANCH  32  37
ENDBRANCH  21  24
ENDBRANCH  15  20
BRANCH  16  42
HETATM   42  N11 UNL     1      26.723  -0.409   0.768  1.00  0.00    -0.359 NA
ATOM     43 2H11 UNL     1      26.396  -0.611  -0.177  1.00  0.00     0.171 HD
ATOM     44 1H11 UNL     1      26.898  -1.359   1.097  1.00  0.00     0.171 HD
ENDBRANCH  16  42
ENDBRANCH   1  14
BRANCH   2  45
HETATM   45  C8  UNL     1      27.692   4.345   3.906  1.00  0.00     0.111 A 
HETATM   46  C9  UNL     1      28.880   3.929   4.517  1.00  0.00     0.149 A 
HETATM   47  N4  UNL     1      29.922   4.647   4.013  1.00  0.00    -0.255 N 
HETATM   48  N5  UNL     1      29.399   5.467   3.130  1.00  0.00    -0.238 N 
HETATM   49  N6  UNL     1      28.082   5.295   3.061  1.00  0.00    -0.281 N 
ATOM     50  H5  UNL     1      29.929   6.141   2.577  1.00  0.00     0.208 HD
ATOM     51  H6  UNL     1      27.458   5.818   2.446  1.00  0.00     0.188 HD
BRANCH  47  52
HETATM   52  C10 UNL     1      31.302   4.549   4.354  1.00  0.00     0.276 C 
HETATM   53  O2  UNL     1      31.565   3.571   5.308  1.00  0.00    -0.352 OA
HETATM   54  C11 UNL     1      32.327   2.594   4.685  1.00  0.00     0.186 C 
HETATM   55  C14 UNL     1      33.248   3.409   3.781  1.00  0.00     0.182 C 
HETATM   56  C15 UNL     1      32.221   4.361   3.196  1.00  0.00     0.200 C 
BRANCH  54  57
HETATM   57  C12 UNL     1      33.090   1.738   5.641  1.00  0.00     0.173 C 
BRANCH  57  58
HETATM   58  O3  UNL     1      34.084   0.991   5.061  1.00  0.00    -0.391 OA
ATOM     59  H3  UNL     1      33.781   0.387   4.394  1.00  0.00     0.210 HD
ENDBRANCH  57  58
BRANCH  57  60
HETATM   60  C13 UNL     1      32.127   0.940   6.484  1.00  0.00     0.198 C 
BRANCH  60  61
HETATM   61  O4  UNL     1      32.033   1.619   7.716  1.00  0.00    -0.398 OA
ATOM     62  H4  UNL     1      31.348   1.181   8.206  1.00  0.00     0.209 HD
ENDBRANCH  60  61
ENDBRANCH  57  60
ENDBRANCH  54  57
BRANCH  55  63
HETATM   63  O5  UNL     1      34.166   4.098   4.571  1.00  0.00    -0.390 OA
ATOM     64  H5  UNL     1      34.957   3.578   4.651  1.00  0.00     0.210 HD
ENDBRANCH  55  63
BRANCH  56  65
HETATM   65  O6  UNL     1      31.636   3.677   2.116  1.00  0.00    -0.388 OA
ATOM     66  H6  UNL     1      31.047   2.981   2.380  1.00  0.00     0.210 HD
ENDBRANCH  56  65
ENDBRANCH  47  52
ENDBRANCH   2  45
TORSDOF 15
ENDMDL
MODEL 2
REMARK VINA RESULT: -6.261382917      2.420      7.067
REMARK  15 active torsions:
REMARK  status: ('A' for Active; 'I' for Inactive)
REMARK    1  A    between atoms: C3_6  and  C4_7 
REMARK       I    between atoms: C4_7  and  N2_9 
REMARK    2  A    between atoms: N2_9  and  C5_11 
REMARK    3  A    between atoms: C6_12  and  N3_13 
REMARK    4  A    between atoms: C7_14  and  C8_15 
REMARK    5  A    between atoms: N4_17  and  C10_18 
REMARK    6  A    between atoms: C11_20  and  C12_21 
REMARK    7  A    between atoms: C12_21  and  O3_22 
REMARK    8  A    between atoms: C12_21  and  C13_24 
REMARK    9  A    between atoms: C13_24  and  O4_25 
REMARK   10  A    between atoms: C14_27  and  O5_28 
REMARK   11  A    between atoms: C15_30  and  O6_31 
REMARK   12  A    between atoms: N10_51  and  N11_52 
REMARK   13  A    between atoms: C22_55  and  N12_56 
REMARK   14  A    between atoms: C24_61  and  O9_62 
REMARK   15  A    between atoms: C25_64  and  O10_65 
ROOT
HETATM    1  N3  UNL     1      30.850   4.561   3.716  1.00  0.00    -0.284 N 
HETATM    2  C7  UNL     1      30.132   3.697   4.502  1.00  0.00     0.142 A 
HETATM    3  N7  UNL     1      30.944   3.413   5.532  1.00  0.00    -0.333 N 
ATOM      4  H7  UNL     1      30.687   2.788   6.295  1.00  0.00     0.168 HD
HETATM    5  C16 UNL     1      32.116   4.033   5.453  1.00  0.00     0.147 A 
HETATM    6  C17 UNL     1      33.258   4.072   6.241  1.00  0.00     0.277 A 
HETATM    7  O7  UNL     1      33.256   3.384   7.284  1.00  0.00    -0.266 OA
HETATM    8  N8  UNL     1      34.323   4.810   5.907  1.00  0.00    -0.318 N 
ATOM      9  H8  UNL     1      35.158   4.831   6.493  1.00  0.00     0.169 HD
HETATM   10  C18 UNL     1      34.252   5.524   4.770  1.00  0.00     0.185 A 
HETATM   11  N9  UNL     1      33.153   5.490   4.006  1.00  0.00    -0.336 N 
ATOM     12  H9  UNL     1      33.154   6.050   3.153  1.00  0.00     0.168 HD
HETATM   13  C19 UNL     1      32.049   4.771   4.278  1.00  0.00     0.145 A 
ENDROOT
BRANCH   1  14
HETATM   14  C6  UNL     1      30.317   5.089   2.507  1.00  0.00     0.272 C 
HETATM   15  C5  UNL     1      29.715   4.186   1.516  1.00  0.00     0.231 C 
HETATM   16  N10 UNL     1      30.609   4.246   0.341  1.00  0.00    -0.181 NA
HETATM   17  C20 UNL     1      31.838   4.731   0.989  1.00  0.00     0.215 C 
HETATM   18  O8  UNL     1      31.315   5.756   1.763  1.00  0.00    -0.341 OA
HETATM   19  C21 UNL     1      32.735   5.299  -0.113  1.00  0.00     0.058 C 
BRANCH  15  20
HETATM   20  N2  UNL     1      28.388   4.690   1.092  1.00  0.00    -0.337 N 
HETATM   21  C4  UNL     1      27.314   3.820   0.810  1.00  0.00     0.252 C 
HETATM   22  O1  UNL     1      27.566   2.573   0.946  1.00  0.00    -0.271 OA
ATOM     23  H2  UNL     1      28.247   5.696   1.002  1.00  0.00     0.164 HD
BRANCH  21  24
HETATM   24  C3  UNL     1      25.961   4.229   0.385  1.00  0.00     0.302 C 
HETATM   25  N1  UNL     1      25.105   3.051   0.365  1.00  0.00    -0.054 N 
HETATM   26  C2  UNL     1      24.807   2.578  -0.950  1.00  0.00     0.214 C 
ATOM     27  H12 UNL     1      24.247   3.222   0.889  1.00  0.00     0.278 HD
ATOM     28  H11 UNL     1      25.507   2.305   0.932  1.00  0.00     0.278 HD
HETATM   29  C1  UNL     1      24.437   1.103  -0.821  1.00  0.00     0.043 C 
HETATM   30  C25 UNL     1      25.975   2.627  -1.905  1.00  0.00     0.179 C 
HETATM   31  C24 UNL     1      26.641   3.981  -1.937  1.00  0.00     0.174 C 
HETATM   32  C22 UNL     1      25.944   4.888  -0.976  1.00  0.00     0.155 C 
BRANCH  30  33
HETATM   33  O10 UNL     1      25.499   2.301  -3.181  1.00  0.00    -0.391 OA
ATOM     34  H10 UNL     1      25.936   2.867  -3.806  1.00  0.00     0.210 HD
ENDBRANCH  30  33
BRANCH  31  35
HETATM   35  O9  UNL     1      26.571   4.494  -3.238  1.00  0.00    -0.391 OA
ATOM     36  H9  UNL     1      25.929   4.018  -3.751  1.00  0.00     0.210 HD
ENDBRANCH  31  35
BRANCH  32  37
HETATM   37  N12 UNL     1      26.539   6.188  -0.929  1.00  0.00    -0.357 N 
HETATM   38  C23 UNL     1      25.980   7.202  -1.454  1.00  0.00     0.197 C 
HETATM   39  N13 UNL     1      24.728   7.038  -2.107  1.00  0.00    -0.067 NA
HETATM   40  N14 UNL     1      26.554   8.489  -1.414  1.00  0.00    -0.067 NA
ATOM     41  H12 UNL     1      27.438   6.305  -0.461  1.00  0.00     0.162 HD
ENDBRANCH  32  37
ENDBRANCH  21  24
ENDBRANCH  15  20
BRANCH  16  42
HETATM   42  N11 UNL     1      30.203   5.294  -0.489  1.00  0.00    -0.359 NA
ATOM     43 2H11 UNL     1      30.840   5.260  -1.285  1.00  0.00     0.171 HD
ATOM     44 1H11 UNL     1      30.494   6.180  -0.074  1.00  0.00     0.171 HD
ENDBRANCH  16  42
ENDBRANCH   1  14
BRANCH   2  45
HETATM   45  C8  UNL     1      28.783   3.210   4.263  1.00  0.00     0.111 A 
HETATM   46  C9  UNL     1      27.641   3.960   4.563  1.00  0.00     0.149 A 
HETATM   47  N4  UNL     1      26.530   3.244   4.230  1.00  0.00    -0.255 N 
HETATM   48  N5  UNL     1      26.969   2.105   3.746  1.00  0.00    -0.238 N 
HETATM   49  N6  UNL     1      28.299   2.076   3.762  1.00  0.00    -0.281 N 
ATOM     50  H5  UNL     1      26.374   1.349   3.407  1.00  0.00     0.208 HD
ATOM     51  H6  UNL     1      28.868   1.295   3.436  1.00  0.00     0.188 HD
BRANCH  47  52
HETATM   52  C10 UNL     1      25.165   3.628   4.369  1.00  0.00     0.276 C 
HETATM   53  O2  UNL     1      24.298   2.871   3.587  1.00  0.00    -0.352 OA
HETATM   54  C11 UNL     1      23.499   2.144   4.458  1.00  0.00     0.186 C 
HETATM   55  C14 UNL     1      23.247   3.136   5.591  1.00  0.00     0.182 C 
HETATM   56  C15 UNL     1      24.662   3.652   5.772  1.00  0.00     0.200 C 
BRANCH  54  57
HETATM   57  C12 UNL     1      22.229   1.664   3.836  1.00  0.00     0.173 C 
BRANCH  57  58
HETATM   58  O3  UNL     1      21.885   0.380   4.174  1.00  0.00    -0.391 OA
ATOM     59  H3  UNL     1      21.131   0.041   3.707  1.00  0.00     0.210 HD
ENDBRANCH  57  58
BRANCH  57  60
HETATM   60  C13 UNL     1      22.263   1.927   2.352  1.00  0.00     0.198 C 
BRANCH  60  61
HETATM   61  O4  UNL     1      21.862   3.268   2.184  1.00  0.00    -0.398 OA
ATOM     62  H4  UNL     1      22.488   3.792   2.669  1.00  0.00     0.209 HD
ENDBRANCH  60  61
ENDBRANCH  57  60
ENDBRANCH  54  57
BRANCH  55  63
HETATM   63  O5  UNL     1      22.407   4.148   5.129  1.00  0.00    -0.390 OA
ATOM     64  H5  UNL     1      22.796   4.544   4.358  1.00  0.00     0.210 HD
ENDBRANCH  55  63
BRANCH  56  65
HETATM   65  O6  UNL     1      25.301   2.728   6.617  1.00  0.00    -0.388 OA
ATOM     66  H6  UNL     1      25.181   2.909   7.541  1.00  0.00     0.210 HD
ENDBRANCH  56  65
ENDBRANCH  47  52
ENDBRANCH   2  45
TORSDOF 15
ENDMDL
MODEL 3
REMARK VINA RESULT: -6.225383798      2.281      2.967
REMARK  15 active torsions:
REMARK  status: ('A' for Active; 'I' for Inactive)
REMARK    1  A    between atoms: C3_6  and  C4_7 
REMARK       I    between atoms: C4_7  and  N2_9 
REMARK    2  A    between atoms: N2_9  and  C5_11 
REMARK    3  A    between atoms: C6_12  and  N3_13 
REMARK    4  A    between atoms: C7_14  and  C8_15 
REMARK    5  A    between atoms: N4_17  and  C10_18 
REMARK    6  A    between atoms: C11_20  and  C12_21 
REMARK    7  A    between atoms: C12_21  and  O3_22 
REMARK    8  A    between atoms: C12_21  and  C13_24 
REMARK    9  A    between atoms: C13_24  and  O4_25 
REMARK   10  A    between atoms: C14_27  and  O5_28 
REMARK   11  A    between atoms: C15_30  and  O6_31 
REMARK   12  A    between atoms: N10_51  and  N11_52 
REMARK   13  A    between atoms: C22_55  and  N12_56 
REMARK   14  A    between atoms: C24_61  and  O9_62 
REMARK   15  A    between atoms: C25_64  and  O10_65 
ROOT
HETATM    1  N3  UNL     1      25.375   3.523   2.950  1.00  0.00    -0.284 N 
HETATM    2  C7  UNL     1      26.142   4.106   3.924  1.00  0.00     0.142 A 
HETATM    3  N7  UNL     1      25.301   4.305   4.950  1.00  0.00    -0.333 N 
ATOM      4  H7  UNL     1      25.582   4.729   5.834  1.00  0.00     0.168 HD
HETATM    5  C16 UNL     1      24.065   3.891   4.695  1.00  0.00     0.147 A 
HETATM    6  C17 UNL     1      22.872   3.872   5.405  1.00  0.00     0.277 A 
HETATM    7  O7  UNL     1      22.889   4.341   6.562  1.00  0.00    -0.266 OA
HETATM    8  N8  UNL     1      21.745   3.375   4.881  1.00  0.00    -0.318 N 
ATOM      9  H8  UNL     1      20.874   3.367   5.411  1.00  0.00     0.169 HD
HETATM   10  C18 UNL     1      21.805   2.888   3.629  1.00  0.00     0.185 A 
HETATM   11  N9  UNL     1      22.952   2.905   2.940  1.00  0.00    -0.336 N 
ATOM     12  H9  UNL     1      22.940   2.523   1.994  1.00  0.00     0.168 HD
HETATM   13  C19 UNL     1      24.120   3.388   3.401  1.00  0.00     0.145 A 
ENDROOT
BRANCH   1  14
HETATM   14  C6  UNL     1      25.921   3.161   1.687  1.00  0.00     0.272 C 
HETATM   15  C5  UNL     1      25.029   2.929   0.542  1.00  0.00     0.231 C 
HETATM   16  N10 UNL     1      25.154   1.488   0.236  1.00  0.00    -0.181 NA
HETATM   17  C20 UNL     1      25.659   1.003   1.530  1.00  0.00     0.215 C 
HETATM   18  O8  UNL     1      26.642   1.949   1.776  1.00  0.00    -0.341 OA
HETATM   19  C21 UNL     1      26.290  -0.369   1.283  1.00  0.00     0.058 C 
BRANCH  15  20
HETATM   20  N2  UNL     1      25.501   3.678  -0.645  1.00  0.00    -0.337 N 
HETATM   21  C4  UNL     1      24.606   4.223  -1.589  1.00  0.00     0.252 C 
HETATM   22  O1  UNL     1      23.366   4.026  -1.348  1.00  0.00    -0.271 OA
ATOM     23  H2  UNL     1      26.504   3.804  -0.784  1.00  0.00     0.164 HD
BRANCH  21  24
HETATM   24  C3  UNL     1      24.983   4.984  -2.797  1.00  0.00     0.302 C 
HETATM   25  N1  UNL     1      26.436   5.050  -2.869  1.00  0.00    -0.054 N 
HETATM   26  C2  UNL     1      26.973   6.330  -2.532  1.00  0.00     0.214 C 
ATOM     27  H12 UNL     1      26.763   4.754  -3.789  1.00  0.00     0.278 HD
ATOM     28  H11 UNL     1      26.857   4.320  -2.295  1.00  0.00     0.278 HD
HETATM   29  C1  UNL     1      28.417   6.106  -2.091  1.00  0.00     0.043 C 
HETATM   30  C25 UNL     1      26.287   7.001  -1.366  1.00  0.00     0.179 C 
HETATM   31  C24 UNL     1      24.787   7.050  -1.527  1.00  0.00     0.174 C 
HETATM   32  C22 UNL     1      24.414   6.386  -2.812  1.00  0.00     0.155 C 
BRANCH  30  33
HETATM   33  O10 UNL     1      26.797   8.300  -1.259  1.00  0.00    -0.391 OA
ATOM     34  H10 UNL     1      27.099   8.421  -0.367  1.00  0.00     0.210 HD
ENDBRANCH  30  33
BRANCH  31  35
HETATM   35  O9  UNL     1      24.371   8.387  -1.524  1.00  0.00    -0.391 OA
ATOM     36  H9  UNL     1      25.111   8.968  -1.655  1.00  0.00     0.210 HD
ENDBRANCH  31  35
BRANCH  32  37
HETATM   37  N12 UNL     1      23.000   6.368  -3.021  1.00  0.00    -0.357 N 
HETATM   38  C23 UNL     1      22.433   7.150  -3.849  1.00  0.00     0.197 C 
HETATM   39  N13 UNL     1      23.229   8.068  -4.585  1.00  0.00    -0.067 NA
HETATM   40  N14 UNL     1      21.040   7.142  -4.066  1.00  0.00    -0.067 NA
ATOM     41  H12 UNL     1      22.428   5.709  -2.492  1.00  0.00     0.162 HD
ENDBRANCH  32  37
ENDBRANCH  21  24
ENDBRANCH  15  20
BRANCH  16  42
HETATM   42  N11 UNL     1      26.212   1.300  -0.656  1.00  0.00    -0.359 NA
ATOM     43 2H11 UNL     1      25.830   1.540  -1.570  1.00  0.00     0.171 HD
ATOM     44 1H11 UNL     1      26.363   0.300  -0.789  1.00  0.00     0.171 HD
ENDBRANCH  16  42
ENDBRANCH   1  14
BRANCH   2  45
HETATM   45  C8  UNL     1      27.559   4.426   3.851  1.00  0.00     0.111 A 
HETATM   46  C9  UNL     1      28.513   3.843   4.692  1.00  0.00     0.149 A 
HETATM   47  N4  UNL     1      29.746   4.337   4.387  1.00  0.00    -0.255 N 
HETATM   48  N5  UNL     1      29.559   5.185   3.402  1.00  0.00    -0.238 N 
HETATM   49  N6  UNL     1      28.270   5.244   3.079  1.00  0.00    -0.281 N 
ATOM     50  H5  UNL     1      30.297   5.723   2.949  1.00  0.00     0.208 HD
ATOM     51  H6  UNL     1      27.880   5.833   2.343  1.00  0.00     0.188 HD
BRANCH  47  52
HETATM   52  C10 UNL     1      30.994   4.018   4.995  1.00  0.00     0.276 C 
HETATM   53  O2  UNL     1      30.905   2.990   5.928  1.00  0.00    -0.352 OA
HETATM   54  C11 UNL     1      31.627   1.919   5.420  1.00  0.00     0.186 C 
HETATM   55  C14 UNL     1      32.826   2.601   4.766  1.00  0.00     0.182 C 
HETATM   56  C15 UNL     1      32.096   3.715   4.039  1.00  0.00     0.200 C 
BRANCH  54  57
HETATM   57  C12 UNL     1      32.039   0.934   6.463  1.00  0.00     0.173 C 
BRANCH  57  58
HETATM   58  O3  UNL     1      32.365   1.493   7.672  1.00  0.00    -0.391 OA
ATOM     59  H3  UNL     1      32.629   0.866   8.335  1.00  0.00     0.210 HD
ENDBRANCH  57  58
BRANCH  57  60
HETATM   60  C13 UNL     1      33.094   0.014   5.900  1.00  0.00     0.198 C 
BRANCH  60  61
HETATM   61  O4  UNL     1      32.996  -1.186   6.633  1.00  0.00    -0.398 OA
ATOM     62  H4  UNL     1      33.288  -0.980   7.513  1.00  0.00     0.209 HD
ENDBRANCH  60  61
ENDBRANCH  57  60
ENDBRANCH  54  57
BRANCH  55  63
HETATM   63  O5  UNL     1      33.651   3.121   5.762  1.00  0.00    -0.390 OA
ATOM     64  H5  UNL     1      34.327   3.652   5.358  1.00  0.00     0.210 HD
ENDBRANCH  55  63
BRANCH  56  65
HETATM   65  O6  UNL     1      31.654   3.154   2.827  1.00  0.00    -0.388 OA
ATOM     66  H6  UNL     1      32.349   3.015   2.195  1.00  0.00     0.210 HD
ENDBRANCH  56  65
ENDBRANCH  47  52
ENDBRANCH   2  45
TORSDOF 15
ENDMDL
MODEL 4
REMARK VINA RESULT: -5.880323871      2.488      3.372
REMARK  15 active torsions:
REMARK  status: ('A' for Active; 'I' for Inactive)
REMARK    1  A    between atoms: C3_6  and  C4_7 
REMARK       I    between atoms: C4_7  and  N2_9 
REMARK    2  A    between atoms: N2_9  and  C5_11 
REMARK    3  A    between atoms: C6_12  and  N3_13 
REMARK    4  A    between atoms: C7_14  and  C8_15 
REMARK    5  A    between atoms: N4_17  and  C10_18 
REMARK    6  A    between atoms: C11_20  and  C12_21 
REMARK    7  A    between atoms: C12_21  and  O3_22 
REMARK    8  A    between atoms: C12_21  and  C13_24 
REMARK    9  A    between atoms: C13_24  and  O4_25 
REMARK   10  A    between atoms: C14_27  and  O5_28 
REMARK   11  A    between atoms: C15_30  and  O6_31 
REMARK   12  A    between atoms: N10_51  and  N11_52 
REMARK   13  A    between atoms: C22_55  and  N12_56 
REMARK   14  A    between atoms: C24_61  and  O9_62 
REMARK   15  A    between atoms: C25_64  and  O10_65 
ROOT
HETATM    1  N3  UNL     1      25.306   3.294   2.945  1.00  0.00    -0.284 N 
HETATM    2  C7  UNL     1      26.195   3.715   3.900  1.00  0.00     0.142 A 
HETATM    3  N7  UNL     1      25.440   4.001   4.971  1.00  0.00    -0.333 N 
ATOM      4  H7  UNL     1      25.820   4.343   5.853  1.00  0.00     0.168 HD
HETATM    5  C16 UNL     1      24.144   3.792   4.762  1.00  0.00     0.147 A 
HETATM    6  C17 UNL     1      22.994   3.929   5.527  1.00  0.00     0.277 A 
HETATM    7  O7  UNL     1      23.133   4.345   6.697  1.00  0.00    -0.266 OA
HETATM    8  N8  UNL     1      21.782   3.632   5.043  1.00  0.00    -0.318 N 
ATOM      9  H8  UNL     1      20.944   3.737   5.614  1.00  0.00     0.169 HD
HETATM   10  C18 UNL     1      21.713   3.189   3.775  1.00  0.00     0.185 A 
HETATM   11  N9  UNL     1      22.818   3.057   3.033  1.00  0.00    -0.336 N 
ATOM     12  H9  UNL     1      22.707   2.718   2.077  1.00  0.00     0.168 HD
HETATM   13  C19 UNL     1      24.065   3.336   3.452  1.00  0.00     0.145 A 
ENDROOT
BRANCH   1  14
HETATM   14  C6  UNL     1      25.735   2.901   1.647  1.00  0.00     0.272 C 
HETATM   15  C5  UNL     1      24.774   2.874   0.535  1.00  0.00     0.231 C 
HETATM   16  N10 UNL     1      24.641   1.448   0.171  1.00  0.00    -0.181 NA
HETATM   17  C20 UNL     1      25.104   0.827   1.422  1.00  0.00     0.215 C 
HETATM   18  O8  UNL     1      26.242   1.583   1.659  1.00  0.00    -0.341 OA
HETATM   19  C21 UNL     1      25.482  -0.619   1.096  1.00  0.00     0.058 C 
BRANCH  15  20
HETATM   20  N2  UNL     1      25.323   3.584  -0.643  1.00  0.00    -0.337 N 
HETATM   21  C4  UNL     1      24.489   4.220  -1.587  1.00  0.00     0.252 C 
HETATM   22  O1  UNL     1      23.234   4.139  -1.354  1.00  0.00    -0.271 OA
ATOM     23  H2  UNL     1      26.334   3.615  -0.776  1.00  0.00     0.164 HD
BRANCH  21  24
HETATM   24  C3  UNL     1      24.943   4.951  -2.786  1.00  0.00     0.302 C 
HETATM   25  N1  UNL     1      26.399   4.969  -2.794  1.00  0.00    -0.054 N 
HETATM   26  C2  UNL     1      26.963   6.236  -2.449  1.00  0.00     0.214 C 
ATOM     27  H12 UNL     1      26.757   4.650  -3.695  1.00  0.00     0.278 HD
ATOM     28  H11 UNL     1      26.771   4.235  -2.193  1.00  0.00     0.278 HD
HETATM   29  C1  UNL     1      28.378   5.972  -1.942  1.00  0.00     0.043 C 
HETATM   30  C25 UNL     1      26.248   6.945  -1.324  1.00  0.00     0.179 C 
HETATM   31  C24 UNL     1      24.759   7.040  -1.552  1.00  0.00     0.174 C 
HETATM   32  C22 UNL     1      24.422   6.370  -2.844  1.00  0.00     0.155 C 
BRANCH  30  33
HETATM   33  O10 UNL     1      26.795   8.229  -1.211  1.00  0.00    -0.391 OA
ATOM     34  H10 UNL     1      27.732   8.134  -1.089  1.00  0.00     0.210 HD
ENDBRANCH  30  33
BRANCH  31  35
HETATM   35  O9  UNL     1      24.387   8.389  -1.585  1.00  0.00    -0.391 OA
ATOM     36  H9  UNL     1      24.068   8.669  -0.734  1.00  0.00     0.210 HD
ENDBRANCH  31  35
BRANCH  32  37
HETATM   37  N12 UNL     1      23.018   6.395  -3.116  1.00  0.00    -0.357 N 
HETATM   38  C23 UNL     1      22.515   7.183  -3.978  1.00  0.00     0.197 C 
HETATM   39  N13 UNL     1      23.371   8.065  -4.690  1.00  0.00    -0.067 NA
HETATM   40  N14 UNL     1      21.133   7.216  -4.257  1.00  0.00    -0.067 NA
ATOM     41  H12 UNL     1      22.403   5.761  -2.605  1.00  0.00     0.162 HD
ENDBRANCH  32  37
ENDBRANCH  21  24
ENDBRANCH  15  20
BRANCH  16  42
HETATM   42  N11 UNL     1      25.618   1.123  -0.774  1.00  0.00    -0.359 NA
ATOM     43 2H11 UNL     1      26.391   1.759  -0.580  1.00  0.00     0.171 HD
ATOM     44 1H11 UNL     1      25.330   1.476  -1.687  1.00  0.00     0.171 HD
ENDBRANCH  16  42
ENDBRANCH   1  14
BRANCH   2  45
HETATM   45  C8  UNL     1      27.640   3.816   3.769  1.00  0.00     0.111 A 
HETATM   46  C9  UNL     1      28.276   4.931   3.215  1.00  0.00     0.149 A 
HETATM   47  N4  UNL     1      29.624   4.735   3.227  1.00  0.00    -0.255 N 
HETATM   48  N5  UNL     1      29.809   3.551   3.766  1.00  0.00    -0.238 N 
HETATM   49  N6  UNL     1      28.642   3.001   4.089  1.00  0.00    -0.281 N 
ATOM     50  H5  UNL     1      30.720   3.116   3.914  1.00  0.00     0.208 HD
ATOM     51  H6  UNL     1      28.531   2.084   4.521  1.00  0.00     0.188 HD
BRANCH  47  52
HETATM   52  C10 UNL     1      30.643   5.614   2.758  1.00  0.00     0.276 C 
HETATM   53  O2  UNL     1      31.625   5.875   3.709  1.00  0.00    -0.352 OA
HETATM   54  C11 UNL     1      32.804   5.317   3.236  1.00  0.00     0.186 C 
HETATM   55  C14 UNL     1      32.734   5.602   1.738  1.00  0.00     0.182 C 
HETATM   56  C15 UNL     1      31.296   5.192   1.486  1.00  0.00     0.200 C 
BRANCH  54  57
HETATM   57  C12 UNL     1      34.028   5.897   3.863  1.00  0.00     0.173 C 
BRANCH  57  58
HETATM   58  O3  UNL     1      35.113   5.967   3.027  1.00  0.00    -0.391 OA
ATOM     59  H3  UNL     1      35.932   5.698   3.426  1.00  0.00     0.210 HD
ENDBRANCH  57  58
BRANCH  57  60
HETATM   60  C13 UNL     1      34.299   5.204   5.175  1.00  0.00     0.198 C 
BRANCH  60  61
HETATM   61  O4  UNL     1      33.119   4.504   5.498  1.00  0.00    -0.398 OA
ATOM     62  H4  UNL     1      32.962   4.665   6.420  1.00  0.00     0.209 HD
ENDBRANCH  60  61
ENDBRANCH  57  60
ENDBRANCH  54  57
BRANCH  55  63
HETATM   63  O5  UNL     1      32.901   6.970   1.528  1.00  0.00    -0.390 OA
ATOM     64  H5  UNL     1      33.716   7.247   1.930  1.00  0.00     0.210 HD
ENDBRANCH  55  63
BRANCH  56  65
HETATM   65  O6  UNL     1      31.322   3.798   1.300  1.00  0.00    -0.388 OA
ATOM     66  H6  UNL     1      31.902   3.517   0.603  1.00  0.00     0.210 HD
ENDBRANCH  56  65
ENDBRANCH  47  52
ENDBRANCH   2  45
TORSDOF 15
ENDMDL
MODEL 5
REMARK VINA RESULT: -5.834104705      2.391      7.539
REMARK  15 active torsions:
REMARK  status: ('A' for Active; 'I' for Inactive)
REMARK    1  A    between atoms: C3_6  and  C4_7 
REMARK       I    between atoms: C4_7  and  N2_9 
REMARK    2  A    between atoms: N2_9  and  C5_11 
REMARK    3  A    between atoms: C6_12  and  N3_13 
REMARK    4  A    between atoms: C7_14  and  C8_15 
REMARK    5  A    between atoms: N4_17  and  C10_18 
REMARK    6  A    between atoms: C11_20  and  C12_21 
REMARK    7  A    between atoms: C12_21  and  O3_22 
REMARK    8  A    between atoms: C12_21  and  C13_24 
REMARK    9  A    between atoms: C13_24  and  O4_25 
REMARK   10  A    between atoms: C14_27  and  O5_28 
REMARK   11  A    between atoms: C15_30  and  O6_31 
REMARK   12  A    between atoms: N10_51  and  N11_52 
REMARK   13  A    between atoms: C22_55  and  N12_56 
REMARK   14  A    between atoms: C24_61  and  O9_62 
REMARK   15  A    between atoms: C25_64  and  O10_65 
ROOT
HETATM    1  N3  UNL     1      31.429   4.111   4.494  1.00  0.00    -0.284 N 
HETATM    2  C7  UNL     1      30.445   3.492   5.221  1.00  0.00     0.142 A 
HETATM    3  N7  UNL     1      31.049   3.097   6.351  1.00  0.00    -0.333 N 
ATOM      4  H7  UNL     1      30.570   2.601   7.102  1.00  0.00     0.168 HD
HETATM    5  C16 UNL     1      32.338   3.418   6.390  1.00  0.00     0.147 A 
HETATM    6  C17 UNL     1      33.364   3.242   7.307  1.00  0.00     0.277 A 
HETATM    7  O7  UNL     1      33.085   2.645   8.368  1.00  0.00    -0.266 OA
HETATM    8  N8  UNL     1      34.605   3.687   7.075  1.00  0.00    -0.318 N 
ATOM      9  H8  UNL     1      35.352   3.550   7.756  1.00  0.00     0.169 HD
HETATM   10  C18 UNL     1      34.829   4.320   5.911  1.00  0.00     0.185 A 
HETATM   11  N9  UNL     1      33.843   4.493   5.022  1.00  0.00    -0.336 N 
ATOM     12  H9  UNL     1      34.070   4.979   4.154  1.00  0.00     0.168 HD
HETATM   13  C19 UNL     1      32.576   4.072   5.188  1.00  0.00     0.145 A 
ENDROOT
BRANCH   1  14
HETATM   14  C6  UNL     1      31.171   4.667   3.211  1.00  0.00     0.272 C 
HETATM   15  C5  UNL     1      31.844   4.118   2.025  1.00  0.00     0.231 C 
HETATM   16  N10 UNL     1      32.740   5.194   1.552  1.00  0.00    -0.181 NA
HETATM   17  C20 UNL     1      32.859   5.980   2.790  1.00  0.00     0.215 C 
HETATM   18  O8  UNL     1      31.527   6.034   3.171  1.00  0.00    -0.341 OA
HETATM   19  C21 UNL     1      33.357   7.373   2.395  1.00  0.00     0.058 C 
BRANCH  15  20
HETATM   20  N2  UNL     1      30.864   3.850   0.948  1.00  0.00    -0.337 N 
HETATM   21  C4  UNL     1      30.194   2.613   0.839  1.00  0.00     0.252 C 
HETATM   22  O1  UNL     1      30.492   1.746   1.731  1.00  0.00    -0.271 OA
ATOM     23  H2  UNL     1      30.667   4.581   0.265  1.00  0.00     0.164 HD
BRANCH  21  24
HETATM   24  C3  UNL     1      29.202   2.257  -0.195  1.00  0.00     0.302 C 
HETATM   25  N1  UNL     1      29.356   3.170  -1.319  1.00  0.00    -0.054 N 
HETATM   26  C2  UNL     1      28.322   4.153  -1.409  1.00  0.00     0.214 C 
ATOM     27  H12 UNL     1      29.437   2.652  -2.194  1.00  0.00     0.278 HD
ATOM     28  H11 UNL     1      30.273   3.615  -1.298  1.00  0.00     0.278 HD
HETATM   29  C1  UNL     1      28.889   5.326  -2.204  1.00  0.00     0.043 C 
HETATM   30  C25 UNL     1      27.895   4.725  -0.079  1.00  0.00     0.179 C 
HETATM   31  C24 UNL     1      27.561   3.656   0.932  1.00  0.00     0.174 C 
HETATM   32  C22 UNL     1      27.777   2.315   0.310  1.00  0.00     0.155 C 
BRANCH  30  33
HETATM   33  O10 UNL     1      26.775   5.536  -0.302  1.00  0.00    -0.391 OA
ATOM     34  H10 UNL     1      26.958   6.391   0.068  1.00  0.00     0.210 HD
ENDBRANCH  30  33
BRANCH  31  35
HETATM   35  O9  UNL     1      26.227   3.804   1.331  1.00  0.00    -0.391 OA
ATOM     36  H9  UNL     1      26.041   3.258   2.086  1.00  0.00     0.210 HD
ENDBRANCH  31  35
BRANCH  32  37
HETATM   37  N12 UNL     1      27.508   1.246   1.220  1.00  0.00    -0.357 N 
HETATM   38  C23 UNL     1      26.422   0.585   1.178  1.00  0.00     0.197 C 
HETATM   39  N13 UNL     1      25.449   0.919   0.198  1.00  0.00    -0.067 NA
HETATM   40  N14 UNL     1      26.144  -0.472   2.069  1.00  0.00    -0.067 NA
ATOM     41  H12 UNL     1      28.206   1.006   1.924  1.00  0.00     0.162 HD
ENDBRANCH  32  37
ENDBRANCH  21  24
ENDBRANCH  15  20
BRANCH  16  42
HETATM   42  N11 UNL     1      32.038   6.019   0.670  1.00  0.00    -0.359 NA
ATOM     43 2H11 UNL     1      31.697   6.788   1.245  1.00  0.00     0.171 HD
ATOM     44 1H11 UNL     1      31.151   5.574   0.432  1.00  0.00     0.171 HD
ENDBRANCH  16  42
ENDBRANCH   1  14
BRANCH   2  45
HETATM   45  C8  UNL     1      29.052   3.320   4.841  1.00  0.00     0.111 A 
HETATM   46  C9  UNL     1      28.016   4.085   5.386  1.00  0.00     0.149 A 
HETATM   47  N4  UNL     1      26.830   3.696   4.838  1.00  0.00    -0.255 N 
HETATM   48  N5  UNL     1      27.124   2.734   3.994  1.00  0.00    -0.238 N 
HETATM   49  N6  UNL     1      28.435   2.505   3.989  1.00  0.00    -0.281 N 
ATOM     50  H5  UNL     1      26.443   2.234   3.423  1.00  0.00     0.208 HD
ATOM     51  H6  UNL     1      28.901   1.804   3.413  1.00  0.00     0.188 HD
BRANCH  47  52
HETATM   52  C10 UNL     1      25.529   4.208   5.109  1.00  0.00     0.276 C 
HETATM   53  O2  UNL     1      24.631   4.008   4.066  1.00  0.00    -0.352 OA
HETATM   54  C11 UNL     1      23.663   3.128   4.528  1.00  0.00     0.186 C 
HETATM   55  C14 UNL     1      23.463   3.576   5.974  1.00  0.00     0.182 C 
HETATM   56  C15 UNL     1      24.917   3.723   6.379  1.00  0.00     0.200 C 
BRANCH  54  57
HETATM   57  C12 UNL     1      22.395   3.174   3.743  1.00  0.00     0.173 C 
BRANCH  57  58
HETATM   58  O3  UNL     1      21.261   2.967   4.487  1.00  0.00    -0.391 OA
ATOM     59  H3  UNL     1      21.174   2.086   4.830  1.00  0.00     0.210 HD
ENDBRANCH  57  58
BRANCH  57  60
HETATM   60  C13 UNL     1      22.516   2.278   2.535  1.00  0.00     0.198 C 
BRANCH  60  61
HETATM   61  O4  UNL     1      23.580   2.798   1.770  1.00  0.00    -0.398 OA
ATOM     62  H4  UNL     1      23.530   2.368   0.925  1.00  0.00     0.209 HD
ENDBRANCH  60  61
ENDBRANCH  57  60
ENDBRANCH  54  57
BRANCH  55  63
HETATM   63  O5  UNL     1      22.822   4.814   5.980  1.00  0.00    -0.390 OA
ATOM     64  H5  UNL     1      22.004   4.735   6.456  1.00  0.00     0.210 HD
ENDBRANCH  55  63
BRANCH  56  65
HETATM   65  O6  UNL     1      25.342   2.436   6.754  1.00  0.00    -0.388 OA
ATOM     66  H6  UNL     1      24.894   1.737   6.293  1.00  0.00     0.210 HD
ENDBRANCH  56  65
ENDBRANCH  47  52
ENDBRANCH   2  45
TORSDOF 15
ENDMDL
