MODEL 1
REMARK VINA RESULT: -7.277451509      0.000      0.000
REMARK  5 active torsions:
REMARK  status: ('A' for Active; 'I' for Inactive)
REMARK    1  A    between atoms: C2_2  and  C3_3 
REMARK    2  A    between atoms: C8_8  and  C9_9 
REMARK    3  A    between atoms: C9_9  and  N1_10 
REMARK    4  A    between atoms: N1_10  and  C10_12 
REMARK    5  A    between atoms: C15_17  and  C16_18 
ROOT
HETATM    1  C10 UNL     1      11.405  -3.195  56.288  1.00  0.00     0.039 A 
HETATM    2  C11 UNL     1      12.394  -3.553  55.450  1.00  0.00     0.030 A 
HETATM    3  C12 UNL     1      12.544  -2.995  54.190  1.00  0.00     0.002 A 
HETATM    4  C13 UNL     1      11.580  -1.991  53.832  1.00  0.00     0.001 A 
HETATM    5  C14 UNL     1      10.565  -1.615  54.654  1.00  0.00     0.014 A 
HETATM    6  C15 UNL     1      10.468  -2.250  55.945  1.00  0.00     0.001 A 
ENDROOT
BRANCH   1   7
HETATM    7  N1  UNL     1      11.328  -3.860  57.610  1.00  0.00    -0.385 N 
ATOM      8  H1  UNL     1      10.500  -4.355  57.941  1.00  0.00     0.160 HD
BRANCH   7   9
HETATM    9  C9  UNL     1      12.574  -3.732  58.408  1.00  0.00     0.159 C 
BRANCH   9  10
HETATM   10  C8  UNL     1      12.561  -2.443  59.135  1.00  0.00    -0.034 A 
HETATM   11  C3  UNL     1      13.598  -1.585  58.856  1.00  0.00    -0.051 A 
HETATM   12  C4  UNL     1      13.650  -0.368  59.453  1.00  0.00     0.007 A 
HETATM   13  C5  UNL     1      12.624  -0.029  60.347  1.00  0.00     0.001 A 
HETATM   14  C6  UNL     1      11.592  -0.870  60.622  1.00  0.00     0.001 A 
HETATM   15  C7  UNL     1      11.562  -2.125  59.992  1.00  0.00     0.009 A 
BRANCH  11  16
HETATM   16  C2  UNL     1      14.598  -2.039  57.846  1.00  0.00     0.034 C 
HETATM   17  C1  UNL     1      14.635  -1.257  56.603  1.00  0.00     0.010 C 
ENDBRANCH  11  16
ENDBRANCH   9  10
ENDBRANCH   7   9
ENDBRANCH   1   7
BRANCH   6  18
HETATM   18  C16 UNL     1       9.404  -1.805  56.765  1.00  0.00    -0.024 A 
HETATM   19  C17 UNL     1       8.144  -2.384  56.726  1.00  0.00     0.012 A 
HETATM   20  C18 UNL     1       7.137  -1.816  57.525  1.00  0.00     0.001 A 
HETATM   21  C19 UNL     1       7.337  -0.739  58.329  1.00  0.00     0.000 A 
HETATM   22  C20 UNL     1       8.612  -0.190  58.344  1.00  0.00     0.001 A 
HETATM   23  C21 UNL     1       9.622  -0.733  57.566  1.00  0.00     0.012 A 
ENDBRANCH   6  18
TORSDOF 5
ENDMDL
MODEL 2
REMARK VINA RESULT: -7.269938027      1.404      4.336
REMARK  5 active torsions:
REMARK  status: ('A' for Active; 'I' for Inactive)
REMARK    1  A    between atoms: C2_2  and  C3_3 
REMARK    2  A    between atoms: C8_8  and  C9_9 
REMARK    3  A    between atoms: C9_9  and  N1_10 
REMARK    4  A    between atoms: N1_10  and  C10_12 
REMARK    5  A    between atoms: C15_17  and  C16_18 
ROOT
HETATM    1  C10 UNL     1       8.933  -0.765  57.851  1.00  0.00     0.039 A 
HETATM    2  C11 UNL     1       7.794  -0.248  58.345  1.00  0.00     0.030 A 
HETATM    3  C12 UNL     1       6.549  -0.796  58.082  1.00  0.00     0.002 A 
HETATM    4  C13 UNL     1       6.545  -1.970  57.253  1.00  0.00     0.001 A 
HETATM    5  C14 UNL     1       7.678  -2.512  56.734  1.00  0.00     0.014 A 
HETATM    6  C15 UNL     1       8.936  -1.877  57.043  1.00  0.00     0.001 A 
ENDROOT
BRANCH   1   7
HETATM    7  N1  UNL     1      10.213  -0.098  58.185  1.00  0.00    -0.385 N 
ATOM      8  H1  UNL     1      10.657   0.597  57.583  1.00  0.00     0.160 HD
BRANCH   7   9
HETATM    9  C9  UNL     1      10.788  -0.541  59.481  1.00  0.00     0.159 C 
BRANCH   9  10
HETATM   10  C8  UNL     1      12.234  -0.808  59.309  1.00  0.00    -0.034 A 
HETATM   11  C3  UNL     1      12.952  -0.992  60.467  1.00  0.00    -0.051 A 
HETATM   12  C4  UNL     1      14.277  -1.274  60.405  1.00  0.00     0.007 A 
HETATM   13  C5  UNL     1      14.872  -1.367  59.138  1.00  0.00     0.001 A 
HETATM   14  C6  UNL     1      14.166  -1.194  57.989  1.00  0.00     0.001 A 
HETATM   15  C7  UNL     1      12.795  -0.902  58.081  1.00  0.00     0.009 A 
BRANCH  11  16
HETATM   16  C2  UNL     1      12.195  -0.922  61.750  1.00  0.00     0.034 C 
HETATM   17  C1  UNL     1      12.977  -1.217  62.959  1.00  0.00     0.010 C 
ENDBRANCH  11  16
ENDBRANCH   9  10
ENDBRANCH   7   9
ENDBRANCH   1   7
BRANCH   6  18
HETATM   18  C16 UNL     1      10.083  -2.496  56.489  1.00  0.00    -0.024 A 
HETATM   19  C17 UNL     1      10.743  -3.539  57.122  1.00  0.00     0.012 A 
HETATM   20  C18 UNL     1      11.915  -4.031  56.524  1.00  0.00     0.001 A 
HETATM   21  C19 UNL     1      12.428  -3.540  55.365  1.00  0.00     0.000 A 
HETATM   22  C20 UNL     1      11.736  -2.499  54.760  1.00  0.00     0.001 A 
HETATM   23  C21 UNL     1      10.577  -1.998  55.329  1.00  0.00     0.012 A 
ENDBRANCH   6  18
TORSDOF 5
ENDMDL
MODEL 3
REMARK VINA RESULT: -7.196270160     11.818     15.266
REMARK  5 active torsions:
REMARK  status: ('A' for Active; 'I' for Inactive)
REMARK    1  A    between atoms: C2_2  and  C3_3 
REMARK    2  A    between atoms: C8_8  and  C9_9 
REMARK    3  A    between atoms: C9_9  and  N1_10 
REMARK    4  A    between atoms: N1_10  and  C10_12 
REMARK    5  A    between atoms: C15_17  and  C16_18 
ROOT
HETATM    1  C10 UNL     1      -3.182   1.337  62.753  1.00  0.00     0.039 A 
HETATM    2  C11 UNL     1      -4.224   0.773  63.388  1.00  0.00     0.030 A 
HETATM    3  C12 UNL     1      -4.191  -0.525  63.872  1.00  0.00     0.002 A 
HETATM    4  C13 UNL     1      -2.961  -1.238  63.666  1.00  0.00     0.001 A 
HETATM    5  C14 UNL     1      -1.893  -0.699  63.021  1.00  0.00     0.014 A 
HETATM    6  C15 UNL     1      -2.008   0.654  62.536  1.00  0.00     0.001 A 
ENDROOT
BRANCH   1   7
HETATM    7  N1  UNL     1      -3.322   2.729  62.266  1.00  0.00    -0.385 N 
ATOM      8  H1  UNL     1      -2.930   3.535  62.753  1.00  0.00     0.160 HD
BRANCH   7   9
HETATM    9  C9  UNL     1      -4.089   2.835  60.998  1.00  0.00     0.159 C 
BRANCH   9  10
HETATM   10  C8  UNL     1      -3.146   2.991  59.867  1.00  0.00    -0.034 A 
HETATM   11  C3  UNL     1      -3.210   2.021  58.894  1.00  0.00    -0.051 A 
HETATM   12  C4  UNL     1      -2.406   2.100  57.805  1.00  0.00     0.007 A 
HETATM   13  C5  UNL     1      -1.525   3.188  57.715  1.00  0.00     0.001 A 
HETATM   14  C6  UNL     1      -1.461   4.154  58.670  1.00  0.00     0.001 A 
HETATM   15  C7  UNL     1      -2.304   4.048  59.788  1.00  0.00     0.009 A 
BRANCH  11  16
HETATM   16  C2  UNL     1      -4.226   0.945  59.079  1.00  0.00     0.034 C 
HETATM   17  C1  UNL     1      -3.684  -0.406  59.277  1.00  0.00     0.010 C 
ENDBRANCH  11  16
ENDBRANCH   9  10
ENDBRANCH   7   9
ENDBRANCH   1   7
BRANCH   6  18
HETATM   18  C16 UNL     1      -0.859   1.169  61.889  1.00  0.00    -0.024 A 
HETATM   19  C17 UNL     1      -0.171   2.276  62.366  1.00  0.00     0.012 A 
HETATM   20  C18 UNL     1       0.912   2.751  61.607  1.00  0.00     0.001 A 
HETATM   21  C19 UNL     1       1.315   2.183  60.440  1.00  0.00     0.000 A 
HETATM   22  C20 UNL     1       0.604   1.075  59.998  1.00  0.00     0.001 A 
HETATM   23  C21 UNL     1      -0.465   0.586  60.730  1.00  0.00     0.012 A 
ENDBRANCH   6  18
TORSDOF 5
ENDMDL
MODEL 4
REMARK VINA RESULT: -7.144600783     12.496     15.854
REMARK  5 active torsions:
REMARK  status: ('A' for Active; 'I' for Inactive)
REMARK    1  A    between atoms: C2_2  and  C3_3 
REMARK    2  A    between atoms: C8_8  and  C9_9 
REMARK    3  A    between atoms: C9_9  and  N1_10 
REMARK    4  A    between atoms: N1_10  and  C10_12 
REMARK    5  A    between atoms: C15_17  and  C16_18 
ROOT
HETATM    1  C10 UNL     1      -3.471   2.866  64.004  1.00  0.00     0.039 A 
HETATM    2  C11 UNL     1      -3.920   2.654  65.254  1.00  0.00     0.030 A 
HETATM    3  C12 UNL     1      -5.177   2.133  65.517  1.00  0.00     0.002 A 
HETATM    4  C13 UNL     1      -5.975   1.814  64.367  1.00  0.00     0.001 A 
HETATM    5  C14 UNL     1      -5.552   2.023  63.092  1.00  0.00     0.014 A 
HETATM    6  C15 UNL     1      -4.236   2.581  62.899  1.00  0.00     0.001 A 
ENDROOT
BRANCH   1   7
HETATM    7  N1  UNL     1      -2.115   3.437  63.830  1.00  0.00    -0.385 N 
ATOM      8  H1  UNL     1      -1.944   4.417  63.601  1.00  0.00     0.160 HD
BRANCH   7   9
HETATM    9  C9  UNL     1      -1.028   2.444  64.022  1.00  0.00     0.159 C 
BRANCH   9  10
HETATM   10  C8  UNL     1      -0.618   1.906  62.705  1.00  0.00    -0.034 A 
HETATM   11  C3  UNL     1      -0.918   0.584  62.476  1.00  0.00    -0.051 A 
HETATM   12  C4  UNL     1      -0.609   0.016  61.284  1.00  0.00     0.007 A 
HETATM   13  C5  UNL     1       0.017   0.814  60.316  1.00  0.00     0.001 A 
HETATM   14  C6  UNL     1       0.311   2.124  60.533  1.00  0.00     0.001 A 
HETATM   15  C7  UNL     1      -0.020   2.689  61.776  1.00  0.00     0.009 A 
BRANCH  11  16
HETATM   16  C2  UNL     1      -1.634  -0.144  63.563  1.00  0.00     0.034 C 
HETATM   17  C1  UNL     1      -2.859  -0.845  63.150  1.00  0.00     0.010 C 
ENDBRANCH  11  16
ENDBRANCH   9  10
ENDBRANCH   7   9
ENDBRANCH   1   7
BRANCH   6  18
HETATM   18  C16 UNL     1      -3.843   2.760  61.551  1.00  0.00    -0.024 A 
HETATM   19  C17 UNL     1      -3.800   1.711  60.644  1.00  0.00     0.012 A 
HETATM   20  C18 UNL     1      -3.322   1.982  59.351  1.00  0.00     0.001 A 
HETATM   21  C19 UNL     1      -2.906   3.212  58.949  1.00  0.00     0.000 A 
HETATM   22  C20 UNL     1      -2.968   4.237  59.883  1.00  0.00     0.001 A 
HETATM   23  C21 UNL     1      -3.437   3.995  61.164  1.00  0.00     0.012 A 
ENDBRANCH   6  18
TORSDOF 5
ENDMDL
MODEL 5
REMARK VINA RESULT: -7.066628875     10.992     14.748
REMARK  5 active torsions:
REMARK  status: ('A' for Active; 'I' for Inactive)
REMARK    1  A    between atoms: C2_2  and  C3_3 
REMARK    2  A    between atoms: C8_8  and  C9_9 
REMARK    3  A    between atoms: C9_9  and  N1_10 
REMARK    4  A    between atoms: N1_10  and  C10_12 
REMARK    5  A    between atoms: C15_17  and  C16_18 
ROOT
HETATM    1  C10 UNL     1      -2.683  -0.074  61.326  1.00  0.00     0.039 A 
HETATM    2  C11 UNL     1      -3.784  -0.530  61.950  1.00  0.00     0.030 A 
HETATM    3  C12 UNL     1      -3.917  -0.524  63.329  1.00  0.00     0.002 A 
HETATM    4  C13 UNL     1      -2.806   0.015  64.062  1.00  0.00     0.001 A 
HETATM    5  C14 UNL     1      -1.678   0.476  63.461  1.00  0.00     0.014 A 
HETATM    6  C15 UNL     1      -1.608   0.426  62.021  1.00  0.00     0.001 A 
ENDROOT
BRANCH   1   7
HETATM    7  N1  UNL     1      -2.636  -0.133  59.846  1.00  0.00    -0.385 N 
ATOM      8  H1  UNL     1      -2.096  -0.828  59.329  1.00  0.00     0.160 HD
BRANCH   7   9
HETATM    9  C9  UNL     1      -3.452   0.919  59.188  1.00  0.00     0.159 C 
BRANCH   9  10
HETATM   10  C8  UNL     1      -2.582   2.063  58.833  1.00  0.00    -0.034 A 
HETATM   11  C3  UNL     1      -2.833   3.239  59.500  1.00  0.00    -0.051 A 
HETATM   12  C4  UNL     1      -2.065   4.330  59.262  1.00  0.00     0.007 A 
HETATM   13  C5  UNL     1      -1.026   4.214  58.327  1.00  0.00     0.001 A 
HETATM   14  C6  UNL     1      -0.768   3.052  57.669  1.00  0.00     0.001 A 
HETATM   15  C7  UNL     1      -1.579   1.936  57.933  1.00  0.00     0.009 A 
BRANCH  11  16
HETATM   16  C2  UNL     1      -3.930   3.221  60.511  1.00  0.00     0.034 C 
HETATM   17  C1  UNL     1      -3.531   3.578  61.879  1.00  0.00     0.010 C 
ENDBRANCH  11  16
ENDBRANCH   9  10
ENDBRANCH   7   9
ENDBRANCH   1   7
BRANCH   6  18
HETATM   18  C16 UNL     1      -0.417   0.936  61.451  1.00  0.00    -0.024 A 
HETATM   19  C17 UNL     1      -0.023   2.256  61.611  1.00  0.00     0.012 A 
HETATM   20  C18 UNL     1       1.136   2.680  60.940  1.00  0.00     0.001 A 
HETATM   21  C19 UNL     1       1.884   1.865  60.150  1.00  0.00     0.000 A 
HETATM   22  C20 UNL     1       1.460   0.550  60.018  1.00  0.00     0.001 A 
HETATM   23  C21 UNL     1       0.321   0.108  60.671  1.00  0.00     0.012 A 
ENDBRANCH   6  18
TORSDOF 5
ENDMDL
