MODEL 1
REMARK VINA RESULT: -7.842256341      0.000      0.000
REMARK  10 active torsions:
REMARK  status: ('A' for Active; 'I' for Inactive)
REMARK    1  A    between atoms: C2_2  and  O1_3 
REMARK    2  A    between atoms: C4_7  and  O3_8 
REMARK    3  A    between atoms: C4_7  and  C5_10 
REMARK       I    between atoms: C5_10  and  N1_12 
REMARK    4  A    between atoms: N1_12  and  C6_14 
REMARK    5  A    between atoms: C6_14  and  O5_15 
REMARK    6  A    between atoms: C6_14  and  N2_17 
REMARK    7  A    between atoms: C7_20  and  N4_21 
REMARK    8  A    between atoms: C9_28  and  O7_29 
REMARK    9  A    between atoms: O7_29  and  N6_30 
REMARK   10  A    between atoms: C10_33  and  N7_34 
ROOT
HETATM    1  C1  UNL     1      18.877  24.498 102.259  1.00  0.00     0.057 C 
HETATM    2  C2  UNL     1      18.002  25.490 101.527  1.00  0.00     0.148 C 
HETATM    3  C3  UNL     1      18.885  26.486 100.852  1.00  0.00     0.209 C 
HETATM    4  O2  UNL     1      19.562  26.309  99.853  1.00  0.00    -0.291 OA
HETATM    5  C4  UNL     1      18.839  27.785 101.582  1.00  0.00     0.233 C 
HETATM    6  C9  UNL     1      18.073  27.509 102.853  1.00  0.00     0.237 C 
HETATM    7  C10 UNL     1      17.195  26.345 102.444  1.00  0.00     0.260 C 
ENDROOT
BRANCH   5   8
HETATM    8  O3  UNL     1      18.194  28.758 100.835  1.00  0.00    -0.371 OA
ATOM      9  H3  UNL     1      17.827  29.434 101.393  1.00  0.00     0.211 HD
ENDBRANCH   5   8
BRANCH   5  10
HETATM   10  C5  UNL     1      20.204  28.235 101.974  1.00  0.00     0.266 C 
HETATM   11  O4  UNL     1      20.313  29.401 102.405  1.00  0.00    -0.269 OA
HETATM   12  N1  UNL     1      21.346  27.413 101.876  1.00  0.00    -0.313 N 
ATOM     13  H1  UNL     1      21.255  26.460 101.523  1.00  0.00     0.167 HD
BRANCH  12  14
HETATM   14  C6  UNL     1      22.627  27.905 102.267  1.00  0.00     0.357 C 
BRANCH  14  15
HETATM   15  O5  UNL     1      23.013  28.986 101.478  1.00  0.00    -0.358 OA
ATOM     16  H5  UNL     1      23.945  29.152 101.556  1.00  0.00     0.214 HD
ENDBRANCH  14  15
BRANCH  14  17
HETATM   17  N2  UNL     1      23.676  26.898 102.168  1.00  0.00    -0.180 N 
HETATM   18  N3  UNL     1      24.766  26.846 102.913  1.00  0.00    -0.122 N 
HETATM   19  C7  UNL     1      25.490  25.798 102.544  1.00  0.00     0.695 A 
ATOM     20  H3  UNL     1      25.011  27.504 103.652  1.00  0.00     0.206 HD
HETATM   21  N5  UNL     1      24.838  25.196 101.558  1.00  0.00    -0.139 N 
HETATM   22  C8  UNL     1      23.713  25.871 101.319  1.00  0.00     0.359 A 
ATOM     23  H5  UNL     1      25.145  24.358 101.065  1.00  0.00     0.189 HD
HETATM   24  O6  UNL     1      22.869  25.545 100.430  1.00  0.00    -0.244 OA
BRANCH  19  25
HETATM   25  N4  UNL     1      26.628  25.474 103.090  1.00  0.00    -0.233 N 
ATOM     26  H42 UNL     1      27.037  24.549 103.216  1.00  0.00     0.174 HD
ATOM     27  H41 UNL     1      27.283  26.151 103.481  1.00  0.00     0.174 HD
ENDBRANCH  19  25
ENDBRANCH  14  17
ENDBRANCH  12  14
ENDBRANCH   5  10
BRANCH   6  28
HETATM   28  O7  UNL     1      17.320  28.583 103.271  1.00  0.00    -0.276 OA
BRANCH  28  29
HETATM   29  N6  UNL     1      17.697  29.024 104.500  1.00  0.00    -0.311 N 
ATOM     30  H62 UNL     1      18.651  29.306 104.722  1.00  0.00     0.184 HD
ATOM     31  H61 UNL     1      16.918  29.036 105.159  1.00  0.00     0.184 HD
ENDBRANCH  28  29
ENDBRANCH   6  28
BRANCH   2  32
HETATM   32  O1  UNL     1      17.267  24.826 100.572  1.00  0.00    -0.380 OA
ATOM     33  H1  UNL     1      16.913  25.457  99.956  1.00  0.00     0.211 HD
ENDBRANCH   2  32
BRANCH   7  34
HETATM   34  N7  UNL     1      16.672  25.622 103.586  1.00  0.00    -0.069 N 
ATOM     35  H73 UNL     1      15.661  25.734 103.654  1.00  0.00     0.275 HD
ATOM     36  H72 UNL     1      16.720  24.615 103.431  1.00  0.00     0.275 HD
ATOM     37  H71 UNL     1      17.125  25.876 104.463  1.00  0.00     0.275 HD
ENDBRANCH   7  34
TORSDOF 10
ENDMDL
MODEL 2
REMARK VINA RESULT: -6.896190301      1.055      1.405
REMARK  10 active torsions:
REMARK  status: ('A' for Active; 'I' for Inactive)
REMARK    1  A    between atoms: C2_2  and  O1_3 
REMARK    2  A    between atoms: C4_7  and  O3_8 
REMARK    3  A    between atoms: C4_7  and  C5_10 
REMARK       I    between atoms: C5_10  and  N1_12 
REMARK    4  A    between atoms: N1_12  and  C6_14 
REMARK    5  A    between atoms: C6_14  and  O5_15 
REMARK    6  A    between atoms: C6_14  and  N2_17 
REMARK    7  A    between atoms: C7_20  and  N4_21 
REMARK    8  A    between atoms: C9_28  and  O7_29 
REMARK    9  A    between atoms: O7_29  and  N6_30 
REMARK   10  A    between atoms: C10_33  and  N7_34 
ROOT
HETATM    1  C1  UNL     1      18.760  24.423 102.251  1.00  0.00     0.057 C 
HETATM    2  C2  UNL     1      18.005  25.493 101.495  1.00  0.00     0.148 C 
HETATM    3  C3  UNL     1      18.999  26.404 100.854  1.00  0.00     0.209 C 
HETATM    4  O2  UNL     1      19.690  26.166  99.877  1.00  0.00    -0.291 OA
HETATM    5  C4  UNL     1      19.049  27.700 101.588  1.00  0.00     0.233 C 
HETATM    6  C9  UNL     1      18.219  27.495 102.832  1.00  0.00     0.237 C 
HETATM    7  C10 UNL     1      17.251  26.417 102.389  1.00  0.00     0.260 C 
ENDROOT
BRANCH   5   8
HETATM    8  O3  UNL     1      18.522  28.730 100.824  1.00  0.00    -0.371 OA
ATOM      9  H3  UNL     1      17.651  28.968 101.121  1.00  0.00     0.211 HD
ENDBRANCH   5   8
BRANCH   5  10
HETATM   10  C5  UNL     1      20.436  28.022 102.026  1.00  0.00     0.266 C 
HETATM   11  O4  UNL     1      20.648  29.185 102.425  1.00  0.00    -0.269 OA
HETATM   12  N1  UNL     1      21.489  27.083 102.006  1.00  0.00    -0.313 N 
ATOM     13  H1  UNL     1      21.314  26.132 101.680  1.00  0.00     0.167 HD
BRANCH  12  14
HETATM   14  C6  UNL     1      22.797  27.455 102.440  1.00  0.00     0.357 C 
BRANCH  14  15
HETATM   15  O5  UNL     1      23.220  28.626 101.815  1.00  0.00    -0.358 OA
ATOM     16  H5  UNL     1      23.585  28.445 100.957  1.00  0.00     0.214 HD
ENDBRANCH  14  15
BRANCH  14  17
HETATM   17  N2  UNL     1      23.797  26.431 102.165  1.00  0.00    -0.180 N 
HETATM   18  N3  UNL     1      23.779  25.590 101.146  1.00  0.00    -0.122 N 
HETATM   19  C7  UNL     1      24.845  24.804 101.217  1.00  0.00     0.695 A 
ATOM     20  H3  UNL     1      23.061  25.551 100.423  1.00  0.00     0.206 HD
HETATM   21  N5  UNL     1      25.530  25.165 102.294  1.00  0.00    -0.139 N 
HETATM   22  C8  UNL     1      24.887  26.172 102.887  1.00  0.00     0.359 A 
ATOM     23  H5  UNL     1      26.401  24.744 102.615  1.00  0.00     0.189 HD
HETATM   24  O6  UNL     1      25.292  26.741 103.946  1.00  0.00    -0.244 OA
BRANCH  19  25
HETATM   25  N4  UNL     1      25.112  23.866 100.353  1.00  0.00    -0.233 N 
ATOM     26  H42 UNL     1      24.696  23.701  99.438  1.00  0.00     0.174 HD
ATOM     27  H41 UNL     1      25.815  23.142 100.502  1.00  0.00     0.174 HD
ENDBRANCH  19  25
ENDBRANCH  14  17
ENDBRANCH  12  14
ENDBRANCH   5  10
BRANCH   6  28
HETATM   28  O7  UNL     1      17.555  28.633 103.229  1.00  0.00    -0.276 OA
BRANCH  28  29
HETATM   29  N6  UNL     1      17.686  28.862 104.562  1.00  0.00    -0.311 N 
ATOM     30  H62 UNL     1      18.042  28.164 105.215  1.00  0.00     0.184 HD
ATOM     31  H61 UNL     1      17.389  29.802 104.821  1.00  0.00     0.184 HD
ENDBRANCH  28  29
ENDBRANCH   6  28
BRANCH   2  32
HETATM   32  O1  UNL     1      17.244  24.901 100.513  1.00  0.00    -0.380 OA
ATOM     33  H1  UNL     1      16.532  25.483 100.276  1.00  0.00     0.211 HD
ENDBRANCH   2  32
BRANCH   7  34
HETATM   34  N7  UNL     1      16.626  25.745 103.509  1.00  0.00    -0.069 N 
ATOM     35  H73 UNL     1      17.218  24.989 103.854  1.00  0.00     0.275 HD
ATOM     36  H72 UNL     1      16.620  26.344 104.335  1.00  0.00     0.275 HD
ATOM     37  H71 UNL     1      15.688  25.404 103.301  1.00  0.00     0.275 HD
ENDBRANCH   7  34
TORSDOF 10
ENDMDL
MODEL 3
REMARK VINA RESULT: -6.625621707      1.367      2.454
REMARK  10 active torsions:
REMARK  status: ('A' for Active; 'I' for Inactive)
REMARK    1  A    between atoms: C2_2  and  O1_3 
REMARK    2  A    between atoms: C4_7  and  O3_8 
REMARK    3  A    between atoms: C4_7  and  C5_10 
REMARK       I    between atoms: C5_10  and  N1_12 
REMARK    4  A    between atoms: N1_12  and  C6_14 
REMARK    5  A    between atoms: C6_14  and  O5_15 
REMARK    6  A    between atoms: C6_14  and  N2_17 
REMARK    7  A    between atoms: C7_20  and  N4_21 
REMARK    8  A    between atoms: C9_28  and  O7_29 
REMARK    9  A    between atoms: O7_29  and  N6_30 
REMARK   10  A    between atoms: C10_33  and  N7_34 
ROOT
HETATM    1  C1  UNL     1      17.296  25.362 103.725  1.00  0.00     0.057 C 
HETATM    2  C2  UNL     1      16.938  26.459 102.749  1.00  0.00     0.148 C 
HETATM    3  C3  UNL     1      17.550  26.130 101.428  1.00  0.00     0.209 C 
HETATM    4  O2  UNL     1      17.181  25.275 100.640  1.00  0.00    -0.291 OA
HETATM    5  C4  UNL     1      18.724  27.013 101.176  1.00  0.00     0.233 C 
HETATM    6  C9  UNL     1      18.959  27.754 102.470  1.00  0.00     0.237 C 
HETATM    7  C10 UNL     1      17.573  27.766 103.081  1.00  0.00     0.260 C 
ENDROOT
BRANCH   5   8
HETATM    8  O3  UNL     1      18.467  27.910 100.150  1.00  0.00    -0.371 OA
ATOM      9  H3  UNL     1      18.862  28.756 100.325  1.00  0.00     0.211 HD
ENDBRANCH   5   8
BRANCH   5  10
HETATM   10  C5  UNL     1      19.950  26.216 100.890  1.00  0.00     0.266 C 
HETATM   11  O4  UNL     1      20.188  25.955  99.694  1.00  0.00    -0.269 OA
HETATM   12  N1  UNL     1      20.826  25.760 101.897  1.00  0.00    -0.313 N 
ATOM     13  H1  UNL     1      20.630  25.975 102.875  1.00  0.00     0.167 HD
BRANCH  12  14
HETATM   14  C6  UNL     1      21.985  25.000 101.556  1.00  0.00     0.357 C 
BRANCH  14  15
HETATM   15  O5  UNL     1      21.898  23.701 102.054  1.00  0.00    -0.358 OA
ATOM     16  H5  UNL     1      22.760  23.350 102.247  1.00  0.00     0.214 HD
ENDBRANCH  14  15
BRANCH  14  17
HETATM   17  N2  UNL     1      23.217  25.582 102.074  1.00  0.00    -0.180 N 
HETATM   18  N3  UNL     1      24.290  24.907 102.448  1.00  0.00    -0.122 N 
HETATM   19  C7  UNL     1      25.213  25.762 102.863  1.00  0.00     0.695 A 
ATOM     20  H3  UNL     1      24.391  23.892 102.422  1.00  0.00     0.206 HD
HETATM   21  N5  UNL     1      24.704  26.982 102.743  1.00  0.00    -0.139 N 
HETATM   22  C8  UNL     1      23.468  26.878 102.255  1.00  0.00     0.359 A 
ATOM     23  H5  UNL     1      25.178  27.851 102.984  1.00  0.00     0.189 HD
HETATM   24  O6  UNL     1      22.714  27.872 102.026  1.00  0.00    -0.244 OA
BRANCH  19  25
HETATM   25  N4  UNL     1      26.389  25.405 103.298  1.00  0.00    -0.233 N 
ATOM     26  H42 UNL     1      26.955  25.828 104.033  1.00  0.00     0.174 HD
ATOM     27  H41 UNL     1      26.912  24.611 102.931  1.00  0.00     0.174 HD
ENDBRANCH  19  25
ENDBRANCH  14  17
ENDBRANCH  12  14
ENDBRANCH   5  10
BRANCH   6  28
HETATM   28  O7  UNL     1      19.434  29.032 102.279  1.00  0.00    -0.276 OA
BRANCH  28  29
HETATM   29  N6  UNL     1      20.496  29.307 103.082  1.00  0.00    -0.311 N 
ATOM     30  H62 UNL     1      21.427  28.922 102.926  1.00  0.00     0.184 HD
ATOM     31  H61 UNL     1      20.246  29.937 103.845  1.00  0.00     0.184 HD
ENDBRANCH  28  29
ENDBRANCH   6  28
BRANCH   2  32
HETATM   32  O1  UNL     1      15.570  26.509 102.607  1.00  0.00    -0.380 OA
ATOM     33  H1  UNL     1      15.344  26.340 101.700  1.00  0.00     0.211 HD
ENDBRANCH   2  32
BRANCH   7  34
HETATM   34  N7  UNL     1      17.602  28.042 104.503  1.00  0.00    -0.069 N 
ATOM     35  H73 UNL     1      17.011  28.842 104.729  1.00  0.00     0.275 HD
ATOM     36  H72 UNL     1      17.109  27.317 105.023  1.00  0.00     0.275 HD
ATOM     37  H71 UNL     1      18.545  28.173 104.868  1.00  0.00     0.275 HD
ENDBRANCH   7  34
TORSDOF 10
ENDMDL
MODEL 4
REMARK VINA RESULT: -6.485874304      1.495      1.796
REMARK  10 active torsions:
REMARK  status: ('A' for Active; 'I' for Inactive)
REMARK    1  A    between atoms: C2_2  and  O1_3 
REMARK    2  A    between atoms: C4_7  and  O3_8 
REMARK    3  A    between atoms: C4_7  and  C5_10 
REMARK       I    between atoms: C5_10  and  N1_12 
REMARK    4  A    between atoms: N1_12  and  C6_14 
REMARK    5  A    between atoms: C6_14  and  O5_15 
REMARK    6  A    between atoms: C6_14  and  N2_17 
REMARK    7  A    between atoms: C7_20  and  N4_21 
REMARK    8  A    between atoms: C9_28  and  O7_29 
REMARK    9  A    between atoms: O7_29  and  N6_30 
REMARK   10  A    between atoms: C10_33  and  N7_34 
ROOT
HETATM    1  C1  UNL     1      19.096  24.036  99.462  1.00  0.00     0.057 C 
HETATM    2  C2  UNL     1      17.873  24.743  99.999  1.00  0.00     0.148 C 
HETATM    3  C3  UNL     1      18.130  26.213  99.969  1.00  0.00     0.209 C 
HETATM    4  O2  UNL     1      18.146  26.936  98.986  1.00  0.00    -0.291 OA
HETATM    5  C4  UNL     1      18.377  26.716 101.350  1.00  0.00     0.233 C 
HETATM    6  C9  UNL     1      18.483  25.484 102.217  1.00  0.00     0.237 C 
HETATM    7  C10 UNL     1      17.640  24.487 101.449  1.00  0.00     0.260 C 
ENDROOT
BRANCH   5   8
HETATM    8  O3  UNL     1      17.336  27.521 101.786  1.00  0.00    -0.371 OA
ATOM      9  H3  UNL     1      17.160  28.221 101.168  1.00  0.00     0.211 HD
ENDBRANCH   5   8
BRANCH   5  10
HETATM   10  C5  UNL     1      19.679  27.436 101.440  1.00  0.00     0.266 C 
HETATM   11  O4  UNL     1      19.633  28.681 101.500  1.00  0.00    -0.269 OA
HETATM   12  N1  UNL     1      20.925  26.777 101.457  1.00  0.00    -0.313 N 
ATOM     13  H1  UNL     1      20.961  25.759 101.408  1.00  0.00     0.167 HD
BRANCH  12  14
HETATM   14  C6  UNL     1      22.137  27.526 101.544  1.00  0.00     0.357 C 
BRANCH  14  15
HETATM   15  O5  UNL     1      22.479  28.074 100.309  1.00  0.00    -0.358 OA
ATOM     16  H5  UNL     1      23.033  28.838 100.415  1.00  0.00     0.214 HD
ENDBRANCH  14  15
BRANCH  14  17
HETATM   17  N2  UNL     1      23.269  26.723 101.991  1.00  0.00    -0.180 N 
HETATM   18  N3  UNL     1      24.065  27.012 103.006  1.00  0.00    -0.122 N 
HETATM   19  C7  UNL     1      24.980  26.060 103.119  1.00  0.00     0.695 A 
ATOM     20  H3  UNL     1      23.987  27.834 103.605  1.00  0.00     0.206 HD
HETATM   21  N5  UNL     1      24.747  25.172 102.162  1.00  0.00    -0.139 N 
HETATM   22  C8  UNL     1      23.688  25.576 101.459  1.00  0.00     0.359 A 
ATOM     23  H5  UNL     1      25.286  24.324 101.992  1.00  0.00     0.189 HD
HETATM   24  O6  UNL     1      23.213  24.938 100.471  1.00  0.00    -0.244 OA
BRANCH  19  25
HETATM   25  N4  UNL     1      25.914  26.057 104.028  1.00  0.00    -0.233 N 
ATOM     26  H42 UNL     1      25.837  26.251 105.026  1.00  0.00     0.174 HD
ATOM     27  H41 UNL     1      26.893  25.848 103.836  1.00  0.00     0.174 HD
ENDBRANCH  19  25
ENDBRANCH  14  17
ENDBRANCH  12  14
ENDBRANCH   5  10
BRANCH   6  28
HETATM   28  O7  UNL     1      17.995  25.679 103.489  1.00  0.00    -0.276 OA
BRANCH  28  29
HETATM   29  N6  UNL     1      16.655  25.463 103.560  1.00  0.00    -0.311 N 
ATOM     30  H62 UNL     1      16.192  24.677 103.104  1.00  0.00     0.184 HD
ATOM     31  H61 UNL     1      16.181  26.174 104.118  1.00  0.00     0.184 HD
ENDBRANCH  28  29
ENDBRANCH   6  28
BRANCH   2  32
HETATM   32  O1  UNL     1      16.796  24.461  99.190  1.00  0.00    -0.380 OA
ATOM     33  H1  UNL     1      17.069  23.867  98.501  1.00  0.00     0.211 HD
ENDBRANCH   2  32
BRANCH   7  34
HETATM   34  N7  UNL     1      17.916  23.119 101.838  1.00  0.00    -0.069 N 
ATOM     35  H73 UNL     1      17.191  22.766 102.463  1.00  0.00     0.275 HD
ATOM     36  H72 UNL     1      17.784  22.484 101.051  1.00  0.00     0.275 HD
ATOM     37  H71 UNL     1      18.840  22.998 102.251  1.00  0.00     0.275 HD
ENDBRANCH   7  34
TORSDOF 10
ENDMDL
MODEL 5
REMARK VINA RESULT: -6.484547485      2.416      4.280
REMARK  10 active torsions:
REMARK  status: ('A' for Active; 'I' for Inactive)
REMARK    1  A    between atoms: C2_2  and  O1_3 
REMARK    2  A    between atoms: C4_7  and  O3_8 
REMARK    3  A    between atoms: C4_7  and  C5_10 
REMARK       I    between atoms: C5_10  and  N1_12 
REMARK    4  A    between atoms: N1_12  and  C6_14 
REMARK    5  A    between atoms: C6_14  and  O5_15 
REMARK    6  A    between atoms: C6_14  and  N2_17 
REMARK    7  A    between atoms: C7_20  and  N4_21 
REMARK    8  A    between atoms: C9_28  and  O7_29 
REMARK    9  A    between atoms: O7_29  and  N6_30 
REMARK   10  A    between atoms: C10_33  and  N7_34 
ROOT
HETATM    1  C1  UNL     1      16.935  23.405 105.259  1.00  0.00     0.057 C 
HETATM    2  C2  UNL     1      16.493  23.021 103.866  1.00  0.00     0.148 C 
HETATM    3  C3  UNL     1      17.261  23.846 102.887  1.00  0.00     0.209 C 
HETATM    4  O2  UNL     1      18.434  23.715 102.577  1.00  0.00    -0.291 OA
HETATM    5  C4  UNL     1      16.381  24.899 102.305  1.00  0.00     0.233 C 
HETATM    6  C9  UNL     1      15.104  24.848 103.108  1.00  0.00     0.237 C 
HETATM    7  C10 UNL     1      15.083  23.406 103.574  1.00  0.00     0.260 C 
ENDROOT
BRANCH   5   8
HETATM    8  O3  UNL     1      16.117  24.651 100.967  1.00  0.00    -0.371 OA
ATOM      9  H3  UNL     1      16.653  25.197 100.404  1.00  0.00     0.211 HD
ENDBRANCH   5   8
BRANCH   5  10
HETATM   10  C5  UNL     1      16.968  26.256 102.488  1.00  0.00     0.266 C 
HETATM   11  O4  UNL     1      16.480  26.966 103.391  1.00  0.00    -0.269 OA
HETATM   12  N1  UNL     1      18.024  26.753 101.697  1.00  0.00    -0.313 N 
ATOM     13  H1  UNL     1      18.422  26.172 100.959  1.00  0.00     0.167 HD
BRANCH  12  14
HETATM   14  C6  UNL     1      18.541  28.064 101.923  1.00  0.00     0.357 C 
BRANCH  14  15
HETATM   15  O5  UNL     1      18.398  28.863 100.790  1.00  0.00    -0.358 OA
ATOM     16  H5  UNL     1      17.548  29.288 100.776  1.00  0.00     0.214 HD
ENDBRANCH  14  15
BRANCH  14  17
HETATM   17  N2  UNL     1      19.955  28.063 102.276  1.00  0.00    -0.180 N 
HETATM   18  N3  UNL     1      20.855  27.192 101.851  1.00  0.00    -0.122 N 
HETATM   19  C7  UNL     1      22.032  27.500 102.376  1.00  0.00     0.695 A 
ATOM     20  H3  UNL     1      20.672  26.411 101.222  1.00  0.00     0.206 HD
HETATM   21  N5  UNL     1      21.858  28.574 103.135  1.00  0.00    -0.139 N 
HETATM   22  C8  UNL     1      20.574  28.928 103.078  1.00  0.00     0.359 A 
ATOM     23  H5  UNL     1      22.584  29.048 103.672  1.00  0.00     0.189 HD
HETATM   24  O6  UNL     1      20.088  29.922 103.699  1.00  0.00    -0.244 OA
BRANCH  19  25
HETATM   25  N4  UNL     1      23.125  26.827 102.148  1.00  0.00    -0.233 N 
ATOM     26  H42 UNL     1      24.073  27.174 102.005  1.00  0.00     0.174 HD
ATOM     27  H41 UNL     1      23.162  25.810 102.082  1.00  0.00     0.174 HD
ENDBRANCH  19  25
ENDBRANCH  14  17
ENDBRANCH  12  14
ENDBRANCH   5  10
BRANCH   6  28
HETATM   28  O7  UNL     1      13.987  25.150 102.361  1.00  0.00    -0.276 OA
BRANCH  28  29
HETATM   29  N6  UNL     1      13.368  26.277 102.801  1.00  0.00    -0.311 N 
ATOM     30  H62 UNL     1      13.754  26.876 103.530  1.00  0.00     0.184 HD
ATOM     31  H61 UNL     1      12.485  26.443 102.317  1.00  0.00     0.184 HD
ENDBRANCH  28  29
ENDBRANCH   6  28
BRANCH   2  32
HETATM   32  O1  UNL     1      16.777  21.692 103.651  1.00  0.00    -0.380 OA
ATOM     33  H1  UNL     1      17.718  21.582 103.579  1.00  0.00     0.211 HD
ENDBRANCH   2  32
BRANCH   7  34
HETATM   34  N7  UNL     1      14.191  23.205 104.697  1.00  0.00    -0.069 N 
ATOM     35  H73 UNL     1      13.748  22.288 104.648  1.00  0.00     0.275 HD
ATOM     36  H72 UNL     1      14.719  23.090 105.563  1.00  0.00     0.275 HD
ATOM     37  H71 UNL     1      13.492  23.941 104.793  1.00  0.00     0.275 HD
ENDBRANCH   7  34
TORSDOF 10
ENDMDL
