MODEL 1
REMARK VINA RESULT: -8.413611153      0.000      0.000
REMARK  12 active torsions:
REMARK  status: ('A' for Active; 'I' for Inactive)
REMARK    1  A    between atoms: N1_1  and  C1_4 
REMARK    2  A    between atoms: N5_15  and  C5_16 
REMARK    3  A    between atoms: C6_18  and  O3_19 
REMARK    4  A    between atoms: C6_18  and  C7_21 
REMARK       I    between atoms: C7_21  and  N6_23 
REMARK    5  A    between atoms: N6_23  and  C8_25 
REMARK    6  A    between atoms: C8_25  and  C9_26 
REMARK    7  A    between atoms: C10_29  and  O7_30 
REMARK    8  A    between atoms: C10_29  and  O8_32 
REMARK    9  A    between atoms: O8_32  and  N7_33 
REMARK   10  A    between atoms: N7_33  and  O9_34 
REMARK   11  A    between atoms: C11_36  and  O10_37 
REMARK   12  A    between atoms: C11_36  and  O11_39 
ROOT
HETATM    1  C5  UNL     1      24.403  36.261   6.310  1.00  0.00     0.318 C 
HETATM    2  O2  UNL     1      23.517  36.405   5.246  1.00  0.00    -0.310 OA
HETATM    3  C6  UNL     1      22.316  36.758   5.856  1.00  0.00     0.313 C 
HETATM    4  C10 UNL     1      22.199  35.852   7.045  1.00  0.00     0.313 C 
HETATM    5  C11 UNL     1      23.611  35.361   7.237  1.00  0.00     0.273 C 
ENDROOT
BRANCH   1   6
HETATM    6  N5  UNL     1      25.653  35.678   5.954  1.00  0.00    -0.233 N 
HETATM    7  C3  UNL     1      26.814  35.774   6.599  1.00  0.00     0.169 A 
HETATM    8  C2  UNL     1      27.252  36.411   7.758  1.00  0.00     0.292 A 
HETATM    9  C4  UNL     1      27.746  35.050   5.893  1.00  0.00     0.171 A 
HETATM   10  N2  UNL     1      28.544  36.290   8.126  1.00  0.00    -0.154 N 
HETATM   11  O1  UNL     1      26.403  37.065   8.393  1.00  0.00    -0.265 OA
HETATM   12  C1  UNL     1      29.407  35.573   7.402  1.00  0.00     0.680 A 
ATOM     13  H2  UNL     1      28.868  36.756   8.974  1.00  0.00     0.187 HD
HETATM   14  N8  UNL     1      29.019  34.938   6.266  1.00  0.00    -0.173 N 
ATOM     15  H8  UNL     1      29.682  34.392   5.715  1.00  0.00     0.186 HD
HETATM   16  N3  UNL     1      27.119  34.527   4.827  1.00  0.00    -0.268 N 
HETATM   17  N4  UNL     1      25.867  34.922   4.894  1.00  0.00    -0.236 N 
ATOM     18  H3  UNL     1      27.533  33.938   4.105  1.00  0.00     0.190 HD
ATOM     19  H4  UNL     1      25.151  34.675   4.212  1.00  0.00     0.208 HD
BRANCH  12  20
HETATM   20  N1  UNL     1      30.650  35.436   7.723  1.00  0.00    -0.234 N 
ATOM     21  H12 UNL     1      31.079  36.238   8.185  1.00  0.00     0.174 HD
ATOM     22  H11 UNL     1      31.182  34.586   7.534  1.00  0.00     0.174 HD
ENDBRANCH  12  20
ENDBRANCH   1   6
BRANCH   5  23
HETATM   23  O10 UNL     1      23.723  34.056   6.762  1.00  0.00    -0.358 OA
ATOM     24  H10 UNL     1      22.867  33.783   6.456  1.00  0.00     0.213 HD
ENDBRANCH   5  23
BRANCH   5  25
HETATM   25  O11 UNL     1      24.091  35.527   8.512  1.00  0.00    -0.358 OA
ATOM     26  H11 UNL     1      24.630  34.774   8.728  1.00  0.00     0.213 HD
ENDBRANCH   5  25
BRANCH   3  27
HETATM   27  O3  UNL     1      22.418  38.085   6.301  1.00  0.00    -0.354 OA
ATOM     28  H3  UNL     1      21.759  38.603   5.855  1.00  0.00     0.213 HD
ENDBRANCH   3  27
BRANCH   3  29
HETATM   29  C7  UNL     1      21.170  36.637   4.930  1.00  0.00     0.287 C 
HETATM   30  O4  UNL     1      20.028  36.990   5.292  1.00  0.00    -0.267 OA
HETATM   31  N6  UNL     1      21.349  36.116   3.619  1.00  0.00    -0.346 N 
ATOM     32  H6  UNL     1      22.282  35.827   3.325  1.00  0.00     0.163 HD
BRANCH  31  33
HETATM   33  C8  UNL     1      20.252  35.984   2.691  1.00  0.00     0.235 C 
BRANCH  33  34
HETATM   34  C9  UNL     1      20.211  37.153   1.810  1.00  0.00     0.191 C 
HETATM   35  O5  UNL     1      21.121  37.999   1.816  1.00  0.00    -0.647 OA
HETATM   36  O6  UNL     1      19.123  37.306   0.950  1.00  0.00    -0.647 OA
ENDBRANCH  33  34
ENDBRANCH  31  33
ENDBRANCH   3  29
BRANCH   4  37
HETATM   37  O7  UNL     1      21.385  34.766   6.738  1.00  0.00    -0.355 OA
ATOM     38  H7  UNL     1      21.718  34.316   5.970  1.00  0.00     0.213 HD
ENDBRANCH   4  37
BRANCH   4  39
HETATM   39  O8  UNL     1      21.680  36.471   8.165  1.00  0.00    -0.208 OA
BRANCH  39  40
HETATM   40  N7  UNL     1      21.138  35.559   8.965  1.00  0.00     0.067 NA
BRANCH  40  41
HETATM   41  O9  UNL     1      19.846  35.776   9.261  1.00  0.00    -0.271 OA
ATOM     42  H9  UNL     1      19.670  36.616   9.668  1.00  0.00     0.241 HD
ENDBRANCH  40  41
ENDBRANCH  39  40
ENDBRANCH   4  39
TORSDOF 12
ENDMDL
MODEL 2
REMARK VINA RESULT: -7.862350545      1.492      1.727
REMARK  12 active torsions:
REMARK  status: ('A' for Active; 'I' for Inactive)
REMARK    1  A    between atoms: N1_1  and  C1_4 
REMARK    2  A    between atoms: N5_15  and  C5_16 
REMARK    3  A    between atoms: C6_18  and  O3_19 
REMARK    4  A    between atoms: C6_18  and  C7_21 
REMARK       I    between atoms: C7_21  and  N6_23 
REMARK    5  A    between atoms: N6_23  and  C8_25 
REMARK    6  A    between atoms: C8_25  and  C9_26 
REMARK    7  A    between atoms: C10_29  and  O7_30 
REMARK    8  A    between atoms: C10_29  and  O8_32 
REMARK    9  A    between atoms: O8_32  and  N7_33 
REMARK   10  A    between atoms: N7_33  and  O9_34 
REMARK   11  A    between atoms: C11_36  and  O10_37 
REMARK   12  A    between atoms: C11_36  and  O11_39 
ROOT
HETATM    1  C5  UNL     1      24.114  36.373   5.174  1.00  0.00     0.318 C 
HETATM    2  O2  UNL     1      23.601  36.555   3.893  1.00  0.00    -0.310 OA
HETATM    3  C6  UNL     1      22.266  36.886   4.111  1.00  0.00     0.313 C 
HETATM    4  C10 UNL     1      21.795  35.938   5.174  1.00  0.00     0.313 C 
HETATM    5  C11 UNL     1      23.084  35.441   5.778  1.00  0.00     0.273 C 
ENDROOT
BRANCH   1   6
HETATM    6  N5  UNL     1      25.419  35.803   5.204  1.00  0.00    -0.233 N 
HETATM    7  C3  UNL     1      26.356  35.953   6.138  1.00  0.00     0.169 A 
HETATM    8  C2  UNL     1      26.451  36.649   7.341  1.00  0.00     0.292 A 
HETATM    9  C4  UNL     1      27.454  35.220   5.751  1.00  0.00     0.171 A 
HETATM   10  N2  UNL     1      27.593  36.574   8.055  1.00  0.00    -0.154 N 
HETATM   11  O1  UNL     1      25.454  37.312   7.686  1.00  0.00    -0.265 OA
HETATM   12  C1  UNL     1      28.629  35.845   7.632  1.00  0.00     0.680 A 
ATOM     13  H2  UNL     1      27.666  37.083   8.936  1.00  0.00     0.187 HD
HETATM   14  N8  UNL     1      28.576  35.153   6.465  1.00  0.00    -0.173 N 
ATOM     15  H8  UNL     1      29.370  34.599   6.145  1.00  0.00     0.186 HD
HETATM   16  N3  UNL     1      27.150  34.638   4.579  1.00  0.00    -0.268 N 
HETATM   17  N4  UNL     1      25.925  35.007   4.281  1.00  0.00    -0.236 N 
ATOM     18  H3  UNL     1      27.753  34.027   4.029  1.00  0.00     0.190 HD
ATOM     19  H4  UNL     1      25.427  34.715   3.441  1.00  0.00     0.208 HD
BRANCH  12  20
HETATM   20  N1  UNL     1      29.737  35.750   8.289  1.00  0.00    -0.234 N 
ATOM     21  H12 UNL     1      29.709  36.082   9.253  1.00  0.00     0.174 HD
ATOM     22  H11 UNL     1      30.592  35.369   7.884  1.00  0.00     0.174 HD
ENDBRANCH  12  20
ENDBRANCH   1   6
BRANCH   5  23
HETATM   23  O10 UNL     1      23.352  34.154   5.318  1.00  0.00    -0.358 OA
ATOM     24  H10 UNL     1      22.639  33.894   4.747  1.00  0.00     0.213 HD
ENDBRANCH   5  23
BRANCH   5  25
HETATM   25  O11 UNL     1      23.143  35.561   7.144  1.00  0.00    -0.358 OA
ATOM     26  H11 UNL     1      22.960  34.711   7.526  1.00  0.00     0.213 HD
ENDBRANCH   5  25
BRANCH   3  27
HETATM   27  O3  UNL     1      22.210  38.196   4.610  1.00  0.00    -0.354 OA
ATOM     28  H3  UNL     1      21.768  38.178   5.451  1.00  0.00     0.213 HD
ENDBRANCH   3  27
BRANCH   3  29
HETATM   29  C7  UNL     1      21.464  36.797   2.872  1.00  0.00     0.287 C 
HETATM   30  O4  UNL     1      21.606  35.827   2.098  1.00  0.00    -0.267 OA
HETATM   31  N6  UNL     1      20.523  37.812   2.543  1.00  0.00    -0.346 N 
ATOM     32  H6  UNL     1      20.409  38.603   3.175  1.00  0.00     0.163 HD
BRANCH  31  33
HETATM   33  C8  UNL     1      19.726  37.755   1.342  1.00  0.00     0.235 C 
BRANCH  33  34
HETATM   34  C9  UNL     1      19.741  39.061   0.681  1.00  0.00     0.191 C 
HETATM   35  O5  UNL     1      20.784  39.526   0.191  1.00  0.00    -0.647 OA
HETATM   36  O6  UNL     1      18.552  39.789   0.608  1.00  0.00    -0.647 OA
ENDBRANCH  33  34
ENDBRANCH  31  33
ENDBRANCH   3  29
BRANCH   4  37
HETATM   37  O7  UNL     1      21.129  34.863   4.594  1.00  0.00    -0.355 OA
ATOM     38  H7  UNL     1      20.928  35.057   3.685  1.00  0.00     0.213 HD
ENDBRANCH   4  37
BRANCH   4  39
HETATM   39  O8  UNL     1      20.948  36.517   6.098  1.00  0.00    -0.208 OA
BRANCH  39  40
HETATM   40  N7  UNL     1      20.276  35.568   6.740  1.00  0.00     0.067 NA
BRANCH  40  41
HETATM   41  O9  UNL     1      20.171  35.759   8.066  1.00  0.00    -0.271 OA
ATOM     42  H9  UNL     1      20.111  34.960   8.576  1.00  0.00     0.241 HD
ENDBRANCH  40  41
ENDBRANCH  39  40
ENDBRANCH   4  39
TORSDOF 12
ENDMDL
MODEL 3
REMARK VINA RESULT: -7.813271144      2.878      3.664
REMARK  12 active torsions:
REMARK  status: ('A' for Active; 'I' for Inactive)
REMARK    1  A    between atoms: N1_1  and  C1_4 
REMARK    2  A    between atoms: N5_15  and  C5_16 
REMARK    3  A    between atoms: C6_18  and  O3_19 
REMARK    4  A    between atoms: C6_18  and  C7_21 
REMARK       I    between atoms: C7_21  and  N6_23 
REMARK    5  A    between atoms: N6_23  and  C8_25 
REMARK    6  A    between atoms: C8_25  and  C9_26 
REMARK    7  A    between atoms: C10_29  and  O7_30 
REMARK    8  A    between atoms: C10_29  and  O8_32 
REMARK    9  A    between atoms: O8_32  and  N7_33 
REMARK   10  A    between atoms: N7_33  and  O9_34 
REMARK   11  A    between atoms: C11_36  and  O10_37 
REMARK   12  A    between atoms: C11_36  and  O11_39 
ROOT
HETATM    1  C5  UNL     1      23.476  35.734   5.116  1.00  0.00     0.318 C 
HETATM    2  O2  UNL     1      22.576  34.767   4.678  1.00  0.00    -0.310 OA
HETATM    3  C6  UNL     1      21.407  35.058   5.375  1.00  0.00     0.313 C 
HETATM    4  C10 UNL     1      21.849  35.347   6.779  1.00  0.00     0.313 C 
HETATM    5  C11 UNL     1      23.322  35.625   6.618  1.00  0.00     0.273 C 
ENDROOT
BRANCH   1   6
HETATM    6  N5  UNL     1      24.822  35.504   4.709  1.00  0.00    -0.233 N 
HETATM    7  C3  UNL     1      25.751  36.409   4.406  1.00  0.00     0.169 A 
HETATM    8  C2  UNL     1      25.799  37.801   4.361  1.00  0.00     0.292 A 
HETATM    9  C4  UNL     1      26.900  35.733   4.069  1.00  0.00     0.171 A 
HETATM   10  N2  UNL     1      26.947  38.408   3.997  1.00  0.00    -0.154 N 
HETATM   11  O1  UNL     1      24.754  38.408   4.667  1.00  0.00    -0.265 OA
HETATM   12  C1  UNL     1      28.035  37.700   3.680  1.00  0.00     0.680 A 
ATOM     13  H2  UNL     1      26.985  39.426   3.962  1.00  0.00     0.187 HD
HETATM   14  N8  UNL     1      28.028  36.343   3.711  1.00  0.00    -0.173 N 
ATOM     15  H8  UNL     1      28.861  35.807   3.467  1.00  0.00     0.186 HD
HETATM   16  N3  UNL     1      26.636  34.421   4.179  1.00  0.00    -0.268 N 
HETATM   17  N4  UNL     1      25.383  34.319   4.564  1.00  0.00    -0.236 N 
ATOM     18  H3  UNL     1      27.281  33.652   3.998  1.00  0.00     0.190 HD
ATOM     19  H4  UNL     1      24.905  33.434   4.731  1.00  0.00     0.208 HD
BRANCH  12  20
HETATM   20  N1  UNL     1      29.150  38.247   3.326  1.00  0.00    -0.234 N 
ATOM     21  H12 UNL     1      29.217  38.521   2.346  1.00  0.00     0.174 HD
ATOM     22  H11 UNL     1      29.923  38.401   3.975  1.00  0.00     0.174 HD
ENDBRANCH  12  20
ENDBRANCH   1   6
BRANCH   5  23
HETATM   23  O10 UNL     1      24.058  34.521   7.044  1.00  0.00    -0.358 OA
ATOM     24  H10 UNL     1      23.448  33.814   7.220  1.00  0.00     0.213 HD
ENDBRANCH   5  23
BRANCH   5  25
HETATM   25  O11 UNL     1      23.730  36.809   7.180  1.00  0.00    -0.358 OA
ATOM     26  H11 UNL     1      24.586  36.675   7.569  1.00  0.00     0.213 HD
ENDBRANCH   5  25
BRANCH   3  27
HETATM   27  O3  UNL     1      20.840  36.220   4.827  1.00  0.00    -0.354 OA
ATOM     28  H3  UNL     1      20.901  36.915   5.471  1.00  0.00     0.213 HD
ENDBRANCH   3  27
BRANCH   3  29
HETATM   29  C7  UNL     1      20.428  33.952   5.301  1.00  0.00     0.287 C 
HETATM   30  O4  UNL     1      19.229  34.152   5.587  1.00  0.00    -0.267 OA
HETATM   31  N6  UNL     1      20.837  32.649   4.904  1.00  0.00    -0.346 N 
ATOM     32  H6  UNL     1      21.817  32.487   4.672  1.00  0.00     0.163 HD
BRANCH  31  33
HETATM   33  C8  UNL     1      19.908  31.548   4.821  1.00  0.00     0.235 C 
BRANCH  33  34
HETATM   34  C9  UNL     1      20.567  30.395   4.206  1.00  0.00     0.191 C 
HETATM   35  O5  UNL     1      21.765  30.435   3.875  1.00  0.00    -0.647 OA
HETATM   36  O6  UNL     1      19.823  29.234   3.991  1.00  0.00    -0.647 OA
ENDBRANCH  33  34
ENDBRANCH  31  33
ENDBRANCH   3  29
BRANCH   4  37
HETATM   37  O7  UNL     1      21.691  34.213   7.571  1.00  0.00    -0.355 OA
ATOM     38  H7  UNL     1      20.769  34.066   7.749  1.00  0.00     0.213 HD
ENDBRANCH   4  37
BRANCH   4  39
HETATM   39  O8  UNL     1      21.160  36.383   7.376  1.00  0.00    -0.208 OA
BRANCH  39  40
HETATM   40  N7  UNL     1      20.219  35.889   8.173  1.00  0.00     0.067 NA
BRANCH  40  41
HETATM   41  O9  UNL     1      20.569  35.814   9.468  1.00  0.00    -0.271 OA
ATOM     42  H9  UNL     1      21.019  36.582   9.800  1.00  0.00     0.241 HD
ENDBRANCH  40  41
ENDBRANCH  39  40
ENDBRANCH   4  39
TORSDOF 12
ENDMDL
MODEL 4
REMARK VINA RESULT: -7.649955208      2.445      3.597
REMARK  12 active torsions:
REMARK  status: ('A' for Active; 'I' for Inactive)
REMARK    1  A    between atoms: N1_1  and  C1_4 
REMARK    2  A    between atoms: N5_15  and  C5_16 
REMARK    3  A    between atoms: C6_18  and  O3_19 
REMARK    4  A    between atoms: C6_18  and  C7_21 
REMARK       I    between atoms: C7_21  and  N6_23 
REMARK    5  A    between atoms: N6_23  and  C8_25 
REMARK    6  A    between atoms: C8_25  and  C9_26 
REMARK    7  A    between atoms: C10_29  and  O7_30 
REMARK    8  A    between atoms: C10_29  and  O8_32 
REMARK    9  A    between atoms: O8_32  and  N7_33 
REMARK   10  A    between atoms: N7_33  and  O9_34 
REMARK   11  A    between atoms: C11_36  and  O10_37 
REMARK   12  A    between atoms: C11_36  and  O11_39 
ROOT
HETATM    1  C5  UNL     1      24.853  36.309   5.977  1.00  0.00     0.318 C 
HETATM    2  O2  UNL     1      24.596  35.013   5.542  1.00  0.00    -0.310 OA
HETATM    3  C6  UNL     1      23.237  35.024   5.241  1.00  0.00     0.313 C 
HETATM    4  C10 UNL     1      22.591  35.768   6.372  1.00  0.00     0.313 C 
HETATM    5  C11 UNL     1      23.748  36.506   6.995  1.00  0.00     0.273 C 
ENDROOT
BRANCH   1   6
HETATM    6  N5  UNL     1      26.141  36.484   6.561  1.00  0.00    -0.233 N 
HETATM    7  C3  UNL     1      27.310  36.613   5.937  1.00  0.00     0.169 A 
HETATM    8  C2  UNL     1      27.727  36.629   4.608  1.00  0.00     0.292 A 
HETATM    9  C4  UNL     1      28.283  36.759   6.899  1.00  0.00     0.171 A 
HETATM   10  N2  UNL     1      29.037  36.784   4.332  1.00  0.00    -0.154 N 
HETATM   11  O1  UNL     1      26.841  36.496   3.742  1.00  0.00    -0.265 OA
HETATM   12  C1  UNL     1      29.941  36.922   5.306  1.00  0.00     0.680 A 
ATOM     13  H2  UNL     1      29.345  36.795   3.359  1.00  0.00     0.187 HD
HETATM   14  N8  UNL     1      29.575  36.911   6.614  1.00  0.00    -0.173 N 
ATOM     15  H8  UNL     1      30.268  37.016   7.355  1.00  0.00     0.186 HD
HETATM   16  N3  UNL     1      27.671  36.716   8.094  1.00  0.00    -0.268 N 
HETATM   17  N4  UNL     1      26.389  36.551   7.855  1.00  0.00    -0.236 N 
ATOM     18  H3  UNL     1      28.114  36.795   9.008  1.00  0.00     0.190 HD
ATOM     19  H4  UNL     1      25.675  36.483   8.580  1.00  0.00     0.208 HD
BRANCH  12  20
HETATM   20  N1  UNL     1      31.203  37.072   5.079  1.00  0.00    -0.234 N 
ATOM     21  H12 UNL     1      31.522  36.785   4.154  1.00  0.00     0.174 HD
ATOM     22  H11 UNL     1      31.850  37.451   5.770  1.00  0.00     0.174 HD
ENDBRANCH  12  20
ENDBRANCH   1   6
BRANCH   5  23
HETATM   23  O10 UNL     1      24.134  35.866   8.172  1.00  0.00    -0.358 OA
ATOM     24  H10 UNL     1      23.749  34.997   8.171  1.00  0.00     0.213 HD
ENDBRANCH   5  23
BRANCH   5  25
HETATM   25  O11 UNL     1      23.535  37.853   7.146  1.00  0.00    -0.358 OA
ATOM     26  H11 UNL     1      22.641  37.982   7.439  1.00  0.00     0.213 HD
ENDBRANCH   5  25
BRANCH   3  27
HETATM   27  O3  UNL     1      23.051  35.747   4.053  1.00  0.00    -0.354 OA
ATOM     28  H3  UNL     1      23.871  35.757   3.576  1.00  0.00     0.213 HD
ENDBRANCH   3  27
BRANCH   3  29
HETATM   29  C7  UNL     1      22.696  33.658   5.075  1.00  0.00     0.287 C 
HETATM   30  O4  UNL     1      23.464  32.673   5.072  1.00  0.00    -0.267 OA
HETATM   31  N6  UNL     1      21.299  33.445   4.915  1.00  0.00    -0.346 N 
ATOM     32  H6  UNL     1      20.673  34.251   4.917  1.00  0.00     0.163 HD
BRANCH  31  33
HETATM   33  C8  UNL     1      20.739  32.126   4.750  1.00  0.00     0.235 C 
BRANCH  33  34
HETATM   34  C9  UNL     1      19.516  32.008   5.546  1.00  0.00     0.191 C 
HETATM   35  O5  UNL     1      18.681  32.928   5.588  1.00  0.00    -0.647 OA
HETATM   36  O6  UNL     1      19.297  30.834   6.268  1.00  0.00    -0.647 OA
ENDBRANCH  33  34
ENDBRANCH  31  33
ENDBRANCH   3  29
BRANCH   4  37
HETATM   37  O7  UNL     1      22.078  34.869   7.303  1.00  0.00    -0.355 OA
ATOM     38  H7  UNL     1      21.320  35.245   7.734  1.00  0.00     0.213 HD
ENDBRANCH   4  37
BRANCH   4  39
HETATM   39  O8  UNL     1      21.565  36.601   5.973  1.00  0.00    -0.208 OA
BRANCH  39  40
HETATM   40  N7  UNL     1      20.427  36.202   6.531  1.00  0.00     0.067 NA
BRANCH  40  41
HETATM   41  O9  UNL     1      19.605  35.533   5.704  1.00  0.00    -0.271 OA
ATOM     42  H9  UNL     1      18.882  35.095   6.137  1.00  0.00     0.241 HD
ENDBRANCH  40  41
ENDBRANCH  39  40
ENDBRANCH   4  39
TORSDOF 12
ENDMDL
MODEL 5
REMARK VINA RESULT: -7.640657008      1.572      1.872
REMARK  12 active torsions:
REMARK  status: ('A' for Active; 'I' for Inactive)
REMARK    1  A    between atoms: N1_1  and  C1_4 
REMARK    2  A    between atoms: N5_15  and  C5_16 
REMARK    3  A    between atoms: C6_18  and  O3_19 
REMARK    4  A    between atoms: C6_18  and  C7_21 
REMARK       I    between atoms: C7_21  and  N6_23 
REMARK    5  A    between atoms: N6_23  and  C8_25 
REMARK    6  A    between atoms: C8_25  and  C9_26 
REMARK    7  A    between atoms: C10_29  and  O7_30 
REMARK    8  A    between atoms: C10_29  and  O8_32 
REMARK    9  A    between atoms: O8_32  and  N7_33 
REMARK   10  A    between atoms: N7_33  and  O9_34 
REMARK   11  A    between atoms: C11_36  and  O10_37 
REMARK   12  A    between atoms: C11_36  and  O11_39 
ROOT
HETATM    1  C5  UNL     1      24.080  36.375   5.896  1.00  0.00     0.318 C 
HETATM    2  O2  UNL     1      23.235  37.111   5.072  1.00  0.00    -0.310 OA
HETATM    3  C6  UNL     1      21.964  36.638   5.388  1.00  0.00     0.313 C 
HETATM    4  C10 UNL     1      22.110  35.148   5.475  1.00  0.00     0.313 C 
HETATM    5  C11 UNL     1      23.598  34.964   5.634  1.00  0.00     0.273 C 
ENDROOT
BRANCH   1   6
HETATM    6  N5  UNL     1      25.464  36.521   5.591  1.00  0.00    -0.233 N 
HETATM    7  C3  UNL     1      26.489  36.566   6.441  1.00  0.00     0.169 A 
HETATM    8  C2  UNL     1      26.630  36.499   7.825  1.00  0.00     0.292 A 
HETATM    9  C4  UNL     1      27.639  36.716   5.701  1.00  0.00     0.171 A 
HETATM   10  N2  UNL     1      27.863  36.582   8.365  1.00  0.00    -0.154 N 
HETATM   11  O1  UNL     1      25.584  36.364   8.489  1.00  0.00    -0.265 OA
HETATM   12  C1  UNL     1      28.948  36.727   7.598  1.00  0.00     0.680 A 
ATOM     13  H2  UNL     1      27.969  36.534   9.378  1.00  0.00     0.187 HD
HETATM   14  N8  UNL     1      28.852  36.797   6.246  1.00  0.00    -0.173 N 
ATOM     15  H8  UNL     1      29.683  36.908   5.664  1.00  0.00     0.186 HD
HETATM   16  N3  UNL     1      27.278  36.757   4.408  1.00  0.00    -0.268 N 
HETATM   17  N4  UNL     1      25.970  36.638   4.378  1.00  0.00    -0.236 N 
ATOM     18  H3  UNL     1      27.899  36.861   3.606  1.00  0.00     0.190 HD
ATOM     19  H4  UNL     1      25.414  36.635   3.523  1.00  0.00     0.208 HD
BRANCH  12  20
HETATM   20  N1  UNL     1      30.143  36.810   8.080  1.00  0.00    -0.234 N 
ATOM     21  H12 UNL     1      30.734  37.534   7.673  1.00  0.00     0.174 HD
ATOM     22  H11 UNL     1      30.487  36.197   8.820  1.00  0.00     0.174 HD
ENDBRANCH  12  20
ENDBRANCH   1   6
BRANCH   5  23
HETATM   23  O10 UNL     1      24.150  34.541   4.426  1.00  0.00    -0.358 OA
ATOM     24  H10 UNL     1      23.647  33.795   4.121  1.00  0.00     0.213 HD
ENDBRANCH   5  23
BRANCH   5  25
HETATM   25  O11 UNL     1      23.952  34.181   6.705  1.00  0.00    -0.358 OA
ATOM     26  H11 UNL     1      24.898  34.199   6.787  1.00  0.00     0.213 HD
ENDBRANCH   5  25
BRANCH   3  27
HETATM   27  O3  UNL     1      21.607  37.136   6.651  1.00  0.00    -0.354 OA
ATOM     28  H3  UNL     1      21.006  37.861   6.529  1.00  0.00     0.213 HD
ENDBRANCH   3  27
BRANCH   3  29
HETATM   29  C7  UNL     1      20.954  37.056   4.392  1.00  0.00     0.287 C 
HETATM   30  O4  UNL     1      19.747  37.116   4.706  1.00  0.00    -0.267 OA
HETATM   31  N6  UNL     1      21.341  37.393   3.066  1.00  0.00    -0.346 N 
ATOM     32  H6  UNL     1      22.327  37.343   2.810  1.00  0.00     0.163 HD
BRANCH  31  33
HETATM   33  C8  UNL     1      20.381  37.804   2.070  1.00  0.00     0.235 C 
BRANCH  33  34
HETATM   34  C9  UNL     1      19.992  36.650   1.257  1.00  0.00     0.191 C 
HETATM   35  O5  UNL     1      18.961  36.666   0.564  1.00  0.00    -0.647 OA
HETATM   36  O6  UNL     1      20.806  35.516   1.271  1.00  0.00    -0.647 OA
ENDBRANCH  33  34
ENDBRANCH  31  33
ENDBRANCH   3  29
BRANCH   4  37
HETATM   37  O7  UNL     1      21.710  34.560   4.279  1.00  0.00    -0.355 OA
ATOM     38  H7  UNL     1      21.310  33.715   4.450  1.00  0.00     0.213 HD
ENDBRANCH   4  37
BRANCH   4  39
HETATM   39  O8  UNL     1      21.378  34.578   6.497  1.00  0.00    -0.208 OA
BRANCH  39  40
HETATM   40  N7  UNL     1      20.578  33.641   6.000  1.00  0.00     0.067 NA
BRANCH  40  41
HETATM   41  O9  UNL     1      19.367  34.085   5.623  1.00  0.00    -0.271 OA
ATOM     42  H9  UNL     1      19.327  35.017   5.445  1.00  0.00     0.241 HD
ENDBRANCH  40  41
ENDBRANCH  39  40
ENDBRANCH   4  39
TORSDOF 12
ENDMDL
