MODEL 1
REMARK VINA RESULT: -6.446347704      0.000      0.000
REMARK  10 active torsions:
REMARK  status: ('A' for Active; 'I' for Inactive)
REMARK    1  A    between atoms: C2_2  and  N1_3 
REMARK       I    between atoms: N1_3  and  C3_5 
REMARK    2  A    between atoms: C3_5  and  C4_7 
REMARK    3  A    between atoms: N3_10  and  C5_11 
REMARK    4  A    between atoms: C8_14  and  N4_15 
REMARK    5  A    between atoms: C9_18  and  N5_19 
REMARK    6  A    between atoms: C10_23  and  C11_24 
REMARK    7  A    between atoms: C11_24  and  N8_25 
REMARK    8  A    between atoms: N9_28  and  C12_30 
REMARK    9  A    between atoms: C13_31  and  C14_32 
REMARK   10  A    between atoms: C14_32  and  N10_33 
ROOT
HETATM    1  N8  UNL     1      18.583  45.360  -1.124  1.00  0.00    -0.262 NA
HETATM    2  O2  UNL     1      19.092  45.845  -0.088  1.00  0.00    -0.217 OA
ATOM      3  H2  UNL     1      19.435  46.285   0.681  1.00  0.00     0.261 HD
ENDROOT
BRANCH   1   4
HETATM    4  C11 UNL     1      18.143  44.794  -2.114  1.00  0.00     0.243 C 
HETATM    5  N9  UNL     1      17.837  43.494  -2.260  1.00  0.00    -0.310 N 
ATOM      6  H9  UNL     1      16.982  43.434  -2.812  1.00  0.00     0.170 HD
BRANCH   4   7
HETATM    7  C10 UNL     1      17.866  45.723  -3.265  1.00  0.00     0.131 A 
HETATM    8  N7  UNL     1      18.702  46.260  -4.090  1.00  0.00    -0.277 N 
HETATM    9  N6  UNL     1      18.007  47.112  -4.878  1.00  0.00    -0.014 NA
ATOM     10  H7  UNL     1      19.704  46.076  -4.138  1.00  0.00     0.184 HD
HETATM   11  N5  UNL     1      16.711  47.109  -4.542  1.00  0.00    -0.236 N 
HETATM   12  C16 UNL     1      16.595  46.231  -3.524  1.00  0.00     0.062 A 
HETATM   13  C17 UNL     1      15.438  45.736  -2.776  1.00  0.00     0.072 C 
BRANCH  11  14
HETATM   14  C9  UNL     1      15.720  47.925  -5.136  1.00  0.00     0.133 A 
HETATM   15  C4  UNL     1      15.239  49.134  -4.668  1.00  0.00     0.148 A 
HETATM   16  N2  UNL     1      14.396  49.656  -5.488  1.00  0.00    -0.289 N 
HETATM   17  N3  UNL     1      14.292  48.798  -6.518  1.00  0.00    -0.270 N 
ATOM     18  H2  UNL     1      13.905  50.543  -5.380  1.00  0.00     0.187 HD
HETATM   19  C8  UNL     1      15.063  47.729  -6.345  1.00  0.00     0.147 A 
BRANCH  15  20
HETATM   20  C3  UNL     1      15.435  49.524  -3.208  1.00  0.00     0.272 C 
HETATM   21  N1  UNL     1      14.328  49.107  -2.503  1.00  0.00    -0.356 N 
ATOM     22  H1  UNL     1      13.736  48.773  -3.263  1.00  0.00     0.162 HD
HETATM   23  O1  UNL     1      16.418  50.062  -2.827  1.00  0.00    -0.266 OA
BRANCH  21  24
HETATM   24  C2  UNL     1      13.509  48.853  -1.412  1.00  0.00     0.118 C 
HETATM   25  C1  UNL     1      12.199  48.171  -1.953  1.00  0.00     0.026 C 
ENDBRANCH  21  24
ENDBRANCH  15  20
BRANCH  17  26
HETATM   26  C5  UNL     1      13.477  49.059  -7.662  1.00  0.00     0.102 C 
HETATM   27  C6  UNL     1      14.079  50.395  -8.192  1.00  0.00     0.034 C 
HETATM   28  C7  UNL     1      12.030  49.316  -7.362  1.00  0.00     0.034 C 
ENDBRANCH  17  26
BRANCH  19  29
HETATM   29  N4  UNL     1      15.042  46.668  -7.105  1.00  0.00    -0.382 N 
ATOM     30  H42 UNL     1      15.062  46.608  -8.123  1.00  0.00     0.157 HD
ATOM     31  H41 UNL     1      15.133  45.710  -6.766  1.00  0.00     0.157 HD
ENDBRANCH  19  29
ENDBRANCH  11  14
ENDBRANCH   4   7
BRANCH   5  32
HETATM   32  C12 UNL     1      18.188  42.352  -1.986  1.00  0.00     0.151 A 
HETATM   33  C13 UNL     1      19.394  41.756  -1.707  1.00  0.00     0.098 A 
HETATM   34  N11 UNL     1      19.141  40.437  -1.418  1.00  0.00    -0.285 N 
HETATM   35  N12 UNL     1      17.845  40.217  -1.519  1.00  0.00    -0.239 N 
ATOM     36  H11 UNL     1      19.843  39.742  -1.165  1.00  0.00     0.188 HD
HETATM   37  N13 UNL     1      17.253  41.337  -1.847  1.00  0.00    -0.265 N 
ATOM     38  H12 UNL     1      17.380  39.321  -1.367  1.00  0.00     0.208 HD
HETATM   39  C15 UNL     1      15.809  41.581  -1.906  1.00  0.00     0.181 C 
BRANCH  33  40
HETATM   40  C14 UNL     1      20.709  42.396  -1.892  1.00  0.00     0.292 C 
BRANCH  40  41
HETATM   41  N10 UNL     1      20.985  43.266  -0.696  1.00  0.00    -0.074 N 
ATOM     42 3H10 UNL     1      20.222  43.254  -0.018  1.00  0.00     0.274 HD
ATOM     43 2H10 UNL     1      21.712  42.883  -0.093  1.00  0.00     0.274 HD
ATOM     44 1H10 UNL     1      21.202  44.206  -1.026  1.00  0.00     0.274 HD
ENDBRANCH  40  41
ENDBRANCH  33  40
ENDBRANCH   5  32
ENDBRANCH   1   4
TORSDOF 10
ENDMDL
MODEL 2
REMARK VINA RESULT: -6.358923368      6.024      8.653
REMARK  10 active torsions:
REMARK  status: ('A' for Active; 'I' for Inactive)
REMARK    1  A    between atoms: C2_2  and  N1_3 
REMARK       I    between atoms: N1_3  and  C3_5 
REMARK    2  A    between atoms: C3_5  and  C4_7 
REMARK    3  A    between atoms: N3_10  and  C5_11 
REMARK    4  A    between atoms: C8_14  and  N4_15 
REMARK    5  A    between atoms: C9_18  and  N5_19 
REMARK    6  A    between atoms: C10_23  and  C11_24 
REMARK    7  A    between atoms: C11_24  and  N8_25 
REMARK    8  A    between atoms: N9_28  and  C12_30 
REMARK    9  A    between atoms: C13_31  and  C14_32 
REMARK   10  A    between atoms: C14_32  and  N10_33 
ROOT
HETATM    1  N8  UNL     1      22.286  43.873   0.398  1.00  0.00    -0.262 NA
HETATM    2  O2  UNL     1      22.266  43.886   1.649  1.00  0.00    -0.217 OA
ATOM      3  H2  UNL     1      22.237  43.810   2.596  1.00  0.00     0.261 HD
ENDROOT
BRANCH   1   4
HETATM    4  C11 UNL     1      22.323  43.971  -0.820  1.00  0.00     0.243 C 
HETATM    5  N9  UNL     1      22.442  45.085  -1.561  1.00  0.00    -0.310 N 
ATOM      6  H9  UNL     1      23.060  44.875  -2.345  1.00  0.00     0.170 HD
BRANCH   4   7
HETATM    7  C10 UNL     1      22.291  42.645  -1.531  1.00  0.00     0.131 A 
HETATM    8  N7  UNL     1      23.262  41.821  -1.750  1.00  0.00    -0.277 N 
HETATM    9  N6  UNL     1      22.781  40.823  -2.527  1.00  0.00    -0.014 NA
ATOM     10  H7  UNL     1      24.216  41.907  -1.402  1.00  0.00     0.184 HD
HETATM   11  N5  UNL     1      21.486  41.024  -2.800  1.00  0.00    -0.236 N 
HETATM   12  C16 UNL     1      21.150  42.172  -2.174  1.00  0.00     0.062 A 
HETATM   13  C17 UNL     1      19.877  42.880  -2.033  1.00  0.00     0.072 C 
BRANCH  11  14
HETATM   14  C9  UNL     1      20.696  40.192  -3.628  1.00  0.00     0.133 A 
HETATM   15  C4  UNL     1      19.586  39.455  -3.261  1.00  0.00     0.148 A 
HETATM   16  N2  UNL     1      19.052  38.868  -4.274  1.00  0.00    -0.289 N 
HETATM   17  N3  UNL     1      19.805  39.196  -5.339  1.00  0.00    -0.270 N 
ATOM     18  H2  UNL     1      18.225  38.272  -4.271  1.00  0.00     0.187 HD
HETATM   19  C8  UNL     1      20.820  39.984  -4.997  1.00  0.00     0.147 A 
BRANCH  15  20
HETATM   20  C3  UNL     1      19.334  39.127  -1.794  1.00  0.00     0.272 C 
HETATM   21  N1  UNL     1      18.253  39.870  -1.371  1.00  0.00    -0.356 N 
ATOM     22  H1  UNL     1      18.088  40.447  -2.196  1.00  0.00     0.162 HD
HETATM   23  O1  UNL     1      19.985  38.333  -1.206  1.00  0.00    -0.266 OA
BRANCH  21  24
HETATM   24  C2  UNL     1      17.247  40.329  -0.533  1.00  0.00     0.118 C 
HETATM   25  C1  UNL     1      16.285  41.225  -1.395  1.00  0.00     0.026 C 
ENDBRANCH  21  24
ENDBRANCH  15  20
BRANCH  17  26
HETATM   26  C5  UNL     1      19.495  38.768  -6.666  1.00  0.00     0.102 C 
HETATM   27  C6  UNL     1      18.866  40.053  -7.283  1.00  0.00     0.034 C 
HETATM   28  C7  UNL     1      18.460  37.686  -6.755  1.00  0.00     0.034 C 
ENDBRANCH  17  26
BRANCH  19  29
HETATM   29  N4  UNL     1      21.794  40.327  -5.795  1.00  0.00    -0.382 N 
ATOM     30  H42 UNL     1      21.840  40.273  -6.812  1.00  0.00     0.157 HD
ATOM     31  H41 UNL     1      22.630  40.834  -5.504  1.00  0.00     0.157 HD
ENDBRANCH  19  29
ENDBRANCH  11  14
ENDBRANCH   4   7
BRANCH   5  32
HETATM   32  C12 UNL     1      22.096  46.257  -1.659  1.00  0.00     0.151 A 
HETATM   33  C13 UNL     1      21.062  47.003  -1.146  1.00  0.00     0.098 A 
HETATM   34  N11 UNL     1      21.239  48.295  -1.574  1.00  0.00    -0.285 N 
HETATM   35  N12 UNL     1      22.322  48.355  -2.323  1.00  0.00    -0.239 N 
ATOM     36  H11 UNL     1      20.630  49.082  -1.348  1.00  0.00     0.188 HD
HETATM   37  N13 UNL     1      22.857  47.162  -2.384  1.00  0.00    -0.265 N 
ATOM     38  H12 UNL     1      22.684  49.193  -2.780  1.00  0.00     0.208 HD
HETATM   39  C15 UNL     1      24.152  46.812  -2.974  1.00  0.00     0.181 C 
BRANCH  33  40
HETATM   40  C14 UNL     1      19.894  46.443  -0.443  1.00  0.00     0.292 C 
BRANCH  40  41
HETATM   41  N10 UNL     1      20.250  46.276   1.009  1.00  0.00    -0.074 N 
ATOM     42 3H10 UNL     1      20.971  45.570   1.158  1.00  0.00     0.274 HD
ATOM     43 2H10 UNL     1      20.761  47.076   1.382  1.00  0.00     0.274 HD
ATOM     44 1H10 UNL     1      19.395  46.080   1.529  1.00  0.00     0.274 HD
ENDBRANCH  40  41
ENDBRANCH  33  40
ENDBRANCH   5  32
ENDBRANCH   1   4
TORSDOF 10
ENDMDL
MODEL 3
REMARK VINA RESULT: -6.315200422      2.776      4.461
REMARK  10 active torsions:
REMARK  status: ('A' for Active; 'I' for Inactive)
REMARK    1  A    between atoms: C2_2  and  N1_3 
REMARK       I    between atoms: N1_3  and  C3_5 
REMARK    2  A    between atoms: C3_5  and  C4_7 
REMARK    3  A    between atoms: N3_10  and  C5_11 
REMARK    4  A    between atoms: C8_14  and  N4_15 
REMARK    5  A    between atoms: C9_18  and  N5_19 
REMARK    6  A    between atoms: C10_23  and  C11_24 
REMARK    7  A    between atoms: C11_24  and  N8_25 
REMARK    8  A    between atoms: N9_28  and  C12_30 
REMARK    9  A    between atoms: C13_31  and  C14_32 
REMARK   10  A    between atoms: C14_32  and  N10_33 
ROOT
HETATM    1  N8  UNL     1      19.052  42.607  -3.889  1.00  0.00    -0.262 NA
HETATM    2  O2  UNL     1      19.416  42.331  -5.055  1.00  0.00    -0.217 OA
ATOM      3  H2  UNL     1      19.689  42.206  -5.956  1.00  0.00     0.261 HD
ENDROOT
BRANCH   1   4
HETATM    4  C11 UNL     1      18.701  42.768  -2.729  1.00  0.00     0.243 C 
HETATM    5  N9  UNL     1      18.761  41.890  -1.714  1.00  0.00    -0.310 N 
ATOM      6  H9  UNL     1      19.038  42.400  -0.875  1.00  0.00     0.170 HD
BRANCH   4   7
HETATM    7  C10 UNL     1      18.206  44.159  -2.438  1.00  0.00     0.131 A 
HETATM    8  N7  UNL     1      17.066  44.528  -1.954  1.00  0.00    -0.277 N 
HETATM    9  N6  UNL     1      17.031  45.879  -1.980  1.00  0.00    -0.014 NA
ATOM     10  H7  UNL     1      16.328  43.912  -1.613  1.00  0.00     0.184 HD
HETATM   11  N5  UNL     1      18.168  46.369  -2.491  1.00  0.00    -0.236 N 
HETATM   12  C16 UNL     1      18.932  45.296  -2.784  1.00  0.00     0.062 A 
HETATM   13  C17 UNL     1      20.298  45.170  -3.296  1.00  0.00     0.072 C 
BRANCH  11  14
HETATM   14  C9  UNL     1      18.433  47.741  -2.704  1.00  0.00     0.133 A 
HETATM   15  C4  UNL     1      17.752  48.606  -3.541  1.00  0.00     0.148 A 
HETATM   16  N2  UNL     1      18.199  49.809  -3.443  1.00  0.00    -0.289 N 
HETATM   17  N3  UNL     1      19.196  49.767  -2.542  1.00  0.00    -0.270 N 
ATOM     18  H2  UNL     1      17.865  50.630  -3.947  1.00  0.00     0.187 HD
HETATM   19  C8  UNL     1      19.386  48.536  -2.078  1.00  0.00     0.147 A 
BRANCH  15  20
HETATM   20  C3  UNL     1      16.879  48.058  -4.664  1.00  0.00     0.272 C 
HETATM   21  N1  UNL     1      15.579  48.014  -4.210  1.00  0.00    -0.356 N 
ATOM     22  H1  UNL     1      15.712  48.279  -3.234  1.00  0.00     0.162 HD
HETATM   23  O1  UNL     1      17.321  47.776  -5.724  1.00  0.00    -0.266 OA
BRANCH  21  24
HETATM   24  C2  UNL     1      14.203  47.836  -4.240  1.00  0.00     0.118 C 
HETATM   25  C1  UNL     1      13.868  46.582  -3.353  1.00  0.00     0.026 C 
ENDBRANCH  21  24
ENDBRANCH  15  20
BRANCH  17  26
HETATM   26  C5  UNL     1      19.913  50.931  -2.128  1.00  0.00     0.102 C 
HETATM   27  C6  UNL     1      18.775  51.821  -1.543  1.00  0.00     0.034 C 
HETATM   28  C7  UNL     1      20.553  51.709  -3.240  1.00  0.00     0.034 C 
ENDBRANCH  17  26
BRANCH  19  29
HETATM   29  N4  UNL     1      20.382  48.175  -1.316  1.00  0.00    -0.382 N 
ATOM     30  H42 UNL     1      20.385  47.529  -0.526  1.00  0.00     0.157 HD
ATOM     31  H41 UNL     1      21.360  48.405  -1.492  1.00  0.00     0.157 HD
ENDBRANCH  19  29
ENDBRANCH  11  14
ENDBRANCH   4   7
BRANCH   5  32
HETATM   32  C12 UNL     1      18.611  40.714  -1.406  1.00  0.00     0.151 A 
HETATM   33  C13 UNL     1      19.417  39.601  -1.431  1.00  0.00     0.098 A 
HETATM   34  N11 UNL     1      18.696  38.562  -0.897  1.00  0.00    -0.285 N 
HETATM   35  N12 UNL     1      17.498  38.998  -0.562  1.00  0.00    -0.239 N 
ATOM     36  H11 UNL     1      19.033  37.606  -0.779  1.00  0.00     0.188 HD
HETATM   37  N13 UNL     1      17.421  40.274  -0.844  1.00  0.00    -0.265 N 
ATOM     38  H12 UNL     1      16.753  38.435  -0.150  1.00  0.00     0.208 HD
HETATM   39  C15 UNL     1      16.332  41.187  -0.488  1.00  0.00     0.181 C 
BRANCH  33  40
HETATM   40  C14 UNL     1      20.728  39.531  -2.101  1.00  0.00     0.292 C 
BRANCH  40  41
HETATM   41  N10 UNL     1      20.513  39.697  -3.581  1.00  0.00    -0.074 N 
ATOM     42 3H10 UNL     1      20.168  38.845  -4.025  1.00  0.00     0.274 HD
ATOM     43 2H10 UNL     1      19.717  40.297  -3.797  1.00  0.00     0.274 HD
ATOM     44 1H10 UNL     1      21.381  40.033  -3.996  1.00  0.00     0.274 HD
ENDBRANCH  40  41
ENDBRANCH  33  40
ENDBRANCH   5  32
ENDBRANCH   1   4
TORSDOF 10
ENDMDL
MODEL 4
REMARK VINA RESULT: -6.269536066      1.828      3.148
REMARK  10 active torsions:
REMARK  status: ('A' for Active; 'I' for Inactive)
REMARK    1  A    between atoms: C2_2  and  N1_3 
REMARK       I    between atoms: N1_3  and  C3_5 
REMARK    2  A    between atoms: C3_5  and  C4_7 
REMARK    3  A    between atoms: N3_10  and  C5_11 
REMARK    4  A    between atoms: C8_14  and  N4_15 
REMARK    5  A    between atoms: C9_18  and  N5_19 
REMARK    6  A    between atoms: C10_23  and  C11_24 
REMARK    7  A    between atoms: C11_24  and  N8_25 
REMARK    8  A    between atoms: N9_28  and  C12_30 
REMARK    9  A    between atoms: C13_31  and  C14_32 
REMARK   10  A    between atoms: C14_32  and  N10_33 
ROOT
HETATM    1  N8  UNL     1      18.451  45.525  -1.130  1.00  0.00    -0.262 NA
HETATM    2  O2  UNL     1      19.075  45.971  -0.141  1.00  0.00    -0.217 OA
ATOM      3  H2  UNL     1      19.489  46.373   0.614  1.00  0.00     0.261 HD
ENDROOT
BRANCH   1   4
HETATM    4  C11 UNL     1      17.919  45.007  -2.102  1.00  0.00     0.243 C 
HETATM    5  N9  UNL     1      17.700  43.702  -2.332  1.00  0.00    -0.310 N 
ATOM      6  H9  UNL     1      16.781  43.610  -2.765  1.00  0.00     0.170 HD
BRANCH   4   7
HETATM    7  C10 UNL     1      17.403  46.003  -3.106  1.00  0.00     0.131 A 
HETATM    8  N7  UNL     1      18.033  46.975  -3.678  1.00  0.00    -0.277 N 
HETATM    9  N6  UNL     1      17.133  47.668  -4.411  1.00  0.00    -0.014 NA
ATOM     10  H7  UNL     1      19.028  47.182  -3.592  1.00  0.00     0.184 HD
HETATM   11  N5  UNL     1      15.915  47.121  -4.298  1.00  0.00    -0.236 N 
HETATM   12  C16 UNL     1      16.063  46.059  -3.479  1.00  0.00     0.062 A 
HETATM   13  C17 UNL     1      15.128  45.026  -3.028  1.00  0.00     0.072 C 
BRANCH  11  14
HETATM   14  C9  UNL     1      14.741  47.632  -4.899  1.00  0.00     0.133 A 
HETATM   15  C4  UNL     1      14.360  47.521  -6.224  1.00  0.00     0.148 A 
HETATM   16  N2  UNL     1      13.196  48.031  -6.425  1.00  0.00    -0.289 N 
HETATM   17  N3  UNL     1      12.781  48.501  -5.236  1.00  0.00    -0.270 N 
ATOM     18  H2  UNL     1      12.690  48.070  -7.309  1.00  0.00     0.187 HD
HETATM   19  C8  UNL     1      13.686  48.297  -4.284  1.00  0.00     0.147 A 
BRANCH  15  20
HETATM   20  C3  UNL     1      15.393  47.183  -7.292  1.00  0.00     0.272 C 
HETATM   21  N1  UNL     1      16.274  48.238  -7.382  1.00  0.00    -0.356 N 
ATOM     22  H1  UNL     1      15.831  48.907  -6.752  1.00  0.00     0.162 HD
HETATM   23  O1  UNL     1      15.384  46.152  -7.872  1.00  0.00    -0.266 OA
BRANCH  21  24
HETATM   24  C2  UNL     1      17.383  48.967  -7.788  1.00  0.00     0.118 C 
HETATM   25  C1  UNL     1      18.626  48.006  -7.735  1.00  0.00     0.026 C 
ENDBRANCH  21  24
ENDBRANCH  15  20
BRANCH  17  26
HETATM   26  C5  UNL     1      11.498  49.101  -5.048  1.00  0.00     0.102 C 
HETATM   27  C6  UNL     1      10.560  47.857  -5.010  1.00  0.00     0.034 C 
HETATM   28  C7  UNL     1      11.033  49.968  -6.180  1.00  0.00     0.034 C 
ENDBRANCH  17  26
BRANCH  19  29
HETATM   29  N4  UNL     1      13.617  48.787  -3.076  1.00  0.00    -0.382 N 
ATOM     30  H42 UNL     1      14.189  49.513  -2.645  1.00  0.00     0.157 HD
ATOM     31  H41 UNL     1      12.869  48.589  -2.413  1.00  0.00     0.157 HD
ENDBRANCH  19  29
ENDBRANCH  11  14
ENDBRANCH   4   7
BRANCH   5  32
HETATM   32  C12 UNL     1      18.178  42.579  -2.224  1.00  0.00     0.151 A 
HETATM   33  C13 UNL     1      19.456  42.076  -2.172  1.00  0.00     0.098 A 
HETATM   34  N11 UNL     1      19.354  40.720  -1.984  1.00  0.00    -0.285 N 
HETATM   35  N12 UNL     1      18.079  40.388  -1.930  1.00  0.00    -0.239 N 
ATOM     36  H11 UNL     1      20.139  40.074  -1.900  1.00  0.00     0.188 HD
HETATM   37  N13 UNL     1      17.357  41.473  -2.061  1.00  0.00    -0.265 N 
ATOM     38  H12 UNL     1      17.715  39.443  -1.806  1.00  0.00     0.208 HD
HETATM   39  C15 UNL     1      15.906  41.583  -1.898  1.00  0.00     0.181 C 
BRANCH  33  40
HETATM   40  C14 UNL     1      20.674  42.851  -2.470  1.00  0.00     0.292 C 
BRANCH  40  41
HETATM   41  N10 UNL     1      21.064  43.613  -1.233  1.00  0.00    -0.074 N 
ATOM     42 3H10 UNL     1      22.016  43.977  -1.281  1.00  0.00     0.274 HD
ATOM     43 2H10 UNL     1      20.579  44.507  -1.154  1.00  0.00     0.274 HD
ATOM     44 1H10 UNL     1      20.913  43.011  -0.424  1.00  0.00     0.274 HD
ENDBRANCH  40  41
ENDBRANCH  33  40
ENDBRANCH   5  32
ENDBRANCH   1   4
TORSDOF 10
ENDMDL
MODEL 5
REMARK VINA RESULT: -6.256361552      1.009      1.558
REMARK  10 active torsions:
REMARK  status: ('A' for Active; 'I' for Inactive)
REMARK    1  A    between atoms: C2_2  and  N1_3 
REMARK       I    between atoms: N1_3  and  C3_5 
REMARK    2  A    between atoms: C3_5  and  C4_7 
REMARK    3  A    between atoms: N3_10  and  C5_11 
REMARK    4  A    between atoms: C8_14  and  N4_15 
REMARK    5  A    between atoms: C9_18  and  N5_19 
REMARK    6  A    between atoms: C10_23  and  C11_24 
REMARK    7  A    between atoms: C11_24  and  N8_25 
REMARK    8  A    between atoms: N9_28  and  C12_30 
REMARK    9  A    between atoms: C13_31  and  C14_32 
REMARK   10  A    between atoms: C14_32  and  N10_33 
ROOT
HETATM    1  N8  UNL     1      18.607  45.293  -1.095  1.00  0.00    -0.262 NA
HETATM    2  O2  UNL     1      19.183  45.788  -0.100  1.00  0.00    -0.217 OA
ATOM      3  H2  UNL     1      19.567  46.232   0.647  1.00  0.00     0.261 HD
ENDROOT
BRANCH   1   4
HETATM    4  C11 UNL     1      18.114  44.721  -2.057  1.00  0.00     0.243 C 
HETATM    5  N9  UNL     1      17.806  43.420  -2.181  1.00  0.00    -0.310 N 
ATOM      6  H9  UNL     1      16.921  43.354  -2.683  1.00  0.00     0.170 HD
BRANCH   4   7
HETATM    7  C10 UNL     1      17.768  45.646  -3.193  1.00  0.00     0.131 A 
HETATM    8  N7  UNL     1      18.548  46.159  -4.085  1.00  0.00    -0.277 N 
HETATM    9  N6  UNL     1      17.811  47.017  -4.826  1.00  0.00    -0.014 NA
ATOM     10  H7  UNL     1      19.539  45.954  -4.209  1.00  0.00     0.184 HD
HETATM   11  N5  UNL     1      16.544  47.044  -4.391  1.00  0.00    -0.236 N 
HETATM   12  C16 UNL     1      16.491  46.177  -3.358  1.00  0.00     0.062 A 
HETATM   13  C17 UNL     1      15.385  45.712  -2.519  1.00  0.00     0.072 C 
BRANCH  11  14
HETATM   14  C9  UNL     1      15.527  47.874  -4.916  1.00  0.00     0.133 A 
HETATM   15  C4  UNL     1      15.096  49.090  -4.416  1.00  0.00     0.148 A 
HETATM   16  N2  UNL     1      14.206  49.624  -5.176  1.00  0.00    -0.289 N 
HETATM   17  N3  UNL     1      14.020  48.769  -6.197  1.00  0.00    -0.270 N 
ATOM     18  H2  UNL     1      13.737  50.518  -5.034  1.00  0.00     0.187 HD
HETATM   19  C8  UNL     1      14.785  47.688  -6.076  1.00  0.00     0.147 A 
BRANCH  15  20
HETATM   20  C3  UNL     1      15.399  49.476  -2.973  1.00  0.00     0.272 C 
HETATM   21  N1  UNL     1      16.512  50.287  -2.974  1.00  0.00    -0.356 N 
ATOM     22  H1  UNL     1      16.778  50.240  -3.958  1.00  0.00     0.162 HD
HETATM   23  O1  UNL     1      14.720  49.121  -2.072  1.00  0.00    -0.266 OA
BRANCH  21  24
HETATM   24  C2  UNL     1      17.501  51.127  -2.483  1.00  0.00     0.118 C 
HETATM   25  C1  UNL     1      16.936  52.594  -2.519  1.00  0.00     0.026 C 
ENDBRANCH  21  24
ENDBRANCH  15  20
BRANCH  17  26
HETATM   26  C5  UNL     1      13.132  49.042  -7.281  1.00  0.00     0.102 C 
HETATM   27  C6  UNL     1      13.587  50.465  -7.724  1.00  0.00     0.034 C 
HETATM   28  C7  UNL     1      11.683  49.141  -6.903  1.00  0.00     0.034 C 
ENDBRANCH  17  26
BRANCH  19  29
HETATM   29  N4  UNL     1      14.697  46.628  -6.833  1.00  0.00    -0.382 N 
ATOM     30  H42 UNL     1      13.868  46.208  -7.254  1.00  0.00     0.157 HD
ATOM     31  H41 UNL     1      15.494  46.128  -7.224  1.00  0.00     0.157 HD
ENDBRANCH  19  29
ENDBRANCH  11  14
ENDBRANCH   4   7
BRANCH   5  32
HETATM   32  C12 UNL     1      18.178  42.281  -1.925  1.00  0.00     0.151 A 
HETATM   33  C13 UNL     1      19.398  41.694  -1.691  1.00  0.00     0.098 A 
HETATM   34  N11 UNL     1      19.168  40.373  -1.399  1.00  0.00    -0.285 N 
HETATM   35  N12 UNL     1      17.871  40.140  -1.456  1.00  0.00    -0.239 N 
ATOM     36  H11 UNL     1      19.885  39.683  -1.174  1.00  0.00     0.188 HD
HETATM   37  N13 UNL     1      17.257  41.256  -1.757  1.00  0.00    -0.265 N 
ATOM     38  H12 UNL     1      17.421  39.239  -1.291  1.00  0.00     0.208 HD
HETATM   39  C15 UNL     1      15.810  41.486  -1.764  1.00  0.00     0.181 C 
BRANCH  33  40
HETATM   40  C14 UNL     1      20.699  42.348  -1.920  1.00  0.00     0.292 C 
BRANCH  40  41
HETATM   41  N10 UNL     1      21.016  43.203  -0.723  1.00  0.00    -0.074 N 
ATOM     42 3H10 UNL     1      21.207  44.173  -0.973  1.00  0.00     0.274 HD
ATOM     43 2H10 UNL     1      20.202  43.369  -0.133  1.00  0.00     0.274 HD
ATOM     44 1H10 UNL     1      21.788  42.770  -0.215  1.00  0.00     0.274 HD
ENDBRANCH  40  41
ENDBRANCH  33  40
ENDBRANCH   5  32
ENDBRANCH   1   4
TORSDOF 10
ENDMDL
