MODEL 1
REMARK VINA RESULT: -7.592847650      0.000      0.000
REMARK  6 active torsions:
REMARK  status: ('A' for Active; 'I' for Inactive)
REMARK    1  A    between atoms: N1_3  and  C1_4 
REMARK    2  A    between atoms: C1_4  and  N2_5 
REMARK    3  A    between atoms: C1_4  and  O3_15 
REMARK    4  A    between atoms: N2_5  and  N3_7 
REMARK    5  A    between atoms: C2_9  and  C3_10 
REMARK    6  A    between atoms: O3_15  and  C7_16 
ROOT
HETATM    1  O1  UNL     1      34.402  50.038  22.841  1.00  0.00    -0.215 OA
ATOM      2  H1  UNL     1      34.852  50.306  23.633  1.00  0.00     0.262 HD
HETATM    3  N1  UNL     1      33.813  49.676  21.793  1.00  0.00    -0.235 NA
ENDROOT
BRANCH   3   4
HETATM    4  C1  UNL     1      33.243  49.338  20.794  1.00  0.00     0.349 C 
BRANCH   4   5
HETATM    5  N2  UNL     1      32.403  48.144  20.698  1.00  0.00    -0.251 N 
ATOM      6  H2  UNL     1      31.487  48.097  21.144  1.00  0.00     0.191 HD
BRANCH   5   7
HETATM    7  N3  UNL     1      32.910  47.085  19.975  1.00  0.00    -0.305 N 
HETATM    8  C2  UNL     1      32.401  46.758  18.844  1.00  0.00     0.144 C 
ATOM      9  H3  UNL     1      33.700  46.555  20.344  1.00  0.00     0.186 HD
BRANCH   8  10
HETATM   10  C3  UNL     1      32.978  45.635  18.128  1.00  0.00     0.091 A 
HETATM   11  C4  UNL     1      33.644  45.737  16.934  1.00  0.00     0.040 A 
HETATM   12  C5  UNL     1      34.048  44.473  16.557  1.00  0.00     0.027 A 
HETATM   13  C6  UNL     1      33.597  43.641  17.567  1.00  0.00     0.142 A 
HETATM   14  O2  UNL     1      32.971  44.378  18.470  1.00  0.00    -0.321 OA
ENDBRANCH   8  10
ENDBRANCH   5   7
ENDBRANCH   4   5
BRANCH   4  15
HETATM   15  O3  UNL     1      33.326  50.064  19.586  1.00  0.00    -0.266 OA
BRANCH  15  16
HETATM   16  C7  UNL     1      34.517  50.202  18.911  1.00  0.00     0.080 A 
HETATM   17  C8  UNL     1      35.096  49.239  18.151  1.00  0.00     0.037 A 
HETATM   18  C9  UNL     1      36.299  49.482  17.506  1.00  0.00     0.003 A 
HETATM   19  C10 UNL     1      36.915  50.701  17.633  1.00  0.00     0.000 A 
HETATM   20  C11 UNL     1      36.314  51.684  18.416  1.00  0.00     0.003 A 
HETATM   21  C12 UNL     1      35.131  51.461  19.056  1.00  0.00     0.037 A 
ENDBRANCH  15  16
ENDBRANCH   4  15
ENDBRANCH   3   4
TORSDOF 6
ENDMDL
MODEL 2
REMARK VINA RESULT: -7.580232708      0.112      1.131
REMARK  6 active torsions:
REMARK  status: ('A' for Active; 'I' for Inactive)
REMARK    1  A    between atoms: N1_3  and  C1_4 
REMARK    2  A    between atoms: C1_4  and  N2_5 
REMARK    3  A    between atoms: C1_4  and  O3_15 
REMARK    4  A    between atoms: N2_5  and  N3_7 
REMARK    5  A    between atoms: C2_9  and  C3_10 
REMARK    6  A    between atoms: O3_15  and  C7_16 
ROOT
HETATM    1  O1  UNL     1      34.408  50.038  22.762  1.00  0.00    -0.215 OA
ATOM      2  H1  UNL     1      34.863  50.320  23.547  1.00  0.00     0.262 HD
HETATM    3  N1  UNL     1      33.816  49.670  21.718  1.00  0.00    -0.235 NA
ENDROOT
BRANCH   3   4
HETATM    4  C1  UNL     1      33.242  49.314  20.727  1.00  0.00     0.349 C 
BRANCH   4   5
HETATM    5  N2  UNL     1      32.411  48.112  20.654  1.00  0.00    -0.251 N 
ATOM      6  H2  UNL     1      31.493  48.068  21.095  1.00  0.00     0.191 HD
BRANCH   5   7
HETATM    7  N3  UNL     1      32.930  47.040  19.957  1.00  0.00    -0.305 N 
HETATM    8  C2  UNL     1      32.421  46.676  18.838  1.00  0.00     0.144 C 
ATOM      9  H3  UNL     1      33.728  46.532  20.337  1.00  0.00     0.186 HD
BRANCH   8  10
HETATM   10  C3  UNL     1      33.011  45.542  18.152  1.00  0.00     0.091 A 
HETATM   11  C4  UNL     1      33.632  45.612  16.931  1.00  0.00     0.040 A 
HETATM   12  C5  UNL     1      34.066  44.346  16.594  1.00  0.00     0.027 A 
HETATM   13  C6  UNL     1      33.677  43.545  17.654  1.00  0.00     0.142 A 
HETATM   14  O2  UNL     1      33.058  44.301  18.547  1.00  0.00    -0.321 OA
ENDBRANCH   8  10
ENDBRANCH   5   7
ENDBRANCH   4   5
BRANCH   4  15
HETATM   15  O3  UNL     1      33.310  50.024  19.509  1.00  0.00    -0.266 OA
BRANCH  15  16
HETATM   16  C7  UNL     1      34.514  50.276  18.891  1.00  0.00     0.080 A 
HETATM   17  C8  UNL     1      35.214  51.433  18.998  1.00  0.00     0.037 A 
HETATM   18  C9  UNL     1      36.423  51.585  18.338  1.00  0.00     0.003 A 
HETATM   19  C10 UNL     1      36.922  50.565  17.568  1.00  0.00     0.000 A 
HETATM   20  C11 UNL     1      36.195  49.381  17.462  1.00  0.00     0.003 A 
HETATM   21  C12 UNL     1      35.005  49.215  18.107  1.00  0.00     0.037 A 
ENDBRANCH  15  16
ENDBRANCH   4  15
ENDBRANCH   3   4
TORSDOF 6
ENDMDL
MODEL 3
REMARK VINA RESULT: -7.561647264      1.687      5.258
REMARK  6 active torsions:
REMARK  status: ('A' for Active; 'I' for Inactive)
REMARK    1  A    between atoms: N1_3  and  C1_4 
REMARK    2  A    between atoms: C1_4  and  N2_5 
REMARK    3  A    between atoms: C1_4  and  O3_15 
REMARK    4  A    between atoms: N2_5  and  N3_7 
REMARK    5  A    between atoms: C2_9  and  C3_10 
REMARK    6  A    between atoms: O3_15  and  C7_16 
ROOT
HETATM    1  O1  UNL     1      33.138  45.803  22.436  1.00  0.00    -0.215 OA
ATOM      2  H1  UNL     1      33.433  45.263  23.159  1.00  0.00     0.262 HD
HETATM    3  N1  UNL     1      32.758  46.522  21.479  1.00  0.00    -0.235 NA
ENDROOT
BRANCH   3   4
HETATM    4  C1  UNL     1      32.385  47.204  20.567  1.00  0.00     0.349 C 
BRANCH   4   5
HETATM    5  N2  UNL     1      32.441  48.667  20.566  1.00  0.00    -0.251 N 
ATOM      6  H2  UNL     1      31.826  49.226  21.157  1.00  0.00     0.191 HD
BRANCH   5   7
HETATM    7  N3  UNL     1      33.365  49.253  19.727  1.00  0.00    -0.305 N 
HETATM    8  C2  UNL     1      34.617  49.215  20.001  1.00  0.00     0.144 C 
ATOM      9  H3  UNL     1      33.049  49.721  18.877  1.00  0.00     0.186 HD
BRANCH   8  10
HETATM   10  C3  UNL     1      35.542  49.848  19.079  1.00  0.00     0.091 A 
HETATM   11  C4  UNL     1      35.966  49.289  17.901  1.00  0.00     0.040 A 
HETATM   12  C5  UNL     1      36.835  50.172  17.293  1.00  0.00     0.027 A 
HETATM   13  C6  UNL     1      36.900  51.254  18.153  1.00  0.00     0.142 A 
HETATM   14  O2  UNL     1      36.118  51.012  19.193  1.00  0.00    -0.321 OA
ENDBRANCH   8  10
ENDBRANCH   5   7
ENDBRANCH   4   5
BRANCH   4  15
HETATM   15  O3  UNL     1      31.843  46.664  19.381  1.00  0.00    -0.266 OA
BRANCH  15  16
HETATM   16  C7  UNL     1      32.632  46.002  18.468  1.00  0.00     0.080 A 
HETATM   17  C8  UNL     1      33.395  46.602  17.521  1.00  0.00     0.037 A 
HETATM   18  C9  UNL     1      34.160  45.843  16.649  1.00  0.00     0.003 A 
HETATM   19  C10 UNL     1      34.150  44.474  16.737  1.00  0.00     0.000 A 
HETATM   20  C11 UNL     1      33.362  43.865  17.712  1.00  0.00     0.003 A 
HETATM   21  C12 UNL     1      32.605  44.598  18.577  1.00  0.00     0.037 A 
ENDBRANCH  15  16
ENDBRANCH   4  15
ENDBRANCH   3   4
TORSDOF 6
ENDMDL
MODEL 4
REMARK VINA RESULT: -7.555804523      1.698      5.189
REMARK  6 active torsions:
REMARK  status: ('A' for Active; 'I' for Inactive)
REMARK    1  A    between atoms: N1_3  and  C1_4 
REMARK    2  A    between atoms: C1_4  and  N2_5 
REMARK    3  A    between atoms: C1_4  and  O3_15 
REMARK    4  A    between atoms: N2_5  and  N3_7 
REMARK    5  A    between atoms: C2_9  and  C3_10 
REMARK    6  A    between atoms: O3_15  and  C7_16 
ROOT
HETATM    1  O1  UNL     1      32.974  45.779  22.488  1.00  0.00    -0.215 OA
ATOM      2  H1  UNL     1      33.210  45.227  23.224  1.00  0.00     0.262 HD
HETATM    3  N1  UNL     1      32.660  46.500  21.509  1.00  0.00    -0.235 NA
ENDROOT
BRANCH   3   4
HETATM    4  C1  UNL     1      32.362  47.196  20.580  1.00  0.00     0.349 C 
BRANCH   4   5
HETATM    5  N2  UNL     1      32.461  48.656  20.590  1.00  0.00    -0.251 N 
ATOM      6  H2  UNL     1      31.883  49.227  21.206  1.00  0.00     0.191 HD
BRANCH   5   7
HETATM    7  N3  UNL     1      33.376  49.223  19.727  1.00  0.00    -0.305 N 
HETATM    8  C2  UNL     1      34.629  49.210  19.997  1.00  0.00     0.144 C 
ATOM      9  H3  UNL     1      33.051  49.657  18.863  1.00  0.00     0.186 HD
BRANCH   8  10
HETATM   10  C3  UNL     1      35.543  49.821  19.050  1.00  0.00     0.091 A 
HETATM   11  C4  UNL     1      35.944  49.238  17.875  1.00  0.00     0.040 A 
HETATM   12  C5  UNL     1      36.809  50.105  17.238  1.00  0.00     0.027 A 
HETATM   13  C6  UNL     1      36.895  51.201  18.079  1.00  0.00     0.142 A 
HETATM   14  O2  UNL     1      36.128  50.982  19.135  1.00  0.00    -0.321 OA
ENDBRANCH   8  10
ENDBRANCH   5   7
ENDBRANCH   4   5
BRANCH   4  15
HETATM   15  O3  UNL     1      31.876  46.677  19.361  1.00  0.00    -0.266 OA
BRANCH  15  16
HETATM   16  C7  UNL     1      32.647  45.854  18.572  1.00  0.00     0.080 A 
HETATM   17  C8  UNL     1      32.734  44.507  18.707  1.00  0.00     0.037 A 
HETATM   18  C9  UNL     1      33.538  43.767  17.855  1.00  0.00     0.003 A 
HETATM   19  C10 UNL     1      34.254  44.391  16.866  1.00  0.00     0.000 A 
HETATM   20  C11 UNL     1      34.159  45.775  16.734  1.00  0.00     0.003 A 
HETATM   21  C12 UNL     1      33.372  46.518  17.564  1.00  0.00     0.037 A 
ENDBRANCH  15  16
ENDBRANCH   4  15
ENDBRANCH   3   4
TORSDOF 6
ENDMDL
MODEL 5
REMARK VINA RESULT: -7.445180846      1.067      1.577
REMARK  6 active torsions:
REMARK  status: ('A' for Active; 'I' for Inactive)
REMARK    1  A    between atoms: N1_3  and  C1_4 
REMARK    2  A    between atoms: C1_4  and  N2_5 
REMARK    3  A    between atoms: C1_4  and  O3_15 
REMARK    4  A    between atoms: N2_5  and  N3_7 
REMARK    5  A    between atoms: C2_9  and  C3_10 
REMARK    6  A    between atoms: O3_15  and  C7_16 
ROOT
HETATM    1  O1  UNL     1      33.977  50.367  23.282  1.00  0.00    -0.215 OA
ATOM      2  H1  UNL     1      34.105  50.998  23.979  1.00  0.00     0.262 HD
HETATM    3  N1  UNL     1      33.815  49.524  22.365  1.00  0.00    -0.235 NA
ENDROOT
BRANCH   3   4
HETATM    4  C1  UNL     1      33.653  48.727  21.485  1.00  0.00     0.349 C 
BRANCH   4   5
HETATM    5  N2  UNL     1      33.657  47.277  21.687  1.00  0.00    -0.251 N 
ATOM      6  H2  UNL     1      33.630  46.867  22.621  1.00  0.00     0.191 HD
BRANCH   5   7
HETATM    7  N3  UNL     1      33.701  46.492  20.554  1.00  0.00    -0.305 N 
HETATM    8  C2  UNL     1      33.018  45.409  20.479  1.00  0.00     0.144 C 
ATOM      9  H3  UNL     1      34.283  46.777  19.766  1.00  0.00     0.186 HD
BRANCH   8  10
HETATM   10  C3  UNL     1      33.104  44.626  19.260  1.00  0.00     0.091 A 
HETATM   11  C4  UNL     1      33.135  45.159  17.997  1.00  0.00     0.040 A 
HETATM   12  C5  UNL     1      33.217  44.120  17.092  1.00  0.00     0.027 A 
HETATM   13  C6  UNL     1      33.232  42.975  17.869  1.00  0.00     0.142 A 
HETATM   14  O2  UNL     1      33.162  43.330  19.143  1.00  0.00    -0.321 OA
ENDBRANCH   8  10
ENDBRANCH   5   7
ENDBRANCH   4   5
BRANCH   4  15
HETATM   15  O3  UNL     1      33.442  49.104  20.141  1.00  0.00    -0.266 OA
BRANCH  15  16
HETATM   16  C7  UNL     1      34.380  49.829  19.443  1.00  0.00     0.080 A 
HETATM   17  C8  UNL     1      34.532  51.175  19.515  1.00  0.00     0.037 A 
HETATM   18  C9  UNL     1      35.514  51.811  18.773  1.00  0.00     0.003 A 
HETATM   19  C10 UNL     1      36.342  51.083  17.956  1.00  0.00     0.000 A 
HETATM   20  C11 UNL     1      36.178  49.701  17.887  1.00  0.00     0.003 A 
HETATM   21  C12 UNL     1      35.217  49.060  18.612  1.00  0.00     0.037 A 
ENDBRANCH  15  16
ENDBRANCH   4  15
ENDBRANCH   3   4
TORSDOF 6
ENDMDL
