MODEL 1
REMARK VINA RESULT: -7.628412509      0.000      0.000
REMARK  8 active torsions:
REMARK  status: ('A' for Active; 'I' for Inactive)
REMARK    1  A    between atoms: O1_2  and  C2_3 
REMARK    2  A    between atoms: C7_8  and  O2_9 
REMARK    3  A    between atoms: C8_11  and  O3_12 
REMARK    4  A    between atoms: C10_15  and  C11_16 
REMARK    5  A    between atoms: C12_17  and  C13_18 
REMARK    6  A    between atoms: C15_22  and  O6_23 
REMARK    7  A    between atoms: C17_25  and  O7_26 
REMARK    8  A    between atoms: C19_28  and  O8_29 
ROOT
HETATM    1  C2  UNL     1      -0.971  43.147  52.289  1.00  0.00     0.103 A 
HETATM    2  C3  UNL     1      -0.274  44.122  51.624  1.00  0.00     0.077 A 
HETATM    3  C4  UNL     1       0.999  44.495  52.057  1.00  0.00     0.087 A 
HETATM    4  C5  UNL     1       1.570  43.897  53.145  1.00  0.00     0.013 A 
HETATM    5  C6  UNL     1       0.848  42.918  53.801  1.00  0.00     0.052 A 
HETATM    6  C7  UNL     1      -0.407  42.537  53.391  1.00  0.00     0.099 A 
HETATM    7  C8  UNL     1       2.943  44.450  53.367  1.00  0.00     0.211 A 
HETATM    8  C9  UNL     1       3.058  45.478  52.334  1.00  0.00     0.087 A 
HETATM    9  C10 UNL     1       4.007  46.356  52.040  1.00  0.00     0.051 C 
HETATM   10  O9  UNL     1       1.879  45.428  51.574  1.00  0.00    -0.311 OA
ENDROOT
BRANCH   9  11
HETATM   11  C11 UNL     1       5.270  46.525  52.733  1.00  0.00     0.020 A 
HETATM   12  C12 UNL     1       5.367  47.160  53.965  1.00  0.00     0.056 A 
HETATM   13  C14 UNL     1       6.618  47.309  54.571  1.00  0.00     0.059 A 
HETATM   14  C15 UNL     1       7.785  46.854  54.011  1.00  0.00     0.105 A 
HETATM   15  C17 UNL     1       7.683  46.226  52.798  1.00  0.00     0.136 A 
HETATM   16  C19 UNL     1       6.441  46.058  52.158  1.00  0.00     0.115 A 
BRANCH  12  17
HETATM   17  C13 UNL     1       4.206  47.593  54.687  1.00  0.00     0.210 C 
HETATM   18  O4  UNL     1       3.766  48.750  54.504  1.00  0.00    -0.644 OA
HETATM   19  O5  UNL     1       3.556  46.776  55.582  1.00  0.00    -0.644 OA
ENDBRANCH  12  17
BRANCH  14  20
HETATM   20  O6  UNL     1       9.024  47.020  54.643  1.00  0.00    -0.353 OA
HETATM   21  C16 UNL     1       9.401  48.335  55.029  1.00  0.00     0.210 C 
ENDBRANCH  14  20
BRANCH  15  22
HETATM   22  O7  UNL     1       8.817  45.734  52.165  1.00  0.00    -0.351 OA
HETATM   23  C18 UNL     1       9.719  46.665  51.581  1.00  0.00     0.210 C 
ENDBRANCH  15  22
BRANCH  16  24
HETATM   24  O8  UNL     1       6.382  45.414  50.942  1.00  0.00    -0.352 OA
HETATM   25  C20 UNL     1       6.252  44.032  50.841  1.00  0.00     0.210 C 
ENDBRANCH  16  24
ENDBRANCH   9  11
BRANCH   7  26
HETATM   26  O3  UNL     1       3.886  43.430  53.176  1.00  0.00    -0.384 OA
ATOM     27  H3  UNL     1       4.759  43.787  53.292  1.00  0.00     0.211 HD
ENDBRANCH   7  26
BRANCH   6  28
HETATM   28  O2  UNL     1      -1.120  41.546  54.066  1.00  0.00    -0.358 OA
ATOM     29  H2  UNL     1      -0.870  40.635  53.960  1.00  0.00     0.217 HD
ENDBRANCH   6  28
BRANCH   1  30
HETATM   30  O1  UNL     1      -2.229  42.791  51.849  1.00  0.00    -0.353 OA
HETATM   31  C1  UNL     1      -2.439  41.955  50.753  1.00  0.00     0.210 C 
ENDBRANCH   1  30
TORSDOF 8
ENDMDL
MODEL 2
REMARK VINA RESULT: -7.344888497      1.678      2.542
REMARK  8 active torsions:
REMARK  status: ('A' for Active; 'I' for Inactive)
REMARK    1  A    between atoms: O1_2  and  C2_3 
REMARK    2  A    between atoms: C7_8  and  O2_9 
REMARK    3  A    between atoms: C8_11  and  O3_12 
REMARK    4  A    between atoms: C10_15  and  C11_16 
REMARK    5  A    between atoms: C12_17  and  C13_18 
REMARK    6  A    between atoms: C15_22  and  O6_23 
REMARK    7  A    between atoms: C17_25  and  O7_26 
REMARK    8  A    between atoms: C19_28  and  O8_29 
ROOT
HETATM    1  C2  UNL     1      -1.976  43.227  52.839  1.00  0.00     0.103 A 
HETATM    2  C3  UNL     1      -0.816  42.616  53.237  1.00  0.00     0.077 A 
HETATM    3  C4  UNL     1       0.413  43.250  53.045  1.00  0.00     0.087 A 
HETATM    4  C5  UNL     1       0.479  44.484  52.462  1.00  0.00     0.013 A 
HETATM    5  C6  UNL     1      -0.704  45.080  52.069  1.00  0.00     0.052 A 
HETATM    6  C7  UNL     1      -1.924  44.473  52.248  1.00  0.00     0.099 A 
HETATM    7  C8  UNL     1       1.902  44.948  52.414  1.00  0.00     0.211 A 
HETATM    8  C9  UNL     1       2.639  43.812  52.964  1.00  0.00     0.087 A 
HETATM    9  C10 UNL     1       3.934  43.579  53.135  1.00  0.00     0.051 C 
HETATM   10  O9  UNL     1       1.690  42.853  53.345  1.00  0.00    -0.311 OA
ENDROOT
BRANCH   9  11
HETATM   11  C11 UNL     1       5.025  44.470  52.789  1.00  0.00     0.020 A 
HETATM   12  C12 UNL     1       5.517  45.425  53.670  1.00  0.00     0.056 A 
HETATM   13  C14 UNL     1       6.557  46.267  53.267  1.00  0.00     0.059 A 
HETATM   14  C15 UNL     1       7.138  46.206  52.026  1.00  0.00     0.105 A 
HETATM   15  C17 UNL     1       6.651  45.260  51.163  1.00  0.00     0.136 A 
HETATM   16  C19 UNL     1       5.605  44.395  51.533  1.00  0.00     0.115 A 
BRANCH  12  17
HETATM   17  C13 UNL     1       5.051  45.519  55.023  1.00  0.00     0.210 C 
HETATM   18  O4  UNL     1       5.605  44.834  55.912  1.00  0.00    -0.644 OA
HETATM   19  O5  UNL     1       4.006  46.339  55.380  1.00  0.00    -0.644 OA
ENDBRANCH  12  17
BRANCH  14  20
HETATM   20  O6  UNL     1       8.179  47.067  51.652  1.00  0.00    -0.353 OA
HETATM   21  C16 UNL     1       9.411  46.962  52.352  1.00  0.00     0.210 C 
ENDBRANCH  14  20
BRANCH  15  22
HETATM   22  O7  UNL     1       7.186  45.132  49.888  1.00  0.00    -0.351 OA
HETATM   23  C18 UNL     1       8.364  44.352  49.727  1.00  0.00     0.210 C 
ENDBRANCH  15  22
BRANCH  16  24
HETATM   24  O8  UNL     1       5.149  43.453  50.638  1.00  0.00    -0.352 OA
HETATM   25  C20 UNL     1       5.726  42.190  50.533  1.00  0.00     0.210 C 
ENDBRANCH  16  24
ENDBRANCH   9  11
BRANCH   7  26
HETATM   26  O3  UNL     1       2.042  46.084  53.224  1.00  0.00    -0.384 OA
ATOM     27  H3  UNL     1       2.239  45.811  54.112  1.00  0.00     0.211 HD
ENDBRANCH   7  26
BRANCH   6  28
HETATM   28  O2  UNL     1      -3.107  45.091  51.844  1.00  0.00    -0.358 OA
ATOM     29  H2  UNL     1      -3.066  45.870  51.302  1.00  0.00     0.217 HD
ENDBRANCH   6  28
BRANCH   1  30
HETATM   30  O1  UNL     1      -3.183  42.587  53.035  1.00  0.00    -0.353 OA
HETATM   31  C1  UNL     1      -3.770  41.767  52.073  1.00  0.00     0.210 C 
ENDBRANCH   1  30
TORSDOF 8
ENDMDL
MODEL 3
REMARK VINA RESULT: -7.341021343      2.588      4.385
REMARK  8 active torsions:
REMARK  status: ('A' for Active; 'I' for Inactive)
REMARK    1  A    between atoms: O1_2  and  C2_3 
REMARK    2  A    between atoms: C7_8  and  O2_9 
REMARK    3  A    between atoms: C8_11  and  O3_12 
REMARK    4  A    between atoms: C10_15  and  C11_16 
REMARK    5  A    between atoms: C12_17  and  C13_18 
REMARK    6  A    between atoms: C15_22  and  O6_23 
REMARK    7  A    between atoms: C17_25  and  O7_26 
REMARK    8  A    between atoms: C19_28  and  O8_29 
ROOT
HETATM    1  C2  UNL     1      -2.442  43.639  53.551  1.00  0.00     0.103 A 
HETATM    2  C3  UNL     1      -1.287  43.116  54.073  1.00  0.00     0.077 A 
HETATM    3  C4  UNL     1      -0.086  43.230  53.371  1.00  0.00     0.087 A 
HETATM    4  C5  UNL     1      -0.040  43.862  52.161  1.00  0.00     0.013 A 
HETATM    5  C6  UNL     1      -1.216  44.379  51.655  1.00  0.00     0.052 A 
HETATM    6  C7  UNL     1      -2.410  44.278  52.329  1.00  0.00     0.099 A 
HETATM    7  C8  UNL     1       1.367  43.878  51.649  1.00  0.00     0.211 A 
HETATM    8  C9  UNL     1       2.098  43.122  52.664  1.00  0.00     0.087 A 
HETATM    9  C10 UNL     1       3.364  42.739  52.762  1.00  0.00     0.051 C 
HETATM   10  O9  UNL     1       1.179  42.794  53.672  1.00  0.00    -0.311 OA
ENDROOT
BRANCH   9  11
HETATM   11  C11 UNL     1       4.421  43.000  51.804  1.00  0.00     0.020 A 
HETATM   12  C12 UNL     1       5.205  44.147  51.849  1.00  0.00     0.056 A 
HETATM   13  C14 UNL     1       6.194  44.348  50.882  1.00  0.00     0.059 A 
HETATM   14  C15 UNL     1       6.447  43.460  49.868  1.00  0.00     0.105 A 
HETATM   15  C17 UNL     1       5.674  42.330  49.830  1.00  0.00     0.136 A 
HETATM   16  C19 UNL     1       4.669  42.094  50.785  1.00  0.00     0.115 A 
BRANCH  12  17
HETATM   17  C13 UNL     1       5.092  45.098  52.916  1.00  0.00     0.210 C 
HETATM   18  O4  UNL     1       5.801  44.961  53.939  1.00  0.00    -0.644 OA
HETATM   19  O5  UNL     1       4.224  46.163  52.857  1.00  0.00    -0.644 OA
ENDBRANCH  12  17
BRANCH  14  20
HETATM   20  O6  UNL     1       7.446  43.693  48.913  1.00  0.00    -0.353 OA
HETATM   21  C16 UNL     1       8.713  44.141  49.373  1.00  0.00     0.210 C 
ENDBRANCH  14  20
BRANCH  15  22
HETATM   22  O7  UNL     1       5.869  41.381  48.835  1.00  0.00    -0.351 OA
HETATM   23  C18 UNL     1       5.362  41.653  47.535  1.00  0.00     0.210 C 
ENDBRANCH  15  22
BRANCH  16  24
HETATM   24  O8  UNL     1       3.919  40.941  50.715  1.00  0.00    -0.352 OA
HETATM   25  C20 UNL     1       2.837  40.811  49.848  1.00  0.00     0.210 C 
ENDBRANCH  16  24
ENDBRANCH   9  11
BRANCH   7  26
HETATM   26  O3  UNL     1       1.816  45.204  51.582  1.00  0.00    -0.384 OA
ATOM     27  H3  UNL     1       1.526  45.590  50.763  1.00  0.00     0.211 HD
ENDBRANCH   7  26
BRANCH   6  28
HETATM   28  O2  UNL     1      -3.588  44.809  51.801  1.00  0.00    -0.358 OA
ATOM     29  H2  UNL     1      -4.417  44.389  51.995  1.00  0.00     0.217 HD
ENDBRANCH   6  28
BRANCH   1  30
HETATM   30  O1  UNL     1      -3.621  43.518  54.256  1.00  0.00    -0.353 OA
HETATM   31  C1  UNL     1      -3.713  43.762  55.625  1.00  0.00     0.210 C 
ENDBRANCH   1  30
TORSDOF 8
ENDMDL
MODEL 4
REMARK VINA RESULT: -7.294471865      2.465      3.897
REMARK  8 active torsions:
REMARK  status: ('A' for Active; 'I' for Inactive)
REMARK    1  A    between atoms: O1_2  and  C2_3 
REMARK    2  A    between atoms: C7_8  and  O2_9 
REMARK    3  A    between atoms: C8_11  and  O3_12 
REMARK    4  A    between atoms: C10_15  and  C11_16 
REMARK    5  A    between atoms: C12_17  and  C13_18 
REMARK    6  A    between atoms: C15_22  and  O6_23 
REMARK    7  A    between atoms: C17_25  and  O7_26 
REMARK    8  A    between atoms: C19_28  and  O8_29 
ROOT
HETATM    1  C2  UNL     1      -2.033  45.147  55.129  1.00  0.00     0.103 A 
HETATM    2  C3  UNL     1      -0.826  44.706  55.608  1.00  0.00     0.077 A 
HETATM    3  C4  UNL     1       0.315  44.776  54.807  1.00  0.00     0.087 A 
HETATM    4  C5  UNL     1       0.249  45.283  53.540  1.00  0.00     0.013 A 
HETATM    5  C6  UNL     1      -0.977  45.719  53.079  1.00  0.00     0.052 A 
HETATM    6  C7  UNL     1      -2.113  45.660  53.850  1.00  0.00     0.099 A 
HETATM    7  C8  UNL     1       1.612  45.279  52.920  1.00  0.00     0.211 A 
HETATM    8  C9  UNL     1       2.441  44.647  53.945  1.00  0.00     0.087 A 
HETATM    9  C10 UNL     1       3.722  44.306  53.981  1.00  0.00     0.051 C 
HETATM   10  O9  UNL     1       1.611  44.402  55.049  1.00  0.00    -0.311 OA
ENDROOT
BRANCH   9  11
HETATM   11  C11 UNL     1       4.695  44.493  52.922  1.00  0.00     0.020 A 
HETATM   12  C12 UNL     1       5.539  45.596  52.868  1.00  0.00     0.056 A 
HETATM   13  C14 UNL     1       6.441  45.726  51.808  1.00  0.00     0.059 A 
HETATM   14  C15 UNL     1       6.549  44.809  50.794  1.00  0.00     0.105 A 
HETATM   15  C17 UNL     1       5.717  43.723  50.854  1.00  0.00     0.136 A 
HETATM   16  C19 UNL     1       4.796  43.557  51.904  1.00  0.00     0.115 A 
BRANCH  12  17
HETATM   17  C13 UNL     1       5.579  46.569  53.920  1.00  0.00     0.210 C 
HETATM   18  O4  UNL     1       4.776  47.528  53.901  1.00  0.00    -0.644 OA
HETATM   19  O5  UNL     1       6.480  46.487  54.957  1.00  0.00    -0.644 OA
ENDBRANCH  12  17
BRANCH  14  20
HETATM   20  O6  UNL     1       7.462  44.971  49.744  1.00  0.00    -0.353 OA
HETATM   21  C16 UNL     1       8.780  44.473  49.928  1.00  0.00     0.210 C 
ENDBRANCH  14  20
BRANCH  15  22
HETATM   22  O7  UNL     1       5.765  42.747  49.866  1.00  0.00    -0.351 OA
HETATM   23  C18 UNL     1       6.501  41.559  50.127  1.00  0.00     0.210 C 
ENDBRANCH  15  22
BRANCH  16  24
HETATM   24  O8  UNL     1       3.983  42.446  51.930  1.00  0.00    -0.352 OA
HETATM   25  C20 UNL     1       2.899  42.300  51.069  1.00  0.00     0.210 C 
ENDBRANCH  16  24
ENDBRANCH   9  11
BRANCH   7  26
HETATM   26  O3  UNL     1       2.014  46.602  52.687  1.00  0.00    -0.384 OA
ATOM     27  H3  UNL     1       1.521  47.182  53.256  1.00  0.00     0.211 HD
ENDBRANCH   7  26
BRANCH   6  28
HETATM   28  O2  UNL     1      -3.343  46.106  53.366  1.00  0.00    -0.358 OA
ATOM     29  H2  UNL     1      -3.410  46.408  52.468  1.00  0.00     0.217 HD
ENDBRANCH   6  28
BRANCH   1  30
HETATM   30  O1  UNL     1      -3.151  45.071  55.933  1.00  0.00    -0.353 OA
HETATM   31  C1  UNL     1      -3.168  44.381  57.144  1.00  0.00     0.210 C 
ENDBRANCH   1  30
TORSDOF 8
ENDMDL
MODEL 5
REMARK VINA RESULT: -7.244967558      2.344      4.340
REMARK  8 active torsions:
REMARK  status: ('A' for Active; 'I' for Inactive)
REMARK    1  A    between atoms: O1_2  and  C2_3 
REMARK    2  A    between atoms: C7_8  and  O2_9 
REMARK    3  A    between atoms: C8_11  and  O3_12 
REMARK    4  A    between atoms: C10_15  and  C11_16 
REMARK    5  A    between atoms: C12_17  and  C13_18 
REMARK    6  A    between atoms: C15_22  and  O6_23 
REMARK    7  A    between atoms: C17_25  and  O7_26 
REMARK    8  A    between atoms: C19_28  and  O8_29 
ROOT
HETATM    1  C2  UNL     1      -2.239  44.688  54.622  1.00  0.00     0.103 A 
HETATM    2  C3  UNL     1      -1.100  44.018  54.987  1.00  0.00     0.077 A 
HETATM    3  C4  UNL     1       0.076  44.182  54.253  1.00  0.00     0.087 A 
HETATM    4  C5  UNL     1       0.113  45.009  53.167  1.00  0.00     0.013 A 
HETATM    5  C6  UNL     1      -1.047  45.673  52.818  1.00  0.00     0.052 A 
HETATM    6  C7  UNL     1      -2.216  45.525  53.525  1.00  0.00     0.099 A 
HETATM    7  C8  UNL     1       1.495  45.034  52.593  1.00  0.00     0.211 A 
HETATM    8  C9  UNL     1       2.217  44.074  53.426  1.00  0.00     0.087 A 
HETATM    9  C10 UNL     1       3.459  43.608  53.392  1.00  0.00     0.051 C 
HETATM   10  O9  UNL     1       1.321  43.630  54.410  1.00  0.00    -0.311 OA
ENDROOT
BRANCH   9  11
HETATM   11  C11 UNL     1       4.490  43.970  52.438  1.00  0.00     0.020 A 
HETATM   12  C12 UNL     1       4.779  43.197  51.321  1.00  0.00     0.056 A 
HETATM   13  C14 UNL     1       5.800  43.591  50.452  1.00  0.00     0.059 A 
HETATM   14  C15 UNL     1       6.551  44.724  50.636  1.00  0.00     0.105 A 
HETATM   15  C17 UNL     1       6.259  45.485  51.738  1.00  0.00     0.136 A 
HETATM   16  C19 UNL     1       5.240  45.119  52.635  1.00  0.00     0.115 A 
BRANCH  12  17
HETATM   17  C13 UNL     1       4.000  42.044  50.977  1.00  0.00     0.210 C 
HETATM   18  O4  UNL     1       4.529  40.910  51.017  1.00  0.00    -0.644 OA
HETATM   19  O5  UNL     1       2.681  42.140  50.598  1.00  0.00    -0.644 OA
ENDBRANCH  12  17
BRANCH  14  20
HETATM   20  O6  UNL     1       7.569  45.091  49.747  1.00  0.00    -0.353 OA
HETATM   21  C16 UNL     1       8.522  44.102  49.383  1.00  0.00     0.210 C 
ENDBRANCH  14  20
BRANCH  15  22
HETATM   22  O7  UNL     1       6.973  46.648  51.995  1.00  0.00    -0.351 OA
HETATM   23  C18 UNL     1       8.251  46.534  52.607  1.00  0.00     0.210 C 
ENDBRANCH  15  22
BRANCH  16  24
HETATM   24  O8  UNL     1       4.974  45.916  53.727  1.00  0.00    -0.352 OA
HETATM   25  C20 UNL     1       5.576  45.704  54.964  1.00  0.00     0.210 C 
ENDBRANCH  16  24
ENDBRANCH   9  11
BRANCH   7  26
HETATM   26  O3  UNL     1       2.027  46.324  52.729  1.00  0.00    -0.384 OA
ATOM     27  H3  UNL     1       2.888  46.266  53.125  1.00  0.00     0.211 HD
ENDBRANCH   7  26
BRANCH   6  28
HETATM   28  O2  UNL     1      -3.378  46.205  53.157  1.00  0.00    -0.358 OA
ATOM     29  H2  UNL     1      -3.364  47.152  53.089  1.00  0.00     0.217 HD
ENDBRANCH   6  28
BRANCH   1  30
HETATM   30  O1  UNL     1      -3.394  44.514  55.356  1.00  0.00    -0.353 OA
HETATM   31  C1  UNL     1      -3.449  43.730  56.507  1.00  0.00     0.210 C 
ENDBRANCH   1  30
TORSDOF 8
ENDMDL
