MODEL 1
REMARK VINA RESULT: -8.737603115      0.000      0.000
REMARK  18 active torsions:
REMARK  status: ('A' for Active; 'I' for Inactive)
REMARK    1  A    between atoms: C3_3  and  N1_4 
REMARK       I    between atoms: C4_6  and  N2_7 
REMARK       I    between atoms: C4_6  and  N6_28 
REMARK    2  A    between atoms: N2_7  and  C5_9 
REMARK    3  A    between atoms: C5_9  and  C6_10 
REMARK    4  A    between atoms: C6_10  and  N3_11 
REMARK    5  A    between atoms: N3_11  and  C8_13 
REMARK    6  A    between atoms: N3_11  and  C11_16 
REMARK    7  A    between atoms: C11_16  and  C12_17 
REMARK    8  A    between atoms: C12_17  and  C13_18 
REMARK    9  A    between atoms: C13_18  and  N4_19 
REMARK   10  A    between atoms: N4_19  and  C14_21 
REMARK   11  A    between atoms: C14_21  and  N5_23 
REMARK   12  A    between atoms: N5_23  and  C15_25 
REMARK   13  A    between atoms: C15_25  and  C16_26 
REMARK   14  A    between atoms: N6_28  and  C18_30 
REMARK   15  A    between atoms: C22_34  and  C23_35 
REMARK   16  A    between atoms: C23_35  and  C24_36 
REMARK   17  A    between atoms: C24_36  and  C25_37 
REMARK   18  A    between atoms: C25_37  and  C26_38 
ROOT
HETATM    1  C1  UNL     1      -2.841  67.471  67.036  1.00  0.00     0.014 C 
HETATM    2  C2  UNL     1      -2.055  66.956  67.791  1.00  0.00    -0.097 C 
HETATM    3  C3  UNL     1      -1.099  66.329  68.753  1.00  0.00     0.231 C 
ENDROOT
BRANCH   3   4
HETATM    4  N1  UNL     1       0.150  66.992  68.673  1.00  0.00    -0.216 N 
HETATM    5  C4  UNL     1       1.088  67.046  69.552  1.00  0.00     0.675 C 
HETATM    6  N2  UNL     1       2.271  67.778  69.278  1.00  0.00    -0.225 N 
HETATM    7  N6  UNL     1       0.890  66.365  70.777  1.00  0.00    -0.192 N 
ATOM      8  H2  UNL     1       2.489  68.550  69.908  1.00  0.00     0.177 HD
ATOM      9  H6  UNL     1       0.802  66.904  71.639  1.00  0.00     0.184 HD
ATOM     10  H1  UNL     1       0.330  67.492  67.802  1.00  0.00     0.178 HD
BRANCH   6  11
HETATM   11  C5  UNL     1       3.188  67.543  68.209  1.00  0.00     0.166 C 
BRANCH  11  12
HETATM   12  C6  UNL     1       2.918  66.351  67.354  1.00  0.00     0.258 C 
BRANCH  12  13
HETATM   13  N3  UNL     1       4.014  65.733  66.717  1.00  0.00    -0.059 N 
HETATM   14  C7  UNL     1       3.813  64.309  66.576  1.00  0.00     0.273 C 
BRANCH  13  15
HETATM   15  C8  UNL     1       5.262  65.863  67.432  1.00  0.00     0.329 C 
HETATM   16  C9  UNL     1       5.242  65.198  68.736  1.00  0.00    -0.089 C 
HETATM   17  C10 UNL     1       5.249  64.652  69.820  1.00  0.00     0.013 C 
ENDBRANCH  13  15
BRANCH  13  18
HETATM   18  C11 UNL     1       4.108  66.243  65.343  1.00  0.00     0.243 C 
BRANCH  18  19
HETATM   19  C12 UNL     1       4.810  65.388  64.401  1.00  0.00     0.072 C 
BRANCH  19  20
HETATM   20  C13 UNL     1       4.468  65.412  62.959  1.00  0.00     0.065 C 
BRANCH  20  21
HETATM   21  N4  UNL     1       4.887  66.495  62.167  1.00  0.00    -0.347 N 
ATOM     22  H4  UNL     1       5.525  66.247  61.411  1.00  0.00     0.167 HD
BRANCH  21  23
HETATM   23  C14 UNL     1       4.573  67.867  62.246  1.00  0.00     0.171 C 
HETATM   24  S1  UNL     1       5.527  68.965  62.962  1.00  0.00    -0.041 SA
BRANCH  23  25
HETATM   25  N5  UNL     1       3.307  68.308  61.738  1.00  0.00    -0.367 N 
ATOM     26  H5  UNL     1       3.218  68.576  60.757  1.00  0.00     0.161 HD
BRANCH  25  27
HETATM   27  C15 UNL     1       2.170  68.370  62.604  1.00  0.00     0.121 C 
BRANCH  27  28
HETATM   28  C16 UNL     1       0.984  68.882  61.769  1.00  0.00     0.015 C 
HETATM   29  C17 UNL     1      -0.242  68.794  62.653  1.00  0.00     0.006 C 
ENDBRANCH  27  28
ENDBRANCH  25  27
ENDBRANCH  23  25
ENDBRANCH  21  23
ENDBRANCH  20  21
ENDBRANCH  19  20
ENDBRANCH  18  19
ENDBRANCH  13  18
ENDBRANCH  12  13
ENDBRANCH  11  12
ENDBRANCH   6  11
BRANCH   7  30
HETATM   30  C18 UNL     1       0.812  64.952  70.833  1.00  0.00     0.049 A 
HETATM   31  C19 UNL     1      -0.090  64.233  71.579  1.00  0.00     0.030 A 
HETATM   32  C20 UNL     1      -0.099  62.842  71.645  1.00  0.00     0.003 A 
HETATM   33  C21 UNL     1       0.868  62.167  70.908  1.00  0.00     0.007 A 
HETATM   34  C22 UNL     1       1.792  62.831  70.146  1.00  0.00    -0.056 A 
HETATM   35  C28 UNL     1       1.755  64.198  70.116  1.00  0.00     0.037 A 
BRANCH  34  36
HETATM   36  C23 UNL     1       2.838  62.058  69.391  1.00  0.00     0.038 C 
BRANCH  36  37
HETATM   37  C24 UNL     1       2.973  60.716  70.045  1.00  0.00     0.005 C 
BRANCH  37  38
HETATM   38  C25 UNL     1       4.393  60.316  70.288  1.00  0.00    -0.000 C 
BRANCH  38  39
HETATM   39  C26 UNL     1       4.972  61.222  71.367  1.00  0.00    -0.005 C 
HETATM   40  C27 UNL     1       4.275  61.003  72.685  1.00  0.00     0.005 C 
ENDBRANCH  38  39
ENDBRANCH  37  38
ENDBRANCH  36  37
ENDBRANCH  34  36
ENDBRANCH   7  30
ENDBRANCH   3   4
TORSDOF 18
ENDMDL
MODEL 2
REMARK VINA RESULT: -8.430885309      2.719      7.347
REMARK  18 active torsions:
REMARK  status: ('A' for Active; 'I' for Inactive)
REMARK    1  A    between atoms: C3_3  and  N1_4 
REMARK       I    between atoms: C4_6  and  N2_7 
REMARK       I    between atoms: C4_6  and  N6_28 
REMARK    2  A    between atoms: N2_7  and  C5_9 
REMARK    3  A    between atoms: C5_9  and  C6_10 
REMARK    4  A    between atoms: C6_10  and  N3_11 
REMARK    5  A    between atoms: N3_11  and  C8_13 
REMARK    6  A    between atoms: N3_11  and  C11_16 
REMARK    7  A    between atoms: C11_16  and  C12_17 
REMARK    8  A    between atoms: C12_17  and  C13_18 
REMARK    9  A    between atoms: C13_18  and  N4_19 
REMARK   10  A    between atoms: N4_19  and  C14_21 
REMARK   11  A    between atoms: C14_21  and  N5_23 
REMARK   12  A    between atoms: N5_23  and  C15_25 
REMARK   13  A    between atoms: C15_25  and  C16_26 
REMARK   14  A    between atoms: N6_28  and  C18_30 
REMARK   15  A    between atoms: C22_34  and  C23_35 
REMARK   16  A    between atoms: C23_35  and  C24_36 
REMARK   17  A    between atoms: C24_36  and  C25_37 
REMARK   18  A    between atoms: C25_37  and  C26_38 
ROOT
HETATM    1  C1  UNL     1       4.771  62.666  63.797  1.00  0.00     0.014 C 
HETATM    2  C2  UNL     1       4.155  63.350  64.576  1.00  0.00    -0.097 C 
HETATM    3  C3  UNL     1       3.415  64.219  65.539  1.00  0.00     0.231 C 
ENDROOT
BRANCH   3   4
HETATM    4  N1  UNL     1       3.362  63.581  66.803  1.00  0.00    -0.216 N 
HETATM    5  C4  UNL     1       3.912  63.941  67.909  1.00  0.00     0.675 C 
HETATM    6  N2  UNL     1       3.741  63.150  69.072  1.00  0.00    -0.225 N 
HETATM    7  N6  UNL     1       4.680  65.130  67.911  1.00  0.00    -0.192 N 
ATOM      8  H2  UNL     1       4.587  62.773  69.499  1.00  0.00     0.177 HD
ATOM      9  H6  UNL     1       5.687  65.074  68.066  1.00  0.00     0.184 HD
ATOM     10  H1  UNL     1       2.814  62.722  66.840  1.00  0.00     0.178 HD
BRANCH   6  11
HETATM   11  C5  UNL     1       2.504  62.829  69.708  1.00  0.00     0.166 C 
BRANCH  11  12
HETATM   12  C6  UNL     1       2.269  63.439  71.049  1.00  0.00     0.258 C 
BRANCH  12  13
HETATM   13  N3  UNL     1       1.051  63.154  71.701  1.00  0.00    -0.059 N 
HETATM   14  C7  UNL     1       1.170  63.291  73.135  1.00  0.00     0.273 C 
BRANCH  13  15
HETATM   15  C8  UNL     1       0.575  61.806  71.496  1.00  0.00     0.329 C 
HETATM   16  C9  UNL     1      -0.399  61.387  72.505  1.00  0.00    -0.089 C 
HETATM   17  C10 UNL     1      -1.209  61.018  73.331  1.00  0.00     0.013 C 
ENDBRANCH  13  15
BRANCH  13  18
HETATM   18  C11 UNL     1       0.058  64.159  71.302  1.00  0.00     0.243 C 
BRANCH  18  19
HETATM   19  C12 UNL     1       0.597  65.403  70.779  1.00  0.00     0.072 C 
BRANCH  19  20
HETATM   20  C13 UNL     1      -0.229  66.278  69.913  1.00  0.00     0.065 C 
BRANCH  20  21
HETATM   21  N4  UNL     1      -0.294  66.021  68.532  1.00  0.00    -0.347 N 
ATOM     22  H4  UNL     1       0.104  65.126  68.247  1.00  0.00     0.167 HD
BRANCH  21  23
HETATM   23  C14 UNL     1      -0.817  66.795  67.477  1.00  0.00     0.171 C 
HETATM   24  S1  UNL     1      -2.292  67.468  67.506  1.00  0.00    -0.041 SA
BRANCH  23  25
HETATM   25  N5  UNL     1      -0.040  66.932  66.280  1.00  0.00    -0.367 N 
ATOM     26  H5  UNL     1       0.609  66.194  66.007  1.00  0.00     0.161 HD
BRANCH  25  27
HETATM   27  C15 UNL     1      -0.175  68.103  65.469  1.00  0.00     0.121 C 
BRANCH  27  28
HETATM   28  C16 UNL     1       0.730  67.919  64.240  1.00  0.00     0.015 C 
HETATM   29  C17 UNL     1       0.076  68.669  63.099  1.00  0.00     0.006 C 
ENDBRANCH  27  28
ENDBRANCH  25  27
ENDBRANCH  23  25
ENDBRANCH  21  23
ENDBRANCH  20  21
ENDBRANCH  19  20
ENDBRANCH  18  19
ENDBRANCH  13  18
ENDBRANCH  12  13
ENDBRANCH  11  12
ENDBRANCH   6  11
BRANCH   7  30
HETATM   30  C18 UNL     1       4.081  66.398  67.704  1.00  0.00     0.049 A 
HETATM   31  C19 UNL     1       3.193  67.008  68.557  1.00  0.00     0.030 A 
HETATM   32  C20 UNL     1       2.588  68.233  68.289  1.00  0.00     0.003 A 
HETATM   33  C21 UNL     1       2.915  68.851  67.087  1.00  0.00     0.007 A 
HETATM   34  C22 UNL     1       3.794  68.291  66.199  1.00  0.00    -0.056 A 
HETATM   35  C28 UNL     1       4.361  67.086  66.513  1.00  0.00     0.037 A 
BRANCH  34  36
HETATM   36  C23 UNL     1       4.092  68.984  64.899  1.00  0.00     0.038 C 
BRANCH  36  37
HETATM   37  C24 UNL     1       5.249  68.276  64.260  1.00  0.00     0.005 C 
BRANCH  37  38
HETATM   38  C25 UNL     1       5.240  68.353  62.768  1.00  0.00    -0.000 C 
BRANCH  38  39
HETATM   39  C26 UNL     1       4.055  67.547  62.250  1.00  0.00    -0.005 C 
HETATM   40  C27 UNL     1       3.251  68.349  61.259  1.00  0.00     0.005 C 
ENDBRANCH  38  39
ENDBRANCH  37  38
ENDBRANCH  36  37
ENDBRANCH  34  36
ENDBRANCH   7  30
ENDBRANCH   3   4
TORSDOF 18
ENDMDL
MODEL 3
REMARK VINA RESULT: -8.341112637      4.406      9.280
REMARK  18 active torsions:
REMARK  status: ('A' for Active; 'I' for Inactive)
REMARK    1  A    between atoms: C3_3  and  N1_4 
REMARK       I    between atoms: C4_6  and  N2_7 
REMARK       I    between atoms: C4_6  and  N6_28 
REMARK    2  A    between atoms: N2_7  and  C5_9 
REMARK    3  A    between atoms: C5_9  and  C6_10 
REMARK    4  A    between atoms: C6_10  and  N3_11 
REMARK    5  A    between atoms: N3_11  and  C8_13 
REMARK    6  A    between atoms: N3_11  and  C11_16 
REMARK    7  A    between atoms: C11_16  and  C12_17 
REMARK    8  A    between atoms: C12_17  and  C13_18 
REMARK    9  A    between atoms: C13_18  and  N4_19 
REMARK   10  A    between atoms: N4_19  and  C14_21 
REMARK   11  A    between atoms: C14_21  and  N5_23 
REMARK   12  A    between atoms: N5_23  and  C15_25 
REMARK   13  A    between atoms: C15_25  and  C16_26 
REMARK   14  A    between atoms: N6_28  and  C18_30 
REMARK   15  A    between atoms: C22_34  and  C23_35 
REMARK   16  A    between atoms: C23_35  and  C24_36 
REMARK   17  A    between atoms: C24_36  and  C25_37 
REMARK   18  A    between atoms: C25_37  and  C26_38 
ROOT
HETATM    1  C1  UNL     1       3.352  63.808  65.194  1.00  0.00     0.014 C 
HETATM    2  C2  UNL     1       3.747  64.608  66.005  1.00  0.00    -0.097 C 
HETATM    3  C3  UNL     1       4.261  65.606  66.989  1.00  0.00     0.231 C 
ENDROOT
BRANCH   3   4
HETATM    4  N1  UNL     1       4.712  64.932  68.150  1.00  0.00    -0.216 N 
HETATM    5  C4  UNL     1       4.556  65.264  69.384  1.00  0.00     0.675 C 
HETATM    6  N2  UNL     1       5.099  64.449  70.408  1.00  0.00    -0.225 N 
HETATM    7  N6  UNL     1       3.840  66.453  69.666  1.00  0.00    -0.192 N 
ATOM      8  H2  UNL     1       5.783  64.885  71.027  1.00  0.00     0.177 HD
ATOM      9  H6  UNL     1       4.330  67.243  70.087  1.00  0.00     0.184 HD
ATOM     10  H1  UNL     1       5.230  64.069  67.987  1.00  0.00     0.178 HD
BRANCH   6  11
HETATM   11  C5  UNL     1       4.785  63.079  70.661  1.00  0.00     0.166 C 
BRANCH  11  12
HETATM   12  C6  UNL     1       3.361  62.775  70.987  1.00  0.00     0.258 C 
BRANCH  12  13
HETATM   13  N3  UNL     1       2.859  61.506  70.631  1.00  0.00    -0.059 N 
HETATM   14  C7  UNL     1       2.344  61.498  69.281  1.00  0.00     0.273 C 
BRANCH  13  15
HETATM   15  C8  UNL     1       1.758  61.056  71.451  1.00  0.00     0.329 C 
HETATM   16  C9  UNL     1       0.639  61.999  71.468  1.00  0.00    -0.089 C 
HETATM   17  C10 UNL     1      -0.302  62.766  71.495  1.00  0.00     0.013 C 
ENDBRANCH  13  15
BRANCH  13  18
HETATM   18  C11 UNL     1       3.970  60.546  70.622  1.00  0.00     0.243 C 
BRANCH  18  19
HETATM   19  C12 UNL     1       3.699  59.276  69.970  1.00  0.00     0.072 C 
BRANCH  19  20
HETATM   20  C13 UNL     1       3.597  58.027  70.762  1.00  0.00     0.065 C 
BRANCH  20  21
HETATM   21  N4  UNL     1       3.864  58.061  72.142  1.00  0.00    -0.347 N 
ATOM     22  H4  UNL     1       4.848  58.185  72.382  1.00  0.00     0.167 HD
BRANCH  21  23
HETATM   23  C14 UNL     1       2.998  57.951  73.249  1.00  0.00     0.171 C 
HETATM   24  S1  UNL     1       3.071  58.926  74.543  1.00  0.00    -0.041 SA
BRANCH  23  25
HETATM   25  N5  UNL     1       2.053  56.874  73.272  1.00  0.00    -0.367 N 
ATOM     26  H5  UNL     1       2.331  55.945  72.953  1.00  0.00     0.161 HD
BRANCH  25  27
HETATM   27  C15 UNL     1       0.721  57.101  73.742  1.00  0.00     0.121 C 
BRANCH  27  28
HETATM   28  C16 UNL     1      -0.005  55.745  73.738  1.00  0.00     0.015 C 
HETATM   29  C17 UNL     1      -0.962  55.759  74.911  1.00  0.00     0.006 C 
ENDBRANCH  27  28
ENDBRANCH  25  27
ENDBRANCH  23  25
ENDBRANCH  21  23
ENDBRANCH  20  21
ENDBRANCH  19  20
ENDBRANCH  18  19
ENDBRANCH  13  18
ENDBRANCH  12  13
ENDBRANCH  11  12
ENDBRANCH   6  11
BRANCH   7  30
HETATM   30  C18 UNL     1       2.458  66.569  69.377  1.00  0.00     0.049 A 
HETATM   31  C19 UNL     1       1.438  66.069  70.150  1.00  0.00     0.030 A 
HETATM   32  C20 UNL     1       0.093  66.161  69.802  1.00  0.00     0.003 A 
HETATM   33  C21 UNL     1      -0.208  66.796  68.602  1.00  0.00     0.007 A 
HETATM   34  C22 UNL     1       0.767  67.315  67.792  1.00  0.00    -0.056 A 
HETATM   35  C28 UNL     1       2.072  67.198  68.183  1.00  0.00     0.037 A 
BRANCH  34  36
HETATM   36  C23 UNL     1       0.393  67.966  66.489  1.00  0.00     0.038 C 
BRANCH  36  37
HETATM   37  C24 UNL     1       1.161  67.280  65.400  1.00  0.00     0.005 C 
BRANCH  37  38
HETATM   38  C25 UNL     1       1.494  68.179  64.253  1.00  0.00    -0.000 C 
BRANCH  38  39
HETATM   39  C26 UNL     1       2.989  68.074  63.977  1.00  0.00    -0.005 C 
HETATM   40  C27 UNL     1       3.788  68.667  65.109  1.00  0.00     0.005 C 
ENDBRANCH  38  39
ENDBRANCH  37  38
ENDBRANCH  36  37
ENDBRANCH  34  36
ENDBRANCH   7  30
ENDBRANCH   3   4
TORSDOF 18
ENDMDL
MODEL 4
REMARK VINA RESULT: -8.321750750      2.563      5.014
REMARK  18 active torsions:
REMARK  status: ('A' for Active; 'I' for Inactive)
REMARK    1  A    between atoms: C3_3  and  N1_4 
REMARK       I    between atoms: C4_6  and  N2_7 
REMARK       I    between atoms: C4_6  and  N6_28 
REMARK    2  A    between atoms: N2_7  and  C5_9 
REMARK    3  A    between atoms: C5_9  and  C6_10 
REMARK    4  A    between atoms: C6_10  and  N3_11 
REMARK    5  A    between atoms: N3_11  and  C8_13 
REMARK    6  A    between atoms: N3_11  and  C11_16 
REMARK    7  A    between atoms: C11_16  and  C12_17 
REMARK    8  A    between atoms: C12_17  and  C13_18 
REMARK    9  A    between atoms: C13_18  and  N4_19 
REMARK   10  A    between atoms: N4_19  and  C14_21 
REMARK   11  A    between atoms: C14_21  and  N5_23 
REMARK   12  A    between atoms: N5_23  and  C15_25 
REMARK   13  A    between atoms: C15_25  and  C16_26 
REMARK   14  A    between atoms: N6_28  and  C18_30 
REMARK   15  A    between atoms: C22_34  and  C23_35 
REMARK   16  A    between atoms: C23_35  and  C24_36 
REMARK   17  A    between atoms: C24_36  and  C25_37 
REMARK   18  A    between atoms: C25_37  and  C26_38 
ROOT
HETATM    1  C1  UNL     1      -0.430  63.061  70.349  1.00  0.00     0.014 C 
HETATM    2  C2  UNL     1       0.595  63.614  70.661  1.00  0.00    -0.097 C 
HETATM    3  C3  UNL     1       1.847  64.323  71.061  1.00  0.00     0.231 C 
ENDROOT
BRANCH   3   4
HETATM    4  N1  UNL     1       2.553  64.721  69.900  1.00  0.00    -0.216 N 
HETATM    5  C4  UNL     1       3.733  64.376  69.519  1.00  0.00     0.675 C 
HETATM    6  N2  UNL     1       4.268  64.900  68.315  1.00  0.00    -0.225 N 
HETATM    7  N6  UNL     1       4.458  63.477  70.337  1.00  0.00    -0.192 N 
ATOM      8  H2  UNL     1       5.129  65.440  68.393  1.00  0.00     0.177 HD
ATOM      9  H6  UNL     1       5.303  63.801  70.809  1.00  0.00     0.184 HD
ATOM     10  H1  UNL     1       2.061  65.368  69.283  1.00  0.00     0.178 HD
BRANCH   6  11
HETATM   11  C5  UNL     1       3.721  64.748  67.005  1.00  0.00     0.166 C 
BRANCH  11  12
HETATM   12  C6  UNL     1       3.186  65.983  66.362  1.00  0.00     0.258 C 
BRANCH  12  13
HETATM   13  N3  UNL     1       3.830  66.454  65.199  1.00  0.00    -0.059 N 
HETATM   14  C7  UNL     1       4.300  65.365  64.373  1.00  0.00     0.273 C 
BRANCH  13  15
HETATM   15  C8  UNL     1       5.002  67.256  65.458  1.00  0.00     0.329 C 
HETATM   16  C9  UNL     1       5.342  68.142  64.344  1.00  0.00    -0.089 C 
HETATM   17  C10 UNL     1       5.643  68.887  63.433  1.00  0.00     0.013 C 
ENDBRANCH  13  15
BRANCH  13  18
HETATM   18  C11 UNL     1       2.845  67.163  64.371  1.00  0.00     0.243 C 
BRANCH  18  19
HETATM   19  C12 UNL     1       1.843  67.923  65.098  1.00  0.00     0.072 C 
BRANCH  19  20
HETATM   20  C13 UNL     1       0.448  68.000  64.603  1.00  0.00     0.065 C 
BRANCH  20  21
HETATM   21  N4  UNL     1      -0.590  68.297  65.504  1.00  0.00    -0.347 N 
ATOM     22  H4  UNL     1      -1.348  68.855  65.111  1.00  0.00     0.167 HD
BRANCH  21  23
HETATM   23  C14 UNL     1      -0.756  67.951  66.860  1.00  0.00     0.171 C 
HETATM   24  S1  UNL     1      -2.023  67.108  67.420  1.00  0.00    -0.041 SA
BRANCH  23  25
HETATM   25  N5  UNL     1       0.202  68.434  67.810  1.00  0.00    -0.367 N 
ATOM     26  H5  UNL     1       0.432  69.427  67.842  1.00  0.00     0.161 HD
BRANCH  25  27
HETATM   27  C15 UNL     1       0.835  67.523  68.714  1.00  0.00     0.121 C 
BRANCH  27  28
HETATM   28  C16 UNL     1       2.183  68.142  69.120  1.00  0.00     0.015 C 
HETATM   29  C17 UNL     1       2.177  69.570  68.618  1.00  0.00     0.006 C 
ENDBRANCH  27  28
ENDBRANCH  25  27
ENDBRANCH  23  25
ENDBRANCH  21  23
ENDBRANCH  20  21
ENDBRANCH  19  20
ENDBRANCH  18  19
ENDBRANCH  13  18
ENDBRANCH  12  13
ENDBRANCH  11  12
ENDBRANCH   6  11
BRANCH   7  30
HETATM   30  C18 UNL     1       4.037  62.136  70.515  1.00  0.00     0.049 A 
HETATM   31  C19 UNL     1       3.503  61.333  69.537  1.00  0.00     0.030 A 
HETATM   32  C20 UNL     1       3.053  60.035  69.766  1.00  0.00     0.003 A 
HETATM   33  C21 UNL     1       3.160  59.549  71.065  1.00  0.00     0.007 A 
HETATM   34  C22 UNL     1       3.685  60.304  72.081  1.00  0.00    -0.056 A 
HETATM   35  C28 UNL     1       4.113  61.573  71.798  1.00  0.00     0.037 A 
BRANCH  34  36
HETATM   36  C23 UNL     1       3.751  59.746  73.474  1.00  0.00     0.038 C 
BRANCH  36  37
HETATM   37  C24 UNL     1       2.696  58.687  73.592  1.00  0.00     0.005 C 
BRANCH  37  38
HETATM   38  C25 UNL     1       1.505  59.122  74.384  1.00  0.00    -0.000 C 
BRANCH  38  39
HETATM   39  C26 UNL     1       0.283  59.092  73.475  1.00  0.00    -0.005 C 
HETATM   40  C27 UNL     1       0.010  60.457  72.894  1.00  0.00     0.005 C 
ENDBRANCH  38  39
ENDBRANCH  37  38
ENDBRANCH  36  37
ENDBRANCH  34  36
ENDBRANCH   7  30
ENDBRANCH   3   4
TORSDOF 18
ENDMDL
MODEL 5
REMARK VINA RESULT: -8.319280920      2.692      5.414
REMARK  18 active torsions:
REMARK  status: ('A' for Active; 'I' for Inactive)
REMARK    1  A    between atoms: C3_3  and  N1_4 
REMARK       I    between atoms: C4_6  and  N2_7 
REMARK       I    between atoms: C4_6  and  N6_28 
REMARK    2  A    between atoms: N2_7  and  C5_9 
REMARK    3  A    between atoms: C5_9  and  C6_10 
REMARK    4  A    between atoms: C6_10  and  N3_11 
REMARK    5  A    between atoms: N3_11  and  C8_13 
REMARK    6  A    between atoms: N3_11  and  C11_16 
REMARK    7  A    between atoms: C11_16  and  C12_17 
REMARK    8  A    between atoms: C12_17  and  C13_18 
REMARK    9  A    between atoms: C13_18  and  N4_19 
REMARK   10  A    between atoms: N4_19  and  C14_21 
REMARK   11  A    between atoms: C14_21  and  N5_23 
REMARK   12  A    between atoms: N5_23  and  C15_25 
REMARK   13  A    between atoms: C15_25  and  C16_26 
REMARK   14  A    between atoms: N6_28  and  C18_30 
REMARK   15  A    between atoms: C22_34  and  C23_35 
REMARK   16  A    between atoms: C23_35  and  C24_36 
REMARK   17  A    between atoms: C24_36  and  C25_37 
REMARK   18  A    between atoms: C25_37  and  C26_38 
ROOT
HETATM    1  C1  UNL     1       4.838  59.717  70.774  1.00  0.00     0.014 C 
HETATM    2  C2  UNL     1       4.686  60.900  70.952  1.00  0.00    -0.097 C 
HETATM    3  C3  UNL     1       4.469  62.359  71.185  1.00  0.00     0.231 C 
ENDROOT
BRANCH   3   4
HETATM    4  N1  UNL     1       4.389  63.027  69.939  1.00  0.00    -0.216 N 
HETATM    5  C4  UNL     1       3.413  63.051  69.101  1.00  0.00     0.675 C 
HETATM    6  N2  UNL     1       3.538  63.781  67.892  1.00  0.00    -0.225 N 
HETATM    7  N6  UNL     1       2.240  62.328  69.427  1.00  0.00    -0.192 N 
ATOM      8  H2  UNL     1       3.449  63.251  67.025  1.00  0.00     0.177 HD
ATOM      9  H6  UNL     1       1.981  61.517  68.866  1.00  0.00     0.184 HD
ATOM     10  H1  UNL     1       5.215  63.562  69.671  1.00  0.00     0.178 HD
BRANCH   6  11
HETATM   11  C5  UNL     1       3.774  65.183  67.766  1.00  0.00     0.166 C 
BRANCH  11  12
HETATM   12  C6  UNL     1       4.617  65.613  66.613  1.00  0.00     0.258 C 
BRANCH  12  13
HETATM   13  N3  UNL     1       3.964  65.995  65.424  1.00  0.00    -0.059 N 
HETATM   14  C7  UNL     1       3.206  64.902  64.858  1.00  0.00     0.273 C 
BRANCH  13  15
HETATM   15  C8  UNL     1       4.857  66.413  64.368  1.00  0.00     0.329 C 
HETATM   16  C9  UNL     1       5.026  67.866  64.308  1.00  0.00    -0.089 C 
HETATM   17  C10 UNL     1       5.182  69.068  64.240  1.00  0.00     0.013 C 
ENDBRANCH  13  15
BRANCH  13  18
HETATM   18  C11 UNL     1       2.967  67.025  65.745  1.00  0.00     0.243 C 
BRANCH  18  19
HETATM   19  C12 UNL     1       1.622  66.773  65.255  1.00  0.00     0.072 C 
BRANCH  19  20
HETATM   20  C13 UNL     1       0.693  67.896  64.988  1.00  0.00     0.065 C 
BRANCH  20  21
HETATM   21  N4  UNL     1      -0.510  67.985  65.710  1.00  0.00    -0.347 N 
ATOM     22  H4  UNL     1      -1.319  68.266  65.156  1.00  0.00     0.167 HD
BRANCH  21  23
HETATM   23  C14 UNL     1      -0.783  67.751  67.072  1.00  0.00     0.171 C 
HETATM   24  S1  UNL     1      -2.136  67.031  67.604  1.00  0.00    -0.041 SA
BRANCH  23  25
HETATM   25  N5  UNL     1       0.144  68.242  68.049  1.00  0.00    -0.367 N 
ATOM     26  H5  UNL     1       0.297  69.246  68.146  1.00  0.00     0.161 HD
BRANCH  25  27
HETATM   27  C15 UNL     1       0.853  67.325  68.888  1.00  0.00     0.121 C 
BRANCH  27  28
HETATM   28  C16 UNL     1       2.198  67.978  69.248  1.00  0.00     0.015 C 
HETATM   29  C17 UNL     1       2.183  69.368  68.648  1.00  0.00     0.006 C 
ENDBRANCH  27  28
ENDBRANCH  25  27
ENDBRANCH  23  25
ENDBRANCH  21  23
ENDBRANCH  20  21
ENDBRANCH  19  20
ENDBRANCH  18  19
ENDBRANCH  13  18
ENDBRANCH  12  13
ENDBRANCH  11  12
ENDBRANCH   6  11
BRANCH   7  30
HETATM   30  C18 UNL     1       1.418  62.708  70.516  1.00  0.00     0.049 A 
HETATM   31  C19 UNL     1       1.023  63.992  70.806  1.00  0.00     0.030 A 
HETATM   32  C20 UNL     1       0.256  64.329  71.918  1.00  0.00     0.003 A 
HETATM   33  C21 UNL     1      -0.117  63.292  72.767  1.00  0.00     0.007 A 
HETATM   34  C22 UNL     1       0.246  61.993  72.528  1.00  0.00    -0.056 A 
HETATM   35  C28 UNL     1       1.000  61.719  71.420  1.00  0.00     0.037 A 
BRANCH  34  36
HETATM   36  C23 UNL     1      -0.155  60.912  73.492  1.00  0.00     0.038 C 
BRANCH  36  37
HETATM   37  C24 UNL     1       0.392  59.615  72.975  1.00  0.00     0.005 C 
BRANCH  37  38
HETATM   38  C25 UNL     1       1.189  58.862  73.991  1.00  0.00    -0.000 C 
BRANCH  38  39
HETATM   39  C26 UNL     1       2.515  58.457  73.359  1.00  0.00    -0.005 C 
HETATM   40  C27 UNL     1       2.307  57.412  72.293  1.00  0.00     0.005 C 
ENDBRANCH  38  39
ENDBRANCH  37  38
ENDBRANCH  36  37
ENDBRANCH  34  36
ENDBRANCH   7  30
ENDBRANCH   3   4
TORSDOF 18
ENDMDL
