MODEL 1
REMARK VINA RESULT: -3.400842019      0.000      0.000
REMARK  2 active torsions:
REMARK  status: ('A' for Active; 'I' for Inactive)
REMARK    1  A    between atoms: N1_2  and  C4_5 
REMARK    2  A    between atoms: C4_5  and  C5_6 
ROOT
HETATM    1  C5  UNL     1      48.412  34.036  39.025  1.00  0.00     0.213 C 
HETATM    2  C6  UNL     1      49.836  34.459  38.732  1.00  0.00     0.062 C 
HETATM    3  C7  UNL     1      49.993  34.743  40.217  1.00  0.00     0.235 C 
HETATM    4  N2  UNL     1      48.837  33.853  40.416  1.00  0.00    -0.069 N 
ATOM      5  H21 UNL     1      48.988  32.910  40.774  1.00  0.00     0.277 HD
ATOM      6  H22 UNL     1      48.180  34.048  41.171  1.00  0.00     0.277 HD
ENDROOT
BRANCH   1   7
HETATM    7  C4  UNL     1      47.966  32.744  38.450  1.00  0.00     0.269 C 
BRANCH   7   8
HETATM    8  N1  UNL     1      46.718  32.744  37.762  1.00  0.00    -0.077 N 
HETATM    9  C1  UNL     1      46.556  34.062  37.147  1.00  0.00     0.271 C 
HETATM   10  C2  UNL     1      45.566  32.468  38.548  1.00  0.00     0.271 C 
HETATM   11  C3  UNL     1      46.709  31.797  36.634  1.00  0.00     0.271 C 
ENDBRANCH   7   8
ENDBRANCH   1   7
TORSDOF 2
ENDMDL
MODEL 2
REMARK VINA RESULT: -3.387622929      0.090      1.358
REMARK  2 active torsions:
REMARK  status: ('A' for Active; 'I' for Inactive)
REMARK    1  A    between atoms: N1_2  and  C4_5 
REMARK    2  A    between atoms: C4_5  and  C5_6 
ROOT
HETATM    1  C5  UNL     1      48.378  34.027  39.038  1.00  0.00     0.213 C 
HETATM    2  C6  UNL     1      49.795  34.444  38.708  1.00  0.00     0.062 C 
HETATM    3  C7  UNL     1      49.995  34.718  40.189  1.00  0.00     0.235 C 
HETATM    4  N2  UNL     1      48.841  33.833  40.416  1.00  0.00    -0.069 N 
ATOM      5  H21 UNL     1      48.996  32.886  40.763  1.00  0.00     0.277 HD
ATOM      6  H22 UNL     1      48.206  34.026  41.190  1.00  0.00     0.277 HD
ENDROOT
BRANCH   1   7
HETATM    7  C4  UNL     1      47.908  32.742  38.468  1.00  0.00     0.269 C 
BRANCH   7   8
HETATM    8  N1  UNL     1      46.698  32.776  37.716  1.00  0.00    -0.077 N 
HETATM    9  C1  UNL     1      46.767  31.699  36.726  1.00  0.00     0.271 C 
HETATM   10  C2  UNL     1      46.410  33.992  37.041  1.00  0.00     0.271 C 
HETATM   11  C3  UNL     1      45.525  32.452  38.545  1.00  0.00     0.271 C 
ENDBRANCH   7   8
ENDBRANCH   1   7
TORSDOF 2
ENDMDL
MODEL 3
REMARK VINA RESULT: -3.385095710      0.069      1.352
REMARK  2 active torsions:
REMARK  status: ('A' for Active; 'I' for Inactive)
REMARK    1  A    between atoms: N1_2  and  C4_5 
REMARK    2  A    between atoms: C4_5  and  C5_6 
ROOT
HETATM    1  C5  UNL     1      48.393  34.023  39.021  1.00  0.00     0.213 C 
HETATM    2  C6  UNL     1      49.823  34.412  38.711  1.00  0.00     0.062 C 
HETATM    3  C7  UNL     1      49.999  34.709  40.192  1.00  0.00     0.235 C 
HETATM    4  N2  UNL     1      48.826  33.846  40.411  1.00  0.00    -0.069 N 
ATOM      5  H21 UNL     1      48.959  32.903  40.777  1.00  0.00     0.277 HD
ATOM      6  H22 UNL     1      48.179  34.063  41.169  1.00  0.00     0.277 HD
ENDROOT
BRANCH   1   7
HETATM    7  C4  UNL     1      47.914  32.735  38.464  1.00  0.00     0.269 C 
BRANCH   7   8
HETATM    8  N1  UNL     1      46.739  32.780  37.659  1.00  0.00    -0.077 N 
HETATM    9  C1  UNL     1      45.596  32.525  38.537  1.00  0.00     0.271 C 
HETATM   10  C2  UNL     1      46.685  31.867  36.572  1.00  0.00     0.271 C 
HETATM   11  C3  UNL     1      46.499  34.125  37.107  1.00  0.00     0.271 C 
ENDBRANCH   7   8
ENDBRANCH   1   7
TORSDOF 2
ENDMDL
MODEL 4
REMARK VINA RESULT: -2.963406920      1.272      1.678
REMARK  2 active torsions:
REMARK  status: ('A' for Active; 'I' for Inactive)
REMARK    1  A    between atoms: N1_2  and  C4_5 
REMARK    2  A    between atoms: C4_5  and  C5_6 
ROOT
HETATM    1  C5  UNL     1      48.750  34.043  38.491  1.00  0.00     0.213 C 
HETATM    2  C6  UNL     1      49.116  34.398  39.916  1.00  0.00     0.062 C 
HETATM    3  C7  UNL     1      50.037  35.466  39.350  1.00  0.00     0.235 C 
HETATM    4  N2  UNL     1      49.234  35.376  38.119  1.00  0.00    -0.069 N 
ATOM      5  H21 UNL     1      48.561  36.112  37.906  1.00  0.00     0.277 HD
ATOM      6  H22 UNL     1      49.687  35.511  37.216  1.00  0.00     0.277 HD
ENDROOT
BRANCH   1   7
HETATM    7  C4  UNL     1      47.306  33.916  38.183  1.00  0.00     0.269 C 
BRANCH   7   8
HETATM    8  N1  UNL     1      46.836  32.620  37.824  1.00  0.00    -0.077 N 
HETATM    9  C1  UNL     1      45.585  32.391  38.549  1.00  0.00     0.271 C 
HETATM   10  C2  UNL     1      47.715  31.536  38.090  1.00  0.00     0.271 C 
HETATM   11  C3  UNL     1      46.468  32.540  36.400  1.00  0.00     0.271 C 
ENDBRANCH   7   8
ENDBRANCH   1   7
TORSDOF 2
ENDMDL
MODEL 5
REMARK VINA RESULT: -2.916304190      2.385      3.692
REMARK  2 active torsions:
REMARK  status: ('A' for Active; 'I' for Inactive)
REMARK    1  A    between atoms: N1_2  and  C4_5 
REMARK    2  A    between atoms: C4_5  and  C5_6 
ROOT
HETATM    1  C5  UNL     1      49.870  36.627  39.444  1.00  0.00     0.213 C 
HETATM    2  C6  UNL     1      50.313  37.847  38.665  1.00  0.00     0.062 C 
HETATM    3  C7  UNL     1      50.804  38.433  39.978  1.00  0.00     0.235 C 
HETATM    4  N2  UNL     1      50.809  37.052  40.488  1.00  0.00    -0.069 N 
ATOM      5  H21 UNL     1      51.696  36.560  40.593  1.00  0.00     0.277 HD
ATOM      6  H22 UNL     1      50.582  36.879  41.467  1.00  0.00     0.277 HD
ENDROOT
BRANCH   1   7
HETATM    7  C4  UNL     1      50.268  35.306  38.902  1.00  0.00     0.269 C 
BRANCH   7   8
HETATM    8  N1  UNL     1      49.404  34.209  39.185  1.00  0.00    -0.077 N 
HETATM    9  C1  UNL     1      49.154  34.209  40.628  1.00  0.00     0.271 C 
HETATM   10  C2  UNL     1      49.877  32.923  38.810  1.00  0.00     0.271 C 
HETATM   11  C3  UNL     1      48.077  34.378  38.571  1.00  0.00     0.271 C 
ENDBRANCH   7   8
ENDBRANCH   1   7
TORSDOF 2
ENDMDL
