MODEL 1
REMARK VINA RESULT: -3.496551452      0.000      0.000
REMARK  2 active torsions:
REMARK  status: ('A' for Active; 'I' for Inactive)
REMARK    1  A    between atoms: O1_1  and  C1_3 
REMARK    2  A    between atoms: C1_3  and  N1_4 
ROOT
HETATM    1  N1  UNL     1      49.854  36.038  39.108  1.00  0.00    -0.034 N 
HETATM    2  C2  UNL     1      49.273  35.324  40.235  1.00  0.00     0.245 C 
HETATM    3  C3  UNL     1      48.794  34.074  39.504  1.00  0.00     0.016 C 
HETATM    4  C4  UNL     1      50.085  33.708  38.797  1.00  0.00     0.042 C 
HETATM    5  C5  UNL     1      50.388  35.094  38.197  1.00  0.00     0.225 A 
HETATM    6  C6  UNL     1      49.113  35.700  37.937  1.00  0.00     0.225 A 
HETATM    7  C7  UNL     1      48.020  34.710  38.379  1.00  0.00     0.042 C 
ENDROOT
BRANCH   1   8
HETATM    8  C1  UNL     1      50.337  37.363  39.251  1.00  0.00     0.402 C 
BRANCH   8   9
HETATM    9  O1  UNL     1      50.952  37.600  40.480  1.00  0.00    -0.374 OA
ATOM     10  H1  UNL     1      51.279  38.487  40.575  1.00  0.00     0.211 HD
ENDBRANCH   8   9
ENDBRANCH   1   8
TORSDOF 2
ENDMDL
MODEL 2
REMARK VINA RESULT: -3.307095287      5.009      6.186
REMARK  2 active torsions:
REMARK  status: ('A' for Active; 'I' for Inactive)
REMARK    1  A    between atoms: O1_1  and  C1_3 
REMARK    2  A    between atoms: C1_3  and  N1_4 
ROOT
HETATM    1  N1  UNL     1      45.838  31.888  37.718  1.00  0.00    -0.034 N 
HETATM    2  C2  UNL     1      45.324  30.918  36.763  1.00  0.00     0.245 C 
HETATM    3  C3  UNL     1      43.847  31.294  36.811  1.00  0.00     0.016 C 
HETATM    4  C4  UNL     1      43.979  32.786  36.570  1.00  0.00     0.042 C 
HETATM    5  C5  UNL     1      45.059  33.068  37.632  1.00  0.00     0.225 A 
HETATM    6  C6  UNL     1      44.825  32.131  38.693  1.00  0.00     0.225 A 
HETATM    7  C7  UNL     1      43.617  31.262  38.299  1.00  0.00     0.042 C 
ENDROOT
BRANCH   1   8
HETATM    8  C1  UNL     1      47.192  31.860  38.133  1.00  0.00     0.402 C 
BRANCH   8   9
HETATM    9  O1  UNL     1      47.376  32.265  39.455  1.00  0.00    -0.374 OA
ATOM     10  H1  UNL     1      47.009  33.120  39.644  1.00  0.00     0.211 HD
ENDBRANCH   8   9
ENDBRANCH   1   8
TORSDOF 2
ENDMDL
MODEL 3
REMARK VINA RESULT: -3.168493418      5.192      6.190
REMARK  2 active torsions:
REMARK  status: ('A' for Active; 'I' for Inactive)
REMARK    1  A    between atoms: O1_1  and  C1_3 
REMARK    2  A    between atoms: C1_3  and  N1_4 
ROOT
HETATM    1  N1  UNL     1      45.919  31.497  37.885  1.00  0.00    -0.034 N 
HETATM    2  C2  UNL     1      44.832  32.090  38.650  1.00  0.00     0.245 C 
HETATM    3  C3  UNL     1      43.664  31.691  37.754  1.00  0.00     0.016 C 
HETATM    4  C4  UNL     1      43.956  30.207  37.638  1.00  0.00     0.042 C 
HETATM    5  C5  UNL     1      45.443  30.321  37.254  1.00  0.00     0.225 A 
HETATM    6  C6  UNL     1      45.566  31.538  36.503  1.00  0.00     0.225 A 
HETATM    7  C7  UNL     1      44.172  32.188  36.425  1.00  0.00     0.042 C 
ENDROOT
BRANCH   1   8
HETATM    8  C1  UNL     1      47.272  31.709  38.251  1.00  0.00     0.402 C 
BRANCH   8   9
HETATM    9  O1  UNL     1      47.421  32.368  39.470  1.00  0.00    -0.374 OA
ATOM     10  H1  UNL     1      47.484  33.312  39.385  1.00  0.00     0.211 HD
ENDBRANCH   8   9
ENDBRANCH   1   8
TORSDOF 2
ENDMDL
MODEL 4
REMARK VINA RESULT: -3.162188468      3.812      5.010
REMARK  2 active torsions:
REMARK  status: ('A' for Active; 'I' for Inactive)
REMARK    1  A    between atoms: O1_1  and  C1_3 
REMARK    2  A    between atoms: C1_3  and  N1_4 
ROOT
HETATM    1  N1  UNL     1      46.753  33.460  37.622  1.00  0.00    -0.034 N 
HETATM    2  C2  UNL     1      46.704  34.639  36.771  1.00  0.00     0.245 C 
HETATM    3  C3  UNL     1      45.570  34.218  35.843  1.00  0.00     0.016 C 
HETATM    4  C4  UNL     1      44.540  33.842  36.890  1.00  0.00     0.042 C 
HETATM    5  C5  UNL     1      45.443  32.935  37.747  1.00  0.00     0.225 A 
HETATM    6  C6  UNL     1      46.373  32.330  36.837  1.00  0.00     0.225 A 
HETATM    7  C7  UNL     1      46.065  32.858  35.425  1.00  0.00     0.042 C 
ENDROOT
BRANCH   1   8
HETATM    8  C1  UNL     1      47.767  33.303  38.599  1.00  0.00     0.402 C 
BRANCH   8   9
HETATM    9  O1  UNL     1      47.516  32.267  39.499  1.00  0.00    -0.374 OA
ATOM     10  H1  UNL     1      48.302  31.824  39.794  1.00  0.00     0.211 HD
ENDBRANCH   8   9
ENDBRANCH   1   8
TORSDOF 2
ENDMDL
MODEL 5
REMARK VINA RESULT: -3.136657141      3.453      4.588
REMARK  2 active torsions:
REMARK  status: ('A' for Active; 'I' for Inactive)
REMARK    1  A    between atoms: O1_1  and  C1_3 
REMARK    2  A    between atoms: C1_3  and  N1_4 
ROOT
HETATM    1  N1  UNL     1      47.180  33.271  38.089  1.00  0.00    -0.034 N 
HETATM    2  C2  UNL     1      46.712  34.227  37.096  1.00  0.00     0.245 C 
HETATM    3  C3  UNL     1      45.612  33.387  36.456  1.00  0.00     0.016 C 
HETATM    4  C4  UNL     1      44.866  32.982  37.713  1.00  0.00     0.042 C 
HETATM    5  C5  UNL     1      46.081  32.488  38.520  1.00  0.00     0.225 A 
HETATM    6  C6  UNL     1      47.005  31.957  37.559  1.00  0.00     0.225 A 
HETATM    7  C7  UNL     1      46.383  32.126  36.161  1.00  0.00     0.042 C 
ENDROOT
BRANCH   1   8
HETATM    8  C1  UNL     1      48.322  33.540  38.883  1.00  0.00     0.402 C 
BRANCH   8   9
HETATM    9  O1  UNL     1      49.392  32.683  38.625  1.00  0.00    -0.374 OA
ATOM     10  H1  UNL     1      50.023  32.642  39.333  1.00  0.00     0.211 HD
ENDBRANCH   8   9
ENDBRANCH   1   8
TORSDOF 2
ENDMDL
