MODEL 1
REMARK VINA RESULT: -7.475747740      0.000      0.000
REMARK  18 active torsions:
REMARK  status: ('A' for Active; 'I' for Inactive)
REMARK    1  A    between atoms: N5_14  and  C6_15 
REMARK    2  A    between atoms: C6_15  and  C7_16 
REMARK    3  A    between atoms: C7_16  and  C8_17 
REMARK    4  A    between atoms: C7_16  and  N11_33 
REMARK    5  A    between atoms: C7_16  and  C17_42 
REMARK    6  A    between atoms: C8_17  and  C9_18 
REMARK    7  A    between atoms: C9_18  and  N6_19 
REMARK    8  A    between atoms: C10_23  and  C11_24 
REMARK    9  A    between atoms: N11_33  and  C16_35 
REMARK   10  A    between atoms: C16_35  and  N12_36 
REMARK   11  A    between atoms: C16_35  and  O1_40 
REMARK   12  A    between atoms: C17_42  and  O2_43 
REMARK   13  A    between atoms: C17_42  and  C18_45 
REMARK   14  A    between atoms: C18_45  and  O3_46 
REMARK   15  A    between atoms: C18_45  and  C19_48 
REMARK   16  A    between atoms: C20_50  and  C21_51 
REMARK   17  A    between atoms: C21_51  and  C22_52 
REMARK   18  A    between atoms: C22_52  and  O4_53 
ROOT
HETATM    1  C7  UNL     1      12.101  19.801   7.517  1.00  0.00     0.092 C 
ENDROOT
BRANCH   1   2
HETATM    2  C6  UNL     1      12.593  21.220   7.894  1.00  0.00     0.106 C 
BRANCH   2   3
HETATM    3  N5  UNL     1      11.886  22.342   7.441  1.00  0.00    -0.303 N 
HETATM    4  C3  UNL     1      11.141  23.215   8.201  1.00  0.00     0.160 A 
HETATM    5  N3  UNL     1      10.772  23.269   9.486  1.00  0.00    -0.174 N 
HETATM    6  C4  UNL     1      10.659  24.226   7.401  1.00  0.00     0.148 A 
HETATM    7  C2  UNL     1       9.997  24.200  10.049  1.00  0.00     0.682 A 
ATOM      8  H3  UNL     1      11.118  22.528  10.096  1.00  0.00     0.186 HD
HETATM    9  N1  UNL     1       9.538  25.174   9.266  1.00  0.00    -0.150 N 
HETATM   10  N2  UNL     1       9.703  24.162  11.321  1.00  0.00    -0.234 N 
HETATM   11  C1  UNL     1       8.694  26.219   9.799  1.00  0.00     0.179 C 
HETATM   12  C23 UNL     1       9.855  25.203   7.956  1.00  0.00     0.292 A 
HETATM   13  O5  UNL     1       9.418  26.134   7.206  1.00  0.00    -0.265 OA
ATOM     14  H22 UNL     1       9.111  24.872  11.751  1.00  0.00     0.174 HD
ATOM     15  H21 UNL     1      10.054  23.415  11.920  1.00  0.00     0.174 HD
HETATM   16  N4  UNL     1      11.088  23.996   6.164  1.00  0.00    -0.344 N 
HETATM   17  C5  UNL     1      11.807  22.881   6.211  1.00  0.00     0.190 A 
ATOM     18  H4  UNL     1      10.900  24.565   5.339  1.00  0.00     0.167 HD
ENDBRANCH   2   3
ENDBRANCH   1   2
BRANCH   1  19
HETATM   19  C8  UNL     1      13.355  19.210   6.966  1.00  0.00     0.062 C 
BRANCH  19  20
HETATM   20  C9  UNL     1      13.424  18.450   5.741  1.00  0.00     0.170 C 
BRANCH  20  21
HETATM   21  N6  UNL     1      13.494  17.015   6.156  1.00  0.00    -0.216 N 
HETATM   22  N7  UNL     1      14.356  16.111   5.728  1.00  0.00    -0.003 NA
HETATM   23  N8  UNL     1      14.126  14.943   6.318  1.00  0.00    -0.266 N 
HETATM   24  C10 UNL     1      13.077  15.111   7.153  1.00  0.00     0.144 A 
ATOM     25  H8  UNL     1      14.645  14.078   6.168  1.00  0.00     0.186 HD
HETATM   26  N10 UNL     1      12.726  16.388   7.021  1.00  0.00    -0.269 N 
ATOM     27  H10 UNL     1      11.957  16.826   7.528  1.00  0.00     0.190 HD
BRANCH  24  28
HETATM   28  C11 UNL     1      12.437  14.146   8.028  1.00  0.00     0.013 A 
HETATM   29  C12 UNL     1      12.471  14.287   9.397  1.00  0.00     0.032 A 
HETATM   30  C13 UNL     1      11.868  13.370  10.235  1.00  0.00     0.088 A 
HETATM   31  N9  UNL     1      11.221  12.300   9.741  1.00  0.00    -0.375 N 
HETATM   32  C14 UNL     1      11.167  12.130   8.393  1.00  0.00     0.088 A 
ATOM     33  H9  UNL     1      10.778  11.628  10.367  1.00  0.00     0.164 HD
HETATM   34  C15 UNL     1      11.764  13.036   7.542  1.00  0.00     0.032 A 
ENDBRANCH  24  28
ENDBRANCH  20  21
ENDBRANCH  19  20
ENDBRANCH   1  19
BRANCH   1  35
HETATM   35  N11 UNL     1      11.007  19.944   6.624  1.00  0.00    -0.359 N 
ATOM     36  H11 UNL     1      10.871  20.860   6.197  1.00  0.00     0.158 HD
BRANCH  35  37
HETATM   37  C16 UNL     1      10.115  18.952   6.285  1.00  0.00     0.420 C 
BRANCH  37  38
HETATM   38  N12 UNL     1       9.936  19.050   4.802  1.00  0.00    -0.035 N 
ATOM     39 3H12 UNL     1       9.904  20.010   4.458  1.00  0.00     0.279 HD
ATOM     40 2H12 UNL     1      10.758  18.757   4.272  1.00  0.00     0.279 HD
ATOM     41 1H12 UNL     1       9.098  18.511   4.585  1.00  0.00     0.279 HD
ENDBRANCH  37  38
BRANCH  37  42
HETATM   42  O1  UNL     1       8.766  19.158   6.705  1.00  0.00    -0.355 OA
ATOM     43  H1  UNL     1       8.270  18.374   6.903  1.00  0.00     0.213 HD
ENDBRANCH  37  42
ENDBRANCH  35  37
ENDBRANCH   1  35
BRANCH   1  44
HETATM   44  C17 UNL     1      11.528  19.060   8.672  1.00  0.00     0.185 C 
BRANCH  44  45
HETATM   45  O2  UNL     1      12.650  18.476   9.336  1.00  0.00    -0.390 OA
ATOM     46  H2  UNL     1      12.603  17.548   9.136  1.00  0.00     0.210 HD
ENDBRANCH  44  45
BRANCH  44  47
HETATM   47  C18 UNL     1      10.795  19.787   9.753  1.00  0.00     0.196 C 
BRANCH  47  48
HETATM   48  O3  UNL     1       9.542  20.275   9.337  1.00  0.00    -0.387 OA
ATOM     49  H3  UNL     1       9.365  21.155   9.647  1.00  0.00     0.210 HD
ENDBRANCH  47  48
BRANCH  47  50
HETATM   50  C19 UNL     1      10.481  18.928  10.932  1.00  0.00     0.055 C 
HETATM   51  N13 UNL     1      10.377  19.730  12.184  1.00  0.00    -0.104 NA
HETATM   52  C20 UNL     1       9.605  17.782  10.933  1.00  0.00     0.023 C 
BRANCH  52  53
HETATM   53  C21 UNL     1       9.853  16.549  10.166  1.00  0.00     0.000 C 
BRANCH  53  54
HETATM   54  C22 UNL     1       9.463  16.415   8.745  1.00  0.00     0.191 C 
BRANCH  54  55
HETATM   55  O4  UNL     1       8.131  16.808   8.568  1.00  0.00    -0.397 OA
ATOM     56  H4  UNL     1       7.547  16.074   8.720  1.00  0.00     0.209 HD
ENDBRANCH  54  55
ENDBRANCH  53  54
ENDBRANCH  52  53
ENDBRANCH  47  50
ENDBRANCH  44  47
ENDBRANCH   1  44
TORSDOF 18
ENDMDL
MODEL 2
REMARK VINA RESULT: -7.419941641      2.493      6.341
REMARK  18 active torsions:
REMARK  status: ('A' for Active; 'I' for Inactive)
REMARK    1  A    between atoms: N5_14  and  C6_15 
REMARK    2  A    between atoms: C6_15  and  C7_16 
REMARK    3  A    between atoms: C7_16  and  C8_17 
REMARK    4  A    between atoms: C7_16  and  N11_33 
REMARK    5  A    between atoms: C7_16  and  C17_42 
REMARK    6  A    between atoms: C8_17  and  C9_18 
REMARK    7  A    between atoms: C9_18  and  N6_19 
REMARK    8  A    between atoms: C10_23  and  C11_24 
REMARK    9  A    between atoms: N11_33  and  C16_35 
REMARK   10  A    between atoms: C16_35  and  N12_36 
REMARK   11  A    between atoms: C16_35  and  O1_40 
REMARK   12  A    between atoms: C17_42  and  O2_43 
REMARK   13  A    between atoms: C17_42  and  C18_45 
REMARK   14  A    between atoms: C18_45  and  O3_46 
REMARK   15  A    between atoms: C18_45  and  C19_48 
REMARK   16  A    between atoms: C20_50  and  C21_51 
REMARK   17  A    between atoms: C21_51  and  C22_52 
REMARK   18  A    between atoms: C22_52  and  O4_53 
ROOT
HETATM    1  C7  UNL     1      11.375  16.926   9.213  1.00  0.00     0.092 C 
ENDROOT
BRANCH   1   2
HETATM    2  C6  UNL     1      12.539  17.795   9.748  1.00  0.00     0.106 C 
BRANCH   2   3
HETATM    3  N5  UNL     1      13.277  18.588   8.860  1.00  0.00    -0.303 N 
HETATM    4  C3  UNL     1      13.118  19.935   8.622  1.00  0.00     0.160 A 
HETATM    5  N3  UNL     1      12.249  20.868   9.027  1.00  0.00    -0.174 N 
HETATM    6  C4  UNL     1      14.078  20.362   7.734  1.00  0.00     0.148 A 
HETATM    7  C2  UNL     1      12.232  22.150   8.653  1.00  0.00     0.682 A 
ATOM      8  H3  UNL     1      11.528  20.571   9.685  1.00  0.00     0.186 HD
HETATM    9  N1  UNL     1      13.167  22.553   7.794  1.00  0.00    -0.150 N 
HETATM   10  N2  UNL     1      11.338  22.982   9.116  1.00  0.00    -0.234 N 
HETATM   11  C1  UNL     1      13.217  23.924   7.341  1.00  0.00     0.179 C 
HETATM   12  C23 UNL     1      14.086  21.684   7.330  1.00  0.00     0.292 A 
HETATM   13  O5  UNL     1      14.980  22.066   6.509  1.00  0.00    -0.265 OA
ATOM     14  H22 UNL     1      11.325  23.962   8.830  1.00  0.00     0.174 HD
ATOM     15  H21 UNL     1      10.622  22.674   9.773  1.00  0.00     0.174 HD
HETATM   16  N4  UNL     1      14.824  19.309   7.414  1.00  0.00    -0.344 N 
HETATM   17  C5  UNL     1      14.333  18.276   8.087  1.00  0.00     0.190 A 
ATOM     18  H4  UNL     1      15.619  19.298   6.775  1.00  0.00     0.167 HD
ENDBRANCH   2   3
ENDBRANCH   1   2
BRANCH   1  19
HETATM   19  C8  UNL     1      11.653  16.962   7.747  1.00  0.00     0.062 C 
BRANCH  19  20
HETATM   20  C9  UNL     1      10.636  16.878   6.727  1.00  0.00     0.170 C 
BRANCH  20  21
HETATM   21  N6  UNL     1      10.144  18.276   6.526  1.00  0.00    -0.216 N 
HETATM   22  N7  UNL     1       8.971  18.760   6.893  1.00  0.00    -0.003 NA
HETATM   23  N8  UNL     1       8.881  20.043   6.560  1.00  0.00    -0.266 N 
HETATM   24  C10 UNL     1      10.041  20.388   5.960  1.00  0.00     0.144 A 
ATOM     25  H8  UNL     1       8.083  20.655   6.728  1.00  0.00     0.186 HD
HETATM   26  N10 UNL     1      10.779  19.280   5.962  1.00  0.00    -0.269 N 
ATOM     27  H10 UNL     1      11.720  19.218   5.574  1.00  0.00     0.190 HD
BRANCH  24  28
HETATM   28  C11 UNL     1      10.447  21.672   5.416  1.00  0.00     0.013 A 
HETATM   29  C12 UNL     1      11.524  21.780   4.565  1.00  0.00     0.032 A 
HETATM   30  C13 UNL     1      11.918  22.998   4.048  1.00  0.00     0.088 A 
HETATM   31  N9  UNL     1      11.260  24.129   4.358  1.00  0.00    -0.375 N 
HETATM   32  C14 UNL     1      10.191  24.058   5.196  1.00  0.00     0.088 A 
ATOM     33  H9  UNL     1      11.558  25.024   3.972  1.00  0.00     0.164 HD
HETATM   34  C15 UNL     1       9.784  22.849   5.721  1.00  0.00     0.032 A 
ENDBRANCH  24  28
ENDBRANCH  20  21
ENDBRANCH  19  20
ENDBRANCH   1  19
BRANCH   1  35
HETATM   35  N11 UNL     1      10.159  17.508   9.655  1.00  0.00    -0.359 N 
ATOM     36  H11 UNL     1       9.295  17.021   9.418  1.00  0.00     0.158 HD
BRANCH  35  37
HETATM   37  C16 UNL     1      10.045  18.676  10.375  1.00  0.00     0.420 C 
BRANCH  37  38
HETATM   38  N12 UNL     1       8.839  18.506  11.245  1.00  0.00    -0.035 N 
ATOM     39 3H12 UNL     1       7.957  18.596  10.741  1.00  0.00     0.279 HD
ATOM     40 2H12 UNL     1       8.700  17.548  11.567  1.00  0.00     0.279 HD
ATOM     41 1H12 UNL     1       8.945  19.178  12.005  1.00  0.00     0.279 HD
ENDBRANCH  37  38
BRANCH  37  42
HETATM   42  O1  UNL     1       9.647  19.829   9.633  1.00  0.00    -0.355 OA
ATOM     43  H1  UNL     1      10.137  20.623   9.807  1.00  0.00     0.213 HD
ENDBRANCH  37  42
ENDBRANCH  35  37
ENDBRANCH   1  35
BRANCH   1  44
HETATM   44  C17 UNL     1      11.354  15.560   9.799  1.00  0.00     0.185 C 
BRANCH  44  45
HETATM   45  O2  UNL     1      10.311  14.870   9.108  1.00  0.00    -0.390 OA
ATOM     46  H2  UNL     1       9.733  14.546   9.788  1.00  0.00     0.210 HD
ENDBRANCH  44  45
BRANCH  44  47
HETATM   47  C18 UNL     1      12.541  14.660   9.671  1.00  0.00     0.196 C 
BRANCH  47  48
HETATM   48  O3  UNL     1      13.000  14.174  10.909  1.00  0.00    -0.387 OA
ATOM     49  H3  UNL     1      13.614  13.454  10.821  1.00  0.00     0.210 HD
ENDBRANCH  47  48
BRANCH  47  50
HETATM   50  C19 UNL     1      12.264  13.429   8.874  1.00  0.00     0.055 C 
HETATM   51  N13 UNL     1      11.197  12.597   9.498  1.00  0.00    -0.104 NA
HETATM   52  C20 UNL     1      12.269  13.336   7.434  1.00  0.00     0.023 C 
BRANCH  52  53
HETATM   53  C21 UNL     1      13.461  13.551   6.594  1.00  0.00     0.000 C 
BRANCH  53  54
HETATM   54  C22 UNL     1      14.126  14.870   6.497  1.00  0.00     0.191 C 
BRANCH  54  55
HETATM   55  O4  UNL     1      14.461  15.148   5.166  1.00  0.00    -0.397 OA
ATOM     56  H4  UNL     1      13.942  15.875   4.841  1.00  0.00     0.209 HD
ENDBRANCH  54  55
ENDBRANCH  53  54
ENDBRANCH  52  53
ENDBRANCH  47  50
ENDBRANCH  44  47
ENDBRANCH   1  44
TORSDOF 18
ENDMDL
MODEL 3
REMARK VINA RESULT: -7.354491218      2.202      8.795
REMARK  18 active torsions:
REMARK  status: ('A' for Active; 'I' for Inactive)
REMARK    1  A    between atoms: N5_14  and  C6_15 
REMARK    2  A    between atoms: C6_15  and  C7_16 
REMARK    3  A    between atoms: C7_16  and  C8_17 
REMARK    4  A    between atoms: C7_16  and  N11_33 
REMARK    5  A    between atoms: C7_16  and  C17_42 
REMARK    6  A    between atoms: C8_17  and  C9_18 
REMARK    7  A    between atoms: C9_18  and  N6_19 
REMARK    8  A    between atoms: C10_23  and  C11_24 
REMARK    9  A    between atoms: N11_33  and  C16_35 
REMARK   10  A    between atoms: C16_35  and  N12_36 
REMARK   11  A    between atoms: C16_35  and  O1_40 
REMARK   12  A    between atoms: C17_42  and  O2_43 
REMARK   13  A    between atoms: C17_42  and  C18_45 
REMARK   14  A    between atoms: C18_45  and  O3_46 
REMARK   15  A    between atoms: C18_45  and  C19_48 
REMARK   16  A    between atoms: C20_50  and  C21_51 
REMARK   17  A    between atoms: C21_51  and  C22_52 
REMARK   18  A    between atoms: C22_52  and  O4_53 
ROOT
HETATM    1  C7  UNL     1      11.310  19.001   9.621  1.00  0.00     0.092 C 
ENDROOT
BRANCH   1   2
HETATM    2  C6  UNL     1      11.817  17.696  10.283  1.00  0.00     0.106 C 
BRANCH   2   3
HETATM    3  N5  UNL     1      11.135  16.493  10.058  1.00  0.00    -0.303 N 
HETATM    4  C3  UNL     1      11.568  15.422   9.310  1.00  0.00     0.160 A 
HETATM    5  N3  UNL     1      12.630  15.182   8.532  1.00  0.00    -0.174 N 
HETATM    6  C4  UNL     1      10.646  14.404   9.386  1.00  0.00     0.148 A 
HETATM    7  C2  UNL     1      12.870  14.065   7.840  1.00  0.00     0.682 A 
ATOM      8  H3  UNL     1      13.326  15.925   8.461  1.00  0.00     0.186 HD
HETATM    9  N1  UNL     1      11.970  13.086   7.923  1.00  0.00    -0.150 N 
HETATM   10  N2  UNL     1      13.947  13.932   7.113  1.00  0.00    -0.234 N 
HETATM   11  C1  UNL     1      12.156  11.846   7.205  1.00  0.00     0.179 C 
HETATM   12  C23 UNL     1      10.866  13.236   8.681  1.00  0.00     0.292 A 
HETATM   13  O5  UNL     1      10.006  12.302   8.762  1.00  0.00    -0.265 OA
ATOM     14  H22 UNL     1      14.129  13.079   6.585  1.00  0.00     0.174 HD
ATOM     15  H21 UNL     1      14.635  14.682   7.050  1.00  0.00     0.174 HD
HETATM   16  N4  UNL     1       9.651  14.823  10.161  1.00  0.00    -0.344 N 
HETATM   17  C5  UNL     1       9.959  16.056  10.544  1.00  0.00     0.190 A 
ATOM     18  H4  UNL     1       8.813  14.299  10.413  1.00  0.00     0.167 HD
ENDBRANCH   2   3
ENDBRANCH   1   2
BRANCH   1  19
HETATM   19  C8  UNL     1      12.586  19.764   9.500  1.00  0.00     0.062 C 
BRANCH  19  20
HETATM   20  C9  UNL     1      12.868  20.990  10.207  1.00  0.00     0.170 C 
BRANCH  20  21
HETATM   21  N6  UNL     1      11.857  21.980   9.726  1.00  0.00    -0.216 N 
HETATM   22  N7  UNL     1      10.935  22.584  10.454  1.00  0.00    -0.003 NA
HETATM   23  N8  UNL     1      10.217  23.405   9.695  1.00  0.00    -0.266 N 
HETATM   24  C10 UNL     1      10.701  23.319   8.436  1.00  0.00     0.144 A 
ATOM     25  H8  UNL     1       9.442  23.991  10.005  1.00  0.00     0.186 HD
HETATM   26  N10 UNL     1      11.698  22.440   8.503  1.00  0.00    -0.269 N 
ATOM     27  H10 UNL     1      12.269  22.159   7.706  1.00  0.00     0.190 HD
BRANCH  24  28
HETATM   28  C11 UNL     1      10.267  24.014   7.237  1.00  0.00     0.013 A 
HETATM   29  C12 UNL     1      10.221  23.376   6.018  1.00  0.00     0.032 A 
HETATM   30  C13 UNL     1       9.814  24.031   4.873  1.00  0.00     0.088 A 
HETATM   31  N9  UNL     1       9.446  25.323   4.907  1.00  0.00    -0.375 N 
HETATM   32  C14 UNL     1       9.478  25.984   6.095  1.00  0.00     0.088 A 
ATOM     33  H9  UNL     1       9.147  25.800   4.057  1.00  0.00     0.164 HD
HETATM   34  C15 UNL     1       9.883  25.344   7.248  1.00  0.00     0.032 A 
ENDBRANCH  24  28
ENDBRANCH  20  21
ENDBRANCH  19  20
ENDBRANCH   1  19
BRANCH   1  35
HETATM   35  N11 UNL     1      10.305  19.550  10.459  1.00  0.00    -0.359 N 
ATOM     36  H11 UNL     1       9.644  20.198  10.032  1.00  0.00     0.158 HD
BRANCH  35  37
HETATM   37  C16 UNL     1      10.148  19.284  11.801  1.00  0.00     0.420 C 
BRANCH  37  38
HETATM   38  N12 UNL     1       8.719  18.872  11.972  1.00  0.00    -0.035 N 
ATOM     39 3H12 UNL     1       8.166  18.956  11.119  1.00  0.00     0.279 HD
ATOM     40 2H12 UNL     1       8.598  17.867  12.100  1.00  0.00     0.279 HD
ATOM     41 1H12 UNL     1       8.358  19.427  12.748  1.00  0.00     0.279 HD
ENDBRANCH  37  38
BRANCH  37  42
HETATM   42  O1  UNL     1      10.177  20.419  12.667  1.00  0.00    -0.355 OA
ATOM     43  H1  UNL     1       9.684  20.336  13.474  1.00  0.00     0.213 HD
ENDBRANCH  37  42
ENDBRANCH  35  37
ENDBRANCH   1  35
BRANCH   1  44
HETATM   44  C17 UNL     1      10.612  18.762   8.330  1.00  0.00     0.185 C 
BRANCH  44  45
HETATM   45  O2  UNL     1       9.698  19.852   8.191  1.00  0.00    -0.390 OA
ATOM     46  H2  UNL     1      10.154  20.607   8.545  1.00  0.00     0.210 HD
ENDBRANCH  44  45
BRANCH  44  47
HETATM   47  C18 UNL     1      11.375  18.754   7.045  1.00  0.00     0.196 C 
BRANCH  47  48
HETATM   48  O3  UNL     1      12.357  17.746   6.995  1.00  0.00    -0.387 OA
ATOM     49  H3  UNL     1      13.091  17.970   6.435  1.00  0.00     0.210 HD
ENDBRANCH  47  48
BRANCH  47  50
HETATM   50  C19 UNL     1      10.519  18.490   5.852  1.00  0.00     0.055 C 
HETATM   51  N13 UNL     1       9.409  17.546   6.169  1.00  0.00    -0.104 NA
HETATM   52  C20 UNL     1      10.155  19.455   4.844  1.00  0.00     0.023 C 
BRANCH  52  53
HETATM   53  C21 UNL     1      11.117  20.116   3.944  1.00  0.00     0.000 C 
BRANCH  53  54
HETATM   54  C22 UNL     1      11.565  19.494   2.678  1.00  0.00     0.191 C 
BRANCH  54  55
HETATM   55  O4  UNL     1      12.553  20.280   2.073  1.00  0.00    -0.397 OA
ATOM     56  H4  UNL     1      12.872  19.858   1.283  1.00  0.00     0.209 HD
ENDBRANCH  54  55
ENDBRANCH  53  54
ENDBRANCH  52  53
ENDBRANCH  47  50
ENDBRANCH  44  47
ENDBRANCH   1  44
TORSDOF 18
ENDMDL
MODEL 4
REMARK VINA RESULT: -7.353389765      3.266      7.500
REMARK  18 active torsions:
REMARK  status: ('A' for Active; 'I' for Inactive)
REMARK    1  A    between atoms: N5_14  and  C6_15 
REMARK    2  A    between atoms: C6_15  and  C7_16 
REMARK    3  A    between atoms: C7_16  and  C8_17 
REMARK    4  A    between atoms: C7_16  and  N11_33 
REMARK    5  A    between atoms: C7_16  and  C17_42 
REMARK    6  A    between atoms: C8_17  and  C9_18 
REMARK    7  A    between atoms: C9_18  and  N6_19 
REMARK    8  A    between atoms: C10_23  and  C11_24 
REMARK    9  A    between atoms: N11_33  and  C16_35 
REMARK   10  A    between atoms: C16_35  and  N12_36 
REMARK   11  A    between atoms: C16_35  and  O1_40 
REMARK   12  A    between atoms: C17_42  and  O2_43 
REMARK   13  A    between atoms: C17_42  and  C18_45 
REMARK   14  A    between atoms: C18_45  and  O3_46 
REMARK   15  A    between atoms: C18_45  and  C19_48 
REMARK   16  A    between atoms: C20_50  and  C21_51 
REMARK   17  A    between atoms: C21_51  and  C22_52 
REMARK   18  A    between atoms: C22_52  and  O4_53 
ROOT
HETATM    1  C7  UNL     1      12.478  18.211   8.871  1.00  0.00     0.092 C 
ENDROOT
BRANCH   1   2
HETATM    2  C6  UNL     1      13.230  19.253   9.735  1.00  0.00     0.106 C 
BRANCH   2   3
HETATM    3  N5  UNL     1      14.380  19.873   9.228  1.00  0.00    -0.303 N 
HETATM    4  C3  UNL     1      15.686  19.493   9.437  1.00  0.00     0.160 A 
HETATM    5  N3  UNL     1      16.291  18.561  10.183  1.00  0.00    -0.174 N 
HETATM    6  C4  UNL     1      16.525  20.312   8.716  1.00  0.00     0.148 A 
HETATM    7  C2  UNL     1      17.607  18.360  10.286  1.00  0.00     0.682 A 
ATOM      8  H3  UNL     1      15.687  17.944  10.727  1.00  0.00     0.186 HD
HETATM    9  N1  UNL     1      18.408  19.158   9.583  1.00  0.00    -0.150 N 
HETATM   10  N2  UNL     1      18.093  17.413  11.043  1.00  0.00    -0.234 N 
HETATM   11  C1  UNL     1      19.844  19.004   9.639  1.00  0.00     0.179 C 
HETATM   12  C23 UNL     1      17.891  20.127   8.802  1.00  0.00     0.292 A 
HETATM   13  O5  UNL     1      18.655  20.891   8.129  1.00  0.00    -0.265 OA
ATOM     14  H22 UNL     1      19.099  17.259  11.122  1.00  0.00     0.174 HD
ATOM     15  H21 UNL     1      17.480  16.802  11.582  1.00  0.00     0.174 HD
HETATM   16  N4  UNL     1      15.766  21.191   8.069  1.00  0.00    -0.344 N 
HETATM   17  C5  UNL     1      14.507  20.915   8.387  1.00  0.00     0.190 A 
ATOM     18  H4  UNL     1      16.088  21.935   7.450  1.00  0.00     0.167 HD
ENDBRANCH   2   3
ENDBRANCH   1   2
BRANCH   1  19
HETATM   19  C8  UNL     1      12.723  18.755   7.504  1.00  0.00     0.062 C 
BRANCH  19  20
HETATM   20  C9  UNL     1      11.772  18.684   6.420  1.00  0.00     0.170 C 
BRANCH  20  21
HETATM   21  N6  UNL     1      10.773  19.765   6.684  1.00  0.00    -0.216 N 
HETATM   22  N7  UNL     1       9.464  19.621   6.793  1.00  0.00    -0.003 NA
HETATM   23  N8  UNL     1       8.893  20.796   7.036  1.00  0.00    -0.266 N 
HETATM   24  C10 UNL     1       9.876  21.722   7.084  1.00  0.00     0.144 A 
ATOM     25  H8  UNL     1       7.896  20.967   7.163  1.00  0.00     0.186 HD
HETATM   26  N10 UNL     1      11.003  21.048   6.864  1.00  0.00    -0.269 N 
ATOM     27  H10 UNL     1      11.929  21.473   6.839  1.00  0.00     0.190 HD
BRANCH  24  28
HETATM   28  C11 UNL     1       9.780  23.151   7.323  1.00  0.00     0.013 A 
HETATM   29  C12 UNL     1       9.637  23.655   8.596  1.00  0.00     0.032 A 
HETATM   30  C13 UNL     1       9.540  25.013   8.830  1.00  0.00     0.088 A 
HETATM   31  N9  UNL     1       9.583  25.896   7.817  1.00  0.00    -0.375 N 
HETATM   32  C14 UNL     1       9.725  25.431   6.546  1.00  0.00     0.088 A 
ATOM     33  H9  UNL     1       9.511  26.896   7.998  1.00  0.00     0.164 HD
HETATM   34  C15 UNL     1       9.823  24.079   6.296  1.00  0.00     0.032 A 
ENDBRANCH  24  28
ENDBRANCH  20  21
ENDBRANCH  19  20
ENDBRANCH   1  19
BRANCH   1  35
HETATM   35  N11 UNL     1      11.131  18.167   9.318  1.00  0.00    -0.359 N 
ATOM     36  H11 UNL     1      10.516  17.483   8.879  1.00  0.00     0.158 HD
BRANCH  35  37
HETATM   37  C16 UNL     1      10.585  18.970  10.293  1.00  0.00     0.420 C 
BRANCH  37  38
HETATM   38  N12 UNL     1       9.479  18.172  10.910  1.00  0.00    -0.035 N 
ATOM     39 3H12 UNL     1       8.759  17.892  10.244  1.00  0.00     0.279 HD
ATOM     40 2H12 UNL     1       9.761  17.232  11.189  1.00  0.00     0.279 HD
ATOM     41 1H12 UNL     1       9.123  18.737  11.681  1.00  0.00     0.279 HD
ENDBRANCH  37  38
BRANCH  37  42
HETATM   42  O1  UNL     1       9.840  20.096   9.828  1.00  0.00    -0.355 OA
ATOM     43  H1  UNL     1      10.324  20.726   9.308  1.00  0.00     0.213 HD
ENDBRANCH  37  42
ENDBRANCH  35  37
ENDBRANCH   1  35
BRANCH   1  44
HETATM   44  C17 UNL     1      12.970  16.823   9.076  1.00  0.00     0.185 C 
BRANCH  44  45
HETATM   45  O2  UNL     1      13.663  16.851  10.326  1.00  0.00    -0.390 OA
ATOM     46  H2  UNL     1      13.257  17.554  10.820  1.00  0.00     0.210 HD
ENDBRANCH  44  45
BRANCH  44  47
HETATM   47  C18 UNL     1      12.007  15.688   9.213  1.00  0.00     0.196 C 
BRANCH  47  48
HETATM   48  O3  UNL     1      11.093  15.611   8.146  1.00  0.00    -0.387 OA
ATOM     49  H3  UNL     1      10.187  15.645   8.429  1.00  0.00     0.210 HD
ENDBRANCH  47  48
BRANCH  47  50
HETATM   50  C19 UNL     1      12.670  14.351   9.225  1.00  0.00     0.055 C 
HETATM   51  N13 UNL     1      12.625  13.727  10.578  1.00  0.00    -0.104 NA
HETATM   52  C20 UNL     1      12.625  13.376   8.163  1.00  0.00     0.023 C 
BRANCH  52  53
HETATM   53  C21 UNL     1      13.191  13.587   6.819  1.00  0.00     0.000 C 
BRANCH  53  54
HETATM   54  C22 UNL     1      14.396  14.416   6.595  1.00  0.00     0.191 C 
BRANCH  54  55
HETATM   55  O4  UNL     1      14.360  14.992   5.319  1.00  0.00    -0.397 OA
ATOM     56  H4  UNL     1      14.553  15.921   5.371  1.00  0.00     0.209 HD
ENDBRANCH  54  55
ENDBRANCH  53  54
ENDBRANCH  52  53
ENDBRANCH  47  50
ENDBRANCH  44  47
ENDBRANCH   1  44
TORSDOF 18
ENDMDL
MODEL 5
REMARK VINA RESULT: -7.300629016      2.252      6.665
REMARK  18 active torsions:
REMARK  status: ('A' for Active; 'I' for Inactive)
REMARK    1  A    between atoms: N5_14  and  C6_15 
REMARK    2  A    between atoms: C6_15  and  C7_16 
REMARK    3  A    between atoms: C7_16  and  C8_17 
REMARK    4  A    between atoms: C7_16  and  N11_33 
REMARK    5  A    between atoms: C7_16  and  C17_42 
REMARK    6  A    between atoms: C8_17  and  C9_18 
REMARK    7  A    between atoms: C9_18  and  N6_19 
REMARK    8  A    between atoms: C10_23  and  C11_24 
REMARK    9  A    between atoms: N11_33  and  C16_35 
REMARK   10  A    between atoms: C16_35  and  N12_36 
REMARK   11  A    between atoms: C16_35  and  O1_40 
REMARK   12  A    between atoms: C17_42  and  O2_43 
REMARK   13  A    between atoms: C17_42  and  C18_45 
REMARK   14  A    between atoms: C18_45  and  O3_46 
REMARK   15  A    between atoms: C18_45  and  C19_48 
REMARK   16  A    between atoms: C20_50  and  C21_51 
REMARK   17  A    between atoms: C21_51  and  C22_52 
REMARK   18  A    between atoms: C22_52  and  O4_53 
ROOT
HETATM    1  C7  UNL     1      11.944  18.162   6.118  1.00  0.00     0.092 C 
ENDROOT
BRANCH   1   2
HETATM    2  C6  UNL     1      13.052  18.788   7.000  1.00  0.00     0.106 C 
BRANCH   2   3
HETATM    3  N5  UNL     1      12.698  19.579   8.101  1.00  0.00    -0.303 N 
HETATM    4  C3  UNL     1      11.896  19.215   9.159  1.00  0.00     0.160 A 
HETATM    5  N3  UNL     1      11.164  18.137   9.461  1.00  0.00    -0.174 N 
HETATM    6  C4  UNL     1      11.842  20.244  10.071  1.00  0.00     0.148 A 
HETATM    7  C2  UNL     1      10.404  17.974  10.548  1.00  0.00     0.682 A 
ATOM      8  H3  UNL     1      11.189  17.363   8.797  1.00  0.00     0.186 HD
HETATM    9  N1  UNL     1      10.361  18.976  11.424  1.00  0.00    -0.150 N 
HETATM   10  N2  UNL     1       9.731  16.873  10.749  1.00  0.00    -0.234 N 
HETATM   11  C1  UNL     1       9.562  18.878  12.624  1.00  0.00     0.179 C 
HETATM   12  C23 UNL     1      11.065  20.104  11.205  1.00  0.00     0.292 A 
HETATM   13  O5  UNL     1      11.025  21.063  12.041  1.00  0.00    -0.265 OA
ATOM     14  H22 UNL     1       9.150  16.749  11.578  1.00  0.00     0.174 HD
ATOM     15  H21 UNL     1       9.764  16.106  10.078  1.00  0.00     0.174 HD
HETATM   16  N4  UNL     1      12.590  21.237   9.599  1.00  0.00    -0.344 N 
HETATM   17  C5  UNL     1      13.082  20.824   8.437  1.00  0.00     0.190 A 
ATOM     18  H4  UNL     1      12.752  22.140  10.042  1.00  0.00     0.167 HD
ENDBRANCH   2   3
ENDBRANCH   1   2
BRANCH   1  19
HETATM   19  C8  UNL     1      12.249  18.793   4.801  1.00  0.00     0.062 C 
BRANCH  19  20
HETATM   20  C9  UNL     1      11.262  19.414   3.951  1.00  0.00     0.170 C 
BRANCH  20  21
HETATM   21  N6  UNL     1      11.269  20.865   4.311  1.00  0.00    -0.216 N 
HETATM   22  N7  UNL     1      11.887  21.836   3.664  1.00  0.00    -0.003 NA
HETATM   23  N8  UNL     1      11.668  23.000   4.266  1.00  0.00    -0.266 N 
HETATM   24  C10 UNL     1      10.879  22.760   5.336  1.00  0.00     0.144 A 
ATOM     25  H8  UNL     1      12.028  23.908   3.973  1.00  0.00     0.186 HD
HETATM   26  N10 UNL     1      10.663  21.446   5.324  1.00  0.00    -0.269 N 
ATOM     27  H10 UNL     1      10.096  20.952   6.013  1.00  0.00     0.190 HD
BRANCH  24  28
HETATM   28  C11 UNL     1      10.353  23.693   6.316  1.00  0.00     0.013 A 
HETATM   29  C12 UNL     1      10.136  23.312   7.622  1.00  0.00     0.032 A 
HETATM   30  C13 UNL     1       9.631  24.193   8.558  1.00  0.00     0.088 A 
HETATM   31  N9  UNL     1       9.333  25.461   8.227  1.00  0.00    -0.375 N 
HETATM   32  C14 UNL     1       9.536  25.871   6.946  1.00  0.00     0.088 A 
ATOM     33  H9  UNL     1       8.961  26.105   8.924  1.00  0.00     0.164 HD
HETATM   34  C15 UNL     1      10.039  25.004   5.999  1.00  0.00     0.032 A 
ENDBRANCH  24  28
ENDBRANCH  20  21
ENDBRANCH  19  20
ENDBRANCH   1  19
BRANCH   1  35
HETATM   35  N11 UNL     1      10.692  18.473   6.709  1.00  0.00    -0.359 N 
ATOM     36  H11 UNL     1      10.669  19.245   7.375  1.00  0.00     0.158 HD
BRANCH  35  37
HETATM   37  C16 UNL     1       9.505  17.822   6.459  1.00  0.00     0.420 C 
BRANCH  37  38
HETATM   38  N12 UNL     1       8.486  18.895   6.241  1.00  0.00    -0.035 N 
ATOM     39 3H12 UNL     1       8.494  19.618   6.961  1.00  0.00     0.279 HD
ATOM     40 2H12 UNL     1       8.699  19.506   5.451  1.00  0.00     0.279 HD
ATOM     41 1H12 UNL     1       7.589  18.417   6.154  1.00  0.00     0.279 HD
ENDBRANCH  37  38
BRANCH  37  42
HETATM   42  O1  UNL     1       8.916  17.153   7.575  1.00  0.00    -0.355 OA
ATOM     43  H1  UNL     1       9.162  16.243   7.689  1.00  0.00     0.213 HD
ENDBRANCH  37  42
ENDBRANCH  35  37
ENDBRANCH   1  35
BRANCH   1  44
HETATM   44  C17 UNL     1      11.980  16.676   6.110  1.00  0.00     0.185 C 
BRANCH  44  45
HETATM   45  O2  UNL     1      12.969  16.330   5.138  1.00  0.00    -0.390 OA
ATOM     46  H2  UNL     1      13.473  15.629   5.535  1.00  0.00     0.210 HD
ENDBRANCH  44  45
BRANCH  44  47
HETATM   47  C18 UNL     1      12.383  15.919   7.334  1.00  0.00     0.196 C 
BRANCH  47  48
HETATM   48  O3  UNL     1      11.286  15.411   8.054  1.00  0.00    -0.387 OA
ATOM     49  H3  UNL     1      10.759  14.803   7.549  1.00  0.00     0.210 HD
ENDBRANCH  47  48
BRANCH  47  50
HETATM   50  C19 UNL     1      13.215  14.716   7.037  1.00  0.00     0.055 C 
HETATM   51  N13 UNL     1      14.670  15.041   7.028  1.00  0.00    -0.104 NA
HETATM   52  C20 UNL     1      12.950  13.373   7.490  1.00  0.00     0.023 C 
BRANCH  52  53
HETATM   53  C21 UNL     1      11.765  12.586   7.103  1.00  0.00     0.000 C 
BRANCH  53  54
HETATM   54  C22 UNL     1      10.924  11.889   8.102  1.00  0.00     0.191 C 
BRANCH  54  55
HETATM   55  O4  UNL     1      10.054  12.794   8.722  1.00  0.00    -0.397 OA
ATOM     56  H4  UNL     1       9.242  12.361   8.958  1.00  0.00     0.209 HD
ENDBRANCH  54  55
ENDBRANCH  53  54
ENDBRANCH  52  53
ENDBRANCH  47  50
ENDBRANCH  44  47
ENDBRANCH   1  44
TORSDOF 18
ENDMDL
