MODEL 1
REMARK VINA RESULT: -7.500545010      0.000      0.000
REMARK  6 active torsions:
REMARK  status: ('A' for Active; 'I' for Inactive)
REMARK    1  A    between atoms: C5_5  and  S1_6 
REMARK    2  A    between atoms: S1_6  and  N1_9 
REMARK    3  A    between atoms: C6_11  and  N2_13 
REMARK    4  A    between atoms: C9_18  and  C10_19 
REMARK    5  A    between atoms: C18_28  and  C19_29 
REMARK    6  A    between atoms: C22_32  and  C23_33 
ROOT
HETATM    1  N2  UNL     1       4.798  -1.169 -26.760  1.00  0.00    -0.297 N 
HETATM    2  C7  UNL     1       4.413  -1.553 -28.038  1.00  0.00     0.148 C 
HETATM    3  S3  UNL     1       3.484  -1.034 -29.153  1.00  0.00    -0.052 SA
HETATM    4  S4  UNL     1       5.330  -3.160 -28.263  1.00  0.00    -0.062 SA
HETATM    5  C8  UNL     1       4.892  -3.571 -26.552  1.00  0.00     0.014 C 
HETATM    6  C9  UNL     1       4.454  -4.682 -26.204  1.00  0.00     0.027 C 
HETATM    7  C18 UNL     1       5.121  -2.298 -25.880  1.00  0.00     0.167 C 
ENDROOT
BRANCH   1   8
HETATM    8  C6  UNL     1       4.934   0.138 -26.244  1.00  0.00     0.170 C 
HETATM    9  N1  UNL     1       4.238   1.198 -25.803  1.00  0.00    -0.259 N 
ATOM     10  H1  UNL     1       4.884   1.951 -25.567  1.00  0.00     0.181 HD
HETATM   11  S2  UNL     1       6.648   0.611 -26.188  1.00  0.00    -0.012 SA
BRANCH   9  12
HETATM   12  S1  UNL     1       2.676   1.704 -25.510  1.00  0.00     0.264 S 
HETATM   13  O1  UNL     1       1.723   1.082 -26.576  1.00  0.00    -0.200 OA
HETATM   14  O2  UNL     1       2.493   3.215 -25.834  1.00  0.00    -0.200 OA
BRANCH  12  15
HETATM   15  C5  UNL     1       1.958   1.443 -23.955  1.00  0.00     0.080 A 
HETATM   16  C4  UNL     1       2.705   1.614 -22.789  1.00  0.00     0.026 A 
HETATM   17  C3  UNL     1       2.128   1.494 -21.560  1.00  0.00     0.008 A 
HETATM   18  C2  UNL     1       0.804   1.205 -21.401  1.00  0.00    -0.062 A 
HETATM   19  C1  UNL     1       0.228   1.082 -20.044  1.00  0.00     0.048 C 
HETATM   20  C29 UNL     1       0.011   1.024 -22.539  1.00  0.00     0.008 A 
HETATM   21  C28 UNL     1       0.622   1.151 -23.753  1.00  0.00     0.026 A 
ENDBRANCH  12  15
ENDBRANCH   9  12
ENDBRANCH   1   8
BRANCH   7  22
HETATM   22  C19 UNL     1       4.185  -2.271 -24.718  1.00  0.00    -0.030 A 
HETATM   23  C20 UNL     1       4.719  -2.174 -23.425  1.00  0.00     0.010 A 
HETATM   24  C21 UNL     1       3.881  -2.151 -22.339  1.00  0.00     0.008 A 
HETATM   25  C22 UNL     1       2.505  -2.218 -22.432  1.00  0.00    -0.055 A 
HETATM   26  C26 UNL     1       1.988  -2.314 -23.710  1.00  0.00     0.008 A 
HETATM   27  C27 UNL     1       2.823  -2.339 -24.822  1.00  0.00     0.010 A 
BRANCH  25  28
HETATM   28  C23 UNL     1       1.670  -2.173 -21.208  1.00  0.00     0.010 C 
HETATM   29  C24 UNL     1       0.810  -3.371 -20.994  1.00  0.00     0.015 C 
HETATM   30  C25 UNL     1       2.507  -1.823 -19.972  1.00  0.00     0.015 C 
ENDBRANCH  25  28
ENDBRANCH   7  22
BRANCH   6  31
HETATM   31  C10 UNL     1       4.213  -5.796 -26.985  1.00  0.00    -0.016 A 
HETATM   32  C11 UNL     1       2.890  -5.920 -27.021  1.00  0.00     0.113 A 
HETATM   33  C12 UNL     1       1.502  -5.634 -26.761  1.00  0.00     0.045 A 
HETATM   34  N3  UNL     1       2.804  -6.977 -27.563  1.00  0.00    -0.410 NA
HETATM   35  C13 UNL     1       0.699  -6.687 -27.270  1.00  0.00     0.006 A 
HETATM   36  C14 UNL     1       1.327  -7.923 -27.974  1.00  0.00     0.040 A 
HETATM   37  C15 UNL     1       2.659  -8.041 -28.104  1.00  0.00     0.085 A 
HETATM   38  C16 UNL     1       4.155  -8.085 -28.203  1.00  0.00     0.077 A 
HETATM   39  C17 UNL     1       4.914  -7.004 -27.658  1.00  0.00     0.049 A 
ENDBRANCH   6  31
TORSDOF 6
ENDMDL
MODEL 2
REMARK VINA RESULT: -7.212911492     10.684     13.499
REMARK  6 active torsions:
REMARK  status: ('A' for Active; 'I' for Inactive)
REMARK    1  A    between atoms: C5_5  and  S1_6 
REMARK    2  A    between atoms: S1_6  and  N1_9 
REMARK    3  A    between atoms: C6_11  and  N2_13 
REMARK    4  A    between atoms: C9_18  and  C10_19 
REMARK    5  A    between atoms: C18_28  and  C19_29 
REMARK    6  A    between atoms: C22_32  and  C23_33 
ROOT
HETATM    1  N2  UNL     1      -6.508   8.455 -24.312  1.00  0.00    -0.297 N 
HETATM    2  C7  UNL     1      -6.743   8.423 -25.680  1.00  0.00     0.148 C 
HETATM    3  S3  UNL     1      -7.759   7.786 -26.649  1.00  0.00    -0.052 SA
HETATM    4  S4  UNL     1      -5.327   9.434 -26.350  1.00  0.00    -0.062 SA
HETATM    5  C8  UNL     1      -4.252   8.594 -25.155  1.00  0.00     0.014 C 
HETATM    6  C9  UNL     1      -3.134   8.130 -25.446  1.00  0.00     0.027 C 
HETATM    7  C18 UNL     1      -5.090   8.591 -23.963  1.00  0.00     0.167 C 
ENDROOT
BRANCH   1   8
HETATM    8  C6  UNL     1      -7.451   8.400 -23.263  1.00  0.00     0.170 C 
HETATM    9  N1  UNL     1      -8.291   7.579 -22.614  1.00  0.00    -0.259 N 
ATOM     10  H1  UNL     1      -8.800   8.108 -21.906  1.00  0.00     0.181 HD
HETATM   11  S2  UNL     1      -7.670  10.010 -22.538  1.00  0.00    -0.012 SA
BRANCH   9  12
HETATM   12  S1  UNL     1      -8.788   5.988 -22.570  1.00  0.00     0.264 S 
HETATM   13  O1  UNL     1      -8.567   5.339 -23.971  1.00  0.00    -0.200 OA
HETATM   14  O2  UNL     1     -10.336   5.874 -22.463  1.00  0.00    -0.200 OA
BRANCH  12  15
HETATM   15  C5  UNL     1      -8.131   4.907 -21.387  1.00  0.00     0.080 A 
HETATM   16  C4  UNL     1      -8.099   3.532 -21.620  1.00  0.00     0.026 A 
HETATM   17  C3  UNL     1      -7.507   2.681 -20.734  1.00  0.00     0.008 A 
HETATM   18  C2  UNL     1      -6.922   3.120 -19.582  1.00  0.00    -0.062 A 
HETATM   19  C1  UNL     1      -6.297   2.155 -18.651  1.00  0.00     0.048 C 
HETATM   20  C29 UNL     1      -6.928   4.491 -19.301  1.00  0.00     0.008 A 
HETATM   21  C28 UNL     1      -7.528   5.312 -20.210  1.00  0.00     0.026 A 
ENDBRANCH  12  15
ENDBRANCH   9  12
ENDBRANCH   1   8
BRANCH   7  22
HETATM   22  C19 UNL     1      -4.682   7.391 -23.175  1.00  0.00    -0.030 A 
HETATM   23  C20 UNL     1      -5.156   6.133 -23.570  1.00  0.00     0.010 A 
HETATM   24  C21 UNL     1      -4.798   5.013 -22.862  1.00  0.00     0.008 A 
HETATM   25  C22 UNL     1      -3.978   5.040 -21.750  1.00  0.00    -0.055 A 
HETATM   26  C26 UNL     1      -3.516   6.285 -21.368  1.00  0.00     0.008 A 
HETATM   27  C27 UNL     1      -3.869   7.430 -22.075  1.00  0.00     0.010 A 
BRANCH  25  28
HETATM   28  C23 UNL     1      -3.628   3.782 -21.049  1.00  0.00     0.010 C 
HETATM   29  C24 UNL     1      -4.196   2.547 -21.661  1.00  0.00     0.015 C 
HETATM   30  C25 UNL     1      -2.117   3.676 -20.809  1.00  0.00     0.015 C 
ENDBRANCH  25  28
ENDBRANCH   7  22
BRANCH   6  31
HETATM   31  C10 UNL     1      -2.488   8.142 -26.666  1.00  0.00    -0.016 A 
HETATM   32  C11 UNL     1      -1.399   8.882 -26.479  1.00  0.00     0.113 A 
HETATM   33  C12 UNL     1      -0.429   9.705 -25.804  1.00  0.00     0.045 A 
HETATM   34  N3  UNL     1      -1.018   8.962 -27.605  1.00  0.00    -0.410 NA
HETATM   35  C13 UNL     1       0.511  10.197 -26.746  1.00  0.00     0.006 A 
HETATM   36  C14 UNL     1       0.410   9.846 -28.258  1.00  0.00     0.040 A 
HETATM   37  C15 UNL     1      -0.590   9.078 -28.723  1.00  0.00     0.085 A 
HETATM   38  C16 UNL     1      -1.740   8.215 -29.149  1.00  0.00     0.077 A 
HETATM   39  C17 UNL     1      -2.666   7.763 -28.159  1.00  0.00     0.049 A 
ENDBRANCH   6  31
TORSDOF 6
ENDMDL
MODEL 3
REMARK VINA RESULT: -7.112813540      4.234      7.388
REMARK  6 active torsions:
REMARK  status: ('A' for Active; 'I' for Inactive)
REMARK    1  A    between atoms: C5_5  and  S1_6 
REMARK    2  A    between atoms: S1_6  and  N1_9 
REMARK    3  A    between atoms: C6_11  and  N2_13 
REMARK    4  A    between atoms: C9_18  and  C10_19 
REMARK    5  A    between atoms: C18_28  and  C19_29 
REMARK    6  A    between atoms: C22_32  and  C23_33 
ROOT
HETATM    1  N2  UNL     1       2.927  -0.581 -24.337  1.00  0.00    -0.297 N 
HETATM    2  C7  UNL     1       4.160  -0.111 -24.771  1.00  0.00     0.148 C 
HETATM    3  S3  UNL     1       5.542   0.198 -24.162  1.00  0.00    -0.052 SA
HETATM    4  S4  UNL     1       3.846   0.217 -26.579  1.00  0.00    -0.062 SA
HETATM    5  C8  UNL     1       2.240   0.912 -26.104  1.00  0.00     0.014 C 
HETATM    6  C9  UNL     1       1.795   1.983 -26.555  1.00  0.00     0.027 C 
HETATM    7  C18 UNL     1       1.794  -0.047 -25.101  1.00  0.00     0.167 C 
ENDROOT
BRANCH   1   8
HETATM    8  C6  UNL     1       2.659  -1.500 -23.300  1.00  0.00     0.170 C 
HETATM    9  N1  UNL     1       2.438  -1.596 -21.979  1.00  0.00    -0.259 N 
ATOM     10  H1  UNL     1       2.330  -2.579 -21.727  1.00  0.00     0.181 HD
HETATM   11  S2  UNL     1       2.650  -3.164 -23.929  1.00  0.00    -0.012 SA
BRANCH   9  12
HETATM   12  S1  UNL     1       2.281  -0.659 -20.610  1.00  0.00     0.264 S 
HETATM   13  O1  UNL     1       3.078   0.668 -20.798  1.00  0.00    -0.200 OA
HETATM   14  O2  UNL     1       3.055  -1.268 -19.406  1.00  0.00    -0.200 OA
BRANCH  12  15
HETATM   15  C5  UNL     1       0.706  -0.240 -20.022  1.00  0.00     0.080 A 
HETATM   16  C4  UNL     1      -0.370  -1.113 -20.186  1.00  0.00     0.026 A 
HETATM   17  C3  UNL     1      -1.592  -0.832 -19.652  1.00  0.00     0.008 A 
HETATM   18  C2  UNL     1      -1.832   0.306 -18.938  1.00  0.00    -0.062 A 
HETATM   19  C1  UNL     1      -3.179   0.565 -18.384  1.00  0.00     0.048 C 
HETATM   20  C29 UNL     1      -0.786   1.215 -18.745  1.00  0.00     0.008 A 
HETATM   21  C28 UNL     1       0.424   0.900 -19.292  1.00  0.00     0.026 A 
ENDBRANCH  12  15
ENDBRANCH   9  12
ENDBRANCH   1   8
BRANCH   7  22
HETATM   22  C19 UNL     1       0.913   0.712 -24.167  1.00  0.00    -0.030 A 
HETATM   23  C20 UNL     1      -0.388   0.243 -23.935  1.00  0.00     0.010 A 
HETATM   24  C21 UNL     1      -1.220   0.924 -23.083  1.00  0.00     0.008 A 
HETATM   25  C22 UNL     1      -0.855   2.078 -22.416  1.00  0.00    -0.055 A 
HETATM   26  C26 UNL     1       0.428   2.534 -22.651  1.00  0.00     0.008 A 
HETATM   27  C27 UNL     1       1.285   1.855 -23.513  1.00  0.00     0.010 A 
BRANCH  25  28
HETATM   28  C23 UNL     1      -1.810   2.746 -21.501  1.00  0.00     0.010 C 
HETATM   29  C24 UNL     1      -1.313   4.015 -20.898  1.00  0.00     0.015 C 
HETATM   30  C25 UNL     1      -3.190   2.907 -22.152  1.00  0.00     0.015 C 
ENDBRANCH  25  28
ENDBRANCH   7  22
BRANCH   6  31
HETATM   31  C10 UNL     1       2.379   2.842 -27.466  1.00  0.00    -0.016 A 
HETATM   32  C11 UNL     1       2.541   3.989 -26.812  1.00  0.00     0.113 A 
HETATM   33  C12 UNL     1       2.499   4.942 -25.733  1.00  0.00     0.045 A 
HETATM   34  N3  UNL     1       2.885   4.685 -27.715  1.00  0.00    -0.410 NA
HETATM   35  C13 UNL     1       2.892   6.218 -26.214  1.00  0.00     0.006 A 
HETATM   36  C14 UNL     1       3.280   6.443 -27.704  1.00  0.00     0.040 A 
HETATM   37  C15 UNL     1       3.233   5.434 -28.590  1.00  0.00     0.085 A 
HETATM   38  C16 UNL     1       3.151   4.248 -29.504  1.00  0.00     0.077 A 
HETATM   39  C17 UNL     1       2.732   2.991 -28.968  1.00  0.00     0.049 A 
ENDBRANCH   6  31
TORSDOF 6
ENDMDL
MODEL 4
REMARK VINA RESULT: -7.073765899      9.577     13.248
REMARK  6 active torsions:
REMARK  status: ('A' for Active; 'I' for Inactive)
REMARK    1  A    between atoms: C5_5  and  S1_6 
REMARK    2  A    between atoms: S1_6  and  N1_9 
REMARK    3  A    between atoms: C6_11  and  N2_13 
REMARK    4  A    between atoms: C9_18  and  C10_19 
REMARK    5  A    between atoms: C18_28  and  C19_29 
REMARK    6  A    between atoms: C22_32  and  C23_33 
ROOT
HETATM    1  N2  UNL     1      -7.082   6.073 -21.391  1.00  0.00    -0.297 N 
HETATM    2  C7  UNL     1      -8.055   6.174 -22.377  1.00  0.00     0.148 C 
HETATM    3  S3  UNL     1      -9.243   5.341 -22.897  1.00  0.00    -0.052 SA
HETATM    4  S4  UNL     1      -7.610   7.781 -23.211  1.00  0.00    -0.062 SA
HETATM    5  C8  UNL     1      -5.871   7.283 -23.090  1.00  0.00     0.014 C 
HETATM    6  C9  UNL     1      -5.061   7.385 -24.030  1.00  0.00     0.027 C 
HETATM    7  C18 UNL     1      -5.819   6.731 -21.743  1.00  0.00     0.167 C 
ENDROOT
BRANCH   1   8
HETATM    8  C6  UNL     1      -7.182   5.455 -20.126  1.00  0.00     0.170 C 
HETATM    9  N1  UNL     1      -7.269   4.262 -19.516  1.00  0.00    -0.259 N 
ATOM     10  H1  UNL     1      -7.363   4.404 -18.510  1.00  0.00     0.181 HD
HETATM   11  S2  UNL     1      -7.283   6.680 -18.840  1.00  0.00    -0.012 SA
BRANCH   9  12
HETATM   12  S1  UNL     1      -7.275   2.627 -19.841  1.00  0.00     0.264 S 
HETATM   13  O1  UNL     1      -7.727   2.395 -21.315  1.00  0.00    -0.200 OA
HETATM   14  O2  UNL     1      -8.426   1.897 -19.090  1.00  0.00    -0.200 OA
BRANCH  12  15
HETATM   15  C5  UNL     1      -5.844   1.686 -19.581  1.00  0.00     0.080 A 
HETATM   16  C4  UNL     1      -5.372   0.821 -20.569  1.00  0.00     0.026 A 
HETATM   17  C3  UNL     1      -4.202   0.141 -20.409  1.00  0.00     0.008 A 
HETATM   18  C2  UNL     1      -3.434   0.265 -19.287  1.00  0.00    -0.062 A 
HETATM   19  C1  UNL     1      -2.174  -0.500 -19.162  1.00  0.00     0.048 C 
HETATM   20  C29 UNL     1      -3.863   1.119 -18.266  1.00  0.00     0.008 A 
HETATM   21  C28 UNL     1      -5.039   1.784 -18.461  1.00  0.00     0.026 A 
ENDBRANCH  12  15
ENDBRANCH   9  12
ENDBRANCH   1   8
BRANCH   7  22
HETATM   22  C19 UNL     1      -4.741   5.700 -21.760  1.00  0.00    -0.030 A 
HETATM   23  C20 UNL     1      -3.477   6.038 -21.258  1.00  0.00     0.010 A 
HETATM   24  C21 UNL     1      -2.467   5.110 -21.264  1.00  0.00     0.008 A 
HETATM   25  C22 UNL     1      -2.611   3.824 -21.749  1.00  0.00    -0.055 A 
HETATM   26  C26 UNL     1      -3.860   3.500 -22.243  1.00  0.00     0.008 A 
HETATM   27  C27 UNL     1      -4.896   4.430 -22.243  1.00  0.00     0.010 A 
BRANCH  25  28
HETATM   28  C23 UNL     1      -1.472   2.877 -21.707  1.00  0.00     0.010 C 
HETATM   29  C24 UNL     1      -0.865   2.690 -20.359  1.00  0.00     0.015 C 
HETATM   30  C25 UNL     1      -1.826   1.546 -22.381  1.00  0.00     0.015 C 
ENDBRANCH  25  28
ENDBRANCH   7  22
BRANCH   6  31
HETATM   31  C10 UNL     1      -5.279   7.870 -25.305  1.00  0.00    -0.016 A 
HETATM   32  C11 UNL     1      -4.099   8.326 -25.714  1.00  0.00     0.113 A 
HETATM   33  C12 UNL     1      -2.696   8.652 -25.682  1.00  0.00     0.045 A 
HETATM   34  N3  UNL     1      -4.431   8.858 -26.726  1.00  0.00    -0.410 NA
HETATM   35  C13 UNL     1      -2.360   9.406 -26.836  1.00  0.00     0.006 A 
HETATM   36  C14 UNL     1      -3.427   9.780 -27.905  1.00  0.00     0.040 A 
HETATM   37  C15 UNL     1      -4.711   9.414 -27.756  1.00  0.00     0.085 A 
HETATM   38  C16 UNL     1      -6.118   8.961 -27.504  1.00  0.00     0.077 A 
HETATM   39  C17 UNL     1      -6.402   8.219 -26.316  1.00  0.00     0.049 A 
ENDBRANCH   6  31
TORSDOF 6
ENDMDL
MODEL 5
REMARK VINA RESULT: -6.702188297      8.764     12.492
REMARK  6 active torsions:
REMARK  status: ('A' for Active; 'I' for Inactive)
REMARK    1  A    between atoms: C5_5  and  S1_6 
REMARK    2  A    between atoms: S1_6  and  N1_9 
REMARK    3  A    between atoms: C6_11  and  N2_13 
REMARK    4  A    between atoms: C9_18  and  C10_19 
REMARK    5  A    between atoms: C18_28  and  C19_29 
REMARK    6  A    between atoms: C22_32  and  C23_33 
ROOT
HETATM    1  N2  UNL     1      -6.036   3.049 -20.906  1.00  0.00    -0.297 N 
HETATM    2  C7  UNL     1      -5.512   2.597 -19.702  1.00  0.00     0.148 C 
HETATM    3  S3  UNL     1      -5.741   2.836 -18.196  1.00  0.00    -0.052 SA
HETATM    4  S4  UNL     1      -4.162   1.442 -20.265  1.00  0.00    -0.062 SA
HETATM    5  C8  UNL     1      -3.739   2.666 -21.535  1.00  0.00     0.014 C 
HETATM    6  C9  UNL     1      -2.572   3.020 -21.784  1.00  0.00     0.027 C 
HETATM    7  C18 UNL     1      -5.060   3.070 -22.000  1.00  0.00     0.167 C 
ENDROOT
BRANCH   1   8
HETATM    8  C6  UNL     1      -7.361   3.450 -21.186  1.00  0.00     0.170 C 
HETATM    9  N1  UNL     1      -8.192   4.504 -21.171  1.00  0.00    -0.259 N 
ATOM     10  H1  UNL     1      -9.122   4.204 -21.462  1.00  0.00     0.181 HD
HETATM   11  S2  UNL     1      -8.334   2.057 -21.712  1.00  0.00    -0.012 SA
BRANCH   9  12
HETATM   12  S1  UNL     1      -8.222   6.137 -20.837  1.00  0.00     0.264 S 
HETATM   13  O1  UNL     1      -6.784   6.617 -20.475  1.00  0.00    -0.200 OA
HETATM   14  O2  UNL     1      -8.951   6.435 -19.495  1.00  0.00    -0.200 OA
BRANCH  12  15
HETATM   15  C5  UNL     1      -8.863   7.248 -22.002  1.00  0.00     0.080 A 
HETATM   16  C4  UNL     1      -8.740   8.625 -21.815  1.00  0.00     0.026 A 
HETATM   17  C3  UNL     1      -9.165   9.505 -22.765  1.00  0.00     0.008 A 
HETATM   18  C2  UNL     1      -9.728   9.095 -23.939  1.00  0.00    -0.062 A 
HETATM   19  C1  UNL     1     -10.176  10.093 -24.936  1.00  0.00     0.048 C 
HETATM   20  C29 UNL     1      -9.874   7.725 -24.176  1.00  0.00     0.008 A 
HETATM   21  C28 UNL     1      -9.438   6.872 -23.203  1.00  0.00     0.026 A 
ENDBRANCH  12  15
ENDBRANCH   9  12
ENDBRANCH   1   8
BRANCH   7  22
HETATM   22  C19 UNL     1      -4.916   4.476 -22.477  1.00  0.00    -0.030 A 
HETATM   23  C20 UNL     1      -5.828   4.964 -23.424  1.00  0.00     0.010 A 
HETATM   24  C21 UNL     1      -5.717   6.252 -23.881  1.00  0.00     0.008 A 
HETATM   25  C22 UNL     1      -4.739   7.133 -23.461  1.00  0.00    -0.055 A 
HETATM   26  C26 UNL     1      -3.844   6.644 -22.528  1.00  0.00     0.008 A 
HETATM   27  C27 UNL     1      -3.942   5.339 -22.054  1.00  0.00     0.010 A 
BRANCH  25  28
HETATM   28  C23 UNL     1      -4.697   8.514 -23.995  1.00  0.00     0.010 C 
HETATM   29  C24 UNL     1      -3.645   8.755 -25.022  1.00  0.00     0.015 C 
HETATM   30  C25 UNL     1      -6.085   8.978 -24.457  1.00  0.00     0.015 C 
ENDBRANCH  25  28
ENDBRANCH   7  22
BRANCH   6  31
HETATM   31  C10 UNL     1      -1.398   2.595 -21.194  1.00  0.00    -0.016 A 
HETATM   32  C11 UNL     1      -0.894   1.690 -22.029  1.00  0.00     0.113 A 
HETATM   33  C12 UNL     1      -0.780   0.841 -23.187  1.00  0.00     0.045 A 
HETATM   34  N3  UNL     1       0.002   1.280 -21.360  1.00  0.00    -0.410 NA
HETATM   35  C13 UNL     1       0.317  -0.044 -23.017  1.00  0.00     0.006 A 
HETATM   36  C14 UNL     1       1.190  -0.022 -21.731  1.00  0.00     0.040 A 
HETATM   37  C15 UNL     1       0.918   0.827 -20.725  1.00  0.00     0.085 A 
HETATM   38  C16 UNL     1       0.539   1.809 -19.658  1.00  0.00     0.077 A 
HETATM   39  C17 UNL     1      -0.586   2.664 -19.876  1.00  0.00     0.049 A 
ENDBRANCH   6  31
TORSDOF 6
ENDMDL
