MODEL 1
REMARK VINA RESULT: -7.855820416      0.000      0.000
REMARK  10 active torsions:
REMARK  status: ('A' for Active; 'I' for Inactive)
REMARK    1  A    between atoms: C3_4  and  S1_5 
REMARK    2  A    between atoms: S1_5  and  S2_6 
REMARK    3  A    between atoms: S2_6  and  C4_7 
REMARK       I    between atoms: N3_11  and  C6_12 
REMARK    4  A    between atoms: C6_12  and  O3_14 
REMARK    5  A    between atoms: O3_14  and  S3_15 
REMARK    6  A    between atoms: C7_19  and  O7_20 
REMARK    7  A    between atoms: C7_19  and  N4_22 
REMARK    8  A    between atoms: N4_22  and  O8_23 
REMARK    9  A    between atoms: O8_23  and  C8_24 
REMARK       I    between atoms: C8_24  and  N5_26 
REMARK   10  A    between atoms: N5_26  and  N6_28 
ROOT
HETATM    1  C1  UNL     1      11.556  16.825  10.035  1.00  0.00     0.071 C 
HETATM    2  C2  UNL     1      12.522  15.730   9.629  1.00  0.00     0.263 C 
HETATM    3  O1  UNL     1      12.519  15.503   8.280  1.00  0.00    -0.338 OA
HETATM    4  C3  UNL     1      13.792  15.121   7.919  1.00  0.00     0.279 C 
HETATM    5  C7  UNL     1      14.498  15.003   9.247  1.00  0.00     0.305 C 
HETATM    6  O10 UNL     1      13.826  16.035   9.960  1.00  0.00    -0.307 OA
ENDROOT
BRANCH   4   7
HETATM    7  S1  UNL     1      13.799  13.709   6.871  1.00  0.00    -0.056 SA
BRANCH   7   8
HETATM    8  S2  UNL     1      14.484  13.951   4.923  1.00  0.00    -0.066 SA
BRANCH   8   9
HETATM    9  C4  UNL     1      15.886  12.958   4.471  1.00  0.00     0.199 C 
HETATM   10  C5  UNL     1      15.808  11.574   5.017  1.00  0.00     0.171 C 
HETATM   11  N1  UNL     1      15.674  10.677   3.908  1.00  0.00    -0.123 NA
HETATM   12  N2  UNL     1      15.610  11.420   2.731  1.00  0.00    -0.023 NA
HETATM   13  N3  UNL     1      15.997  12.720   3.053  1.00  0.00    -0.206 N 
HETATM   14  C6  UNL     1      16.440  13.668   2.108  1.00  0.00     0.397 C 
HETATM   15  O2  UNL     1      16.522  13.411   0.875  1.00  0.00    -0.236 OA
BRANCH  14  16
HETATM   16  O3  UNL     1      16.805  14.936   2.518  1.00  0.00    -0.157 OA
BRANCH  16  17
HETATM   17  S3  UNL     1      15.833  16.306   2.187  1.00  0.00     0.260 S 
HETATM   18  O4  UNL     1      15.656  17.145   3.418  1.00  0.00    -0.572 OA
HETATM   19  O5  UNL     1      16.521  17.100   1.093  1.00  0.00    -0.572 OA
HETATM   20  O6  UNL     1      14.324  15.785   1.674  1.00  0.00    -0.572 OA
ENDBRANCH  16  17
ENDBRANCH  14  16
ENDBRANCH   8   9
ENDBRANCH   7   8
ENDBRANCH   4   7
BRANCH   5  21
HETATM   21  O7  UNL     1      15.825  15.306   9.074  1.00  0.00    -0.348 OA
ATOM     22  H7  UNL     1      16.340  14.792   9.683  1.00  0.00     0.214 HD
ENDBRANCH   5  21
BRANCH   5  23
HETATM   23  N4  UNL     1      14.259  13.794   9.959  1.00  0.00    -0.017 NA
BRANCH  23  24
HETATM   24  O8  UNL     1      15.209  13.637  10.974  1.00  0.00    -0.182 OA
BRANCH  24  25
HETATM   25  C8  UNL     1      14.898  13.806  12.310  1.00  0.00     0.397 C 
HETATM   26  O9  UNL     1      13.806  14.345  12.586  1.00  0.00    -0.235 OA
HETATM   27  N5  UNL     1      15.792  13.382  13.355  1.00  0.00    -0.251 N 
ATOM     28  H5  UNL     1      16.679  12.943  13.111  1.00  0.00     0.191 HD
BRANCH  27  29
HETATM   29  N6  UNL     1      15.462  13.560  14.680  1.00  0.00    -0.341 N 
ATOM     30  H62 UNL     1      15.419  14.511  15.050  1.00  0.00     0.177 HD
ATOM     31  H61 UNL     1      15.264  12.760  15.281  1.00  0.00     0.177 HD
ENDBRANCH  27  29
ENDBRANCH  24  25
ENDBRANCH  23  24
ENDBRANCH   5  23
TORSDOF 10
ENDMDL
MODEL 2
REMARK VINA RESULT: -7.795494344      2.145      2.770
REMARK  10 active torsions:
REMARK  status: ('A' for Active; 'I' for Inactive)
REMARK    1  A    between atoms: C3_4  and  S1_5 
REMARK    2  A    between atoms: S1_5  and  S2_6 
REMARK    3  A    between atoms: S2_6  and  C4_7 
REMARK       I    between atoms: N3_11  and  C6_12 
REMARK    4  A    between atoms: C6_12  and  O3_14 
REMARK    5  A    between atoms: O3_14  and  S3_15 
REMARK    6  A    between atoms: C7_19  and  O7_20 
REMARK    7  A    between atoms: C7_19  and  N4_22 
REMARK    8  A    between atoms: N4_22  and  O8_23 
REMARK    9  A    between atoms: O8_23  and  C8_24 
REMARK       I    between atoms: C8_24  and  N5_26 
REMARK   10  A    between atoms: N5_26  and  N6_28 
ROOT
HETATM    1  C1  UNL     1      11.102  15.182   8.769  1.00  0.00     0.071 C 
HETATM    2  C2  UNL     1      12.484  14.560   8.748  1.00  0.00     0.263 C 
HETATM    3  O1  UNL     1      12.950  14.365   7.477  1.00  0.00    -0.338 OA
HETATM    4  C3  UNL     1      14.319  14.517   7.508  1.00  0.00     0.279 C 
HETATM    5  C7  UNL     1      14.608  14.672   8.980  1.00  0.00     0.305 C 
HETATM    6  O10 UNL     1      13.422  15.349   9.380  1.00  0.00    -0.307 OA
ENDROOT
BRANCH   4   7
HETATM    7  S1  UNL     1      15.159  13.234   6.649  1.00  0.00    -0.056 SA
BRANCH   7   8
HETATM    8  S2  UNL     1      14.058  12.076   5.319  1.00  0.00    -0.066 SA
BRANCH   8   9
HETATM    9  C4  UNL     1      13.310  12.955   3.969  1.00  0.00     0.199 C 
HETATM   10  C5  UNL     1      11.914  13.380   4.265  1.00  0.00     0.171 C 
HETATM   11  N1  UNL     1      11.896  14.812   4.315  1.00  0.00    -0.123 NA
HETATM   12  N2  UNL     1      13.193  15.286   4.124  1.00  0.00    -0.023 NA
HETATM   13  N3  UNL     1      13.952  14.211   3.665  1.00  0.00    -0.206 N 
HETATM   14  C6  UNL     1      15.183  14.344   2.991  1.00  0.00     0.397 C 
HETATM   15  O2  UNL     1      15.705  15.468   2.747  1.00  0.00    -0.236 OA
BRANCH  14  16
HETATM   16  O3  UNL     1      15.869  13.222   2.570  1.00  0.00    -0.157 OA
BRANCH  16  17
HETATM   17  S3  UNL     1      17.554  13.048   2.817  1.00  0.00     0.260 S 
HETATM   18  O4  UNL     1      17.989  13.764   4.063  1.00  0.00    -0.572 OA
HETATM   19  O5  UNL     1      17.849  11.564   2.923  1.00  0.00    -0.572 OA
HETATM   20  O6  UNL     1      18.362  13.716   1.508  1.00  0.00    -0.572 OA
ENDBRANCH  16  17
ENDBRANCH  14  16
ENDBRANCH   8   9
ENDBRANCH   7   8
ENDBRANCH   4   7
BRANCH   5  21
HETATM   21  O7  UNL     1      15.711  15.474   9.135  1.00  0.00    -0.348 OA
ATOM     22  H7  UNL     1      15.984  15.450  10.044  1.00  0.00     0.214 HD
ENDBRANCH   5  21
BRANCH   5  23
HETATM   23  N4  UNL     1      14.654  13.459   9.723  1.00  0.00    -0.017 NA
BRANCH  23  24
HETATM   24  O8  UNL     1      15.545  13.584  10.795  1.00  0.00    -0.182 OA
BRANCH  24  25
HETATM   25  C8  UNL     1      15.114  13.768  12.095  1.00  0.00     0.397 C 
HETATM   26  O9  UNL     1      14.008  14.322  12.266  1.00  0.00    -0.235 OA
HETATM   27  N5  UNL     1      15.903  13.342  13.221  1.00  0.00    -0.251 N 
ATOM     28  H5  UNL     1      16.804  12.891  13.063  1.00  0.00     0.191 HD
BRANCH  27  29
HETATM   29  N6  UNL     1      15.455  13.535  14.509  1.00  0.00    -0.341 N 
ATOM     30  H62 UNL     1      15.205  12.719  15.068  1.00  0.00     0.177 HD
ATOM     31  H61 UNL     1      15.373  14.475  14.897  1.00  0.00     0.177 HD
ENDBRANCH  27  29
ENDBRANCH  24  25
ENDBRANCH  23  24
ENDBRANCH   5  23
TORSDOF 10
ENDMDL
MODEL 3
REMARK VINA RESULT: -7.691239524      1.133      1.505
REMARK  10 active torsions:
REMARK  status: ('A' for Active; 'I' for Inactive)
REMARK    1  A    between atoms: C3_4  and  S1_5 
REMARK    2  A    between atoms: S1_5  and  S2_6 
REMARK    3  A    between atoms: S2_6  and  C4_7 
REMARK       I    between atoms: N3_11  and  C6_12 
REMARK    4  A    between atoms: C6_12  and  O3_14 
REMARK    5  A    between atoms: O3_14  and  S3_15 
REMARK    6  A    between atoms: C7_19  and  O7_20 
REMARK    7  A    between atoms: C7_19  and  N4_22 
REMARK    8  A    between atoms: N4_22  and  O8_23 
REMARK    9  A    between atoms: O8_23  and  C8_24 
REMARK       I    between atoms: C8_24  and  N5_26 
REMARK   10  A    between atoms: N5_26  and  N6_28 
ROOT
HETATM    1  C1  UNL     1      11.389  15.604  10.840  1.00  0.00     0.071 C 
HETATM    2  C2  UNL     1      12.553  14.893  10.180  1.00  0.00     0.263 C 
HETATM    3  O1  UNL     1      12.414  14.811   8.821  1.00  0.00    -0.338 OA
HETATM    4  C3  UNL     1      13.676  14.863   8.270  1.00  0.00     0.279 C 
HETATM    5  C7  UNL     1      14.574  14.827   9.480  1.00  0.00     0.305 C 
HETATM    6  O10 UNL     1      13.753  15.536  10.402  1.00  0.00    -0.307 OA
ENDROOT
BRANCH   4   7
HETATM    7  S1  UNL     1      13.924  13.630   7.041  1.00  0.00    -0.056 SA
BRANCH   7   8
HETATM    8  S2  UNL     1      14.388  14.260   5.115  1.00  0.00    -0.066 SA
BRANCH   8   9
HETATM    9  C4  UNL     1      15.631  13.311   4.274  1.00  0.00     0.199 C 
HETATM   10  C5  UNL     1      16.083  12.131   5.062  1.00  0.00     0.171 C 
HETATM   11  N1  UNL     1      15.675  10.954   4.354  1.00  0.00    -0.123 NA
HETATM   12  N2  UNL     1      14.959  11.334   3.220  1.00  0.00    -0.023 NA
HETATM   13  N3  UNL     1      15.169  12.702   3.050  1.00  0.00    -0.206 N 
HETATM   14  C6  UNL     1      14.956  13.388   1.837  1.00  0.00     0.397 C 
HETATM   15  O2  UNL     1      14.551  12.809   0.791  1.00  0.00    -0.236 OA
BRANCH  14  16
HETATM   16  O3  UNL     1      15.190  14.747   1.759  1.00  0.00    -0.157 OA
BRANCH  16  17
HETATM   17  S3  UNL     1      16.569  15.381   0.967  1.00  0.00     0.260 S 
HETATM   18  O4  UNL     1      17.820  14.704   1.445  1.00  0.00    -0.572 OA
HETATM   19  O5  UNL     1      16.379  15.164  -0.522  1.00  0.00    -0.572 OA
HETATM   20  O6  UNL     1      16.683  17.019   1.312  1.00  0.00    -0.572 OA
ENDBRANCH  16  17
ENDBRANCH  14  16
ENDBRANCH   8   9
ENDBRANCH   7   8
ENDBRANCH   4   7
BRANCH   5  21
HETATM   21  O7  UNL     1      15.722  15.526   9.204  1.00  0.00    -0.348 OA
ATOM     22  H7  UNL     1      16.472  14.982   9.411  1.00  0.00     0.214 HD
ENDBRANCH   5  21
BRANCH   5  23
HETATM   23  N4  UNL     1      14.793  13.536  10.040  1.00  0.00    -0.017 NA
BRANCH  23  24
HETATM   24  O8  UNL     1      15.844  13.582  10.962  1.00  0.00    -0.182 OA
BRANCH  24  25
HETATM   25  C8  UNL     1      15.699  13.155  12.269  1.00  0.00     0.397 C 
HETATM   26  O9  UNL     1      15.972  11.962  12.521  1.00  0.00    -0.235 OA
HETATM   27  N5  UNL     1      15.250  14.041  13.309  1.00  0.00    -0.251 N 
ATOM     28  H5  UNL     1      15.032  15.012  13.085  1.00  0.00     0.191 HD
BRANCH  27  29
HETATM   29  N6  UNL     1      15.112  13.594  14.605  1.00  0.00    -0.341 N 
ATOM     30  H62 UNL     1      14.184  13.602  15.029  1.00  0.00     0.177 HD
ATOM     31  H61 UNL     1      15.921  13.261  15.131  1.00  0.00     0.177 HD
ENDBRANCH  27  29
ENDBRANCH  24  25
ENDBRANCH  23  24
ENDBRANCH   5  23
TORSDOF 10
ENDMDL
MODEL 4
REMARK VINA RESULT: -7.629916527      2.247      3.108
REMARK  10 active torsions:
REMARK  status: ('A' for Active; 'I' for Inactive)
REMARK    1  A    between atoms: C3_4  and  S1_5 
REMARK    2  A    between atoms: S1_5  and  S2_6 
REMARK    3  A    between atoms: S2_6  and  C4_7 
REMARK       I    between atoms: N3_11  and  C6_12 
REMARK    4  A    between atoms: C6_12  and  O3_14 
REMARK    5  A    between atoms: O3_14  and  S3_15 
REMARK    6  A    between atoms: C7_19  and  O7_20 
REMARK    7  A    between atoms: C7_19  and  N4_22 
REMARK    8  A    between atoms: N4_22  and  O8_23 
REMARK    9  A    between atoms: O8_23  and  C8_24 
REMARK       I    between atoms: C8_24  and  N5_26 
REMARK   10  A    between atoms: N5_26  and  N6_28 
ROOT
HETATM    1  C1  UNL     1      11.504  16.484   9.404  1.00  0.00     0.071 C 
HETATM    2  C2  UNL     1      12.621  15.477   9.212  1.00  0.00     0.263 C 
HETATM    3  O1  UNL     1      12.871  15.218   7.892  1.00  0.00    -0.338 OA
HETATM    4  C3  UNL     1      14.216  14.950   7.768  1.00  0.00     0.279 C 
HETATM    5  C7  UNL     1      14.690  14.932   9.199  1.00  0.00     0.305 C 
HETATM    6  O10 UNL     1      13.816  15.913   9.747  1.00  0.00    -0.307 OA
ENDROOT
BRANCH   4   7
HETATM    7  S1  UNL     1      14.530  13.521   6.793  1.00  0.00    -0.056 SA
BRANCH   7   8
HETATM    8  S2  UNL     1      13.094  12.964   5.398  1.00  0.00    -0.066 SA
BRANCH   8   9
HETATM    9  C4  UNL     1      12.790  14.134   4.097  1.00  0.00     0.199 C 
HETATM   10  C5  UNL     1      11.835  15.203   4.499  1.00  0.00     0.171 C 
HETATM   11  N1  UNL     1      12.554  16.443   4.518  1.00  0.00    -0.123 NA
HETATM   12  N2  UNL     1      13.891  16.194   4.210  1.00  0.00    -0.023 NA
HETATM   13  N3  UNL     1      13.954  14.894   3.713  1.00  0.00    -0.206 N 
HETATM   14  C6  UNL     1      15.021  14.397   2.936  1.00  0.00     0.397 C 
HETATM   15  O2  UNL     1      16.021  15.103   2.625  1.00  0.00    -0.236 OA
BRANCH  14  16
HETATM   16  O3  UNL     1      15.002  13.092   2.485  1.00  0.00    -0.157 OA
BRANCH  16  17
HETATM   17  S3  UNL     1      16.070  11.907   3.103  1.00  0.00     0.260 S 
HETATM   18  O4  UNL     1      15.310  10.732   3.646  1.00  0.00    -0.572 OA
HETATM   19  O5  UNL     1      16.980  11.476   1.969  1.00  0.00    -0.572 OA
HETATM   20  O6  UNL     1      16.965  12.585   4.349  1.00  0.00    -0.572 OA
ENDBRANCH  16  17
ENDBRANCH  14  16
ENDBRANCH   8   9
ENDBRANCH   7   8
ENDBRANCH   4   7
BRANCH   5  21
HETATM   21  O7  UNL     1      15.994  15.356   9.241  1.00  0.00    -0.348 OA
ATOM     22  H7  UNL     1      16.313  15.463   8.353  1.00  0.00     0.214 HD
ENDBRANCH   5  21
BRANCH   5  23
HETATM   23  N4  UNL     1      14.441  13.723   9.909  1.00  0.00    -0.017 NA
BRANCH  23  24
HETATM   24  O8  UNL     1      15.347  13.590  10.967  1.00  0.00    -0.182 OA
BRANCH  24  25
HETATM   25  C8  UNL     1      14.979  13.787  12.284  1.00  0.00     0.397 C 
HETATM   26  O9  UNL     1      13.885  14.350  12.501  1.00  0.00    -0.235 OA
HETATM   27  N5  UNL     1      15.816  13.366  13.375  1.00  0.00    -0.251 N 
ATOM     28  H5  UNL     1      16.706  12.908  13.179  1.00  0.00     0.191 HD
BRANCH  27  29
HETATM   29  N6  UNL     1      15.430  13.573  14.681  1.00  0.00    -0.341 N 
ATOM     30  H62 UNL     1      14.670  14.227  14.868  1.00  0.00     0.177 HD
ATOM     31  H61 UNL     1      15.893  13.082  15.446  1.00  0.00     0.177 HD
ENDBRANCH  27  29
ENDBRANCH  24  25
ENDBRANCH  23  24
ENDBRANCH   5  23
TORSDOF 10
ENDMDL
MODEL 5
REMARK VINA RESULT: -7.526644472      3.417      8.227
REMARK  10 active torsions:
REMARK  status: ('A' for Active; 'I' for Inactive)
REMARK    1  A    between atoms: C3_4  and  S1_5 
REMARK    2  A    between atoms: S1_5  and  S2_6 
REMARK    3  A    between atoms: S2_6  and  C4_7 
REMARK       I    between atoms: N3_11  and  C6_12 
REMARK    4  A    between atoms: C6_12  and  O3_14 
REMARK    5  A    between atoms: O3_14  and  S3_15 
REMARK    6  A    between atoms: C7_19  and  O7_20 
REMARK    7  A    between atoms: C7_19  and  N4_22 
REMARK    8  A    between atoms: N4_22  and  O8_23 
REMARK    9  A    between atoms: O8_23  and  C8_24 
REMARK       I    between atoms: C8_24  and  N5_26 
REMARK   10  A    between atoms: N5_26  and  N6_28 
ROOT
HETATM    1  C1  UNL     1      14.767  11.425   4.339  1.00  0.00     0.071 C 
HETATM    2  C2  UNL     1      14.230  12.746   4.853  1.00  0.00     0.263 C 
HETATM    3  O1  UNL     1      13.375  12.588   5.909  1.00  0.00    -0.338 OA
HETATM    4  C3  UNL     1      13.517  13.687   6.727  1.00  0.00     0.279 C 
HETATM    5  C7  UNL     1      14.444  14.577   5.939  1.00  0.00     0.305 C 
HETATM    6  O10 UNL     1      15.233  13.582   5.297  1.00  0.00    -0.307 OA
ENDROOT
BRANCH   4   7
HETATM    7  S1  UNL     1      11.971  14.363   7.220  1.00  0.00    -0.056 SA
BRANCH   7   8
HETATM    8  S2  UNL     1      11.951  16.313   7.941  1.00  0.00    -0.066 SA
BRANCH   8   9
HETATM    9  C4  UNL     1      11.112  16.553   9.488  1.00  0.00     0.199 C 
HETATM   10  C5  UNL     1       9.705  17.010   9.313  1.00  0.00     0.171 C 
HETATM   11  N1  UNL     1       8.847  15.966   9.789  1.00  0.00    -0.123 NA
HETATM   12  N2  UNL     1       9.630  14.885  10.190  1.00  0.00    -0.023 NA
HETATM   13  N3  UNL     1      10.945  15.342  10.254  1.00  0.00    -0.206 N 
HETATM   14  C6  UNL     1      11.969  14.697  10.978  1.00  0.00     0.397 C 
HETATM   15  O2  UNL     1      11.774  13.637  11.634  1.00  0.00    -0.236 OA
BRANCH  14  16
HETATM   16  O3  UNL     1      13.248  15.222  10.986  1.00  0.00    -0.157 OA
BRANCH  16  17
HETATM   17  S3  UNL     1      14.611  14.283  10.550  1.00  0.00     0.260 S 
HETATM   18  O4  UNL     1      15.537  15.064   9.663  1.00  0.00    -0.572 OA
HETATM   19  O5  UNL     1      15.314  13.877  11.831  1.00  0.00    -0.572 OA
HETATM   20  O6  UNL     1      14.087  12.928   9.713  1.00  0.00    -0.572 OA
ENDBRANCH  16  17
ENDBRANCH  14  16
ENDBRANCH   8   9
ENDBRANCH   7   8
ENDBRANCH   4   7
BRANCH   5  21
HETATM   21  O7  UNL     1      15.200  15.318   6.812  1.00  0.00    -0.348 OA
ATOM     22  H7  UNL     1      15.935  15.693   6.342  1.00  0.00     0.214 HD
ENDBRANCH   5  21
BRANCH   5  23
HETATM   23  N4  UNL     1      13.827  15.337   4.905  1.00  0.00    -0.017 NA
BRANCH  23  24
HETATM   24  O8  UNL     1      14.517  16.539   4.713  1.00  0.00    -0.182 OA
BRANCH  24  25
HETATM   25  C8  UNL     1      15.278  16.782   3.585  1.00  0.00     0.397 C 
HETATM   26  O9  UNL     1      15.006  17.798   2.912  1.00  0.00    -0.235 OA
HETATM   27  N5  UNL     1      16.347  15.904   3.190  1.00  0.00    -0.251 N 
ATOM     28  H5  UNL     1      16.555  15.079   3.752  1.00  0.00     0.191 HD
BRANCH  27  29
HETATM   29  N6  UNL     1      17.092  16.165   2.061  1.00  0.00    -0.341 N 
ATOM     30  H62 UNL     1      17.268  17.137   1.805  1.00  0.00     0.177 HD
ATOM     31  H61 UNL     1      17.462  15.403   1.492  1.00  0.00     0.177 HD
ENDBRANCH  27  29
ENDBRANCH  24  25
ENDBRANCH  23  24
ENDBRANCH   5  23
TORSDOF 10
ENDMDL
