MODEL 1
REMARK VINA RESULT: -8.864164568      0.000      0.000
REMARK  9 active torsions:
REMARK  status: ('A' for Active; 'I' for Inactive)
REMARK    1  A    between atoms: C2_2  and  C3_3 
REMARK    2  A    between atoms: C5_5  and  C6_6 
REMARK    3  A    between atoms: C7_7  and  C8_8 
REMARK    4  A    between atoms: C10_10  and  O1_11 
REMARK    5  A    between atoms: C12_14  and  C14_16 
REMARK    6  A    between atoms: C14_16  and  O3_18 
REMARK    7  A    between atoms: O3_18  and  C15_19 
REMARK    8  A    between atoms: C15_19  and  C16_20 
REMARK    9  A    between atoms: C29_35  and  O6_36 
ROOT
HETATM    1  C8  UNL     1      15.467  22.738   6.159  1.00  0.00     0.012 C 
HETATM    2  C9  UNL     1      16.002  23.631   5.096  1.00  0.00     0.023 C 
HETATM    3  C10 UNL     1      16.333  22.863   7.391  1.00  0.00     0.132 C 
HETATM    4  C11 UNL     1      17.718  22.383   7.082  1.00  0.00     0.052 C 
HETATM    5  C12 UNL     1      17.754  20.896   6.725  1.00  0.00     0.053 C 
HETATM    6  C13 UNL     1      19.170  20.796   6.095  1.00  0.00     0.026 C 
HETATM    7  C20 UNL     1      16.796  20.645   5.656  1.00  0.00     0.040 C 
HETATM    8  C21 UNL     1      16.759  19.317   4.971  1.00  0.00     0.071 C 
HETATM    9  C22 UNL     1      17.166  18.138   5.718  1.00  0.00    -0.010 C 
HETATM   10  C23 UNL     1      17.848  17.120   5.209  1.00  0.00    -0.025 C 
HETATM   11  C24 UNL     1      18.289  17.046   3.792  1.00  0.00     0.004 C 
HETATM   12  C25 UNL     1      19.745  17.408   3.613  1.00  0.00     0.014 C 
HETATM   13  C26 UNL     1      17.488  18.030   2.941  1.00  0.00     0.009 C 
HETATM   14  C27 UNL     1      17.578  19.334   3.668  1.00  0.00     0.025 C 
HETATM   15  C28 UNL     1      15.369  18.989   4.453  1.00  0.00     0.274 C 
HETATM   16  O4  UNL     1      14.873  17.825   4.557  1.00  0.00    -0.264 OA
HETATM   17  O5  UNL     1      14.663  19.996   3.863  1.00  0.00    -0.288 OA
HETATM   18  C29 UNL     1      14.855  21.303   4.354  1.00  0.00     0.276 C 
HETATM   19  C30 UNL     1      15.410  21.271   5.795  1.00  0.00     0.026 C 
HETATM   20  C31 UNL     1      14.486  20.567   6.708  1.00  0.00     0.022 C 
ENDROOT
BRANCH   5  21
HETATM   21  C14 UNL     1      17.761  20.158   7.967  1.00  0.00     0.268 C 
HETATM   22  O2  UNL     1      16.789  20.143   8.750  1.00  0.00    -0.264 OA
BRANCH  21  23
HETATM   23  O3  UNL     1      18.854  19.423   8.362  1.00  0.00    -0.317 OA
BRANCH  23  24
HETATM   24  C15 UNL     1      19.684  19.576   9.456  1.00  0.00     0.206 C 
BRANCH  24  25
HETATM   25  C16 UNL     1      20.395  20.859   9.565  1.00  0.00     0.002 C 
HETATM   26  C17 UNL     1      20.794  21.376  10.718  1.00  0.00    -0.089 C 
HETATM   27  C18 UNL     1      20.549  20.691  12.008  1.00  0.00     0.042 C 
HETATM   28  C19 UNL     1      21.513  22.677  10.779  1.00  0.00     0.042 C 
ENDBRANCH  24  25
ENDBRANCH  23  24
ENDBRANCH  21  23
ENDBRANCH   5  21
BRANCH   3  29
HETATM   29  O1  UNL     1      16.425  24.221   7.693  1.00  0.00    -0.394 OA
ATOM     30  H1  UNL     1      17.342  24.412   7.848  1.00  0.00     0.210 HD
ENDBRANCH   3  29
BRANCH   1  31
HETATM   31  C7  UNL     1      14.112  23.201   6.496  1.00  0.00    -0.014 C 
HETATM   32  C6  UNL     1      13.921  24.444   6.900  1.00  0.00    -0.003 C 
BRANCH  32  33
HETATM   33  C5  UNL     1      12.584  24.930   7.240  1.00  0.00     0.006 C 
HETATM   34  C3  UNL     1      11.813  25.636   6.438  1.00  0.00    -0.063 C 
HETATM   35  C4  UNL     1      12.160  26.060   5.066  1.00  0.00     0.048 C 
BRANCH  34  36
HETATM   36  C2  UNL     1      10.495  26.038   6.951  1.00  0.00    -0.004 C 
HETATM   37  C1  UNL     1      10.343  26.421   8.180  1.00  0.00     0.012 C 
ENDBRANCH  34  36
ENDBRANCH  32  33
ENDBRANCH   1  31
BRANCH  18  38
HETATM   38  O6  UNL     1      13.634  21.949   4.318  1.00  0.00    -0.370 OA
ATOM     39  H6  UNL     1      13.683  22.693   4.907  1.00  0.00     0.212 HD
ENDBRANCH  18  38
TORSDOF 9
ENDMDL
MODEL 2
REMARK VINA RESULT: -8.740955050      1.523      2.171
REMARK  9 active torsions:
REMARK  status: ('A' for Active; 'I' for Inactive)
REMARK    1  A    between atoms: C2_2  and  C3_3 
REMARK    2  A    between atoms: C5_5  and  C6_6 
REMARK    3  A    between atoms: C7_7  and  C8_8 
REMARK    4  A    between atoms: C10_10  and  O1_11 
REMARK    5  A    between atoms: C12_14  and  C14_16 
REMARK    6  A    between atoms: C14_16  and  O3_18 
REMARK    7  A    between atoms: O3_18  and  C15_19 
REMARK    8  A    between atoms: C15_19  and  C16_20 
REMARK    9  A    between atoms: C29_35  and  O6_36 
ROOT
HETATM    1  C8  UNL     1      15.697  22.633   6.610  1.00  0.00     0.012 C 
HETATM    2  C9  UNL     1      16.212  23.604   5.607  1.00  0.00     0.023 C 
HETATM    3  C10 UNL     1      16.624  22.619   7.803  1.00  0.00     0.132 C 
HETATM    4  C11 UNL     1      17.975  22.129   7.384  1.00  0.00     0.052 C 
HETATM    5  C12 UNL     1      17.943  20.680   6.893  1.00  0.00     0.053 C 
HETATM    6  C13 UNL     1      19.324  20.596   6.186  1.00  0.00     0.026 C 
HETATM    7  C20 UNL     1      16.928  20.557   5.855  1.00  0.00     0.040 C 
HETATM    8  C21 UNL     1      16.814  19.300   5.054  1.00  0.00     0.071 C 
HETATM    9  C22 UNL     1      17.215  18.046   5.671  1.00  0.00    -0.010 C 
HETATM   10  C23 UNL     1      17.837  17.059   5.039  1.00  0.00    -0.025 C 
HETATM   11  C24 UNL     1      18.208  17.102   3.600  1.00  0.00     0.004 C 
HETATM   12  C25 UNL     1      19.666  17.436   3.383  1.00  0.00     0.014 C 
HETATM   13  C26 UNL     1      17.403  18.184   2.883  1.00  0.00     0.009 C 
HETATM   14  C27 UNL     1      17.572  19.412   3.719  1.00  0.00     0.025 C 
HETATM   15  C28 UNL     1      15.391  19.062   4.578  1.00  0.00     0.274 C 
HETATM   16  O4  UNL     1      14.861  17.909   4.602  1.00  0.00    -0.264 OA
HETATM   17  O5  UNL     1      14.693  20.140   4.118  1.00  0.00    -0.288 OA
HETATM   18  C29 UNL     1      14.952  21.390   4.715  1.00  0.00     0.276 C 
HETATM   19  C30 UNL     1      15.573  21.208   6.118  1.00  0.00     0.026 C 
HETATM   20  C31 UNL     1      14.669  20.452   7.009  1.00  0.00     0.022 C 
ENDROOT
BRANCH   5  21
HETATM   21  C14 UNL     1      17.983  19.831   8.061  1.00  0.00     0.268 C 
HETATM   22  O2  UNL     1      18.823  18.918   8.204  1.00  0.00    -0.264 OA
BRANCH  21  23
HETATM   23  O3  UNL     1      17.086  19.981   9.092  1.00  0.00    -0.317 OA
BRANCH  23  24
HETATM   24  C15 UNL     1      17.213  19.679  10.435  1.00  0.00     0.206 C 
BRANCH  24  25
HETATM   25  C16 UNL     1      16.265  18.693  10.976  1.00  0.00     0.002 C 
HETATM   26  C17 UNL     1      16.591  17.435  11.238  1.00  0.00    -0.089 C 
HETATM   27  C18 UNL     1      17.957  16.916  10.998  1.00  0.00     0.042 C 
HETATM   28  C19 UNL     1      15.598  16.473  11.787  1.00  0.00     0.042 C 
ENDBRANCH  24  25
ENDBRANCH  23  24
ENDBRANCH  21  23
ENDBRANCH   5  21
BRANCH   3  29
HETATM   29  O1  UNL     1      16.775  23.940   8.222  1.00  0.00    -0.394 OA
ATOM     30  H1  UNL     1      16.639  24.493   7.462  1.00  0.00     0.210 HD
ENDBRANCH   3  29
BRANCH   1  31
HETATM   31  C7  UNL     1      14.376  23.104   7.054  1.00  0.00    -0.014 C 
HETATM   32  C6  UNL     1      14.035  24.369   6.885  1.00  0.00    -0.003 C 
BRANCH  32  33
HETATM   33  C5  UNL     1      12.727  24.862   7.317  1.00  0.00     0.006 C 
HETATM   34  C3  UNL     1      11.903  25.568   6.568  1.00  0.00    -0.063 C 
HETATM   35  C4  UNL     1      12.154  25.983   5.172  1.00  0.00     0.048 C 
BRANCH  34  36
HETATM   36  C2  UNL     1      10.627  25.978   7.171  1.00  0.00    -0.004 C 
HETATM   37  C1  UNL     1      10.540  26.248   8.436  1.00  0.00     0.012 C 
ENDBRANCH  34  36
ENDBRANCH  32  33
ENDBRANCH   1  31
BRANCH  18  38
HETATM   38  O6  UNL     1      13.754  22.072   4.798  1.00  0.00    -0.370 OA
ATOM     39  H6  UNL     1      13.940  22.997   4.686  1.00  0.00     0.212 HD
ENDBRANCH  18  38
TORSDOF 9
ENDMDL
MODEL 3
REMARK VINA RESULT: -8.691791000      1.229      1.512
REMARK  9 active torsions:
REMARK  status: ('A' for Active; 'I' for Inactive)
REMARK    1  A    between atoms: C2_2  and  C3_3 
REMARK    2  A    between atoms: C5_5  and  C6_6 
REMARK    3  A    between atoms: C7_7  and  C8_8 
REMARK    4  A    between atoms: C10_10  and  O1_11 
REMARK    5  A    between atoms: C12_14  and  C14_16 
REMARK    6  A    between atoms: C14_16  and  O3_18 
REMARK    7  A    between atoms: O3_18  and  C15_19 
REMARK    8  A    between atoms: C15_19  and  C16_20 
REMARK    9  A    between atoms: C29_35  and  O6_36 
ROOT
HETATM    1  C8  UNL     1      15.659  22.651   6.493  1.00  0.00     0.012 C 
HETATM    2  C9  UNL     1      16.201  23.605   5.489  1.00  0.00     0.023 C 
HETATM    3  C10 UNL     1      16.549  22.662   7.715  1.00  0.00     0.132 C 
HETATM    4  C11 UNL     1      17.914  22.168   7.346  1.00  0.00     0.052 C 
HETATM    5  C12 UNL     1      17.901  20.711   6.880  1.00  0.00     0.053 C 
HETATM    6  C13 UNL     1      19.303  20.619   6.217  1.00  0.00     0.026 C 
HETATM    7  C20 UNL     1      16.918  20.565   5.814  1.00  0.00     0.040 C 
HETATM    8  C21 UNL     1      16.832  19.293   5.034  1.00  0.00     0.071 C 
HETATM    9  C22 UNL     1      17.218  18.052   5.685  1.00  0.00    -0.010 C 
HETATM   10  C23 UNL     1      17.861  17.056   5.090  1.00  0.00    -0.025 C 
HETATM   11  C24 UNL     1      18.276  17.074   3.663  1.00  0.00     0.004 C 
HETATM   12  C25 UNL     1      19.739  17.409   3.483  1.00  0.00     0.014 C 
HETATM   13  C26 UNL     1      17.490  18.140   2.902  1.00  0.00     0.009 C 
HETATM   14  C27 UNL     1      17.629  19.384   3.720  1.00  0.00     0.025 C 
HETATM   15  C28 UNL     1      15.425  19.042   4.520  1.00  0.00     0.274 C 
HETATM   16  O4  UNL     1      14.898  17.888   4.548  1.00  0.00    -0.264 OA
HETATM   17  O5  UNL     1      14.738  20.109   4.019  1.00  0.00    -0.288 OA
HETATM   18  C29 UNL     1      14.975  21.370   4.601  1.00  0.00     0.276 C 
HETATM   19  C30 UNL     1      15.554  21.217   6.024  1.00  0.00     0.026 C 
HETATM   20  C31 UNL     1      14.625  20.474   6.901  1.00  0.00     0.022 C 
ENDROOT
BRANCH   5  21
HETATM   21  C14 UNL     1      17.908  19.883   8.064  1.00  0.00     0.268 C 
HETATM   22  O2  UNL     1      18.705  18.935   8.220  1.00  0.00    -0.264 OA
BRANCH  21  23
HETATM   23  O3  UNL     1      17.026  20.096   9.097  1.00  0.00    -0.317 OA
BRANCH  23  24
HETATM   24  C15 UNL     1      16.908  19.453  10.315  1.00  0.00     0.206 C 
BRANCH  24  25
HETATM   25  C16 UNL     1      17.795  19.919  11.391  1.00  0.00     0.002 C 
HETATM   26  C17 UNL     1      18.204  19.144  12.385  1.00  0.00    -0.089 C 
HETATM   27  C18 UNL     1      17.790  17.726  12.492  1.00  0.00     0.042 C 
HETATM   28  C19 UNL     1      19.104  19.659  13.452  1.00  0.00     0.042 C 
ENDBRANCH  24  25
ENDBRANCH  23  24
ENDBRANCH  21  23
ENDBRANCH   5  21
BRANCH   3  29
HETATM   29  O1  UNL     1      16.684  23.990   8.114  1.00  0.00    -0.394 OA
ATOM     30  H1  UNL     1      16.496  24.024   9.044  1.00  0.00     0.210 HD
ENDBRANCH   3  29
BRANCH   1  31
HETATM   31  C7  UNL     1      14.323  23.124   6.889  1.00  0.00    -0.014 C 
HETATM   32  C6  UNL     1      14.066  24.420   6.924  1.00  0.00    -0.003 C 
BRANCH  32  33
HETATM   33  C5  UNL     1      12.747  24.917   7.313  1.00  0.00     0.006 C 
HETATM   34  C3  UNL     1      11.934  25.592   6.525  1.00  0.00    -0.063 C 
HETATM   35  C4  UNL     1      12.209  25.962   5.121  1.00  0.00     0.048 C 
BRANCH  34  36
HETATM   36  C2  UNL     1      10.643  26.012   7.088  1.00  0.00    -0.004 C 
HETATM   37  C1  UNL     1      10.516  26.270   8.352  1.00  0.00     0.012 C 
ENDBRANCH  34  36
ENDBRANCH  32  33
ENDBRANCH   1  31
BRANCH  18  38
HETATM   38  O6  UNL     1      13.773  22.050   4.635  1.00  0.00    -0.370 OA
ATOM     39  H6  UNL     1      13.290  21.745   5.394  1.00  0.00     0.212 HD
ENDBRANCH  18  38
TORSDOF 9
ENDMDL
MODEL 4
REMARK VINA RESULT: -8.601407205      1.434      2.276
REMARK  9 active torsions:
REMARK  status: ('A' for Active; 'I' for Inactive)
REMARK    1  A    between atoms: C2_2  and  C3_3 
REMARK    2  A    between atoms: C5_5  and  C6_6 
REMARK    3  A    between atoms: C7_7  and  C8_8 
REMARK    4  A    between atoms: C10_10  and  O1_11 
REMARK    5  A    between atoms: C12_14  and  C14_16 
REMARK    6  A    between atoms: C14_16  and  O3_18 
REMARK    7  A    between atoms: O3_18  and  C15_19 
REMARK    8  A    between atoms: C15_19  and  C16_20 
REMARK    9  A    between atoms: C29_35  and  O6_36 
ROOT
HETATM    1  C8  UNL     1      15.678  22.664   6.619  1.00  0.00     0.012 C 
HETATM    2  C9  UNL     1      16.211  23.637   5.628  1.00  0.00     0.023 C 
HETATM    3  C10 UNL     1      16.589  22.637   7.824  1.00  0.00     0.132 C 
HETATM    4  C11 UNL     1      17.943  22.141   7.419  1.00  0.00     0.052 C 
HETATM    5  C12 UNL     1      17.908  20.695   6.919  1.00  0.00     0.053 C 
HETATM    6  C13 UNL     1      19.298  20.607   6.230  1.00  0.00     0.026 C 
HETATM    7  C20 UNL     1      16.906  20.584   5.867  1.00  0.00     0.040 C 
HETATM    8  C21 UNL     1      16.794  19.332   5.058  1.00  0.00     0.071 C 
HETATM    9  C22 UNL     1      17.180  18.072   5.673  1.00  0.00    -0.010 C 
HETATM   10  C23 UNL     1      17.804  17.085   5.043  1.00  0.00    -0.025 C 
HETATM   11  C24 UNL     1      18.193  17.134   3.609  1.00  0.00     0.004 C 
HETATM   12  C25 UNL     1      19.656  17.460   3.412  1.00  0.00     0.014 C 
HETATM   13  C26 UNL     1      17.404  18.225   2.889  1.00  0.00     0.009 C 
HETATM   14  C27 UNL     1      17.569  19.447   3.734  1.00  0.00     0.025 C 
HETATM   15  C28 UNL     1      15.376  19.106   4.563  1.00  0.00     0.274 C 
HETATM   16  O4  UNL     1      14.839  17.957   4.573  1.00  0.00    -0.264 OA
HETATM   17  O5  UNL     1      14.690  20.191   4.101  1.00  0.00    -0.288 OA
HETATM   18  C29 UNL     1      14.950  21.436   4.708  1.00  0.00     0.276 C 
HETATM   19  C30 UNL     1      15.552  21.243   6.117  1.00  0.00     0.026 C 
HETATM   20  C31 UNL     1      14.632  20.487   6.992  1.00  0.00     0.022 C 
ENDROOT
BRANCH   5  21
HETATM   21  C14 UNL     1      17.928  19.839   8.083  1.00  0.00     0.268 C 
HETATM   22  O2  UNL     1      17.052  19.886   8.971  1.00  0.00    -0.264 OA
BRANCH  21  23
HETATM   23  O3  UNL     1      18.928  18.915   8.280  1.00  0.00    -0.317 OA
BRANCH  23  24
HETATM   24  C15 UNL     1      19.035  17.904   9.216  1.00  0.00     0.206 C 
BRANCH  24  25
HETATM   25  C16 UNL     1      18.747  16.541   8.744  1.00  0.00     0.002 C 
HETATM   26  C17 UNL     1      19.528  15.882   7.900  1.00  0.00    -0.089 C 
HETATM   27  C18 UNL     1      20.771  16.478   7.358  1.00  0.00     0.042 C 
HETATM   28  C19 UNL     1      19.198  14.503   7.451  1.00  0.00     0.042 C 
ENDBRANCH  24  25
ENDBRANCH  23  24
ENDBRANCH  21  23
ENDBRANCH   5  21
BRANCH   3  29
HETATM   29  O1  UNL     1      16.744  23.955   8.252  1.00  0.00    -0.394 OA
ATOM     30  H1  UNL     1      17.524  23.984   8.793  1.00  0.00     0.210 HD
ENDBRANCH   3  29
BRANCH   1  31
HETATM   31  C7  UNL     1      14.354  23.140   7.049  1.00  0.00    -0.014 C 
HETATM   32  C6  UNL     1      14.016  24.404   6.866  1.00  0.00    -0.003 C 
BRANCH  32  33
HETATM   33  C5  UNL     1      12.706  24.903   7.284  1.00  0.00     0.006 C 
HETATM   34  C3  UNL     1      11.890  25.606   6.523  1.00  0.00    -0.063 C 
HETATM   35  C4  UNL     1      12.154  26.013   5.128  1.00  0.00     0.048 C 
BRANCH  34  36
HETATM   36  C2  UNL     1      10.610  26.023   7.113  1.00  0.00    -0.004 C 
HETATM   37  C1  UNL     1      10.523  26.345   8.366  1.00  0.00     0.012 C 
ENDBRANCH  34  36
ENDBRANCH  32  33
ENDBRANCH   1  31
BRANCH  18  38
HETATM   38  O6  UNL     1      13.754  22.125   4.780  1.00  0.00    -0.370 OA
ATOM     39  H6  UNL     1      13.914  23.013   4.481  1.00  0.00     0.212 HD
ENDBRANCH  18  38
TORSDOF 9
ENDMDL
MODEL 5
REMARK VINA RESULT: -8.099392401      4.623     11.743
REMARK  9 active torsions:
REMARK  status: ('A' for Active; 'I' for Inactive)
REMARK    1  A    between atoms: C2_2  and  C3_3 
REMARK    2  A    between atoms: C5_5  and  C6_6 
REMARK    3  A    between atoms: C7_7  and  C8_8 
REMARK    4  A    between atoms: C10_10  and  O1_11 
REMARK    5  A    between atoms: C12_14  and  C14_16 
REMARK    6  A    between atoms: C14_16  and  O3_18 
REMARK    7  A    between atoms: O3_18  and  C15_19 
REMARK    8  A    between atoms: C15_19  and  C16_20 
REMARK    9  A    between atoms: C29_35  and  O6_36 
ROOT
HETATM    1  C8  UNL     1      11.582  25.275   4.789  1.00  0.00     0.012 C 
HETATM    2  C9  UNL     1      12.602  26.350   4.656  1.00  0.00     0.023 C 
HETATM    3  C10 UNL     1      10.833  25.142   3.483  1.00  0.00     0.132 C 
HETATM    4  C11 UNL     1      10.087  26.409   3.200  1.00  0.00     0.052 C 
HETATM    5  C12 UNL     1       9.009  26.697   4.246  1.00  0.00     0.053 C 
HETATM    6  C13 UNL     1       8.708  28.189   3.931  1.00  0.00     0.026 C 
HETATM    7  C20 UNL     1       9.614  26.658   5.571  1.00  0.00     0.040 C 
HETATM    8  C21 UNL     1       8.839  27.099   6.770  1.00  0.00     0.071 C 
HETATM    9  C22 UNL     1       7.392  26.954   6.753  1.00  0.00    -0.010 C 
HETATM   10  C23 UNL     1       6.540  27.824   7.279  1.00  0.00    -0.025 C 
HETATM   11  C24 UNL     1       6.954  29.076   7.966  1.00  0.00     0.004 C 
HETATM   12  C25 UNL     1       6.819  30.297   7.086  1.00  0.00     0.014 C 
HETATM   13  C26 UNL     1       8.424  28.991   8.369  1.00  0.00     0.009 C 
HETATM   14  C27 UNL     1       9.143  28.565   7.130  1.00  0.00     0.025 C 
HETATM   15  C28 UNL     1       9.288  26.377   8.029  1.00  0.00     0.274 C 
HETATM   16  O4  UNL     1       8.458  25.955   8.891  1.00  0.00    -0.264 OA
HETATM   17  O5  UNL     1      10.628  26.195   8.206  1.00  0.00    -0.288 OA
HETATM   18  C29 UNL     1      11.419  25.999   7.056  1.00  0.00     0.276 C 
HETATM   19  C30 UNL     1      10.556  25.497   5.878  1.00  0.00     0.026 C 
HETATM   20  C31 UNL     1       9.896  24.216   6.206  1.00  0.00     0.022 C 
ENDROOT
BRANCH   5  21
HETATM   21  C14 UNL     1       7.846  25.919   3.887  1.00  0.00     0.268 C 
HETATM   22  O2  UNL     1       7.768  24.689   4.088  1.00  0.00    -0.264 OA
BRANCH  21  23
HETATM   23  O3  UNL     1       6.747  26.496   3.296  1.00  0.00    -0.317 OA
BRANCH  23  24
HETATM   24  C15 UNL     1       5.439  26.578   3.734  1.00  0.00     0.206 C 
BRANCH  24  25
HETATM   25  C16 UNL     1       4.911  27.930   3.974  1.00  0.00     0.002 C 
HETATM   26  C17 UNL     1       3.938  28.190   4.835  1.00  0.00    -0.089 C 
HETATM   27  C18 UNL     1       3.294  27.121   5.633  1.00  0.00     0.042 C 
HETATM   28  C19 UNL     1       3.437  29.575   5.046  1.00  0.00     0.042 C 
ENDBRANCH  24  25
ENDBRANCH  23  24
ENDBRANCH  21  23
ENDBRANCH   5  21
BRANCH   3  29
HETATM   29  O1  UNL     1      11.785  24.989   2.477  1.00  0.00    -0.394 OA
ATOM     30  H1  UNL     1      11.411  25.347   1.680  1.00  0.00     0.210 HD
ENDBRANCH   3  29
BRANCH   1  31
HETATM   31  C7  UNL     1      12.291  24.012   5.048  1.00  0.00    -0.014 C 
HETATM   32  C6  UNL     1      13.564  23.889   4.714  1.00  0.00    -0.003 C 
BRANCH  32  33
HETATM   33  C5  UNL     1      14.291  22.645   4.961  1.00  0.00     0.006 C 
HETATM   34  C3  UNL     1      14.575  21.743   4.041  1.00  0.00    -0.063 C 
HETATM   35  C4  UNL     1      14.209  21.830   2.612  1.00  0.00     0.048 C 
BRANCH  34  36
HETATM   36  C2  UNL     1      15.316  20.550   4.473  1.00  0.00    -0.004 C 
HETATM   37  C1  UNL     1      14.697  19.460   4.804  1.00  0.00     0.012 C 
ENDBRANCH  34  36
ENDBRANCH  32  33
ENDBRANCH   1  31
BRANCH  18  38
HETATM   38  O6  UNL     1      12.396  25.075   7.371  1.00  0.00    -0.370 OA
ATOM     39  H6  UNL     1      12.103  24.226   7.061  1.00  0.00     0.212 HD
ENDBRANCH  18  38
TORSDOF 9
ENDMDL
