MODEL 1
REMARK VINA RESULT: -6.831943452      0.000      0.000
REMARK  8 active torsions:
REMARK  status: ('A' for Active; 'I' for Inactive)
REMARK    1  A    between atoms: C2_2  and  C4_4 
REMARK    2  A    between atoms: C7_7  and  C8_8 
REMARK       I    between atoms: C8_8  and  N1_10 
REMARK    3  A    between atoms: N1_10  and  C9_12 
REMARK    4  A    between atoms: C9_12  and  C10_13 
REMARK    5  A    between atoms: C9_12  and  C14_17 
REMARK    6  A    between atoms: C10_13  and  C11_14 
REMARK    7  A    between atoms: C24_29  and  C25_30 
REMARK    8  A    between atoms: C25_30  and  N3_32 
ROOT
HETATM    1  C4  UNL     1      -8.460  15.685  30.067  1.00  0.00     0.029 C 
HETATM    2  C5  UNL     1      -7.735  14.411  29.685  1.00  0.00     0.012 C 
HETATM    3  C6  UNL     1      -7.840  14.374  28.162  1.00  0.00     0.025 C 
HETATM    4  C7  UNL     1      -9.205  14.911  27.878  1.00  0.00     0.072 C 
HETATM    5  C15 UNL     1     -10.216  13.750  27.799  1.00  0.00    -0.009 C 
HETATM    6  C16 UNL     1     -11.597  13.953  27.619  1.00  0.00    -0.018 C 
HETATM    7  C17 UNL     1     -12.696  14.231  28.627  1.00  0.00    -0.005 C 
HETATM    8  C18 UNL     1     -13.807  14.796  27.735  1.00  0.00     0.021 C 
HETATM    9  C19 UNL     1     -13.212  12.971  29.216  1.00  0.00     0.007 C 
HETATM   10  C20 UNL     1     -12.124  11.973  29.441  1.00  0.00     0.007 C 
HETATM   11  C21 UNL     1     -12.632  10.625  29.975  1.00  0.00     0.010 C 
HETATM   12  C22 UNL     1     -13.398  10.796  31.249  1.00  0.00    -0.034 C 
HETATM   13  C23 UNL     1     -12.593  11.233  32.414  1.00  0.00     0.016 C 
HETATM   14  C24 UNL     1     -14.286   9.615  31.527  1.00  0.00     0.016 C 
HETATM   15  C29 UNL     1     -15.162  10.233  32.568  1.00  0.00     0.008 C 
HETATM   16  C30 UNL     1     -15.477  11.642  31.979  1.00  0.00     0.007 C 
HETATM   17  C31 UNL     1     -14.488  11.781  30.905  1.00  0.00     0.003 C 
HETATM   18  C32 UNL     1     -14.169  13.117  30.373  1.00  0.00    -0.035 C 
HETATM   19  C33 UNL     1     -15.571  13.559  29.864  1.00  0.00     0.016 C 
HETATM   20  C34 UNL     1     -13.789  14.192  31.323  1.00  0.00     0.011 C 
HETATM   21  C35 UNL     1     -12.492  14.854  31.062  1.00  0.00     0.023 C 
HETATM   22  C36 UNL     1     -12.253  15.298  29.659  1.00  0.00     0.019 C 
HETATM   23  C37 UNL     1     -13.097  16.578  29.554  1.00  0.00     0.029 C 
HETATM   24  C38 UNL     1     -10.895  15.620  29.377  1.00  0.00    -0.165 C 
HETATM   25  C39 UNL     1      -9.556  15.867  29.061  1.00  0.00     0.082 C 
ENDROOT
BRANCH   4  26
HETATM   26  C8  UNL     1      -9.315  15.647  26.600  1.00  0.00     0.232 C 
HETATM   27  O1  UNL     1     -10.413  16.254  26.353  1.00  0.00    -0.272 OA
HETATM   28  N1  UNL     1      -8.297  15.709  25.668  1.00  0.00    -0.347 N 
ATOM     29  H1  UNL     1      -7.413  15.231  25.843  1.00  0.00     0.163 HD
BRANCH  28  30
HETATM   30  C9  UNL     1      -8.493  16.471  24.414  1.00  0.00     0.174 C 
BRANCH  30  31
HETATM   31  C10 UNL     1      -8.091  15.521  23.320  1.00  0.00     0.038 C 
BRANCH  31  32
HETATM   32  C11 UNL     1      -9.161  15.229  22.337  1.00  0.00    -0.020 C 
HETATM   33  C12 UNL     1      -8.930  16.024  21.072  1.00  0.00     0.009 C 
HETATM   34  C13 UNL     1     -10.509  15.697  22.908  1.00  0.00     0.009 C 
ENDBRANCH  31  32
ENDBRANCH  30  31
BRANCH  30  35
HETATM   35  C14 UNL     1      -7.658  17.674  24.422  1.00  0.00     0.254 C 
HETATM   36  N2  UNL     1      -6.988  18.219  23.316  1.00  0.00    -0.060 NA
HETATM   37  O2  UNL     1      -7.537  18.276  25.551  1.00  0.00    -0.275 OA
ENDBRANCH  30  35
ENDBRANCH  28  30
ENDBRANCH   4  26
BRANCH   1  38
HETATM   38  C2  UNL     1      -8.782  15.684  31.474  1.00  0.00    -0.088 C 
HETATM   39  C1  UNL     1      -8.938  16.723  32.278  1.00  0.00     0.014 C 
HETATM   40  C3  UNL     1      -8.992  14.344  32.168  1.00  0.00     0.043 C 
ENDBRANCH   1  38
BRANCH  14  41
HETATM   41  C25 UNL     1     -13.858   8.282  31.675  1.00  0.00     0.079 C 
HETATM   42  C26 UNL     1     -12.506   7.963  32.263  1.00  0.00     0.032 C 
BRANCH  41  43
HETATM   43  N3  UNL     1     -14.772   7.389  32.283  1.00  0.00    -0.417 N 
HETATM   44  C27 UNL     1     -15.666   6.623  31.505  1.00  0.00     0.143 C 
HETATM   45  C28 UNL     1     -14.354   6.668  33.429  1.00  0.00     0.143 C 
ENDBRANCH  41  43
ENDBRANCH  14  41
TORSDOF 8
ENDMDL
MODEL 2
REMARK VINA RESULT: -6.831755142      1.548      2.354
REMARK  8 active torsions:
REMARK  status: ('A' for Active; 'I' for Inactive)
REMARK    1  A    between atoms: C2_2  and  C4_4 
REMARK    2  A    between atoms: C7_7  and  C8_8 
REMARK       I    between atoms: C8_8  and  N1_10 
REMARK    3  A    between atoms: N1_10  and  C9_12 
REMARK    4  A    between atoms: C9_12  and  C10_13 
REMARK    5  A    between atoms: C9_12  and  C14_17 
REMARK    6  A    between atoms: C10_13  and  C11_14 
REMARK    7  A    between atoms: C24_29  and  C25_30 
REMARK    8  A    between atoms: C25_30  and  N3_32 
ROOT
HETATM    1  C4  UNL     1      -9.742  15.241  32.290  1.00  0.00     0.029 C 
HETATM    2  C5  UNL     1      -8.705  14.224  31.862  1.00  0.00     0.012 C 
HETATM    3  C6  UNL     1      -8.664  14.360  30.342  1.00  0.00     0.025 C 
HETATM    4  C7  UNL     1     -10.088  14.608  29.961  1.00  0.00     0.072 C 
HETATM    5  C15 UNL     1     -10.784  13.268  29.645  1.00  0.00    -0.009 C 
HETATM    6  C16 UNL     1     -12.153  13.176  29.330  1.00  0.00    -0.018 C 
HETATM    7  C17 UNL     1     -13.370  13.067  30.229  1.00  0.00    -0.005 C 
HETATM    8  C18 UNL     1     -14.501  13.477  29.279  1.00  0.00     0.021 C 
HETATM    9  C19 UNL     1     -13.620  11.658  30.620  1.00  0.00     0.007 C 
HETATM   10  C20 UNL     1     -12.351  10.911  30.861  1.00  0.00     0.007 C 
HETATM   11  C21 UNL     1     -12.568   9.426  31.190  1.00  0.00     0.010 C 
HETATM   12  C22 UNL     1     -13.461   9.254  32.378  1.00  0.00    -0.034 C 
HETATM   13  C23 UNL     1     -12.888   9.708  33.667  1.00  0.00     0.016 C 
HETATM   14  C24 UNL     1     -14.064   7.878  32.428  1.00  0.00     0.016 C 
HETATM   15  C29 UNL     1     -15.149   8.143  33.420  1.00  0.00     0.008 C 
HETATM   16  C30 UNL     1     -15.737   9.508  32.950  1.00  0.00     0.007 C 
HETATM   17  C31 UNL     1     -14.720  10.004  32.017  1.00  0.00     0.003 C 
HETATM   18  C32 UNL     1     -14.682  11.435  31.668  1.00  0.00    -0.035 C 
HETATM   19  C33 UNL     1     -16.099  11.610  31.051  1.00  0.00     0.016 C 
HETATM   20  C34 UNL     1     -14.652  12.436  32.763  1.00  0.00     0.011 C 
HETATM   21  C35 UNL     1     -13.532  13.401  32.723  1.00  0.00     0.023 C 
HETATM   22  C36 UNL     1     -13.284  14.065  31.411  1.00  0.00     0.019 C 
HETATM   23  C37 UNL     1     -14.395  15.124  31.345  1.00  0.00     0.029 C 
HETATM   24  C38 UNL     1     -12.022  14.718  31.323  1.00  0.00    -0.165 C 
HETATM   25  C39 UNL     1     -10.759  15.299  31.189  1.00  0.00     0.082 C 
ENDROOT
BRANCH   4  26
HETATM   26  C8  UNL     1     -10.258  15.457  28.763  1.00  0.00     0.232 C 
HETATM   27  O1  UNL     1     -10.955  16.523  28.880  1.00  0.00    -0.272 OA
HETATM   28  N1  UNL     1      -9.704  15.158  27.533  1.00  0.00    -0.347 N 
ATOM     29  H1  UNL     1      -9.146  14.312  27.416  1.00  0.00     0.163 HD
BRANCH  28  30
HETATM   30  C9  UNL     1      -9.923  16.067  26.386  1.00  0.00     0.174 C 
BRANCH  30  31
HETATM   31  C10 UNL     1     -10.063  15.159  25.196  1.00  0.00     0.038 C 
BRANCH  31  32
HETATM   32  C11 UNL     1      -9.408  15.657  23.963  1.00  0.00    -0.020 C 
HETATM   33  C12 UNL     1     -10.437  15.840  22.871  1.00  0.00     0.009 C 
HETATM   34  C13 UNL     1      -8.416  14.597  23.458  1.00  0.00     0.009 C 
ENDBRANCH  31  32
ENDBRANCH  30  31
BRANCH  30  35
HETATM   35  C14 UNL     1      -8.786  16.978  26.243  1.00  0.00     0.254 C 
HETATM   36  N2  UNL     1      -7.433  16.635  26.387  1.00  0.00    -0.060 NA
HETATM   37  O2  UNL     1      -9.066  18.200  25.959  1.00  0.00    -0.275 OA
ENDBRANCH  30  35
ENDBRANCH  28  30
ENDBRANCH   4  26
BRANCH   1  38
HETATM   38  C2  UNL     1     -10.176  14.987  33.642  1.00  0.00    -0.088 C 
HETATM   39  C1  UNL     1     -10.680  15.844  34.515  1.00  0.00     0.014 C 
HETATM   40  C3  UNL     1     -10.075  13.564  34.180  1.00  0.00     0.043 C 
ENDBRANCH   1  38
BRANCH  14  41
HETATM   41  C25 UNL     1     -13.346   6.668  32.484  1.00  0.00     0.079 C 
HETATM   42  C26 UNL     1     -13.445   5.762  33.685  1.00  0.00     0.032 C 
BRANCH  41  43
HETATM   43  N3  UNL     1     -13.435   5.827  31.349  1.00  0.00    -0.417 N 
HETATM   44  C27 UNL     1     -14.664   5.629  30.685  1.00  0.00     0.143 C 
HETATM   45  C28 UNL     1     -12.357   5.813  30.430  1.00  0.00     0.143 C 
ENDBRANCH  41  43
ENDBRANCH  14  41
TORSDOF 8
ENDMDL
MODEL 3
REMARK VINA RESULT: -6.725547269      8.453     15.084
REMARK  8 active torsions:
REMARK  status: ('A' for Active; 'I' for Inactive)
REMARK    1  A    between atoms: C2_2  and  C4_4 
REMARK    2  A    between atoms: C7_7  and  C8_8 
REMARK       I    between atoms: C8_8  and  N1_10 
REMARK    3  A    between atoms: N1_10  and  C9_12 
REMARK    4  A    between atoms: C9_12  and  C10_13 
REMARK    5  A    between atoms: C9_12  and  C14_17 
REMARK    6  A    between atoms: C10_13  and  C11_14 
REMARK    7  A    between atoms: C24_29  and  C25_30 
REMARK    8  A    between atoms: C25_30  and  N3_32 
ROOT
HETATM    1  C4  UNL     1      -5.812  18.174  18.258  1.00  0.00     0.029 C 
HETATM    2  C5  UNL     1      -6.459  16.806  18.321  1.00  0.00     0.012 C 
HETATM    3  C6  UNL     1      -6.662  16.565  19.815  1.00  0.00     0.025 C 
HETATM    4  C7  UNL     1      -5.448  17.165  20.448  1.00  0.00     0.072 C 
HETATM    5  C15 UNL     1      -4.356  16.087  20.604  1.00  0.00    -0.009 C 
HETATM    6  C16 UNL     1      -3.069  16.373  21.099  1.00  0.00    -0.018 C 
HETATM    7  C17 UNL     1      -1.825  16.875  20.391  1.00  0.00    -0.005 C 
HETATM    8  C18 UNL     1      -0.985  17.397  21.562  1.00  0.00     0.021 C 
HETATM    9  C19 UNL     1      -1.069  15.754  19.781  1.00  0.00     0.007 C 
HETATM   10  C20 UNL     1      -1.976  14.713  19.210  1.00  0.00     0.007 C 
HETATM   11  C21 UNL     1      -1.229  13.497  18.640  1.00  0.00     0.010 C 
HETATM   12  C22 UNL     1      -0.243  13.904  17.591  1.00  0.00    -0.034 C 
HETATM   13  C23 UNL     1      -0.838  14.434  16.341  1.00  0.00     0.016 C 
HETATM   14  C24 UNL     1       0.803  12.848  17.372  1.00  0.00     0.016 C 
HETATM   15  C29 UNL     1       1.801  13.672  16.624  1.00  0.00     0.008 C 
HETATM   16  C30 UNL     1       1.837  15.005  17.431  1.00  0.00     0.007 C 
HETATM   17  C31 UNL     1       0.643  14.915  18.276  1.00  0.00     0.003 C 
HETATM   18  C32 UNL     1       0.081  16.135  18.883  1.00  0.00    -0.035 C 
HETATM   19  C33 UNL     1       1.296  16.611  19.730  1.00  0.00     0.016 C 
HETATM   20  C34 UNL     1      -0.211  17.297  18.008  1.00  0.00     0.011 C 
HETATM   21  C35 UNL     1      -1.597  17.811  18.061  1.00  0.00     0.023 C 
HETATM   22  C36 UNL     1      -2.162  18.036  19.423  1.00  0.00     0.019 C 
HETATM   23  C37 UNL     1      -1.498  19.352  19.859  1.00  0.00     0.029 C 
HETATM   24  C38 UNL     1      -3.575  18.207  19.442  1.00  0.00    -0.165 C 
HETATM   25  C39 UNL     1      -4.968  18.300  19.491  1.00  0.00     0.082 C 
ENDROOT
BRANCH   4  26
HETATM   26  C8  UNL     1      -5.679  17.722  21.798  1.00  0.00     0.232 C 
HETATM   27  O1  UNL     1      -5.306  18.924  22.019  1.00  0.00    -0.272 OA
HETATM   28  N1  UNL     1      -6.272  17.011  22.823  1.00  0.00    -0.347 N 
ATOM     29  H1  UNL     1      -6.576  16.049  22.670  1.00  0.00     0.163 HD
BRANCH  28  30
HETATM   30  C9  UNL     1      -6.467  17.648  24.145  1.00  0.00     0.174 C 
BRANCH  30  31
HETATM   31  C10 UNL     1      -5.548  16.901  25.071  1.00  0.00     0.038 C 
BRANCH  31  32
HETATM   32  C11 UNL     1      -4.422  17.705  25.600  1.00  0.00    -0.020 C 
HETATM   33  C12 UNL     1      -4.791  19.171  25.601  1.00  0.00     0.009 C 
HETATM   34  C13 UNL     1      -3.215  17.559  24.659  1.00  0.00     0.009 C 
ENDBRANCH  31  32
ENDBRANCH  30  31
BRANCH  30  35
HETATM   35  C14 UNL     1      -7.867  17.532  24.557  1.00  0.00     0.254 C 
HETATM   36  N2  UNL     1      -8.442  18.121  25.694  1.00  0.00    -0.060 NA
HETATM   37  O2  UNL     1      -8.627  16.824  23.800  1.00  0.00    -0.275 OA
ENDBRANCH  30  35
ENDBRANCH  28  30
ENDBRANCH   4  26
BRANCH   1  38
HETATM   38  C2  UNL     1      -5.214  18.394  16.964  1.00  0.00    -0.088 C 
HETATM   39  C1  UNL     1      -4.942  19.546  16.373  1.00  0.00     0.014 C 
HETATM   40  C3  UNL     1      -4.812  17.179  16.135  1.00  0.00     0.043 C 
ENDBRANCH   1  38
BRANCH  14  41
HETATM   41  C25 UNL     1       0.559  11.519  16.977  1.00  0.00     0.079 C 
HETATM   42  C26 UNL     1       0.763  11.084  15.548  1.00  0.00     0.032 C 
BRANCH  41  43
HETATM   43  N3  UNL     1       1.132  10.505  17.781  1.00  0.00    -0.417 N 
HETATM   44  C27 UNL     1       0.681  10.281  19.100  1.00  0.00     0.143 C 
HETATM   45  C28 UNL     1       1.516   9.288  17.166  1.00  0.00     0.143 C 
ENDBRANCH  41  43
ENDBRANCH  14  41
TORSDOF 8
ENDMDL
MODEL 4
REMARK VINA RESULT: -6.632236450      8.845     15.238
REMARK  8 active torsions:
REMARK  status: ('A' for Active; 'I' for Inactive)
REMARK    1  A    between atoms: C2_2  and  C4_4 
REMARK    2  A    between atoms: C7_7  and  C8_8 
REMARK       I    between atoms: C8_8  and  N1_10 
REMARK    3  A    between atoms: N1_10  and  C9_12 
REMARK    4  A    between atoms: C9_12  and  C10_13 
REMARK    5  A    between atoms: C9_12  and  C14_17 
REMARK    6  A    between atoms: C10_13  and  C11_14 
REMARK    7  A    between atoms: C24_29  and  C25_30 
REMARK    8  A    between atoms: C25_30  and  N3_32 
ROOT
HETATM    1  C4  UNL     1      -5.782  18.090  18.546  1.00  0.00     0.029 C 
HETATM    2  C5  UNL     1      -6.389  16.718  18.753  1.00  0.00     0.012 C 
HETATM    3  C6  UNL     1      -6.412  16.553  20.271  1.00  0.00     0.025 C 
HETATM    4  C7  UNL     1      -5.145  17.203  20.726  1.00  0.00     0.072 C 
HETATM    5  C15 UNL     1      -4.021  16.151  20.807  1.00  0.00    -0.009 C 
HETATM    6  C16 UNL     1      -2.691  16.480  21.133  1.00  0.00    -0.018 C 
HETATM    7  C17 UNL     1      -1.548  16.963  20.261  1.00  0.00    -0.005 C 
HETATM    8  C18 UNL     1      -0.589  17.557  21.298  1.00  0.00     0.021 C 
HETATM    9  C19 UNL     1      -0.846  15.822  19.623  1.00  0.00     0.007 C 
HETATM   10  C20 UNL     1      -1.791  14.740  19.216  1.00  0.00     0.007 C 
HETATM   11  C21 UNL     1      -1.091  13.507  18.625  1.00  0.00     0.010 C 
HETATM   12  C22 UNL     1      -0.242  13.872  17.448  1.00  0.00    -0.034 C 
HETATM   13  C23 UNL     1      -0.988  14.327  16.251  1.00  0.00     0.016 C 
HETATM   14  C24 UNL     1       0.794  12.821  17.162  1.00  0.00     0.016 C 
HETATM   15  C29 UNL     1       1.681  13.619  16.262  1.00  0.00     0.008 C 
HETATM   16  C30 UNL     1       1.784  14.994  16.991  1.00  0.00     0.007 C 
HETATM   17  C31 UNL     1       0.697  14.931  17.973  1.00  0.00     0.003 C 
HETATM   18  C32 UNL     1       0.185  16.172  18.579  1.00  0.00    -0.035 C 
HETATM   19  C33 UNL     1       1.480  16.710  19.253  1.00  0.00     0.016 C 
HETATM   20  C34 UNL     1      -0.231  17.283  17.687  1.00  0.00     0.011 C 
HETATM   21  C35 UNL     1      -1.611  17.779  17.876  1.00  0.00     0.023 C 
HETATM   22  C36 UNL     1      -2.019  18.067  19.281  1.00  0.00     0.019 C 
HETATM   23  C37 UNL     1      -1.336  19.413  19.569  1.00  0.00     0.029 C 
HETATM   24  C38 UNL     1      -3.423  18.218  19.457  1.00  0.00    -0.165 C 
HETATM   25  C39 UNL     1      -4.803  18.293  19.663  1.00  0.00     0.082 C 
ENDROOT
BRANCH   4  26
HETATM   26  C8  UNL     1      -5.229  17.826  22.064  1.00  0.00     0.232 C 
HETATM   27  O1  UNL     1      -5.527  19.068  22.126  1.00  0.00    -0.272 OA
HETATM   28  N1  UNL     1      -5.003  17.137  23.240  1.00  0.00    -0.347 N 
ATOM     29  H1  UNL     1      -4.763  16.146  23.214  1.00  0.00     0.163 HD
BRANCH  28  30
HETATM   30  C9  UNL     1      -5.111  17.841  24.538  1.00  0.00     0.174 C 
BRANCH  30  31
HETATM   31  C10 UNL     1      -3.894  17.412  25.310  1.00  0.00     0.038 C 
BRANCH  31  32
HETATM   32  C11 UNL     1      -2.608  17.668  24.621  1.00  0.00    -0.020 C 
HETATM   33  C12 UNL     1      -1.741  16.431  24.675  1.00  0.00     0.009 C 
HETATM   34  C13 UNL     1      -1.845  18.770  25.374  1.00  0.00     0.009 C 
ENDBRANCH  31  32
ENDBRANCH  30  31
BRANCH  30  35
HETATM   35  C14 UNL     1      -6.349  17.455  25.217  1.00  0.00     0.254 C 
HETATM   36  N2  UNL     1      -7.641  17.891  24.885  1.00  0.00    -0.060 NA
HETATM   37  O2  UNL     1      -6.228  16.640  26.204  1.00  0.00    -0.275 OA
ENDBRANCH  30  35
ENDBRANCH  28  30
ENDBRANCH   4  26
BRANCH   1  38
HETATM   38  C2  UNL     1      -5.342  18.250  17.181  1.00  0.00    -0.088 C 
HETATM   39  C1  UNL     1      -5.056  19.372  16.540  1.00  0.00     0.014 C 
HETATM   40  C3  UNL     1      -5.154  17.001  16.329  1.00  0.00     0.043 C 
ENDBRANCH   1  38
BRANCH  14  41
HETATM   41  C25 UNL     1       0.533  11.470  16.866  1.00  0.00     0.079 C 
HETATM   42  C26 UNL     1       0.816  10.907  15.496  1.00  0.00     0.032 C 
BRANCH  41  43
HETATM   43  N3  UNL     1       1.017  10.515  17.791  1.00  0.00    -0.417 N 
HETATM   44  C27 UNL     1       1.536   9.277  17.354  1.00  0.00     0.143 C 
HETATM   45  C28 UNL     1       1.707  10.974  18.940  1.00  0.00     0.143 C 
ENDBRANCH  41  43
ENDBRANCH  14  41
TORSDOF 8
ENDMDL
MODEL 5
REMARK VINA RESULT: -6.067213474      8.361     16.947
REMARK  8 active torsions:
REMARK  status: ('A' for Active; 'I' for Inactive)
REMARK    1  A    between atoms: C2_2  and  C4_4 
REMARK    2  A    between atoms: C7_7  and  C8_8 
REMARK       I    between atoms: C8_8  and  N1_10 
REMARK    3  A    between atoms: N1_10  and  C9_12 
REMARK    4  A    between atoms: C9_12  and  C10_13 
REMARK    5  A    between atoms: C9_12  and  C14_17 
REMARK    6  A    between atoms: C10_13  and  C11_14 
REMARK    7  A    between atoms: C24_29  and  C25_30 
REMARK    8  A    between atoms: C25_30  and  N3_32 
ROOT
HETATM    1  C4  UNL     1      -1.562  15.764  21.149  1.00  0.00     0.029 C 
HETATM    2  C5  UNL     1      -1.062  17.047  21.781  1.00  0.00     0.012 C 
HETATM    3  C6  UNL     1      -2.340  17.781  22.180  1.00  0.00     0.025 C 
HETATM    4  C7  UNL     1      -3.294  17.479  21.070  1.00  0.00     0.072 C 
HETATM    5  C15 UNL     1      -3.208  18.580  19.994  1.00  0.00    -0.009 C 
HETATM    6  C16 UNL     1      -3.936  18.528  18.790  1.00  0.00    -0.018 C 
HETATM    7  C17 UNL     1      -3.616  17.855  17.469  1.00  0.00    -0.005 C 
HETATM    8  C18 UNL     1      -4.994  17.798  16.802  1.00  0.00     0.021 C 
HETATM    9  C19 UNL     1      -2.759  18.721  16.623  1.00  0.00     0.007 C 
HETATM   10  C20 UNL     1      -1.750  19.469  17.430  1.00  0.00     0.007 C 
HETATM   11  C21 UNL     1      -0.897  20.438  16.597  1.00  0.00     0.010 C 
HETATM   12  C22 UNL     1      -0.192  19.729  15.485  1.00  0.00    -0.034 C 
HETATM   13  C23 UNL     1       0.863  18.780  15.912  1.00  0.00     0.016 C 
HETATM   14  C24 UNL     1       0.241  20.679  14.404  1.00  0.00     0.016 C 
HETATM   15  C29 UNL     1       0.518  19.682  13.325  1.00  0.00     0.008 C 
HETATM   16  C30 UNL     1      -0.698  18.711  13.416  1.00  0.00     0.007 C 
HETATM   17  C31 UNL     1      -1.296  19.047  14.713  1.00  0.00     0.003 C 
HETATM   18  C32 UNL     1      -2.208  18.093  15.367  1.00  0.00    -0.035 C 
HETATM   19  C33 UNL     1      -3.319  17.980  14.284  1.00  0.00     0.016 C 
HETATM   20  C34 UNL     1      -1.760  16.691  15.554  1.00  0.00     0.011 C 
HETATM   21  C35 UNL     1      -1.806  16.180  16.942  1.00  0.00     0.023 C 
HETATM   22  C36 UNL     1      -3.075  16.420  17.688  1.00  0.00     0.019 C 
HETATM   23  C37 UNL     1      -4.023  15.358  17.107  1.00  0.00     0.029 C 
HETATM   24  C38 UNL     1      -2.967  16.218  19.093  1.00  0.00    -0.165 C 
HETATM   25  C39 UNL     1      -2.862  16.099  20.481  1.00  0.00     0.082 C 
ENDROOT
BRANCH   4  26
HETATM   26  C8  UNL     1      -4.711  17.415  21.488  1.00  0.00     0.232 C 
HETATM   27  O1  UNL     1      -5.159  18.358  22.225  1.00  0.00    -0.272 OA
HETATM   28  N1  UNL     1      -5.567  16.393  21.123  1.00  0.00    -0.347 N 
ATOM     29  H1  UNL     1      -5.230  15.629  20.536  1.00  0.00     0.163 HD
BRANCH  28  30
HETATM   30  C9  UNL     1      -6.973  16.410  21.585  1.00  0.00     0.174 C 
BRANCH  30  31
HETATM   31  C10 UNL     1      -7.298  14.972  21.879  1.00  0.00     0.038 C 
BRANCH  31  32
HETATM   32  C11 UNL     1      -7.842  14.731  23.237  1.00  0.00    -0.020 C 
HETATM   33  C12 UNL     1      -9.345  14.582  23.170  1.00  0.00     0.009 C 
HETATM   34  C13 UNL     1      -7.563  15.961  24.115  1.00  0.00     0.009 C 
ENDBRANCH  31  32
ENDBRANCH  30  31
BRANCH  30  35
HETATM   35  C14 UNL     1      -7.838  16.959  20.539  1.00  0.00     0.254 C 
HETATM   36  N2  UNL     1      -9.108  17.524  20.734  1.00  0.00    -0.060 NA
HETATM   37  O2  UNL     1      -7.381  16.915  19.339  1.00  0.00    -0.275 OA
ENDBRANCH  30  35
ENDBRANCH  28  30
ENDBRANCH   4  26
BRANCH   1  38
HETATM   38  C2  UNL     1      -0.515  15.131  20.385  1.00  0.00    -0.088 C 
HETATM   39  C1  UNL     1       0.562  15.689  19.855  1.00  0.00     0.014 C 
HETATM   40  C3  UNL     1      -0.603  13.630  20.139  1.00  0.00     0.043 C 
ENDBRANCH   1  38
BRANCH  14  41
HETATM   41  C25 UNL     1       1.100  21.781  14.575  1.00  0.00     0.079 C 
HETATM   42  C26 UNL     1       2.347  21.928  13.741  1.00  0.00     0.032 C 
BRANCH  41  43
HETATM   43  N3  UNL     1       0.492  23.059  14.601  1.00  0.00    -0.417 N 
HETATM   44  C27 UNL     1      -0.711  23.307  13.906  1.00  0.00     0.143 C 
HETATM   45  C28 UNL     1       0.546  23.810  15.801  1.00  0.00     0.143 C 
ENDBRANCH  41  43
ENDBRANCH  14  41
TORSDOF 8
ENDMDL
