MODEL 1
REMARK VINA RESULT: 6.051824239      0.000      0.000
REMARK  2 active torsions:
REMARK  status: ('A' for Active; 'I' for Inactive)
REMARK    1  A    between atoms: C9_12  and  C10_13 
REMARK    2  A    between atoms: C11_14  and  C12_15 
ROOT
HETATM    1  N1  UNL     1      33.129  -1.834   1.351  1.00  0.00    -0.191 NA
HETATM    2  C1  UNL     1      32.143  -1.993   1.933  1.00  0.00     0.099 C 
HETATM    3  C2  UNL     1      30.917  -2.213   2.652  1.00  0.00     0.045 A 
HETATM    4  C3  UNL     1      30.621  -3.478   3.101  1.00  0.00     0.025 A 
HETATM    5  C4  UNL     1      29.468  -3.765   3.795  1.00  0.00     0.032 A 
HETATM    6  C5  UNL     1      28.572  -2.763   4.054  1.00  0.00     0.043 A 
HETATM    7  N2  UNL     1      27.368  -2.726   4.702  1.00  0.00    -0.355 N 
ATOM      8  H2  UNL     1      26.911  -3.530   5.134  1.00  0.00     0.166 HD
HETATM    9  C6  UNL     1      26.874  -1.477   4.688  1.00  0.00     0.043 A 
HETATM   10  C7  UNL     1      25.695  -0.961   5.213  1.00  0.00     0.032 A 
HETATM   11  C8  UNL     1      25.476   0.386   5.025  1.00  0.00     0.023 A 
HETATM   12  C9  UNL     1      26.374   1.184   4.354  1.00  0.00     0.019 A 
HETATM   13  C17 UNL     1      27.536   0.655   3.841  1.00  0.00     0.035 A 
HETATM   14  C18 UNL     1      27.791  -0.702   4.012  1.00  0.00     0.004 A 
HETATM   15  C19 UNL     1      28.854  -1.488   3.611  1.00  0.00     0.005 A 
HETATM   16  C20 UNL     1      30.015  -1.203   2.913  1.00  0.00     0.037 A 
ENDROOT
BRANCH  12  17
HETATM   17  C10 UNL     1      26.140   2.596   4.160  1.00  0.00    -0.060 C 
HETATM   18  C11 UNL     1      25.925   3.781   4.004  1.00  0.00    -0.043 C 
BRANCH  18  19
HETATM   19  C12 UNL     1      25.648   5.189   3.831  1.00  0.00     0.086 A 
HETATM   20  C13 UNL     1      26.129   5.892   2.759  1.00  0.00     0.039 A 
HETATM   21  C14 UNL     1      25.864   7.228   2.596  1.00  0.00     0.004 A 
HETATM   22  C15 UNL     1      25.086   7.853   3.560  1.00  0.00     0.017 A 
HETATM   23  C16 UNL     1      24.607   7.138   4.634  1.00  0.00     0.089 A 
HETATM   24  N3  UNL     1      24.900   5.835   4.737  1.00  0.00    -0.359 N 
ATOM     25  H3  UNL     1      24.541   5.313   5.536  1.00  0.00     0.166 HD
ENDBRANCH  18  19
ENDBRANCH  12  17
TORSDOF 2
ENDMDL
MODEL 2
REMARK VINA RESULT: 6.672798953      3.750      6.905
REMARK  2 active torsions:
REMARK  status: ('A' for Active; 'I' for Inactive)
REMARK    1  A    between atoms: C9_12  and  C10_13 
REMARK    2  A    between atoms: C11_14  and  C12_15 
ROOT
HETATM    1  N1  UNL     1      28.863   0.857   7.296  1.00  0.00    -0.191 NA
HETATM    2  C1  UNL     1      28.393   1.491   6.452  1.00  0.00     0.099 C 
HETATM    3  C2  UNL     1      27.822   2.269   5.385  1.00  0.00     0.045 A 
HETATM    4  C3  UNL     1      27.871   1.782   4.100  1.00  0.00     0.025 A 
HETATM    5  C4  UNL     1      27.346   2.469   3.030  1.00  0.00     0.032 A 
HETATM    6  C5  UNL     1      26.751   3.683   3.236  1.00  0.00     0.043 A 
HETATM    7  N2  UNL     1      26.151   4.589   2.404  1.00  0.00    -0.355 N 
ATOM      8  H2  UNL     1      26.049   4.477   1.395  1.00  0.00     0.166 HD
HETATM    9  C6  UNL     1      25.715   5.646   3.108  1.00  0.00     0.043 A 
HETATM   10  C7  UNL     1      25.054   6.798   2.700  1.00  0.00     0.032 A 
HETATM   11  C8  UNL     1      24.739   7.709   3.685  1.00  0.00     0.023 A 
HETATM   12  C9  UNL     1      25.060   7.493   5.005  1.00  0.00     0.019 A 
HETATM   13  C17 UNL     1      25.714   6.346   5.390  1.00  0.00     0.035 A 
HETATM   14  C18 UNL     1      26.048   5.404   4.423  1.00  0.00     0.004 A 
HETATM   15  C19 UNL     1      26.693   4.186   4.520  1.00  0.00     0.005 A 
HETATM   16  C20 UNL     1      27.222   3.493   5.594  1.00  0.00     0.037 A 
ENDROOT
BRANCH  12  17
HETATM   17  C10 UNL     1      24.728   8.451   6.035  1.00  0.00    -0.060 C 
HETATM   18  C11 UNL     1      24.455   9.270   6.888  1.00  0.00    -0.043 C 
BRANCH  18  19
HETATM   19  C12 UNL     1      24.136  10.264   7.889  1.00  0.00     0.086 A 
HETATM   20  C13 UNL     1      24.168  11.604   7.610  1.00  0.00     0.039 A 
HETATM   21  C14 UNL     1      23.865  12.544   8.561  1.00  0.00     0.004 A 
HETATM   22  C15 UNL     1      23.520  12.094   9.827  1.00  0.00     0.017 A 
HETATM   23  C16 UNL     1      23.490  10.744  10.098  1.00  0.00     0.089 A 
HETATM   24  N3  UNL     1      23.797   9.875   9.126  1.00  0.00    -0.359 N 
ATOM     25  H3  UNL     1      23.772   8.877   9.335  1.00  0.00     0.166 HD
ENDBRANCH  18  19
ENDBRANCH  12  17
TORSDOF 2
ENDMDL
MODEL 3
REMARK VINA RESULT: 7.325142115      1.777      8.503
REMARK  2 active torsions:
REMARK  status: ('A' for Active; 'I' for Inactive)
REMARK    1  A    between atoms: C9_12  and  C10_13 
REMARK    2  A    between atoms: C11_14  and  C12_15 
ROOT
HETATM    1  N1  UNL     1      28.694   8.030   5.533  1.00  0.00    -0.191 NA
HETATM    2  C1  UNL     1      27.857   7.299   5.213  1.00  0.00     0.099 C 
HETATM    3  C2  UNL     1      26.801   6.403   4.825  1.00  0.00     0.045 A 
HETATM    4  C3  UNL     1      25.520   6.888   4.710  1.00  0.00     0.025 A 
HETATM    5  C4  UNL     1      24.459   6.092   4.344  1.00  0.00     0.032 A 
HETATM    6  C5  UNL     1      24.672   4.766   4.081  1.00  0.00     0.043 A 
HETATM    7  N2  UNL     1      23.849   3.740   3.704  1.00  0.00    -0.355 N 
ATOM      8  H2  UNL     1      22.845   3.824   3.547  1.00  0.00     0.166 HD
HETATM    9  C6  UNL     1      24.556   2.606   3.571  1.00  0.00     0.043 A 
HETATM   10  C7  UNL     1      24.158   1.324   3.210  1.00  0.00     0.032 A 
HETATM   11  C8  UNL     1      25.143   0.362   3.166  1.00  0.00     0.023 A 
HETATM   12  C9  UNL     1      26.456   0.651   3.461  1.00  0.00     0.019 A 
HETATM   13  C17 UNL     1      26.832   1.925   3.816  1.00  0.00     0.035 A 
HETATM   14  C18 UNL     1      25.864   2.922   3.872  1.00  0.00     0.004 A 
HETATM   15  C19 UNL     1      25.953   4.264   4.191  1.00  0.00     0.005 A 
HETATM   16  C20 UNL     1      27.017   5.067   4.560  1.00  0.00     0.037 A 
ENDROOT
BRANCH  12  17
HETATM   17  C10 UNL     1      27.486  -0.361   3.413  1.00  0.00    -0.060 C 
HETATM   18  C11 UNL     1      28.365  -1.198   3.381  1.00  0.00    -0.043 C 
BRANCH  18  19
HETATM   19  C12 UNL     1      29.426  -2.181   3.356  1.00  0.00     0.086 A 
HETATM   20  C13 UNL     1      30.734  -1.824   3.168  1.00  0.00     0.039 A 
HETATM   21  C14 UNL     1      31.738  -2.757   3.145  1.00  0.00     0.004 A 
HETATM   22  C15 UNL     1      31.387  -4.088   3.320  1.00  0.00     0.017 A 
HETATM   23  C16 UNL     1      30.068  -4.437   3.508  1.00  0.00     0.089 A 
HETATM   24  N3  UNL     1      29.133  -3.478   3.521  1.00  0.00    -0.359 N 
ATOM     25  H3  UNL     1      28.159  -3.745   3.662  1.00  0.00     0.166 HD
ENDBRANCH  18  19
ENDBRANCH  12  17
TORSDOF 2
ENDMDL
MODEL 4
REMARK VINA RESULT: 8.246255716      1.867      3.379
REMARK  2 active torsions:
REMARK  status: ('A' for Active; 'I' for Inactive)
REMARK    1  A    between atoms: C9_12  and  C10_13 
REMARK    2  A    between atoms: C11_14  and  C12_15 
ROOT
HETATM    1  N1  UNL     1      24.718  -4.336   3.163  1.00  0.00    -0.191 NA
HETATM    2  C1  UNL     1      25.678  -3.727   3.374  1.00  0.00     0.099 C 
HETATM    3  C2  UNL     1      26.882  -2.988   3.645  1.00  0.00     0.045 A 
HETATM    4  C3  UNL     1      28.067  -3.669   3.794  1.00  0.00     0.025 A 
HETATM    5  C4  UNL     1      29.258  -3.030   4.055  1.00  0.00     0.032 A 
HETATM    6  C5  UNL     1      29.278  -1.668   4.174  1.00  0.00     0.043 A 
HETATM    7  N2  UNL     1      30.273  -0.762   4.423  1.00  0.00    -0.355 N 
ATOM      8  H2  UNL     1      31.254  -0.998   4.574  1.00  0.00     0.166 HD
HETATM    9  C6  UNL     1      29.771   0.483   4.440  1.00  0.00     0.043 A 
HETATM   10  C7  UNL     1      30.390   1.710   4.651  1.00  0.00     0.032 A 
HETATM   11  C8  UNL     1      29.582   2.824   4.605  1.00  0.00     0.023 A 
HETATM   12  C9  UNL     1      28.230   2.734   4.362  1.00  0.00     0.019 A 
HETATM   13  C17 UNL     1      27.635   1.511   4.156  1.00  0.00     0.035 A 
HETATM   14  C18 UNL     1      28.420   0.364   4.195  1.00  0.00     0.004 A 
HETATM   15  C19 UNL     1      28.097  -0.969   4.027  1.00  0.00     0.005 A 
HETATM   16  C20 UNL     1      26.902  -1.614   3.765  1.00  0.00     0.037 A 
ENDROOT
BRANCH  12  17
HETATM   17  C10 UNL     1      27.386   3.905   4.314  1.00  0.00    -0.060 C 
HETATM   18  C11 UNL     1      26.676   4.888   4.254  1.00  0.00    -0.043 C 
BRANCH  18  19
HETATM   19  C12 UNL     1      25.828   6.055   4.157  1.00  0.00     0.086 A 
HETATM   20  C13 UNL     1      25.606   6.689   2.964  1.00  0.00     0.039 A 
HETATM   21  C14 UNL     1      24.802   7.795   2.876  1.00  0.00     0.004 A 
HETATM   22  C15 UNL     1      24.213   8.260   4.043  1.00  0.00     0.017 A 
HETATM   23  C16 UNL     1      24.442   7.616   5.238  1.00  0.00     0.089 A 
HETATM   24  N3  UNL     1      25.238   6.539   5.259  1.00  0.00    -0.359 N 
ATOM     25  H3  UNL     1      25.402   6.068   6.149  1.00  0.00     0.166 HD
ENDBRANCH  18  19
ENDBRANCH  12  17
TORSDOF 2
ENDMDL
MODEL 5
REMARK VINA RESULT: 8.771351251      2.170      9.081
REMARK  2 active torsions:
REMARK  status: ('A' for Active; 'I' for Inactive)
REMARK    1  A    between atoms: C9_12  and  C10_13 
REMARK    2  A    between atoms: C11_14  and  C12_15 
ROOT
HETATM    1  N1  UNL     1      21.003   4.338   3.993  1.00  0.00    -0.191 NA
HETATM    2  C1  UNL     1      22.097   4.669   4.167  1.00  0.00     0.099 C 
HETATM    3  C2  UNL     1      23.452   5.102   4.379  1.00  0.00     0.045 A 
HETATM    4  C3  UNL     1      23.699   6.430   4.634  1.00  0.00     0.025 A 
HETATM    5  C4  UNL     1      24.968   6.918   4.846  1.00  0.00     0.032 A 
HETATM    6  C5  UNL     1      26.033   6.062   4.803  1.00  0.00     0.043 A 
HETATM    7  N2  UNL     1      27.381   6.231   4.968  1.00  0.00    -0.355 N 
ATOM      8  H2  UNL     1      27.838   7.121   5.168  1.00  0.00     0.166 HD
HETATM    9  C6  UNL     1      28.015   5.056   4.827  1.00  0.00     0.043 A 
HETATM   10  C7  UNL     1      29.366   4.737   4.907  1.00  0.00     0.032 A 
HETATM   11  C8  UNL     1      29.699   3.415   4.710  1.00  0.00     0.023 A 
HETATM   12  C9  UNL     1      28.749   2.455   4.448  1.00  0.00     0.019 A 
HETATM   13  C17 UNL     1      27.416   2.790   4.373  1.00  0.00     0.035 A 
HETATM   14  C18 UNL     1      27.042   4.115   4.566  1.00  0.00     0.004 A 
HETATM   15  C19 UNL     1      25.803   4.725   4.548  1.00  0.00     0.005 A 
HETATM   16  C20 UNL     1      24.526   4.238   4.335  1.00  0.00     0.037 A 
ENDROOT
BRANCH  12  17
HETATM   17  C10 UNL     1      29.103   1.070   4.243  1.00  0.00    -0.060 C 
HETATM   18  C11 UNL     1      29.396  -0.092   4.051  1.00  0.00    -0.043 C 
BRANCH  18  19
HETATM   19  C12 UNL     1      29.741  -1.474   3.798  1.00  0.00     0.086 A 
HETATM   20  C13 UNL     1      28.784  -2.438   3.631  1.00  0.00     0.039 A 
HETATM   21  C14 UNL     1      29.114  -3.747   3.391  1.00  0.00     0.004 A 
HETATM   22  C15 UNL     1      30.462  -4.069   3.321  1.00  0.00     0.017 A 
HETATM   23  C16 UNL     1      31.418  -3.093   3.489  1.00  0.00     0.089 A 
HETATM   24  N3  UNL     1      31.031  -1.831   3.721  1.00  0.00    -0.359 N 
ATOM     25  H3  UNL     1      31.746  -1.114   3.844  1.00  0.00     0.166 HD
ENDBRANCH  18  19
ENDBRANCH  12  17
TORSDOF 2
ENDMDL
