MODEL 1
REMARK VINA RESULT: 4.131926202      0.000      0.000
REMARK  2 active torsions:
REMARK  status: ('A' for Active; 'I' for Inactive)
REMARK    1  A    between atoms: C5_6  and  C6_7 
REMARK    2  A    between atoms: C7_8  and  C8_9 
ROOT
HETATM    1  N1  UNL     1      26.138   1.445   1.954  1.00  0.00    -0.191 NA
HETATM    2  C1  UNL     1      25.956   2.423   2.541  1.00  0.00     0.099 C 
HETATM    3  C2  UNL     1      25.705   3.652   3.276  1.00  0.00     0.044 A 
HETATM    4  C3  UNL     1      24.557   3.766   4.012  1.00  0.00     0.024 A 
HETATM    5  C4  UNL     1      24.285   4.935   4.732  1.00  0.00     0.022 A 
HETATM    6  C5  UNL     1      25.166   5.993   4.714  1.00  0.00     0.018 A 
HETATM    7  C19 UNL     1      26.315   5.862   3.969  1.00  0.00     0.022 A 
HETATM    8  C20 UNL     1      26.589   4.701   3.251  1.00  0.00     0.024 A 
ENDROOT
BRANCH   6   9
HETATM    9  C6  UNL     1      24.856   7.175   5.461  1.00  0.00    -0.059 C 
HETATM   10  C7  UNL     1      24.596   8.158   6.108  1.00  0.00    -0.025 C 
BRANCH  10  11
HETATM   11  C8  UNL     1      24.288   9.331   6.911  1.00  0.00     0.163 A 
HETATM   12  N2  UNL     1      24.093  10.584   6.462  1.00  0.00    -0.333 N 
HETATM   13  C9  UNL     1      23.827  11.413   7.487  1.00  0.00     0.062 A 
ATOM     14  H2  UNL     1      24.139  10.865   5.482  1.00  0.00     0.168 HD
HETATM   15  C10 UNL     1      23.555  12.758   7.611  1.00  0.00     0.033 A 
HETATM   16  C18 UNL     1      23.858  10.635   8.649  1.00  0.00     0.072 A 
HETATM   17  C11 UNL     1      23.313  13.372   8.821  1.00  0.00     0.014 A 
HETATM   18  C12 UNL     1      23.348  12.584   9.954  1.00  0.00    -0.024 A 
HETATM   19  C13 UNL     1      23.108  13.172  11.195  1.00  0.00     0.012 A 
HETATM   20  C17 UNL     1      23.617  11.229   9.879  1.00  0.00     0.003 A 
HETATM   21  C14 UNL     1      23.138  12.410  12.321  1.00  0.00     0.001 A 
HETATM   22  C15 UNL     1      23.407  11.069  12.225  1.00  0.00     0.001 A 
HETATM   23  C16 UNL     1      23.652  10.448  11.007  1.00  0.00     0.014 A 
HETATM   24  N3  UNL     1      24.139   9.392   8.244  1.00  0.00    -0.333 N 
ATOM     25  H3  UNL     1      24.229   8.591   8.868  1.00  0.00     0.168 HD
ENDBRANCH  10  11
ENDBRANCH   6   9
TORSDOF 2
ENDMDL
MODEL 2
REMARK VINA RESULT: 7.738755111      2.092      9.759
REMARK  2 active torsions:
REMARK  status: ('A' for Active; 'I' for Inactive)
REMARK    1  A    between atoms: C5_6  and  C6_7 
REMARK    2  A    between atoms: C7_8  and  C8_9 
ROOT
HETATM    1  N1  UNL     1      23.116  13.373  11.859  1.00  0.00    -0.191 NA
HETATM    2  C1  UNL     1      23.378  12.610  11.032  1.00  0.00     0.099 C 
HETATM    3  C2  UNL     1      23.725  11.642  10.004  1.00  0.00     0.044 A 
HETATM    4  C3  UNL     1      24.231  10.427  10.376  1.00  0.00     0.024 A 
HETATM    5  C4  UNL     1      24.575   9.473   9.412  1.00  0.00     0.022 A 
HETATM    6  C5  UNL     1      24.411   9.737   8.070  1.00  0.00     0.018 A 
HETATM    7  C19 UNL     1      23.901  10.964   7.714  1.00  0.00     0.022 A 
HETATM    8  C20 UNL     1      23.558  11.917   8.670  1.00  0.00     0.024 A 
ENDROOT
BRANCH   6   9
HETATM    9  C6  UNL     1      24.774   8.739   7.110  1.00  0.00    -0.059 C 
HETATM   10  C7  UNL     1      25.087   7.887   6.318  1.00  0.00    -0.025 C 
BRANCH  10  11
HETATM   11  C8  UNL     1      25.468   6.841   5.381  1.00  0.00     0.163 A 
HETATM   12  N2  UNL     1      26.326   6.957   4.352  1.00  0.00    -0.333 N 
HETATM   13  C9  UNL     1      26.437   5.786   3.701  1.00  0.00     0.062 A 
ATOM     14  H2  UNL     1      26.821   7.812   4.100  1.00  0.00     0.168 HD
HETATM   15  C10 UNL     1      27.149   5.338   2.609  1.00  0.00     0.033 A 
HETATM   16  C18 UNL     1      25.600   4.880   4.360  1.00  0.00     0.072 A 
HETATM   17  C11 UNL     1      27.076   4.045   2.137  1.00  0.00     0.014 A 
HETATM   18  C12 UNL     1      26.243   3.169   2.804  1.00  0.00    -0.024 A 
HETATM   19  C13 UNL     1      26.145   1.853   2.354  1.00  0.00     0.012 A 
HETATM   20  C17 UNL     1      25.509   3.572   3.905  1.00  0.00     0.003 A 
HETATM   21  C14 UNL     1      25.330   0.977   3.000  1.00  0.00     0.001 A 
HETATM   22  C15 UNL     1      24.610   1.398   4.089  1.00  0.00     0.001 A 
HETATM   23  C16 UNL     1      24.682   2.700   4.566  1.00  0.00     0.014 A 
HETATM   24  N3  UNL     1      25.043   5.568   5.362  1.00  0.00    -0.333 N 
ATOM     25  H3  UNL     1      24.378   5.175   6.029  1.00  0.00     0.168 HD
ENDBRANCH  10  11
ENDBRANCH   6   9
TORSDOF 2
ENDMDL
