MODEL 1
REMARK VINA RESULT: -9.984479026      0.000      0.000
REMARK  18 active torsions:
REMARK  status: ('A' for Active; 'I' for Inactive)
REMARK    1  A    between atoms: O1_2  and  C2_3 
REMARK    2  A    between atoms: C5_6  and  N1_7 
REMARK    3  A    between atoms: N1_7  and  C6_9 
REMARK    4  A    between atoms: C6_9  and  N2_10 
REMARK    5  A    between atoms: C6_9  and  C21_36 
REMARK    6  A    between atoms: N2_10  and  C7_11 
REMARK    7  A    between atoms: C9_13  and  O2_14 
REMARK    8  A    between atoms: C10_16  and  N3_17 
REMARK    9  A    between atoms: N3_17  and  S1_19 
REMARK   10  A    between atoms: S1_19  and  C11_22 
REMARK   11  A    between atoms: C14_25  and  O5_26 
REMARK   12  A    between atoms: C16_28  and  O6_29 
REMARK   13  A    between atoms: C20_33  and  O7_34 
REMARK   14  A    between atoms: C24_39  and  O8_40 
REMARK   15  A    between atoms: C26_42  and  O9_43 
REMARK   16  A    between atoms: C29_46  and  C30_47 
REMARK   17  A    between atoms: C30_47  and  N4_49 
REMARK   18  A    between atoms: N4_49  and  N5_51 
ROOT
HETATM    1  C6  UNL     1      13.187   1.505  -8.383  1.00  0.00     0.190 C 
ENDROOT
BRANCH   1   2
HETATM    2  N1  UNL     1      11.916   2.255  -8.481  1.00  0.00    -0.330 N 
ATOM      3  H1  UNL     1      11.212   2.101  -7.759  1.00  0.00     0.168 HD
BRANCH   2   4
HETATM    4  C5  UNL     1      11.621   3.160  -9.498  1.00  0.00     0.048 A 
HETATM    5  C4  UNL     1      10.895   2.786 -10.585  1.00  0.00     0.033 A 
HETATM    6  C3  UNL     1      10.647   3.728 -11.570  1.00  0.00     0.039 A 
HETATM    7  C2  UNL     1      11.122   5.012 -11.454  1.00  0.00     0.069 A 
HETATM    8  C31 UNL     1      11.861   5.362 -10.329  1.00  0.00     0.053 A 
HETATM    9  C29 UNL     1      12.124   4.451  -9.335  1.00  0.00     0.033 A 
BRANCH   7  10
HETATM   10  O1  UNL     1      10.880   5.979 -12.437  1.00  0.00    -0.356 OA
HETATM   11  C1  UNL     1      11.009   7.356 -12.138  1.00  0.00     0.210 C 
ENDBRANCH   7  10
BRANCH   9  12
HETATM   12  C30 UNL     1      12.881   4.810  -8.135  1.00  0.00     0.127 C 
HETATM   13  S2  UNL     1      14.513   4.765  -8.111  1.00  0.00    -0.058 SA
BRANCH  12  14
HETATM   14  N4  UNL     1      12.174   5.198  -6.978  1.00  0.00    -0.296 N 
ATOM     15  H4  UNL     1      11.281   4.748  -6.777  1.00  0.00     0.187 HD
BRANCH  14  16
HETATM   16  N5  UNL     1      12.645   6.170  -6.101  1.00  0.00    -0.344 N 
ATOM     17  H52 UNL     1      13.633   6.140  -5.849  1.00  0.00     0.176 HD
ATOM     18  H51 UNL     1      12.045   6.895  -5.709  1.00  0.00     0.176 HD
ENDBRANCH  14  16
ENDBRANCH  12  14
ENDBRANCH   9  12
ENDBRANCH   2   4
ENDBRANCH   1   2
BRANCH   1  19
HETATM   19  N2  UNL     1      13.931   1.418  -9.301  1.00  0.00    -0.384 NA
BRANCH  19  20
HETATM   20  C7  UNL     1      14.751   1.310 -10.312  1.00  0.00     0.145 A 
HETATM   21  C8  UNL     1      16.015   1.959 -10.199  1.00  0.00     0.086 A 
HETATM   22  C9  UNL     1      16.989   1.915 -11.121  1.00  0.00     0.096 A 
HETATM   23  C10 UNL     1      16.772   1.174 -12.305  1.00  0.00     0.078 A 
HETATM   24  C19 UNL     1      15.593   0.546 -12.458  1.00  0.00     0.073 A 
HETATM   25  C20 UNL     1      14.578   0.603 -11.478  1.00  0.00     0.108 A 
BRANCH  22  26
HETATM   26  O2  UNL     1      18.211   2.563 -10.977  1.00  0.00    -0.358 OA
ATOM     27  H2  UNL     1      18.897   2.540 -11.634  1.00  0.00     0.217 HD
ENDBRANCH  22  26
BRANCH  23  28
HETATM   28  N3  UNL     1      17.850   1.123 -13.195  1.00  0.00    -0.278 N 
ATOM     29  H3  UNL     1      18.468   0.317 -13.112  1.00  0.00     0.179 HD
BRANCH  28  30
HETATM   30  S1  UNL     1      18.243   2.248 -14.395  1.00  0.00     0.263 S 
HETATM   31  O3  UNL     1      18.944   3.471 -13.847  1.00  0.00    -0.200 OA
HETATM   32  O4  UNL     1      19.227   1.599 -15.370  1.00  0.00    -0.200 OA
BRANCH  30  33
HETATM   33  C11 UNL     1      16.857   2.752 -15.306  1.00  0.00     0.082 A 
HETATM   34  C12 UNL     1      17.039   3.100 -16.658  1.00  0.00     0.028 A 
HETATM   35  C13 UNL     1      15.974   3.554 -17.393  1.00  0.00     0.041 A 
HETATM   36  C14 UNL     1      14.709   3.685 -16.862  1.00  0.00     0.101 A 
HETATM   37  C16 UNL     1      14.525   3.343 -15.529  1.00  0.00     0.102 A 
HETATM   38  C18 UNL     1      15.610   2.880 -14.771  1.00  0.00     0.065 A 
BRANCH  36  39
HETATM   39  O5  UNL     1      13.691   4.138 -17.629  1.00  0.00    -0.353 OA
HETATM   40  C15 UNL     1      12.875   3.310 -18.448  1.00  0.00     0.210 C 
ENDBRANCH  36  39
BRANCH  37  41
HETATM   41  O6  UNL     1      13.286   3.477 -15.018  1.00  0.00    -0.353 OA
HETATM   42  C17 UNL     1      12.597   2.475 -14.317  1.00  0.00     0.210 C 
ENDBRANCH  37  41
ENDBRANCH  30  33
ENDBRANCH  28  30
ENDBRANCH  23  28
BRANCH  25  43
HETATM   43  O7  UNL     1      13.429  -0.097 -11.795  1.00  0.00    -0.357 OA
ATOM     44  H7  UNL     1      13.226  -0.418 -12.665  1.00  0.00     0.217 HD
ENDBRANCH  25  43
ENDBRANCH  19  20
ENDBRANCH   1  19
BRANCH   1  45
HETATM   45  C21 UNL     1      13.326   0.895  -7.067  1.00  0.00     0.025 A 
HETATM   46  C22 UNL     1      13.550  -0.482  -7.024  1.00  0.00     0.019 A 
HETATM   47  C23 UNL     1      13.752  -1.143  -5.833  1.00  0.00     0.040 A 
HETATM   48  C24 UNL     1      13.744  -0.476  -4.630  1.00  0.00     0.101 A 
HETATM   49  C26 UNL     1      13.522   0.883  -4.669  1.00  0.00     0.102 A 
HETATM   50  C28 UNL     1      13.317   1.546  -5.878  1.00  0.00     0.056 A 
BRANCH  48  51
HETATM   51  O8  UNL     1      13.943  -1.115  -3.419  1.00  0.00    -0.353 OA
HETATM   52  C25 UNL     1      15.173  -1.789  -3.212  1.00  0.00     0.210 C 
ENDBRANCH  48  51
BRANCH  49  53
HETATM   53  O9  UNL     1      13.512   1.567  -3.466  1.00  0.00    -0.353 OA
HETATM   54  C27 UNL     1      13.247   2.953  -3.413  1.00  0.00     0.210 C 
ENDBRANCH  49  53
ENDBRANCH   1  45
TORSDOF 18
ENDMDL
MODEL 2
REMARK VINA RESULT: -9.826799795      3.258      7.321
REMARK  18 active torsions:
REMARK  status: ('A' for Active; 'I' for Inactive)
REMARK    1  A    between atoms: O1_2  and  C2_3 
REMARK    2  A    between atoms: C5_6  and  N1_7 
REMARK    3  A    between atoms: N1_7  and  C6_9 
REMARK    4  A    between atoms: C6_9  and  N2_10 
REMARK    5  A    between atoms: C6_9  and  C21_36 
REMARK    6  A    between atoms: N2_10  and  C7_11 
REMARK    7  A    between atoms: C9_13  and  O2_14 
REMARK    8  A    between atoms: C10_16  and  N3_17 
REMARK    9  A    between atoms: N3_17  and  S1_19 
REMARK   10  A    between atoms: S1_19  and  C11_22 
REMARK   11  A    between atoms: C14_25  and  O5_26 
REMARK   12  A    between atoms: C16_28  and  O6_29 
REMARK   13  A    between atoms: C20_33  and  O7_34 
REMARK   14  A    between atoms: C24_39  and  O8_40 
REMARK   15  A    between atoms: C26_42  and  O9_43 
REMARK   16  A    between atoms: C29_46  and  C30_47 
REMARK   17  A    between atoms: C30_47  and  N4_49 
REMARK   18  A    between atoms: N4_49  and  N5_51 
ROOT
HETATM    1  C6  UNL     1      12.805   1.026  -9.366  1.00  0.00     0.190 C 
ENDROOT
BRANCH   1   2
HETATM    2  N1  UNL     1      13.242   0.403 -10.634  1.00  0.00    -0.330 N 
ATOM      3  H1  UNL     1      12.724  -0.407 -10.973  1.00  0.00     0.168 HD
BRANCH   2   4
HETATM    4  C5  UNL     1      14.319   0.854 -11.393  1.00  0.00     0.048 A 
HETATM    5  C4  UNL     1      15.602   0.603 -11.017  1.00  0.00     0.033 A 
HETATM    6  C3  UNL     1      16.630   1.091 -11.806  1.00  0.00     0.039 A 
HETATM    7  C2  UNL     1      16.364   1.812 -12.945  1.00  0.00     0.069 A 
HETATM    8  C31 UNL     1      15.041   2.051 -13.302  1.00  0.00     0.053 A 
HETATM    9  C29 UNL     1      13.999   1.581 -12.540  1.00  0.00     0.033 A 
BRANCH   7  10
HETATM   10  O1  UNL     1      17.388   2.311 -13.758  1.00  0.00    -0.356 OA
HETATM   11  C1  UNL     1      17.085   3.069 -14.913  1.00  0.00     0.210 C 
ENDBRANCH   7  10
BRANCH   9  12
HETATM   12  C30 UNL     1      12.602   1.804 -12.914  1.00  0.00     0.127 C 
HETATM   13  S2  UNL     1      11.610   0.560 -13.286  1.00  0.00    -0.058 SA
BRANCH  12  14
HETATM   14  N4  UNL     1      12.113   3.125 -12.955  1.00  0.00    -0.296 N 
ATOM     15  H4  UNL     1      12.562   3.831 -12.372  1.00  0.00     0.187 HD
BRANCH  14  16
HETATM   16  N5  UNL     1      11.042   3.506 -13.758  1.00  0.00    -0.344 N 
ATOM     17  H52 UNL     1      11.192   4.270 -14.416  1.00  0.00     0.176 HD
ATOM     18  H51 UNL     1      10.129   3.052 -13.709  1.00  0.00     0.176 HD
ENDBRANCH  14  16
ENDBRANCH  12  14
ENDBRANCH   9  12
ENDBRANCH   2   4
ENDBRANCH   1   2
BRANCH   1  19
HETATM   19  N2  UNL     1      12.240   2.067  -9.346  1.00  0.00    -0.384 NA
BRANCH  19  20
HETATM   20  C7  UNL     1      11.623   3.219  -9.331  1.00  0.00     0.145 A 
HETATM   21  C8  UNL     1      12.129   4.218  -8.451  1.00  0.00     0.086 A 
HETATM   22  C9  UNL     1      11.645   5.466  -8.341  1.00  0.00     0.096 A 
HETATM   23  C10 UNL     1      10.550   5.844  -9.152  1.00  0.00     0.078 A 
HETATM   24  C19 UNL     1      10.037   4.934  -9.998  1.00  0.00     0.073 A 
HETATM   25  C20 UNL     1      10.558   3.625 -10.100  1.00  0.00     0.108 A 
BRANCH  22  26
HETATM   26  O2  UNL     1      12.163   6.416  -7.469  1.00  0.00    -0.358 OA
ATOM     27  H2  UNL     1      11.623   7.011  -6.960  1.00  0.00     0.217 HD
ENDBRANCH  22  26
BRANCH  23  28
HETATM   28  N3  UNL     1      10.135   7.174  -9.029  1.00  0.00    -0.278 N 
ATOM     29  H3  UNL     1       9.191   7.323  -8.675  1.00  0.00     0.179 HD
BRANCH  28  30
HETATM   30  S1  UNL     1      11.022   8.564  -9.403  1.00  0.00     0.263 S 
HETATM   31  O3  UNL     1      11.390   9.374  -8.179  1.00  0.00    -0.200 OA
HETATM   32  O4  UNL     1      12.346   8.143 -10.044  1.00  0.00    -0.200 OA
BRANCH  30  33
HETATM   33  C11 UNL     1      10.197   9.590 -10.531  1.00  0.00     0.082 A 
HETATM   34  C12 UNL     1       9.494  10.702 -10.030  1.00  0.00     0.028 A 
HETATM   35  C13 UNL     1       8.786  11.503 -10.889  1.00  0.00     0.041 A 
HETATM   36  C14 UNL     1       8.732  11.269 -12.246  1.00  0.00     0.101 A 
HETATM   37  C16 UNL     1       9.424  10.174 -12.744  1.00  0.00     0.102 A 
HETATM   38  C18 UNL     1      10.148   9.349 -11.872  1.00  0.00     0.065 A 
BRANCH  36  39
HETATM   39  O5  UNL     1       8.019  12.090 -13.052  1.00  0.00    -0.353 OA
HETATM   40  C15 UNL     1       8.384  13.430 -13.356  1.00  0.00     0.210 C 
ENDBRANCH  36  39
BRANCH  37  41
HETATM   41  O6  UNL     1       9.364   9.951 -14.072  1.00  0.00    -0.353 OA
HETATM   42  C17 UNL     1       9.809   8.783 -14.708  1.00  0.00     0.210 C 
ENDBRANCH  37  41
ENDBRANCH  30  33
ENDBRANCH  28  30
ENDBRANCH  23  28
BRANCH  25  43
HETATM   43  O7  UNL     1       9.913   2.816 -11.017  1.00  0.00    -0.357 OA
ATOM     44  H7  UNL     1       9.277   3.131 -11.648  1.00  0.00     0.217 HD
ENDBRANCH  25  43
ENDBRANCH  19  20
ENDBRANCH   1  19
BRANCH   1  45
HETATM   45  C21 UNL     1      13.208   0.214  -8.225  1.00  0.00     0.025 A 
HETATM   46  C22 UNL     1      13.523   0.886  -7.044  1.00  0.00     0.019 A 
HETATM   47  C23 UNL     1      13.860   0.207  -5.894  1.00  0.00     0.040 A 
HETATM   48  C24 UNL     1      13.900  -1.168  -5.858  1.00  0.00     0.101 A 
HETATM   49  C26 UNL     1      13.590  -1.835  -7.022  1.00  0.00     0.102 A 
HETATM   50  C28 UNL     1      13.252  -1.141  -8.183  1.00  0.00     0.056 A 
BRANCH  48  51
HETATM   51  O8  UNL     1      14.235  -1.876  -4.717  1.00  0.00    -0.353 OA
HETATM   52  C25 UNL     1      14.722  -1.153  -3.598  1.00  0.00     0.210 C 
ENDBRANCH  48  51
BRANCH  49  53
HETATM   53  O9  UNL     1      13.626  -3.218  -6.999  1.00  0.00    -0.353 OA
HETATM   54  C27 UNL     1      14.653  -3.936  -7.650  1.00  0.00     0.210 C 
ENDBRANCH  49  53
ENDBRANCH   1  45
TORSDOF 18
ENDMDL
MODEL 3
REMARK VINA RESULT: -9.824515604      0.624      1.424
REMARK  18 active torsions:
REMARK  status: ('A' for Active; 'I' for Inactive)
REMARK    1  A    between atoms: O1_2  and  C2_3 
REMARK    2  A    between atoms: C5_6  and  N1_7 
REMARK    3  A    between atoms: N1_7  and  C6_9 
REMARK    4  A    between atoms: C6_9  and  N2_10 
REMARK    5  A    between atoms: C6_9  and  C21_36 
REMARK    6  A    between atoms: N2_10  and  C7_11 
REMARK    7  A    between atoms: C9_13  and  O2_14 
REMARK    8  A    between atoms: C10_16  and  N3_17 
REMARK    9  A    between atoms: N3_17  and  S1_19 
REMARK   10  A    between atoms: S1_19  and  C11_22 
REMARK   11  A    between atoms: C14_25  and  O5_26 
REMARK   12  A    between atoms: C16_28  and  O6_29 
REMARK   13  A    between atoms: C20_33  and  O7_34 
REMARK   14  A    between atoms: C24_39  and  O8_40 
REMARK   15  A    between atoms: C26_42  and  O9_43 
REMARK   16  A    between atoms: C29_46  and  C30_47 
REMARK   17  A    between atoms: C30_47  and  N4_49 
REMARK   18  A    between atoms: N4_49  and  N5_51 
ROOT
HETATM    1  C6  UNL     1      13.347   1.590  -8.314  1.00  0.00     0.190 C 
ENDROOT
BRANCH   1   2
HETATM    2  N1  UNL     1      12.064   2.321  -8.389  1.00  0.00    -0.330 N 
ATOM      3  H1  UNL     1      11.386   2.177  -7.641  1.00  0.00     0.168 HD
BRANCH   2   4
HETATM    4  C5  UNL     1      11.724   3.194  -9.420  1.00  0.00     0.048 A 
HETATM    5  C4  UNL     1      11.005   2.771 -10.495  1.00  0.00     0.033 A 
HETATM    6  C3  UNL     1      10.712   3.684 -11.494  1.00  0.00     0.039 A 
HETATM    7  C2  UNL     1      11.134   4.989 -11.405  1.00  0.00     0.069 A 
HETATM    8  C31 UNL     1      11.867   5.389 -10.292  1.00  0.00     0.053 A 
HETATM    9  C29 UNL     1      12.175   4.508  -9.285  1.00  0.00     0.033 A 
BRANCH   7  10
HETATM   10  O1  UNL     1      10.845   5.927 -12.402  1.00  0.00    -0.356 OA
HETATM   11  C1  UNL     1      10.740   7.302 -12.087  1.00  0.00     0.210 C 
ENDBRANCH   7  10
BRANCH   9  12
HETATM   12  C30 UNL     1      12.925   4.919  -8.097  1.00  0.00     0.127 C 
HETATM   13  S2  UNL     1      14.556   4.859  -8.056  1.00  0.00    -0.058 SA
BRANCH  12  14
HETATM   14  N4  UNL     1      12.212   5.371  -6.967  1.00  0.00    -0.296 N 
ATOM     15  H4  UNL     1      11.221   5.147  -6.892  1.00  0.00     0.187 HD
BRANCH  14  16
HETATM   16  N5  UNL     1      12.808   6.112  -5.951  1.00  0.00    -0.344 N 
ATOM     17  H52 UNL     1      13.716   5.800  -5.608  1.00  0.00     0.176 HD
ATOM     18  H51 UNL     1      12.372   6.942  -5.547  1.00  0.00     0.176 HD
ENDBRANCH  14  16
ENDBRANCH  12  14
ENDBRANCH   9  12
ENDBRANCH   2   4
ENDBRANCH   1   2
BRANCH   1  19
HETATM   19  N2  UNL     1      14.066   1.494  -9.251  1.00  0.00    -0.384 NA
BRANCH  19  20
HETATM   20  C7  UNL     1      14.855   1.378 -10.285  1.00  0.00     0.145 A 
HETATM   21  C8  UNL     1      16.131   2.008 -10.207  1.00  0.00     0.086 A 
HETATM   22  C9  UNL     1      17.077   1.953 -11.157  1.00  0.00     0.096 A 
HETATM   23  C10 UNL     1      16.816   1.219 -12.336  1.00  0.00     0.078 A 
HETATM   24  C19 UNL     1      15.624   0.608 -12.457  1.00  0.00     0.073 A 
HETATM   25  C20 UNL     1      14.639   0.677 -11.448  1.00  0.00     0.108 A 
BRANCH  22  26
HETATM   26  O2  UNL     1      18.312   2.582 -11.047  1.00  0.00    -0.358 OA
ATOM     27  H2  UNL     1      19.029   2.441 -11.655  1.00  0.00     0.217 HD
ENDBRANCH  22  26
BRANCH  23  28
HETATM   28  N3  UNL     1      17.867   1.155 -13.257  1.00  0.00    -0.278 N 
ATOM     29  H3  UNL     1      18.471   0.335 -13.198  1.00  0.00     0.179 HD
BRANCH  28  30
HETATM   30  S1  UNL     1      18.249   2.283 -14.457  1.00  0.00     0.263 S 
HETATM   31  O3  UNL     1      18.946   3.508 -13.911  1.00  0.00    -0.200 OA
HETATM   32  O4  UNL     1      19.231   1.640 -15.438  1.00  0.00    -0.200 OA
BRANCH  30  33
HETATM   33  C11 UNL     1      16.855   2.782 -15.361  1.00  0.00     0.082 A 
HETATM   34  C12 UNL     1      17.030   3.137 -16.711  1.00  0.00     0.028 A 
HETATM   35  C13 UNL     1      15.958   3.587 -17.440  1.00  0.00     0.041 A 
HETATM   36  C14 UNL     1      14.695   3.707 -16.904  1.00  0.00     0.101 A 
HETATM   37  C16 UNL     1      14.519   3.357 -15.572  1.00  0.00     0.102 A 
HETATM   38  C18 UNL     1      15.609   2.898 -14.820  1.00  0.00     0.065 A 
BRANCH  36  39
HETATM   39  O5  UNL     1      13.670   4.156 -17.665  1.00  0.00    -0.353 OA
HETATM   40  C15 UNL     1      12.840   3.323 -18.464  1.00  0.00     0.210 C 
ENDBRANCH  36  39
BRANCH  37  41
HETATM   41  O6  UNL     1      13.280   3.479 -15.055  1.00  0.00    -0.353 OA
HETATM   42  C17 UNL     1      12.596   2.465 -14.369  1.00  0.00     0.210 C 
ENDBRANCH  37  41
ENDBRANCH  30  33
ENDBRANCH  28  30
ENDBRANCH  23  28
BRANCH  25  43
HETATM   43  O7  UNL     1      13.471  -0.006 -11.733  1.00  0.00    -0.357 OA
ATOM     44  H7  UNL     1      12.966   0.114 -12.529  1.00  0.00     0.217 HD
ENDBRANCH  25  43
ENDBRANCH  19  20
ENDBRANCH   1  19
BRANCH   1  45
HETATM   45  C21 UNL     1      13.532   1.008  -6.990  1.00  0.00     0.025 A 
HETATM   46  C22 UNL     1      13.362   1.853  -5.893  1.00  0.00     0.019 A 
HETATM   47  C23 UNL     1      13.459   1.387  -4.601  1.00  0.00     0.040 A 
HETATM   48  C24 UNL     1      13.726   0.065  -4.333  1.00  0.00     0.101 A 
HETATM   49  C26 UNL     1      13.894  -0.773  -5.413  1.00  0.00     0.102 A 
HETATM   50  C28 UNL     1      13.797  -0.293  -6.719  1.00  0.00     0.056 A 
BRANCH  48  51
HETATM   51  O8  UNL     1      13.829  -0.431  -3.044  1.00  0.00    -0.353 OA
HETATM   52  C25 UNL     1      13.012   0.144  -2.038  1.00  0.00     0.210 C 
ENDBRANCH  48  51
BRANCH  49  53
HETATM   53  O9  UNL     1      14.162  -2.106  -5.158  1.00  0.00    -0.353 OA
HETATM   54  C27 UNL     1      14.592  -2.977  -6.183  1.00  0.00     0.210 C 
ENDBRANCH  49  53
ENDBRANCH   1  45
TORSDOF 18
ENDMDL
MODEL 4
REMARK VINA RESULT: -9.817247466      2.816      6.843
REMARK  18 active torsions:
REMARK  status: ('A' for Active; 'I' for Inactive)
REMARK    1  A    between atoms: O1_2  and  C2_3 
REMARK    2  A    between atoms: C5_6  and  N1_7 
REMARK    3  A    between atoms: N1_7  and  C6_9 
REMARK    4  A    between atoms: C6_9  and  N2_10 
REMARK    5  A    between atoms: C6_9  and  C21_36 
REMARK    6  A    between atoms: N2_10  and  C7_11 
REMARK    7  A    between atoms: C9_13  and  O2_14 
REMARK    8  A    between atoms: C10_16  and  N3_17 
REMARK    9  A    between atoms: N3_17  and  S1_19 
REMARK   10  A    between atoms: S1_19  and  C11_22 
REMARK   11  A    between atoms: C14_25  and  O5_26 
REMARK   12  A    between atoms: C16_28  and  O6_29 
REMARK   13  A    between atoms: C20_33  and  O7_34 
REMARK   14  A    between atoms: C24_39  and  O8_40 
REMARK   15  A    between atoms: C26_42  and  O9_43 
REMARK   16  A    between atoms: C29_46  and  C30_47 
REMARK   17  A    between atoms: C30_47  and  N4_49 
REMARK   18  A    between atoms: N4_49  and  N5_51 
ROOT
HETATM    1  C6  UNL     1      13.457   0.348  -9.145  1.00  0.00     0.190 C 
ENDROOT
BRANCH   1   2
HETATM    2  N1  UNL     1      13.403  -0.218 -10.511  1.00  0.00    -0.330 N 
ATOM      3  H1  UNL     1      13.614  -1.209 -10.626  1.00  0.00     0.168 HD
BRANCH   2   4
HETATM    4  C5  UNL     1      13.083   0.520 -11.647  1.00  0.00     0.048 A 
HETATM    5  C4  UNL     1      11.796   0.636 -12.074  1.00  0.00     0.033 A 
HETATM    6  C3  UNL     1      11.543   1.371 -13.219  1.00  0.00     0.039 A 
HETATM    7  C2  UNL     1      12.567   1.972 -13.912  1.00  0.00     0.069 A 
HETATM    8  C31 UNL     1      13.871   1.835 -13.450  1.00  0.00     0.053 A 
HETATM    9  C29 UNL     1      14.155   1.112 -12.317  1.00  0.00     0.033 A 
BRANCH   7  10
HETATM   10  O1  UNL     1      12.332   2.723 -15.071  1.00  0.00    -0.356 OA
HETATM   11  C1  UNL     1      12.768   2.253 -16.332  1.00  0.00     0.210 C 
ENDBRANCH   7  10
BRANCH   9  12
HETATM   12  C30 UNL     1      15.518   0.976 -11.804  1.00  0.00     0.127 C 
HETATM   13  S2  UNL     1      16.459  -0.296 -12.208  1.00  0.00    -0.058 SA
BRANCH  12  14
HETATM   14  N4  UNL     1      16.020   1.971 -10.940  1.00  0.00    -0.296 N 
ATOM     15  H4  UNL     1      15.359   2.576 -10.454  1.00  0.00     0.187 HD
BRANCH  14  16
HETATM   16  N5  UNL     1      17.382   2.161 -10.724  1.00  0.00    -0.344 N 
ATOM     17  H52 UNL     1      17.662   2.942 -10.131  1.00  0.00     0.176 HD
ATOM     18  H51 UNL     1      18.094   1.555 -11.133  1.00  0.00     0.176 HD
ENDBRANCH  14  16
ENDBRANCH  12  14
ENDBRANCH   9  12
ENDBRANCH   2   4
ENDBRANCH   1   2
BRANCH   1  19
HETATM   19  N2  UNL     1      13.316   1.507  -8.945  1.00  0.00    -0.384 NA
BRANCH  19  20
HETATM   20  C7  UNL     1      13.166   2.788  -8.733  1.00  0.00     0.145 A 
HETATM   21  C8  UNL     1      12.610   3.563  -9.791  1.00  0.00     0.086 A 
HETATM   22  C9  UNL     1      12.349   4.879  -9.727  1.00  0.00     0.096 A 
HETATM   23  C10 UNL     1      12.637   5.572  -8.530  1.00  0.00     0.078 A 
HETATM   24  C19 UNL     1      13.165   4.882  -7.503  1.00  0.00     0.073 A 
HETATM   25  C20 UNL     1      13.434   3.499  -7.587  1.00  0.00     0.108 A 
BRANCH  22  26
HETATM   26  O2  UNL     1      11.806   5.605 -10.781  1.00  0.00    -0.358 OA
ATOM     27  H2  UNL     1      11.890   6.548 -10.866  1.00  0.00     0.217 HD
ENDBRANCH  22  26
BRANCH  23  28
HETATM   28  N3  UNL     1      12.286   6.926  -8.512  1.00  0.00    -0.278 N 
ATOM     29  H3  UNL     1      13.056   7.594  -8.546  1.00  0.00     0.179 HD
BRANCH  28  30
HETATM   30  S1  UNL     1      10.729   7.581  -8.441  1.00  0.00     0.263 S 
HETATM   31  O3  UNL     1       9.645   6.526  -8.467  1.00  0.00    -0.200 OA
HETATM   32  O4  UNL     1      10.568   8.319  -7.111  1.00  0.00    -0.200 OA
BRANCH  30  33
HETATM   33  C11 UNL     1      10.435   8.723  -9.713  1.00  0.00     0.082 A 
HETATM   34  C12 UNL     1       9.865   9.964  -9.374  1.00  0.00     0.028 A 
HETATM   35  C13 UNL     1       9.570  10.869 -10.362  1.00  0.00     0.041 A 
HETATM   36  C14 UNL     1       9.813  10.618 -11.694  1.00  0.00     0.101 A 
HETATM   37  C16 UNL     1      10.375   9.394 -12.033  1.00  0.00     0.102 A 
HETATM   38  C18 UNL     1      10.678   8.464 -11.029  1.00  0.00     0.065 A 
BRANCH  36  39
HETATM   39  O5  UNL     1       9.504  11.544 -12.632  1.00  0.00    -0.353 OA
HETATM   40  C15 UNL     1       8.275  12.258 -12.677  1.00  0.00     0.210 C 
ENDBRANCH  36  39
BRANCH  37  41
HETATM   41  O6  UNL     1      10.607   9.156 -13.339  1.00  0.00    -0.353 OA
HETATM   42  C17 UNL     1       9.624   8.795 -14.272  1.00  0.00     0.210 C 
ENDBRANCH  37  41
ENDBRANCH  30  33
ENDBRANCH  28  30
ENDBRANCH  23  28
BRANCH  25  43
HETATM   43  O7  UNL     1      13.978   2.946  -6.443  1.00  0.00    -0.357 OA
ATOM     44  H7  UNL     1      13.675   3.138  -5.564  1.00  0.00     0.217 HD
ENDBRANCH  25  43
ENDBRANCH  19  20
ENDBRANCH   1  19
BRANCH   1  45
HETATM   45  C21 UNL     1      13.743  -0.693  -8.166  1.00  0.00     0.025 A 
HETATM   46  C22 UNL     1      14.187  -1.922  -8.654  1.00  0.00     0.019 A 
HETATM   47  C23 UNL     1      14.539  -2.951  -7.808  1.00  0.00     0.040 A 
HETATM   48  C24 UNL     1      14.471  -2.811  -6.442  1.00  0.00     0.101 A 
HETATM   49  C26 UNL     1      14.034  -1.599  -5.956  1.00  0.00     0.102 A 
HETATM   50  C28 UNL     1      13.678  -0.562  -6.818  1.00  0.00     0.056 A 
BRANCH  48  51
HETATM   51  O8  UNL     1      14.819  -3.827  -5.568  1.00  0.00    -0.353 OA
HETATM   52  C25 UNL     1      15.945  -4.627  -5.885  1.00  0.00     0.210 C 
ENDBRANCH  48  51
BRANCH  49  53
HETATM   53  O9  UNL     1      13.962  -1.444  -4.583  1.00  0.00    -0.353 OA
HETATM   54  C27 UNL     1      14.477  -0.293  -3.947  1.00  0.00     0.210 C 
ENDBRANCH  49  53
ENDBRANCH   1  45
TORSDOF 18
ENDMDL
MODEL 5
REMARK VINA RESULT: -9.811271742      1.920      3.352
REMARK  18 active torsions:
REMARK  status: ('A' for Active; 'I' for Inactive)
REMARK    1  A    between atoms: O1_2  and  C2_3 
REMARK    2  A    between atoms: C5_6  and  N1_7 
REMARK    3  A    between atoms: N1_7  and  C6_9 
REMARK    4  A    between atoms: C6_9  and  N2_10 
REMARK    5  A    between atoms: C6_9  and  C21_36 
REMARK    6  A    between atoms: N2_10  and  C7_11 
REMARK    7  A    between atoms: C9_13  and  O2_14 
REMARK    8  A    between atoms: C10_16  and  N3_17 
REMARK    9  A    between atoms: N3_17  and  S1_19 
REMARK   10  A    between atoms: S1_19  and  C11_22 
REMARK   11  A    between atoms: C14_25  and  O5_26 
REMARK   12  A    between atoms: C16_28  and  O6_29 
REMARK   13  A    between atoms: C20_33  and  O7_34 
REMARK   14  A    between atoms: C24_39  and  O8_40 
REMARK   15  A    between atoms: C26_42  and  O9_43 
REMARK   16  A    between atoms: C29_46  and  C30_47 
REMARK   17  A    between atoms: C30_47  and  N4_49 
REMARK   18  A    between atoms: N4_49  and  N5_51 
ROOT
HETATM    1  C6  UNL     1      13.634   1.166  -7.907  1.00  0.00     0.190 C 
ENDROOT
BRANCH   1   2
HETATM    2  N1  UNL     1      12.397   1.965  -7.767  1.00  0.00    -0.330 N 
ATOM      3  H1  UNL     1      11.920   1.955  -6.866  1.00  0.00     0.168 HD
BRANCH   2   4
HETATM    4  C5  UNL     1      11.845   2.731  -8.791  1.00  0.00     0.048 A 
HETATM    5  C4  UNL     1      11.055   2.168  -9.745  1.00  0.00     0.033 A 
HETATM    6  C3  UNL     1      10.546   2.979 -10.745  1.00  0.00     0.039 A 
HETATM    7  C2  UNL     1      10.830   4.323 -10.776  1.00  0.00     0.069 A 
HETATM    8  C31 UNL     1      11.640   4.868  -9.786  1.00  0.00     0.053 A 
HETATM    9  C29 UNL     1      12.160   4.090  -8.780  1.00  0.00     0.033 A 
BRANCH   7  10
HETATM   10  O1  UNL     1      10.323   5.161 -11.777  1.00  0.00    -0.356 OA
HETATM   11  C1  UNL     1      10.692   6.525 -11.827  1.00  0.00     0.210 C 
ENDBRANCH   7  10
BRANCH   9  12
HETATM   12  C30 UNL     1      12.995   4.651  -7.717  1.00  0.00     0.127 C 
HETATM   13  S2  UNL     1      14.618   4.752  -7.872  1.00  0.00    -0.058 SA
BRANCH  12  14
HETATM   14  N4  UNL     1      12.374   5.109  -6.537  1.00  0.00    -0.296 N 
ATOM     15  H4  UNL     1      11.480   4.702  -6.265  1.00  0.00     0.187 HD
BRANCH  14  16
HETATM   16  N5  UNL     1      12.932   6.096  -5.729  1.00  0.00    -0.344 N 
ATOM     17  H52 UNL     1      13.369   6.893  -6.191  1.00  0.00     0.176 HD
ATOM     18  H51 UNL     1      12.919   6.045  -4.710  1.00  0.00     0.176 HD
ENDBRANCH  14  16
ENDBRANCH  12  14
ENDBRANCH   9  12
ENDBRANCH   2   4
ENDBRANCH   1   2
BRANCH   1  19
HETATM   19  N2  UNL     1      14.254   1.149  -8.916  1.00  0.00    -0.384 NA
BRANCH  19  20
HETATM   20  C7  UNL     1      14.937   1.140 -10.030  1.00  0.00     0.145 A 
HETATM   21  C8  UNL     1      14.416   0.368 -11.108  1.00  0.00     0.086 A 
HETATM   22  C9  UNL     1      14.964   0.282 -12.330  1.00  0.00     0.096 A 
HETATM   23  C10 UNL     1      16.148   1.006 -12.597  1.00  0.00     0.078 A 
HETATM   24  C19 UNL     1      16.679   1.749 -11.609  1.00  0.00     0.073 A 
HETATM   25  C20 UNL     1      16.090   1.826 -10.328  1.00  0.00     0.108 A 
BRANCH  22  26
HETATM   26  O2  UNL     1      14.428  -0.484 -13.359  1.00  0.00    -0.358 OA
ATOM     27  H2  UNL     1      14.911  -1.167 -13.811  1.00  0.00     0.217 HD
ENDBRANCH  22  26
BRANCH  23  28
HETATM   28  N3  UNL     1      16.632   0.918 -13.907  1.00  0.00    -0.278 N 
ATOM     29  H3  UNL     1      17.174   0.085 -14.134  1.00  0.00     0.179 HD
BRANCH  28  30
HETATM   30  S1  UNL     1      16.419   2.038 -15.155  1.00  0.00     0.263 S 
HETATM   31  O3  UNL     1      16.238   1.384 -16.507  1.00  0.00    -0.200 OA
HETATM   32  O4  UNL     1      15.135   2.827 -14.892  1.00  0.00    -0.200 OA
BRANCH  30  33
HETATM   33  C11 UNL     1      17.723   3.177 -15.249  1.00  0.00     0.082 A 
HETATM   34  C12 UNL     1      17.756   4.063 -16.342  1.00  0.00     0.028 A 
HETATM   35  C13 UNL     1      18.803   4.940 -16.475  1.00  0.00     0.041 A 
HETATM   36  C14 UNL     1      19.840   4.999 -15.571  1.00  0.00     0.101 A 
HETATM   37  C16 UNL     1      19.811   4.127 -14.491  1.00  0.00     0.102 A 
HETATM   38  C18 UNL     1      18.746   3.226 -14.349  1.00  0.00     0.065 A 
BRANCH  36  39
HETATM   39  O5  UNL     1      20.850   5.883 -15.746  1.00  0.00    -0.353 OA
HETATM   40  C15 UNL     1      20.797   6.993 -16.634  1.00  0.00     0.210 C 
ENDBRANCH  36  39
BRANCH  37  41
HETATM   41  O6  UNL     1      20.831   4.190 -13.613  1.00  0.00    -0.353 OA
HETATM   42  C17 UNL     1      21.869   3.250 -13.524  1.00  0.00     0.210 C 
ENDBRANCH  37  41
ENDBRANCH  30  33
ENDBRANCH  28  30
ENDBRANCH  23  28
BRANCH  25  43
HETATM   43  O7  UNL     1      16.764   2.633  -9.430  1.00  0.00    -0.357 OA
ATOM     44  H7  UNL     1      17.685   2.536  -9.217  1.00  0.00     0.217 HD
ENDBRANCH  25  43
ENDBRANCH  19  20
ENDBRANCH   1  19
BRANCH   1  45
HETATM   45  C21 UNL     1      13.906   0.418  -6.686  1.00  0.00     0.025 A 
HETATM   46  C22 UNL     1      13.612  -0.946  -6.695  1.00  0.00     0.019 A 
HETATM   47  C23 UNL     1      13.886  -1.751  -5.612  1.00  0.00     0.040 A 
HETATM   48  C24 UNL     1      14.463  -1.246  -4.470  1.00  0.00     0.101 A 
HETATM   49  C26 UNL     1      14.754   0.100  -4.457  1.00  0.00     0.102 A 
HETATM   50  C28 UNL     1      14.473   0.910  -5.557  1.00  0.00     0.056 A 
BRANCH  48  51
HETATM   51  O8  UNL     1      14.749  -2.032  -3.367  1.00  0.00    -0.353 OA
HETATM   52  C25 UNL     1      15.888  -2.874  -3.421  1.00  0.00     0.210 C 
ENDBRANCH  48  51
BRANCH  49  53
HETATM   53  O9  UNL     1      15.336   0.620  -3.314  1.00  0.00    -0.353 OA
HETATM   54  C27 UNL     1      16.739   0.705  -3.180  1.00  0.00     0.210 C 
ENDBRANCH  49  53
ENDBRANCH   1  45
TORSDOF 18
ENDMDL
