MODEL 1
REMARK VINA RESULT: -11.959374998      0.000      0.000
REMARK  15 active torsions:
REMARK  status: ('A' for Active; 'I' for Inactive)
REMARK    1  A    between atoms: N1_2  and  C2_4 
REMARK    2  A    between atoms: C3_5  and  C4_6 
REMARK    3  A    between atoms: C7_9  and  N2_10 
REMARK    4  A    between atoms: C10_17  and  S1_18 
REMARK    5  A    between atoms: S1_18  and  C11_19 
REMARK    6  A    between atoms: C11_19  and  C12_20 
REMARK    7  A    between atoms: C12_20  and  C13_22 
REMARK    8  A    between atoms: C21_33  and  C22_34 
REMARK    9  A    between atoms: C22_34  and  O5_35 
REMARK   10  A    between atoms: C22_34  and  N5_37 
REMARK   11  A    between atoms: N5_37  and  N6_38 
REMARK       I    between atoms: N6_38  and  C23_40 
REMARK   12  A    between atoms: C23_40  and  C24_42 
REMARK   13  A    between atoms: C27_45  and  N7_46 
REMARK   14  A    between atoms: N7_46  and  N8_48 
REMARK   15  A    between atoms: N8_48  and  C28_49 
ROOT
HETATM    1  C13 UNL     1      13.648   2.625 -14.774  1.00  0.00     0.102 A 
HETATM    2  N4  UNL     1      13.731   3.524 -15.797  1.00  0.00    -0.319 N 
ATOM      3  H4  UNL     1      12.886   3.853 -16.263  1.00  0.00     0.169 HD
HETATM    4  C14 UNL     1      14.948   3.972 -16.185  1.00  0.00     0.257 A 
HETATM    5  O4  UNL     1      14.998   4.821 -17.146  1.00  0.00    -0.267 OA
HETATM    6  C15 UNL     1      16.103   3.530 -15.554  1.00  0.00     0.043 A 
HETATM    7  C16 UNL     1      17.345   3.993 -15.950  1.00  0.00     0.018 A 
HETATM    8  C17 UNL     1      18.516   3.574 -15.329  1.00  0.00     0.001 A 
HETATM    9  C18 UNL     1      18.415   2.665 -14.281  1.00  0.00     0.001 A 
HETATM   10  C19 UNL     1      17.189   2.180 -13.867  1.00  0.00     0.013 A 
HETATM   11  C20 UNL     1      16.042   2.634 -14.524  1.00  0.00    -0.002 A 
HETATM   12  C21 UNL     1      14.812   2.192 -14.145  1.00  0.00     0.073 A 
ENDROOT
BRANCH   1  13
HETATM   13  C12 UNL     1      12.366   2.116 -14.362  1.00  0.00     0.206 C 
HETATM   14  O3  UNL     1      12.189   0.851 -14.388  1.00  0.00    -0.285 OA
BRANCH  13  15
HETATM   15  C11 UNL     1      11.248   2.921 -13.913  1.00  0.00     0.110 C 
BRANCH  15  16
HETATM   16  S1  UNL     1      11.017   3.181 -12.200  1.00  0.00    -0.061 SA
BRANCH  16  17
HETATM   17  C10 UNL     1      11.219   4.810 -11.537  1.00  0.00     0.152 A 
HETATM   18  N3  UNL     1      10.694   5.907 -12.191  1.00  0.00    -0.333 N 
HETATM   19  C3  UNL     1      10.928   7.039 -11.486  1.00  0.00     0.089 A 
ATOM     20  H3  UNL     1      10.198   5.870 -13.081  1.00  0.00     0.168 HD
HETATM   21  C2  UNL     1      11.620   6.643 -10.355  1.00  0.00     0.132 A 
HETATM   22  N9  UNL     1      11.780   5.306 -10.415  1.00  0.00    -0.316 N 
HETATM   23  C33 UNL     1      12.485   4.465  -9.429  1.00  0.00     0.160 C 
BRANCH  19  24
HETATM   24  C4  UNL     1      10.444   8.349 -11.879  1.00  0.00    -0.005 A 
HETATM   25  C5  UNL     1      10.422   9.456 -11.088  1.00  0.00     0.016 A 
HETATM   26  C6  UNL     1       9.935  10.688 -11.595  1.00  0.00     0.037 A 
HETATM   27  C7  UNL     1       9.472  10.817 -12.876  1.00  0.00     0.102 A 
HETATM   28  C8  UNL     1       9.510   9.673 -13.664  1.00  0.00     0.037 A 
HETATM   29  C9  UNL     1       9.974   8.492 -13.198  1.00  0.00     0.016 A 
BRANCH  27  30
HETATM   30  N2  UNL     1       8.961  12.043 -13.381  1.00  0.00    -0.116 N 
HETATM   31  O1  UNL     1       7.821  12.051 -13.871  1.00  0.00    -0.532 OA
HETATM   32  O2  UNL     1       9.662  13.220 -13.337  1.00  0.00    -0.532 OA
ENDBRANCH  27  30
ENDBRANCH  19  24
BRANCH  21  33
HETATM   33  N1  UNL     1      12.009   7.537  -9.337  1.00  0.00    -0.379 N 
HETATM   34  C1  UNL     1      11.423   7.794  -8.078  1.00  0.00     0.147 C 
ATOM     35  H1  UNL     1      12.845   8.084  -9.542  1.00  0.00     0.160 HD
ENDBRANCH  21  33
ENDBRANCH  16  17
ENDBRANCH  15  16
ENDBRANCH  13  15
ENDBRANCH   1  13
BRANCH  12  36
HETATM   36  C22 UNL     1      14.764   1.259 -13.002  1.00  0.00     0.252 C 
BRANCH  36  37
HETATM   37  O5  UNL     1      14.797   0.035 -13.447  1.00  0.00    -0.333 OA
ATOM     38  H5  UNL     1      14.082  -0.458 -13.061  1.00  0.00     0.220 HD
ENDBRANCH  36  37
BRANCH  36  39
HETATM   39  N5  UNL     1      14.698   1.547 -11.670  1.00  0.00    -0.296 NA
BRANCH  39  40
HETATM   40  N6  UNL     1      14.634   1.822 -10.375  1.00  0.00    -0.196 N 
HETATM   41  C23 UNL     1      15.740   2.260  -9.567  1.00  0.00     0.280 C 
HETATM   42  O6  UNL     1      16.875   2.470 -10.002  1.00  0.00    -0.265 OA
ATOM     43  H6  UNL     1      13.729   1.715  -9.916  1.00  0.00     0.205 HD
BRANCH  41  44
HETATM   44  C24 UNL     1      15.503   2.457  -8.125  1.00  0.00     0.034 A 
HETATM   45  C25 UNL     1      14.371   1.905  -7.545  1.00  0.00     0.019 A 
HETATM   46  C26 UNL     1      14.079   2.097  -6.215  1.00  0.00     0.033 A 
HETATM   47  C27 UNL     1      14.924   2.853  -5.444  1.00  0.00     0.060 A 
HETATM   48  C31 UNL     1      16.032   3.395  -5.993  1.00  0.00     0.033 A 
HETATM   49  C32 UNL     1      16.327   3.193  -7.355  1.00  0.00     0.019 A 
BRANCH  47  50
HETATM   50  N7  UNL     1      14.595   3.076  -4.055  1.00  0.00    -0.236 N 
ATOM     51  H7  UNL     1      14.483   4.023  -3.692  1.00  0.00     0.202 HD
BRANCH  50  52
HETATM   52  N8  UNL     1      14.442   2.032  -3.268  1.00  0.00    -0.335 NA
BRANCH  52  53
HETATM   53  C28 UNL     1      14.496   0.896  -2.871  1.00  0.00     0.079 C 
HETATM   54  C29 UNL     1      13.202   0.289  -2.286  1.00  0.00     0.081 C 
HETATM   55  C30 UNL     1      15.698  -0.001  -2.880  1.00  0.00     0.081 C 
ENDBRANCH  52  53
ENDBRANCH  50  52
ENDBRANCH  47  50
ENDBRANCH  41  44
ENDBRANCH  39  40
ENDBRANCH  36  39
ENDBRANCH  12  36
TORSDOF 15
ENDMDL
MODEL 2
REMARK VINA RESULT: -11.360442852      3.751      9.077
REMARK  15 active torsions:
REMARK  status: ('A' for Active; 'I' for Inactive)
REMARK    1  A    between atoms: N1_2  and  C2_4 
REMARK    2  A    between atoms: C3_5  and  C4_6 
REMARK    3  A    between atoms: C7_9  and  N2_10 
REMARK    4  A    between atoms: C10_17  and  S1_18 
REMARK    5  A    between atoms: S1_18  and  C11_19 
REMARK    6  A    between atoms: C11_19  and  C12_20 
REMARK    7  A    between atoms: C12_20  and  C13_22 
REMARK    8  A    between atoms: C21_33  and  C22_34 
REMARK    9  A    between atoms: C22_34  and  O5_35 
REMARK   10  A    between atoms: C22_34  and  N5_37 
REMARK   11  A    between atoms: N5_37  and  N6_38 
REMARK       I    between atoms: N6_38  and  C23_40 
REMARK   12  A    between atoms: C23_40  and  C24_42 
REMARK   13  A    between atoms: C27_45  and  N7_46 
REMARK   14  A    between atoms: N7_46  and  N8_48 
REMARK   15  A    between atoms: N8_48  and  C28_49 
ROOT
HETATM    1  C13 UNL     1      14.403  -0.797  -3.519  1.00  0.00     0.102 A 
HETATM    2  N4  UNL     1      15.311  -1.410  -2.707  1.00  0.00    -0.319 N 
ATOM      3  H4  UNL     1      15.524  -1.023  -1.787  1.00  0.00     0.169 HD
HETATM    4  C14 UNL     1      15.925  -2.538  -3.135  1.00  0.00     0.257 A 
HETATM    5  O4  UNL     1      16.771  -3.098  -2.349  1.00  0.00    -0.267 OA
HETATM    6  C15 UNL     1      15.639  -3.073  -4.383  1.00  0.00     0.043 A 
HETATM    7  C16 UNL     1      16.266  -4.228  -4.817  1.00  0.00     0.018 A 
HETATM    8  C17 UNL     1      15.990  -4.790  -6.058  1.00  0.00     0.001 A 
HETATM    9  C18 UNL     1      15.056  -4.159  -6.872  1.00  0.00     0.001 A 
HETATM   10  C19 UNL     1      14.418  -3.001  -6.469  1.00  0.00     0.013 A 
HETATM   11  C20 UNL     1      14.730  -2.477  -5.211  1.00  0.00    -0.002 A 
HETATM   12  C21 UNL     1      14.120  -1.344  -4.768  1.00  0.00     0.073 A 
ENDROOT
BRANCH   1  13
HETATM   13  C12 UNL     1      13.758   0.417  -3.094  1.00  0.00     0.206 C 
HETATM   14  O3  UNL     1      12.600   0.324  -2.561  1.00  0.00    -0.285 OA
BRANCH  13  15
HETATM   15  C11 UNL     1      14.313   1.750  -3.216  1.00  0.00     0.110 C 
BRANCH  15  16
HETATM   16  S1  UNL     1      13.423   2.968  -4.098  1.00  0.00    -0.061 SA
BRANCH  16  17
HETATM   17  C10 UNL     1      13.872   3.325  -5.774  1.00  0.00     0.152 A 
HETATM   18  N3  UNL     1      12.958   3.886  -6.643  1.00  0.00    -0.333 N 
HETATM   19  C3  UNL     1      13.526   4.113  -7.851  1.00  0.00     0.089 A 
ATOM     20  H3  UNL     1      11.989   4.101  -6.408  1.00  0.00     0.168 HD
HETATM   21  C2  UNL     1      14.837   3.682  -7.738  1.00  0.00     0.132 A 
HETATM   22  N9  UNL     1      15.012   3.215  -6.486  1.00  0.00    -0.316 N 
HETATM   23  C33 UNL     1      16.251   2.633  -5.936  1.00  0.00     0.160 C 
BRANCH  19  24
HETATM   24  C4  UNL     1      12.842   4.754  -8.957  1.00  0.00    -0.005 A 
HETATM   25  C5  UNL     1      12.221   4.113  -9.984  1.00  0.00     0.016 A 
HETATM   26  C6  UNL     1      11.571   4.855 -11.004  1.00  0.00     0.037 A 
HETATM   27  C7  UNL     1      11.540   6.223 -11.002  1.00  0.00     0.102 A 
HETATM   28  C8  UNL     1      12.178   6.853  -9.940  1.00  0.00     0.037 A 
HETATM   29  C9  UNL     1      12.799   6.161  -8.959  1.00  0.00     0.016 A 
BRANCH  27  30
HETATM   30  N2  UNL     1      10.911   6.972 -12.033  1.00  0.00    -0.116 N 
HETATM   31  O1  UNL     1      10.500   8.112 -11.768  1.00  0.00    -0.532 OA
HETATM   32  O2  UNL     1      10.755   6.500 -13.310  1.00  0.00    -0.532 OA
ENDBRANCH  27  30
ENDBRANCH  19  24
BRANCH  21  33
HETATM   33  N1  UNL     1      15.777   3.794  -8.782  1.00  0.00    -0.379 N 
HETATM   34  C1  UNL     1      16.445   2.790  -9.518  1.00  0.00     0.147 C 
ATOM     35  H1  UNL     1      16.012   4.751  -9.047  1.00  0.00     0.160 HD
ENDBRANCH  21  33
ENDBRANCH  16  17
ENDBRANCH  15  16
ENDBRANCH  13  15
ENDBRANCH   1  13
BRANCH  12  36
HETATM   36  C22 UNL     1      13.109  -0.741  -5.658  1.00  0.00     0.252 C 
BRANCH  36  37
HETATM   37  O5  UNL     1      11.974  -0.660  -5.024  1.00  0.00    -0.333 OA
ATOM     38  H5  UNL     1      11.463   0.054  -5.388  1.00  0.00     0.220 HD
ENDBRANCH  36  37
BRANCH  36  39
HETATM   39  N5  UNL     1      13.257  -0.310  -6.944  1.00  0.00    -0.296 NA
BRANCH  39  40
HETATM   40  N6  UNL     1      13.401   0.105  -8.195  1.00  0.00    -0.196 N 
HETATM   41  C23 UNL     1      12.325   0.317  -9.124  1.00  0.00     0.280 C 
HETATM   42  O6  UNL     1      11.132   0.173  -8.847  1.00  0.00    -0.265 OA
ATOM     43  H6  UNL     1      14.349   0.288  -8.522  1.00  0.00     0.205 HD
BRANCH  41  44
HETATM   44  C24 UNL     1      12.673   0.717 -10.500  1.00  0.00     0.034 A 
HETATM   45  C25 UNL     1      11.694   0.678 -11.482  1.00  0.00     0.019 A 
HETATM   46  C26 UNL     1      11.976   0.996 -12.790  1.00  0.00     0.033 A 
HETATM   47  C27 UNL     1      13.253   1.359 -13.133  1.00  0.00     0.060 A 
HETATM   48  C31 UNL     1      14.216   1.405 -12.188  1.00  0.00     0.033 A 
HETATM   49  C32 UNL     1      13.921   1.079 -10.850  1.00  0.00     0.019 A 
BRANCH  47  50
HETATM   50  N7  UNL     1      13.548   1.663 -14.515  1.00  0.00    -0.236 N 
ATOM     51  H7  UNL     1      13.081   1.160 -15.270  1.00  0.00     0.202 HD
BRANCH  50  52
HETATM   52  N8  UNL     1      14.433   2.600 -14.778  1.00  0.00    -0.335 NA
BRANCH  52  53
HETATM   53  C28 UNL     1      15.435   3.129 -15.188  1.00  0.00     0.079 C 
HETATM   54  C29 UNL     1      15.276   4.174 -16.313  1.00  0.00     0.081 C 
HETATM   55  C30 UNL     1      16.837   2.875 -14.719  1.00  0.00     0.081 C 
ENDBRANCH  52  53
ENDBRANCH  50  52
ENDBRANCH  47  50
ENDBRANCH  41  44
ENDBRANCH  39  40
ENDBRANCH  36  39
ENDBRANCH  12  36
TORSDOF 15
ENDMDL
MODEL 3
REMARK VINA RESULT: -11.328148943      0.977      1.429
REMARK  15 active torsions:
REMARK  status: ('A' for Active; 'I' for Inactive)
REMARK    1  A    between atoms: N1_2  and  C2_4 
REMARK    2  A    between atoms: C3_5  and  C4_6 
REMARK    3  A    between atoms: C7_9  and  N2_10 
REMARK    4  A    between atoms: C10_17  and  S1_18 
REMARK    5  A    between atoms: S1_18  and  C11_19 
REMARK    6  A    between atoms: C11_19  and  C12_20 
REMARK    7  A    between atoms: C12_20  and  C13_22 
REMARK    8  A    between atoms: C21_33  and  C22_34 
REMARK    9  A    between atoms: C22_34  and  O5_35 
REMARK   10  A    between atoms: C22_34  and  N5_37 
REMARK   11  A    between atoms: N5_37  and  N6_38 
REMARK       I    between atoms: N6_38  and  C23_40 
REMARK   12  A    between atoms: C23_40  and  C24_42 
REMARK   13  A    between atoms: C27_45  and  N7_46 
REMARK   14  A    between atoms: N7_46  and  N8_48 
REMARK   15  A    between atoms: N8_48  and  C28_49 
ROOT
HETATM    1  C13 UNL     1      13.635   2.580 -14.731  1.00  0.00     0.102 A 
HETATM    2  N4  UNL     1      13.717   3.575 -15.660  1.00  0.00    -0.319 N 
ATOM      3  H4  UNL     1      12.870   3.988 -16.050  1.00  0.00     0.169 HD
HETATM    4  C14 UNL     1      14.937   4.008 -16.057  1.00  0.00     0.257 A 
HETATM    5  O4  UNL     1      14.987   4.948 -16.928  1.00  0.00    -0.267 OA
HETATM    6  C15 UNL     1      16.095   3.453 -15.529  1.00  0.00     0.043 A 
HETATM    7  C16 UNL     1      17.340   3.900 -15.935  1.00  0.00     0.018 A 
HETATM    8  C17 UNL     1      18.515   3.368 -15.415  1.00  0.00     0.001 A 
HETATM    9  C18 UNL     1      18.415   2.360 -14.462  1.00  0.00     0.001 A 
HETATM   10  C19 UNL     1      17.185   1.890 -14.041  1.00  0.00     0.013 A 
HETATM   11  C20 UNL     1      16.034   2.459 -14.594  1.00  0.00    -0.002 A 
HETATM   12  C21 UNL     1      14.802   2.034 -14.204  1.00  0.00     0.073 A 
ENDROOT
BRANCH   1  13
HETATM   13  C12 UNL     1      12.348   2.088 -14.313  1.00  0.00     0.206 C 
HETATM   14  O3  UNL     1      12.142   0.828 -14.372  1.00  0.00    -0.285 OA
BRANCH  13  15
HETATM   15  C11 UNL     1      11.256   2.904 -13.823  1.00  0.00     0.110 C 
BRANCH  15  16
HETATM   16  S1  UNL     1      11.083   3.157 -12.103  1.00  0.00    -0.061 SA
BRANCH  16  17
HETATM   17  C10 UNL     1      11.262   4.792 -11.446  1.00  0.00     0.152 A 
HETATM   18  N3  UNL     1      10.734   5.880 -12.113  1.00  0.00    -0.333 N 
HETATM   19  C3  UNL     1      10.949   7.018 -11.411  1.00  0.00     0.089 A 
ATOM     20  H3  UNL     1      10.250   5.833 -13.009  1.00  0.00     0.168 HD
HETATM   21  C2  UNL     1      11.631   6.635 -10.270  1.00  0.00     0.132 A 
HETATM   22  N9  UNL     1      11.804   5.299 -10.320  1.00  0.00    -0.316 N 
HETATM   23  C33 UNL     1      12.505   4.471  -9.321  1.00  0.00     0.160 C 
BRANCH  19  24
HETATM   24  C4  UNL     1      10.457   8.321 -11.818  1.00  0.00    -0.005 A 
HETATM   25  C5  UNL     1      10.440   9.438 -11.043  1.00  0.00     0.016 A 
HETATM   26  C6  UNL     1       9.944  10.662 -11.561  1.00  0.00     0.037 A 
HETATM   27  C7  UNL     1       9.469  10.772 -12.840  1.00  0.00     0.102 A 
HETATM   28  C8  UNL     1       9.502   9.617 -13.612  1.00  0.00     0.037 A 
HETATM   29  C9  UNL     1       9.974   8.444 -13.134  1.00  0.00     0.016 A 
BRANCH  27  30
HETATM   30  N2  UNL     1       8.949  11.990 -13.357  1.00  0.00    -0.116 N 
HETATM   31  O1  UNL     1       9.649  13.012 -13.279  1.00  0.00    -0.532 OA
HETATM   32  O2  UNL     1       7.719  12.084 -13.953  1.00  0.00    -0.532 OA
ENDBRANCH  27  30
ENDBRANCH  19  24
BRANCH  21  33
HETATM   33  N1  UNL     1      11.998   7.539  -9.252  1.00  0.00    -0.379 N 
HETATM   34  C1  UNL     1      11.474   7.708  -7.952  1.00  0.00     0.147 C 
ATOM     35  H1  UNL     1      12.764   8.168  -9.493  1.00  0.00     0.160 HD
ENDBRANCH  21  33
ENDBRANCH  16  17
ENDBRANCH  15  16
ENDBRANCH  13  15
ENDBRANCH   1  13
BRANCH  12  36
HETATM   36  C22 UNL     1      14.757   0.991 -13.161  1.00  0.00     0.252 C 
BRANCH  36  37
HETATM   37  O5  UNL     1      14.664  -0.179 -13.729  1.00  0.00    -0.333 OA
ATOM     38  H5  UNL     1      14.318  -0.804 -13.101  1.00  0.00     0.220 HD
ENDBRANCH  36  37
BRANCH  36  39
HETATM   39  N5  UNL     1      14.804   1.139 -11.806  1.00  0.00    -0.296 NA
BRANCH  39  40
HETATM   40  N6  UNL     1      14.845   1.283 -10.489  1.00  0.00    -0.196 N 
HETATM   41  C23 UNL     1      13.765   0.978  -9.590  1.00  0.00     0.280 C 
HETATM   42  O6  UNL     1      12.682   0.506  -9.944  1.00  0.00    -0.265 OA
ATOM     43  H6  UNL     1      15.710   1.638 -10.082  1.00  0.00     0.205 HD
BRANCH  41  44
HETATM   44  C24 UNL     1      13.961   1.263  -8.156  1.00  0.00     0.034 A 
HETATM   45  C25 UNL     1      14.986   2.115  -7.771  1.00  0.00     0.019 A 
HETATM   46  C26 UNL     1      15.241   2.377  -6.446  1.00  0.00     0.033 A 
HETATM   47  C27 UNL     1      14.467   1.783  -5.482  1.00  0.00     0.060 A 
HETATM   48  C31 UNL     1      13.464   0.954  -5.841  1.00  0.00     0.033 A 
HETATM   49  C32 UNL     1      13.207   0.690  -7.200  1.00  0.00     0.019 A 
BRANCH  47  50
HETATM   50  N7  UNL     1      14.761   2.040  -4.091  1.00  0.00    -0.236 N 
ATOM     51  H7  UNL     1      14.500   2.926  -3.658  1.00  0.00     0.202 HD
BRANCH  50  52
HETATM   52  N8  UNL     1      15.372   1.106  -3.393  1.00  0.00    -0.335 NA
BRANCH  52  53
HETATM   53  C28 UNL     1      15.938   0.074  -3.133  1.00  0.00     0.079 C 
HETATM   54  C29 UNL     1      17.452   0.151  -2.844  1.00  0.00     0.081 C 
HETATM   55  C30 UNL     1      15.322  -1.292  -3.062  1.00  0.00     0.081 C 
ENDBRANCH  52  53
ENDBRANCH  50  52
ENDBRANCH  47  50
ENDBRANCH  41  44
ENDBRANCH  39  40
ENDBRANCH  36  39
ENDBRANCH  12  36
TORSDOF 15
ENDMDL
MODEL 4
REMARK VINA RESULT: -11.231308607      3.035      9.496
REMARK  15 active torsions:
REMARK  status: ('A' for Active; 'I' for Inactive)
REMARK    1  A    between atoms: N1_2  and  C2_4 
REMARK    2  A    between atoms: C3_5  and  C4_6 
REMARK    3  A    between atoms: C7_9  and  N2_10 
REMARK    4  A    between atoms: C10_17  and  S1_18 
REMARK    5  A    between atoms: S1_18  and  C11_19 
REMARK    6  A    between atoms: C11_19  and  C12_20 
REMARK    7  A    between atoms: C12_20  and  C13_22 
REMARK    8  A    between atoms: C21_33  and  C22_34 
REMARK    9  A    between atoms: C22_34  and  O5_35 
REMARK   10  A    between atoms: C22_34  and  N5_37 
REMARK   11  A    between atoms: N5_37  and  N6_38 
REMARK       I    between atoms: N6_38  and  C23_40 
REMARK   12  A    between atoms: C23_40  and  C24_42 
REMARK   13  A    between atoms: C27_45  and  N7_46 
REMARK   14  A    between atoms: N7_46  and  N8_48 
REMARK   15  A    between atoms: N8_48  and  C28_49 
ROOT
HETATM    1  C13 UNL     1      12.832   0.434  -7.957  1.00  0.00     0.102 A 
HETATM    2  N4  UNL     1      12.466  -0.457  -6.992  1.00  0.00    -0.319 N 
ATOM      3  H4  UNL     1      11.774  -1.179  -7.193  1.00  0.00     0.169 HD
HETATM    4  C14 UNL     1      13.030  -0.370  -5.764  1.00  0.00     0.257 A 
HETATM    5  O4  UNL     1      12.671  -1.223  -4.876  1.00  0.00    -0.267 OA
HETATM    6  C15 UNL     1      13.973   0.609  -5.483  1.00  0.00     0.043 A 
HETATM    7  C16 UNL     1      14.551   0.694  -4.229  1.00  0.00     0.018 A 
HETATM    8  C17 UNL     1      15.505   1.658  -3.925  1.00  0.00     0.001 A 
HETATM    9  C18 UNL     1      15.876   2.553  -4.922  1.00  0.00     0.001 A 
HETATM   10  C19 UNL     1      15.312   2.498  -6.182  1.00  0.00     0.013 A 
HETATM   11  C20 UNL     1      14.358   1.508  -6.438  1.00  0.00    -0.002 A 
HETATM   12  C21 UNL     1      13.783   1.408  -7.667  1.00  0.00     0.073 A 
ENDROOT
BRANCH   1  13
HETATM   13  C12 UNL     1      12.226   0.375  -9.262  1.00  0.00     0.206 C 
HETATM   14  O3  UNL     1      12.876  -0.205 -10.198  1.00  0.00    -0.285 OA
BRANCH  13  15
HETATM   15  C11 UNL     1      10.929   0.918  -9.610  1.00  0.00     0.110 C 
BRANCH  15  16
HETATM   16  S1  UNL     1      10.842   2.374 -10.571  1.00  0.00    -0.061 SA
BRANCH  16  17
HETATM   17  C10 UNL     1      11.838   2.509 -12.030  1.00  0.00     0.152 A 
HETATM   18  N3  UNL     1      13.194   2.258 -11.981  1.00  0.00    -0.333 N 
HETATM   19  C3  UNL     1      13.744   2.377 -13.213  1.00  0.00     0.089 A 
ATOM     20  H3  UNL     1      13.710   2.016 -11.136  1.00  0.00     0.168 HD
HETATM   21  C2  UNL     1      12.704   2.712 -14.061  1.00  0.00     0.132 A 
HETATM   22  N9  UNL     1      11.577   2.786 -13.324  1.00  0.00    -0.316 N 
HETATM   23  C33 UNL     1      10.233   3.140 -13.816  1.00  0.00     0.160 C 
BRANCH  19  24
HETATM   24  C4  UNL     1      15.141   2.110 -13.502  1.00  0.00    -0.005 A 
HETATM   25  C5  UNL     1      15.901   2.770 -14.417  1.00  0.00     0.016 A 
HETATM   26  C6  UNL     1      17.265   2.425 -14.598  1.00  0.00     0.037 A 
HETATM   27  C7  UNL     1      17.867   1.431 -13.875  1.00  0.00     0.102 A 
HETATM   28  C8  UNL     1      17.070   0.776 -12.944  1.00  0.00     0.037 A 
HETATM   29  C9  UNL     1      15.770   1.095 -12.757  1.00  0.00     0.016 A 
BRANCH  27  30
HETATM   30  N2  UNL     1      19.226   1.065 -14.069  1.00  0.00    -0.116 N 
HETATM   31  O1  UNL     1      20.102   1.925 -13.886  1.00  0.00    -0.532 OA
HETATM   32  O2  UNL     1      19.615  -0.198 -14.432  1.00  0.00    -0.532 OA
ENDBRANCH  27  30
ENDBRANCH  19  24
BRANCH  21  33
HETATM   33  N1  UNL     1      12.865   2.880 -15.451  1.00  0.00    -0.379 N 
HETATM   34  C1  UNL     1      12.827   1.927 -16.493  1.00  0.00     0.147 C 
ATOM     35  H1  UNL     1      13.037   3.839 -15.751  1.00  0.00     0.160 HD
ENDBRANCH  21  33
ENDBRANCH  16  17
ENDBRANCH  15  16
ENDBRANCH  13  15
ENDBRANCH   1  13
BRANCH  12  36
HETATM   36  C22 UNL     1      14.244   2.360  -8.696  1.00  0.00     0.252 C 
BRANCH  36  37
HETATM   37  O5  UNL     1      15.247   1.838  -9.344  1.00  0.00    -0.333 OA
ATOM     38  H5  UNL     1      15.992   1.763  -8.760  1.00  0.00     0.220 HD
ENDBRANCH  36  37
BRANCH  36  39
HETATM   39  N5  UNL     1      13.756   3.601  -8.988  1.00  0.00    -0.296 NA
BRANCH  39  40
HETATM   40  N6  UNL     1      13.281   4.806  -9.268  1.00  0.00    -0.196 N 
HETATM   41  C23 UNL     1      12.318   5.519  -8.474  1.00  0.00     0.280 C 
HETATM   42  O6  UNL     1      11.850   5.101  -7.412  1.00  0.00    -0.265 OA
ATOM     43  H6  UNL     1      13.626   5.263 -10.112  1.00  0.00     0.205 HD
BRANCH  41  44
HETATM   44  C24 UNL     1      11.848   6.826  -8.971  1.00  0.00     0.034 A 
HETATM   45  C25 UNL     1      11.017   7.594  -8.168  1.00  0.00     0.019 A 
HETATM   46  C26 UNL     1      10.514   8.798  -8.602  1.00  0.00     0.033 A 
HETATM   47  C27 UNL     1      10.839   9.251  -9.854  1.00  0.00     0.060 A 
HETATM   48  C31 UNL     1      11.649   8.516 -10.646  1.00  0.00     0.033 A 
HETATM   49  C32 UNL     1      12.162   7.285 -10.197  1.00  0.00     0.019 A 
BRANCH  47  50
HETATM   50  N7  UNL     1      10.282  10.502 -10.314  1.00  0.00    -0.236 N 
ATOM     51  H7  UNL     1      10.103  11.265  -9.659  1.00  0.00     0.202 HD
BRANCH  50  52
HETATM   52  N8  UNL     1      10.010  10.639 -11.594  1.00  0.00    -0.335 NA
BRANCH  52  53
HETATM   53  C28 UNL     1       9.378  10.688 -12.619  1.00  0.00     0.079 C 
HETATM   54  C29 UNL     1       8.731  12.040 -12.987  1.00  0.00     0.081 C 
HETATM   55  C30 UNL     1       9.147   9.563 -13.584  1.00  0.00     0.081 C 
ENDBRANCH  52  53
ENDBRANCH  50  52
ENDBRANCH  47  50
ENDBRANCH  41  44
ENDBRANCH  39  40
ENDBRANCH  36  39
ENDBRANCH  12  36
TORSDOF 15
ENDMDL
MODEL 5
REMARK VINA RESULT: -11.198952275      4.138      9.449
REMARK  15 active torsions:
REMARK  status: ('A' for Active; 'I' for Inactive)
REMARK    1  A    between atoms: N1_2  and  C2_4 
REMARK    2  A    between atoms: C3_5  and  C4_6 
REMARK    3  A    between atoms: C7_9  and  N2_10 
REMARK    4  A    between atoms: C10_17  and  S1_18 
REMARK    5  A    between atoms: S1_18  and  C11_19 
REMARK    6  A    between atoms: C11_19  and  C12_20 
REMARK    7  A    between atoms: C12_20  and  C13_22 
REMARK    8  A    between atoms: C21_33  and  C22_34 
REMARK    9  A    between atoms: C22_34  and  O5_35 
REMARK   10  A    between atoms: C22_34  and  N5_37 
REMARK   11  A    between atoms: N5_37  and  N6_38 
REMARK       I    between atoms: N6_38  and  C23_40 
REMARK   12  A    between atoms: C23_40  and  C24_42 
REMARK   13  A    between atoms: C27_45  and  N7_46 
REMARK   14  A    between atoms: N7_46  and  N8_48 
REMARK   15  A    between atoms: N8_48  and  C28_49 
ROOT
HETATM    1  C13 UNL     1      14.572  -0.703  -3.396  1.00  0.00     0.102 A 
HETATM    2  N4  UNL     1      15.495  -1.180  -2.512  1.00  0.00    -0.319 N 
ATOM      3  H4  UNL     1      15.683  -0.679  -1.644  1.00  0.00     0.169 HD
HETATM    4  C14 UNL     1      16.156  -2.325  -2.801  1.00  0.00     0.257 A 
HETATM    5  O4  UNL     1      17.015  -2.755  -1.950  1.00  0.00    -0.267 OA
HETATM    6  C15 UNL     1      15.903  -3.015  -3.979  1.00  0.00     0.043 A 
HETATM    7  C16 UNL     1      16.579  -4.187  -4.270  1.00  0.00     0.018 A 
HETATM    8  C17 UNL     1      16.337  -4.901  -5.438  1.00  0.00     0.001 A 
HETATM    9  C18 UNL     1      15.388  -4.408  -6.326  1.00  0.00     0.001 A 
HETATM   10  C19 UNL     1      14.701  -3.237  -6.066  1.00  0.00     0.013 A 
HETATM   11  C20 UNL     1      14.980  -2.557  -4.877  1.00  0.00    -0.002 A 
HETATM   12  C21 UNL     1      14.323  -1.405  -4.573  1.00  0.00     0.073 A 
ENDROOT
BRANCH   1  13
HETATM   13  C12 UNL     1      13.876   0.526  -3.121  1.00  0.00     0.206 C 
HETATM   14  O3  UNL     1      12.667   0.450  -2.712  1.00  0.00    -0.285 OA
BRANCH  13  15
HETATM   15  C11 UNL     1      14.432   1.856  -3.264  1.00  0.00     0.110 C 
BRANCH  15  16
HETATM   16  S1  UNL     1      15.069   2.353  -4.814  1.00  0.00    -0.061 SA
BRANCH  16  17
HETATM   17  C10 UNL     1      14.045   3.293  -5.910  1.00  0.00     0.152 A 
HETATM   18  N3  UNL     1      13.718   2.805  -7.160  1.00  0.00    -0.333 N 
HETATM   19  C3  UNL     1      12.894   3.664  -7.805  1.00  0.00     0.089 A 
ATOM     20  H3  UNL     1      14.051   1.921  -7.543  1.00  0.00     0.168 HD
HETATM   21  C2  UNL     1      12.696   4.723  -6.937  1.00  0.00     0.132 A 
HETATM   22  N9  UNL     1      13.398   4.473  -5.813  1.00  0.00    -0.316 N 
HETATM   23  C33 UNL     1      13.495   5.349  -4.631  1.00  0.00     0.160 C 
BRANCH  19  24
HETATM   24  C4  UNL     1      12.323   3.404  -9.113  1.00  0.00    -0.005 A 
HETATM   25  C5  UNL     1      12.679   4.023 -10.271  1.00  0.00     0.016 A 
HETATM   26  C6  UNL     1      12.053   3.669 -11.494  1.00  0.00     0.037 A 
HETATM   27  C7  UNL     1      11.081   2.709 -11.564  1.00  0.00     0.102 A 
HETATM   28  C8  UNL     1      10.738   2.090 -10.368  1.00  0.00     0.037 A 
HETATM   29  C9  UNL     1      11.327   2.412  -9.195  1.00  0.00     0.016 A 
BRANCH  27  30
HETATM   30  N2  UNL     1      10.433   2.368 -12.782  1.00  0.00    -0.116 N 
HETATM   31  O1  UNL     1      10.325   1.167 -13.078  1.00  0.00    -0.532 OA
HETATM   32  O2  UNL     1       9.908   3.301 -13.636  1.00  0.00    -0.532 OA
ENDBRANCH  27  30
ENDBRANCH  19  24
BRANCH  21  33
HETATM   33  N1  UNL     1      11.851   5.812  -7.229  1.00  0.00    -0.379 N 
HETATM   34  C1  UNL     1      11.990   6.841  -8.187  1.00  0.00     0.147 C 
ATOM     35  H1  UNL     1      11.006   5.864  -6.660  1.00  0.00     0.160 HD
ENDBRANCH  21  33
ENDBRANCH  16  17
ENDBRANCH  15  16
ENDBRANCH  13  15
ENDBRANCH   1  13
BRANCH  12  36
HETATM   36  C22 UNL     1      13.299  -0.951  -5.533  1.00  0.00     0.252 C 
BRANCH  36  37
HETATM   37  O5  UNL     1      12.115  -1.164  -5.031  1.00  0.00    -0.333 OA
ATOM     38  H5  UNL     1      11.460  -1.025  -5.705  1.00  0.00     0.220 HD
ENDBRANCH  36  37
BRANCH  36  39
HETATM   39  N5  UNL     1      13.475  -0.387  -6.764  1.00  0.00    -0.296 NA
BRANCH  39  40
HETATM   40  N6  UNL     1      13.650   0.163  -7.957  1.00  0.00    -0.196 N 
HETATM   41  C23 UNL     1      14.130  -0.527  -9.123  1.00  0.00     0.280 C 
HETATM   42  O6  UNL     1      14.398  -1.730  -9.154  1.00  0.00    -0.265 OA
ATOM     43  H6  UNL     1      13.426   1.153  -8.055  1.00  0.00     0.205 HD
BRANCH  41  44
HETATM   44  C24 UNL     1      14.328   0.259 -10.355  1.00  0.00     0.034 A 
HETATM   45  C25 UNL     1      13.582  -0.055 -11.482  1.00  0.00     0.019 A 
HETATM   46  C26 UNL     1      13.760   0.615 -12.670  1.00  0.00     0.033 A 
HETATM   47  C27 UNL     1      14.696   1.614 -12.744  1.00  0.00     0.060 A 
HETATM   48  C31 UNL     1      15.428   1.933 -11.655  1.00  0.00     0.033 A 
HETATM   49  C32 UNL     1      15.240   1.244 -10.441  1.00  0.00     0.019 A 
BRANCH  47  50
HETATM   50  N7  UNL     1      14.899   2.293 -14.003  1.00  0.00    -0.236 N 
ATOM     51  H7  UNL     1      15.350   3.208 -14.035  1.00  0.00     0.202 HD
BRANCH  50  52
HETATM   52  N8  UNL     1      14.489   1.707 -15.108  1.00  0.00    -0.335 NA
BRANCH  52  53
HETATM   53  C28 UNL     1      13.843   1.487 -16.101  1.00  0.00     0.079 C 
HETATM   54  C29 UNL     1      13.477   2.694 -16.990  1.00  0.00     0.081 C 
HETATM   55  C30 UNL     1      13.346   0.151 -16.568  1.00  0.00     0.081 C 
ENDBRANCH  52  53
ENDBRANCH  50  52
ENDBRANCH  47  50
ENDBRANCH  41  44
ENDBRANCH  39  40
ENDBRANCH  36  39
ENDBRANCH  12  36
TORSDOF 15
ENDMDL
