MODEL 1
REMARK VINA RESULT: -6.508719884      0.000      0.000
REMARK  9 active torsions:
REMARK  status: ('A' for Active; 'I' for Inactive)
REMARK    1  A    between atoms: O1_2  and  C2_3 
REMARK    2  A    between atoms: C2_3  and  C3_5 
REMARK    3  A    between atoms: C9_11  and  N1_12 
REMARK    4  A    between atoms: N1_12  and  C10_14 
REMARK    5  A    between atoms: C10_14  and  N2_16 
REMARK    6  A    between atoms: C11_18  and  C12_19 
REMARK    7  A    between atoms: C12_19  and  C13_20 
REMARK    8  A    between atoms: C13_20  and  C14_21 
REMARK    9  A    between atoms: C14_21  and  N3_22 
ROOT
HETATM    1  C3  UNL     1      -3.531   1.040  12.329  1.00  0.00     0.215 C 
HETATM    2  C4  UNL     1      -4.135   1.423  11.014  1.00  0.00     0.054 C 
HETATM    3  C5  UNL     1      -3.575   2.798  10.666  1.00  0.00    -0.007 C 
HETATM    4  C6  UNL     1      -2.089   2.602  10.471  1.00  0.00     0.037 C 
HETATM    5  C7  UNL     1      -1.529   2.079  11.769  1.00  0.00     0.190 C 
HETATM    6  C8  UNL     1      -1.695   3.200  12.796  1.00  0.00     0.064 C 
HETATM    7  C9  UNL     1      -3.170   3.413  13.021  1.00  0.00     0.037 C 
HETATM    8  C17 UNL     1      -3.862   3.803  11.732  1.00  0.00     0.036 C 
HETATM    9  C18 UNL     1      -3.742   2.055  13.406  1.00  0.00     0.081 C 
HETATM   10  N4  UNL     1      -2.104   0.839  12.176  1.00  0.00    -0.052 N 
ATOM     11  H41 UNL     1      -1.878   0.072  11.543  1.00  0.00     0.279 HD
ATOM     12  H42 UNL     1      -1.666   0.457  13.015  1.00  0.00     0.279 HD
ENDROOT
BRANCH   7  13
HETATM   13  N1  UNL     1      -3.492   4.314  14.080  1.00  0.00    -0.358 N 
ATOM     14  H1  UNL     1      -3.297   3.996  15.030  1.00  0.00     0.162 HD
BRANCH  13  15
HETATM   15  C10 UNL     1      -4.057   5.604  13.943  1.00  0.00     0.172 C 
HETATM   16  S1  UNL     1      -3.075   6.929  14.187  1.00  0.00    -0.041 SA
BRANCH  15  17
HETATM   17  N2  UNL     1      -5.406   5.763  13.640  1.00  0.00    -0.347 N 
HETATM   18  C11 UNL     1      -6.397   5.454  14.324  1.00  0.00     0.063 C 
ATOM     19  H2  UNL     1      -5.609   6.191  12.736  1.00  0.00     0.167 HD
BRANCH  18  20
HETATM   20  C12 UNL     1      -6.341   4.826  15.661  1.00  0.00     0.046 C 
BRANCH  20  21
HETATM   21  C13 UNL     1      -6.595   3.345  15.448  1.00  0.00     0.035 C 
BRANCH  21  22
HETATM   22  C14 UNL     1      -6.880   2.609  16.715  1.00  0.00     0.271 C 
BRANCH  22  23
HETATM   23  N3  UNL     1      -6.434   1.246  16.725  1.00  0.00     0.080 N 
HETATM   24  C15 UNL     1      -5.055   1.088  17.070  1.00  0.00     0.309 C 
HETATM   25  C16 UNL     1      -7.226   0.532  17.738  1.00  0.00     0.309 C 
ENDBRANCH  22  23
ENDBRANCH  21  22
ENDBRANCH  20  21
ENDBRANCH  18  20
ENDBRANCH  15  17
ENDBRANCH  13  15
ENDBRANCH   7  13
BRANCH   1  26
HETATM   26  C2  UNL     1      -4.199  -0.225  12.781  1.00  0.00     0.295 C 
HETATM   27  O2  UNL     1      -4.612  -0.363  13.960  1.00  0.00    -0.262 OA
BRANCH  26  28
HETATM   28  O1  UNL     1      -4.374  -1.270  11.906  1.00  0.00    -0.325 OA
HETATM   29  C1  UNL     1      -3.596  -2.452  11.887  1.00  0.00     0.213 C 
ENDBRANCH  26  28
ENDBRANCH   1  26
TORSDOF 9
ENDMDL
MODEL 2
REMARK VINA RESULT: -6.420374079      1.939      5.019
REMARK  9 active torsions:
REMARK  status: ('A' for Active; 'I' for Inactive)
REMARK    1  A    between atoms: O1_2  and  C2_3 
REMARK    2  A    between atoms: C2_3  and  C3_5 
REMARK    3  A    between atoms: C9_11  and  N1_12 
REMARK    4  A    between atoms: N1_12  and  C10_14 
REMARK    5  A    between atoms: C10_14  and  N2_16 
REMARK    6  A    between atoms: C11_18  and  C12_19 
REMARK    7  A    between atoms: C12_19  and  C13_20 
REMARK    8  A    between atoms: C13_20  and  C14_21 
REMARK    9  A    between atoms: C14_21  and  N3_22 
ROOT
HETATM    1  C3  UNL     1      -4.879   2.369  15.785  1.00  0.00     0.215 C 
HETATM    2  C4  UNL     1      -5.940   3.225  16.402  1.00  0.00     0.054 C 
HETATM    3  C5  UNL     1      -6.123   4.421  15.474  1.00  0.00    -0.007 C 
HETATM    4  C6  UNL     1      -6.656   3.859  14.175  1.00  0.00     0.037 C 
HETATM    5  C7  UNL     1      -5.629   2.891  13.649  1.00  0.00     0.190 C 
HETATM    6  C8  UNL     1      -4.392   3.720  13.296  1.00  0.00     0.064 C 
HETATM    7  C9  UNL     1      -3.830   4.286  14.574  1.00  0.00     0.037 C 
HETATM    8  C17 UNL     1      -4.848   5.168  15.268  1.00  0.00     0.036 C 
HETATM    9  C18 UNL     1      -3.605   3.100  15.502  1.00  0.00     0.081 C 
HETATM   10  N4  UNL     1      -5.360   1.809  14.538  1.00  0.00    -0.052 N 
ATOM     11  H41 UNL     1      -6.162   1.192  14.665  1.00  0.00     0.279 HD
ATOM     12  H42 UNL     1      -4.720   1.121  14.140  1.00  0.00     0.279 HD
ENDROOT
BRANCH   7  13
HETATM   13  N1  UNL     1      -2.573   4.948  14.436  1.00  0.00    -0.358 N 
ATOM     14  H1  UNL     1      -2.286   5.556  15.203  1.00  0.00     0.162 HD
BRANCH  13  15
HETATM   15  C10 UNL     1      -1.686   4.844  13.338  1.00  0.00     0.172 C 
HETATM   16  S1  UNL     1      -1.690   6.060  12.198  1.00  0.00    -0.041 SA
BRANCH  15  17
HETATM   17  N2  UNL     1      -0.851   3.739  13.199  1.00  0.00    -0.347 N 
HETATM   18  C11 UNL     1      -0.892   2.840  12.341  1.00  0.00     0.063 C 
ATOM     19  H2  UNL     1      -0.107   3.656  13.891  1.00  0.00     0.167 HD
BRANCH  18  20
HETATM   20  C12 UNL     1      -1.878   2.759  11.244  1.00  0.00     0.046 C 
BRANCH  20  21
HETATM   21  C13 UNL     1      -2.090   1.281  10.970  1.00  0.00     0.035 C 
BRANCH  21  22
HETATM   22  C14 UNL     1      -2.895   0.597  12.024  1.00  0.00     0.271 C 
BRANCH  22  23
HETATM   23  N3  UNL     1      -3.830  -0.369  11.526  1.00  0.00     0.080 N 
HETATM   24  C15 UNL     1      -4.262  -1.319  12.503  1.00  0.00     0.309 C 
HETATM   25  C16 UNL     1      -5.021   0.367  11.072  1.00  0.00     0.309 C 
ENDBRANCH  22  23
ENDBRANCH  21  22
ENDBRANCH  20  21
ENDBRANCH  18  20
ENDBRANCH  15  17
ENDBRANCH  13  15
ENDBRANCH   7  13
BRANCH   1  26
HETATM   26  C2  UNL     1      -4.551   1.280  16.764  1.00  0.00     0.295 C 
HETATM   27  O2  UNL     1      -3.479   0.628  16.685  1.00  0.00    -0.262 OA
BRANCH  26  28
HETATM   28  O1  UNL     1      -5.427   0.969  17.777  1.00  0.00    -0.325 OA
HETATM   29  C1  UNL     1      -6.291  -0.151  17.787  1.00  0.00     0.213 C 
ENDBRANCH  26  28
ENDBRANCH   1  26
TORSDOF 9
ENDMDL
MODEL 3
REMARK VINA RESULT: -6.177842611      1.571      2.098
REMARK  9 active torsions:
REMARK  status: ('A' for Active; 'I' for Inactive)
REMARK    1  A    between atoms: O1_2  and  C2_3 
REMARK    2  A    between atoms: C2_3  and  C3_5 
REMARK    3  A    between atoms: C9_11  and  N1_12 
REMARK    4  A    between atoms: N1_12  and  C10_14 
REMARK    5  A    between atoms: C10_14  and  N2_16 
REMARK    6  A    between atoms: C11_18  and  C12_19 
REMARK    7  A    between atoms: C12_19  and  C13_20 
REMARK    8  A    between atoms: C13_20  and  C14_21 
REMARK    9  A    between atoms: C14_21  and  N3_22 
ROOT
HETATM    1  C3  UNL     1      -3.661   1.962  11.846  1.00  0.00     0.215 C 
HETATM    2  C4  UNL     1      -2.645   1.411  10.895  1.00  0.00     0.054 C 
HETATM    3  C5  UNL     1      -1.600   2.503  10.700  1.00  0.00    -0.007 C 
HETATM    4  C6  UNL     1      -0.941   2.691  12.049  1.00  0.00     0.037 C 
HETATM    5  C7  UNL     1      -2.015   3.106  13.021  1.00  0.00     0.190 C 
HETATM    6  C8  UNL     1      -2.496   4.487  12.570  1.00  0.00     0.064 C 
HETATM    7  C9  UNL     1      -3.168   4.333  11.230  1.00  0.00     0.037 C 
HETATM    8  C17 UNL     1      -2.205   3.774  10.204  1.00  0.00     0.036 C 
HETATM    9  C18 UNL     1      -4.243   3.269  11.413  1.00  0.00     0.081 C 
HETATM   10  N4  UNL     1      -3.063   2.149  13.153  1.00  0.00    -0.052 N 
ATOM     11  H41 UNL     1      -2.749   1.274  13.573  1.00  0.00     0.279 HD
ATOM     12  H42 UNL     1      -3.745   2.406  13.867  1.00  0.00     0.279 HD
ENDROOT
BRANCH   7  13
HETATM   13  N1  UNL     1      -3.823   5.505  10.748  1.00  0.00    -0.358 N 
ATOM     14  H1  UNL     1      -3.915   5.599   9.736  1.00  0.00     0.162 HD
BRANCH  13  15
HETATM   15  C10 UNL     1      -4.358   6.552  11.535  1.00  0.00     0.172 C 
HETATM   16  S1  UNL     1      -3.340   7.781  12.018  1.00  0.00    -0.041 SA
BRANCH  15  17
HETATM   17  N2  UNL     1      -5.695   6.541  11.923  1.00  0.00    -0.347 N 
HETATM   18  C11 UNL     1      -6.192   6.118  12.981  1.00  0.00     0.063 C 
ATOM     19  H2  UNL     1      -6.354   6.932  11.251  1.00  0.00     0.167 HD
BRANCH  18  20
HETATM   20  C12 UNL     1      -5.430   5.515  14.095  1.00  0.00     0.046 C 
BRANCH  20  21
HETATM   21  C13 UNL     1      -6.417   4.668  14.878  1.00  0.00     0.035 C 
BRANCH  21  22
HETATM   22  C14 UNL     1      -6.103   3.210  14.838  1.00  0.00     0.271 C 
BRANCH  22  23
HETATM   23  N3  UNL     1      -5.820   2.627  16.117  1.00  0.00     0.080 N 
HETATM   24  C15 UNL     1      -6.983   2.346  16.899  1.00  0.00     0.309 C 
HETATM   25  C16 UNL     1      -5.133   1.348  15.875  1.00  0.00     0.309 C 
ENDBRANCH  22  23
ENDBRANCH  21  22
ENDBRANCH  20  21
ENDBRANCH  18  20
ENDBRANCH  15  17
ENDBRANCH  13  15
ENDBRANCH   7  13
BRANCH   1  26
HETATM   26  C2  UNL     1      -4.793   0.979  11.917  1.00  0.00     0.295 C 
HETATM   27  O2  UNL     1      -5.850   1.149  11.257  1.00  0.00    -0.262 OA
BRANCH  26  28
HETATM   28  O1  UNL     1      -4.697  -0.136  12.712  1.00  0.00    -0.325 OA
HETATM   29  C1  UNL     1      -4.453  -1.449  12.244  1.00  0.00     0.213 C 
ENDBRANCH  26  28
ENDBRANCH   1  26
TORSDOF 9
ENDMDL
MODEL 4
REMARK VINA RESULT: -6.161596266      2.857      6.452
REMARK  9 active torsions:
REMARK  status: ('A' for Active; 'I' for Inactive)
REMARK    1  A    between atoms: O1_2  and  C2_3 
REMARK    2  A    between atoms: C2_3  and  C3_5 
REMARK    3  A    between atoms: C9_11  and  N1_12 
REMARK    4  A    between atoms: N1_12  and  C10_14 
REMARK    5  A    between atoms: C10_14  and  N2_16 
REMARK    6  A    between atoms: C11_18  and  C12_19 
REMARK    7  A    between atoms: C12_19  and  C13_20 
REMARK    8  A    between atoms: C13_20  and  C14_21 
REMARK    9  A    between atoms: C14_21  and  N3_22 
ROOT
HETATM    1  C3  UNL     1      -4.744   1.857  15.535  1.00  0.00     0.215 C 
HETATM    2  C4  UNL     1      -3.614   2.698  16.040  1.00  0.00     0.054 C 
HETATM    3  C5  UNL     1      -3.495   3.879  15.082  1.00  0.00    -0.007 C 
HETATM    4  C6  UNL     1      -4.779   4.663  15.231  1.00  0.00     0.037 C 
HETATM    5  C7  UNL     1      -5.913   3.746  14.855  1.00  0.00     0.190 C 
HETATM    6  C8  UNL     1      -5.750   3.445  13.363  1.00  0.00     0.064 C 
HETATM    7  C9  UNL     1      -4.481   2.654  13.182  1.00  0.00     0.037 C 
HETATM    8  C17 UNL     1      -3.282   3.436  13.673  1.00  0.00     0.036 C 
HETATM    9  C18 UNL     1      -4.597   1.447  14.105  1.00  0.00     0.081 C 
HETATM   10  N4  UNL     1      -5.994   2.578  15.669  1.00  0.00    -0.052 N 
ATOM     11  H41 UNL     1      -6.227   2.788  16.639  1.00  0.00     0.279 HD
ATOM     12  H42 UNL     1      -6.808   2.002  15.454  1.00  0.00     0.279 HD
ENDROOT
BRANCH   7  13
HETATM   13  N1  UNL     1      -4.272   2.148  11.864  1.00  0.00    -0.358 N 
ATOM     14  H1  UNL     1      -4.719   2.654  11.100  1.00  0.00     0.162 HD
BRANCH  13  15
HETATM   15  C10 UNL     1      -3.503   1.013  11.513  1.00  0.00     0.172 C 
HETATM   16  S1  UNL     1      -4.279  -0.280  10.801  1.00  0.00    -0.041 SA
BRANCH  15  17
HETATM   17  N2  UNL     1      -2.138   0.964  11.782  1.00  0.00    -0.347 N 
HETATM   18  C11 UNL     1      -1.224   1.639  11.278  1.00  0.00     0.063 C 
ATOM     19  H2  UNL     1      -1.850   0.284  12.485  1.00  0.00     0.167 HD
BRANCH  18  20
HETATM   20  C12 UNL     1      -1.409   2.681  10.247  1.00  0.00     0.046 C 
BRANCH  20  21
HETATM   21  C13 UNL     1      -0.689   3.917  10.755  1.00  0.00     0.035 C 
BRANCH  21  22
HETATM   22  C14 UNL     1       0.607   3.609  11.426  1.00  0.00     0.271 C 
BRANCH  22  23
HETATM   23  N3  UNL     1       1.665   4.529  11.127  1.00  0.00     0.080 N 
HETATM   24  C15 UNL     1       2.656   4.630  12.153  1.00  0.00     0.309 C 
HETATM   25  C16 UNL     1       2.339   4.046   9.911  1.00  0.00     0.309 C 
ENDBRANCH  22  23
ENDBRANCH  21  22
ENDBRANCH  20  21
ENDBRANCH  18  20
ENDBRANCH  15  17
ENDBRANCH  13  15
ENDBRANCH   7  13
BRANCH   1  26
HETATM   26  C2  UNL     1      -4.768   0.598  16.352  1.00  0.00     0.295 C 
HETATM   27  O2  UNL     1      -3.712   0.096  16.815  1.00  0.00    -0.262 OA
BRANCH  26  28
HETATM   28  O1  UNL     1      -5.957  -0.039  16.612  1.00  0.00    -0.325 OA
HETATM   29  C1  UNL     1      -6.649   0.006  17.846  1.00  0.00     0.213 C 
ENDBRANCH  26  28
ENDBRANCH   1  26
TORSDOF 9
ENDMDL
MODEL 5
REMARK VINA RESULT: -6.142815297      2.731      5.498
REMARK  9 active torsions:
REMARK  status: ('A' for Active; 'I' for Inactive)
REMARK    1  A    between atoms: O1_2  and  C2_3 
REMARK    2  A    between atoms: C2_3  and  C3_5 
REMARK    3  A    between atoms: C9_11  and  N1_12 
REMARK    4  A    between atoms: N1_12  and  C10_14 
REMARK    5  A    between atoms: C10_14  and  N2_16 
REMARK    6  A    between atoms: C11_18  and  C12_19 
REMARK    7  A    between atoms: C12_19  and  C13_20 
REMARK    8  A    between atoms: C13_20  and  C14_21 
REMARK    9  A    between atoms: C14_21  and  N3_22 
ROOT
HETATM    1  C3  UNL     1      -4.712   1.871  15.539  1.00  0.00     0.215 C 
HETATM    2  C4  UNL     1      -3.579   2.676  16.096  1.00  0.00     0.054 C 
HETATM    3  C5  UNL     1      -3.428   3.892  15.189  1.00  0.00    -0.007 C 
HETATM    4  C6  UNL     1      -4.704   4.688  15.347  1.00  0.00     0.037 C 
HETATM    5  C7  UNL     1      -5.844   3.802  14.915  1.00  0.00     0.190 C 
HETATM    6  C8  UNL     1      -5.658   3.560  13.415  1.00  0.00     0.064 C 
HETATM    7  C9  UNL     1      -4.397   2.758  13.224  1.00  0.00     0.037 C 
HETATM    8  C17 UNL     1      -3.196   3.504  13.767  1.00  0.00     0.036 C 
HETATM    9  C18 UNL     1      -4.545   1.518  14.096  1.00  0.00     0.081 C 
HETATM   10  N4  UNL     1      -5.954   2.604  15.680  1.00  0.00    -0.052 N 
ATOM     11  H41 UNL     1      -6.202   2.778  16.653  1.00  0.00     0.279 HD
ATOM     12  H42 UNL     1      -6.772   2.048  15.428  1.00  0.00     0.279 HD
ENDROOT
BRANCH   7  13
HETATM   13  N1  UNL     1      -4.170   2.303  11.891  1.00  0.00    -0.358 N 
ATOM     14  H1  UNL     1      -4.371   1.321  11.699  1.00  0.00     0.162 HD
BRANCH  13  15
HETATM   15  C10 UNL     1      -3.694   3.080  10.808  1.00  0.00     0.172 C 
HETATM   16  S1  UNL     1      -2.069   3.014  10.440  1.00  0.00    -0.041 SA
BRANCH  15  17
HETATM   17  N2  UNL     1      -4.555   3.901  10.086  1.00  0.00    -0.347 N 
HETATM   18  C11 UNL     1      -4.749   5.123  10.213  1.00  0.00     0.063 C 
ATOM     19  H2  UNL     1      -5.099   3.440   9.357  1.00  0.00     0.167 HD
BRANCH  18  20
HETATM   20  C12 UNL     1      -4.072   5.991  11.198  1.00  0.00     0.046 C 
BRANCH  20  21
HETATM   21  C13 UNL     1      -5.167   6.782  11.892  1.00  0.00     0.035 C 
BRANCH  21  22
HETATM   22  C14 UNL     1      -5.559   8.017  11.152  1.00  0.00     0.271 C 
BRANCH  22  23
HETATM   23  N3  UNL     1      -6.948   8.356  11.253  1.00  0.00     0.080 N 
HETATM   24  C15 UNL     1      -7.660   8.271  10.016  1.00  0.00     0.309 C 
HETATM   25  C16 UNL     1      -7.568   7.398  12.183  1.00  0.00     0.309 C 
ENDBRANCH  22  23
ENDBRANCH  21  22
ENDBRANCH  20  21
ENDBRANCH  18  20
ENDBRANCH  15  17
ENDBRANCH  13  15
ENDBRANCH   7  13
BRANCH   1  26
HETATM   26  C2  UNL     1      -4.767   0.581  16.303  1.00  0.00     0.295 C 
HETATM   27  O2  UNL     1      -3.721   0.016  16.713  1.00  0.00    -0.262 OA
BRANCH  26  28
HETATM   28  O1  UNL     1      -5.975  -0.016  16.573  1.00  0.00    -0.325 OA
HETATM   29  C1  UNL     1      -6.643   0.031  17.819  1.00  0.00     0.213 C 
ENDBRANCH  26  28
ENDBRANCH   1  26
TORSDOF 9
ENDMDL
