MODEL 1
REMARK VINA RESULT: -5.424449840      0.000      0.000
REMARK  4 active torsions:
REMARK  status: ('A' for Active; 'I' for Inactive)
REMARK    1  A    between atoms: N1_1  and  C1_4 
REMARK    2  A    between atoms: N6_15  and  C4_16 
REMARK    3  A    between atoms: C4_16  and  C5_17 
REMARK    4  A    between atoms: C5_17  and  N7_18 
ROOT
HETATM    1  C1  UNL     1      84.195 -13.439  66.561  1.00  0.00     0.146 A 
HETATM    2  N2  UNL     1      83.938 -12.353  65.850  1.00  0.00    -0.282 N 
ATOM      3  H2  UNL     1      84.212 -11.410  66.128  1.00  0.00     0.188 HD
HETATM    4  N3  UNL     1      83.286 -12.635  64.740  1.00  0.00    -0.281 N 
ATOM      5  H3  UNL     1      82.978 -11.968  64.032  1.00  0.00     0.188 HD
HETATM    6  C2  UNL     1      83.101 -13.981  64.717  1.00  0.00     0.170 A 
HETATM    7  C3  UNL     1      83.666 -14.511  65.855  1.00  0.00     0.141 A 
HETATM    8  N4  UNL     1      83.456 -15.824  65.775  1.00  0.00    -0.279 N 
ATOM      9  H4  UNL     1      83.759 -16.502  66.474  1.00  0.00     0.189 HD
HETATM   10  N5  UNL     1      82.807 -16.128  64.672  1.00  0.00    -0.238 N 
ATOM     11  H5  UNL     1      82.526 -17.064  64.379  1.00  0.00     0.208 HD
HETATM   12  N6  UNL     1      82.578 -14.992  64.004  1.00  0.00    -0.257 N 
ENDROOT
BRANCH  12  13
HETATM   13  C4  UNL     1      81.875 -14.889  62.723  1.00  0.00     0.179 C 
BRANCH  13  14
HETATM   14  C5  UNL     1      81.158 -16.167  62.426  1.00  0.00     0.251 C 
BRANCH  14  15
HETATM   15  N7  UNL     1      79.763 -15.893  62.194  1.00  0.00    -0.078 N 
ATOM     16  H73 UNL     1      79.512 -14.936  62.440  1.00  0.00     0.274 HD
ATOM     17  H72 UNL     1      79.539 -15.852  61.200  1.00  0.00     0.274 HD
ATOM     18  H71 UNL     1      79.194 -16.580  62.689  1.00  0.00     0.274 HD
ENDBRANCH  14  15
ENDBRANCH  13  14
ENDBRANCH  12  13
BRANCH   1  19
HETATM   19  N1  UNL     1      84.808 -13.577  67.696  1.00  0.00    -0.382 N 
ATOM     20  H12 UNL     1      84.730 -12.898  68.454  1.00  0.00     0.157 HD
ATOM     21  H11 UNL     1      85.428 -14.316  68.028  1.00  0.00     0.157 HD
ENDBRANCH   1  19
TORSDOF 4
ENDMDL
MODEL 2
REMARK VINA RESULT: -5.303174739      1.594      2.259
REMARK  4 active torsions:
REMARK  status: ('A' for Active; 'I' for Inactive)
REMARK    1  A    between atoms: N1_1  and  C1_4 
REMARK    2  A    between atoms: N6_15  and  C4_16 
REMARK    3  A    between atoms: C4_16  and  C5_17 
REMARK    4  A    between atoms: C5_17  and  N7_18 
ROOT
HETATM    1  C1  UNL     1      84.485 -13.013  66.431  1.00  0.00     0.146 A 
HETATM    2  N2  UNL     1      84.952 -14.066  67.082  1.00  0.00    -0.282 N 
ATOM      3  H2  UNL     1      85.524 -14.010  67.925  1.00  0.00     0.188 HD
HETATM    4  N3  UNL     1      84.590 -15.197  66.509  1.00  0.00    -0.281 N 
ATOM      5  H3  UNL     1      84.826 -16.138  66.825  1.00  0.00     0.188 HD
HETATM    6  C2  UNL     1      83.844 -14.873  65.422  1.00  0.00     0.170 A 
HETATM    7  C3  UNL     1      83.763 -13.500  65.351  1.00  0.00     0.141 A 
HETATM    8  N4  UNL     1      83.022 -13.245  64.273  1.00  0.00    -0.279 N 
ATOM      9  H4  UNL     1      82.778 -12.310  63.946  1.00  0.00     0.189 HD
HETATM   10  N5  UNL     1      82.648 -14.361  63.686  1.00  0.00    -0.238 N 
ATOM     11  H5  UNL     1      82.076 -14.436  62.845  1.00  0.00     0.208 HD
HETATM   12  N6  UNL     1      83.152 -15.382  64.389  1.00  0.00    -0.257 N 
ENDROOT
BRANCH  12  13
HETATM   13  C4  UNL     1      82.973 -16.801  64.070  1.00  0.00     0.179 C 
BRANCH  13  14
HETATM   14  C5  UNL     1      81.518 -17.116  63.927  1.00  0.00     0.251 C 
BRANCH  14  15
HETATM   15  N7  UNL     1      81.327 -18.543  63.991  1.00  0.00    -0.078 N 
ATOM     16  H73 UNL     1      82.212 -19.050  63.998  1.00  0.00     0.274 HD
ATOM     17  H72 UNL     1      80.979 -18.844  64.901  1.00  0.00     0.274 HD
ATOM     18  H71 UNL     1      80.718 -18.840  63.228  1.00  0.00     0.274 HD
ENDBRANCH  14  15
ENDBRANCH  13  14
ENDBRANCH  12  13
BRANCH   1  19
HETATM   19  N1  UNL     1      84.620 -11.745  66.674  1.00  0.00    -0.382 N 
ATOM     20  H12 UNL     1      85.049 -11.387  67.528  1.00  0.00     0.157 HD
ATOM     21  H11 UNL     1      84.353 -10.933  66.118  1.00  0.00     0.157 HD
ENDBRANCH   1  19
TORSDOF 4
ENDMDL
MODEL 3
REMARK VINA RESULT: -4.683281634      1.196      4.629
REMARK  4 active torsions:
REMARK  status: ('A' for Active; 'I' for Inactive)
REMARK    1  A    between atoms: N1_1  and  C1_4 
REMARK    2  A    between atoms: N6_15  and  C4_16 
REMARK    3  A    between atoms: C4_16  and  C5_17 
REMARK    4  A    between atoms: C5_17  and  N7_18 
ROOT
HETATM    1  C1  UNL     1      80.742 -15.938  62.525  1.00  0.00     0.146 A 
HETATM    2  N2  UNL     1      80.968 -14.780  61.927  1.00  0.00    -0.282 N 
ATOM      3  H2  UNL     1      80.504 -14.478  61.070  1.00  0.00     0.188 HD
HETATM    4  N3  UNL     1      81.867 -14.062  62.572  1.00  0.00    -0.281 N 
ATOM      5  H3  UNL     1      82.206 -13.137  62.307  1.00  0.00     0.188 HD
HETATM    6  C2  UNL     1      82.255 -14.786  63.654  1.00  0.00     0.170 A 
HETATM    7  C3  UNL     1      81.559 -15.974  63.647  1.00  0.00     0.141 A 
HETATM    8  N4  UNL     1      81.978 -16.635  64.725  1.00  0.00    -0.279 N 
ATOM      9  H4  UNL     1      81.647 -17.559  65.002  1.00  0.00     0.189 HD
HETATM   10  N5  UNL     1      82.875 -15.935  65.385  1.00  0.00    -0.238 N 
ATOM     11  H5  UNL     1      83.348 -16.220  66.243  1.00  0.00     0.208 HD
HETATM   12  N6  UNL     1      83.058 -14.782  64.730  1.00  0.00    -0.257 N 
ENDROOT
BRANCH  12  13
HETATM   13  C4  UNL     1      83.981 -13.718  65.131  1.00  0.00     0.179 C 
BRANCH  13  14
HETATM   14  C5  UNL     1      84.926 -14.223  66.175  1.00  0.00     0.251 C 
BRANCH  14  15
HETATM   15  N7  UNL     1      84.587 -13.643  67.450  1.00  0.00    -0.078 N 
ATOM     16  H73 UNL     1      84.055 -12.779  67.351  1.00  0.00     0.274 HD
ATOM     17  H72 UNL     1      83.886 -14.191  67.948  1.00  0.00     0.274 HD
ATOM     18  H71 UNL     1      85.436 -13.512  68.001  1.00  0.00     0.274 HD
ENDBRANCH  14  15
ENDBRANCH  13  14
ENDBRANCH  12  13
BRANCH   1  19
HETATM   19  N1  UNL     1      79.940 -16.908  62.207  1.00  0.00    -0.382 N 
ATOM     20  H12 UNL     1      78.971 -16.756  61.926  1.00  0.00     0.157 HD
ATOM     21  H11 UNL     1      80.099 -17.915  62.176  1.00  0.00     0.157 HD
ENDBRANCH   1  19
TORSDOF 4
ENDMDL
MODEL 4
REMARK VINA RESULT: -4.511017105      1.745      4.753
REMARK  4 active torsions:
REMARK  status: ('A' for Active; 'I' for Inactive)
REMARK    1  A    between atoms: N1_1  and  C1_4 
REMARK    2  A    between atoms: N6_15  and  C4_16 
REMARK    3  A    between atoms: C4_16  and  C5_17 
REMARK    4  A    between atoms: C5_17  and  N7_18 
ROOT
HETATM    1  C1  UNL     1      81.996 -15.255  63.143  1.00  0.00     0.146 A 
HETATM    2  N2  UNL     1      82.329 -16.485  63.499  1.00  0.00    -0.282 N 
ATOM      3  H2  UNL     1      81.924 -17.328  63.092  1.00  0.00     0.188 HD
HETATM    4  N3  UNL     1      83.248 -16.490  64.445  1.00  0.00    -0.281 N 
ATOM      5  H3  UNL     1      83.664 -17.313  64.881  1.00  0.00     0.188 HD
HETATM    6  C2  UNL     1      83.537 -15.193  64.728  1.00  0.00     0.170 A 
HETATM    7  C3  UNL     1      82.760 -14.394  63.919  1.00  0.00     0.141 A 
HETATM    8  N4  UNL     1      83.087 -13.143  64.240  1.00  0.00    -0.279 N 
ATOM      9  H4  UNL     1      82.680 -12.311  63.812  1.00  0.00     0.189 HD
HETATM   10  N5  UNL     1      84.004 -13.125  65.182  1.00  0.00    -0.238 N 
ATOM     11  H5  UNL     1      84.421 -12.293  65.599  1.00  0.00     0.208 HD
HETATM   12  N6  UNL     1      84.294 -14.393  65.496  1.00  0.00    -0.257 N 
ENDROOT
BRANCH  12  13
HETATM   13  C4  UNL     1      85.266 -14.814  66.508  1.00  0.00     0.179 C 
BRANCH  13  14
HETATM   14  C5  UNL     1      86.654 -14.711  65.961  1.00  0.00     0.251 C 
BRANCH  14  15
HETATM   15  N7  UNL     1      87.058 -15.988  65.429  1.00  0.00    -0.078 N 
ATOM     16  H73 UNL     1      87.960 -15.941  64.956  1.00  0.00     0.274 HD
ATOM     17  H72 UNL     1      87.312 -16.648  66.164  1.00  0.00     0.274 HD
ATOM     18  H71 UNL     1      86.323 -16.352  64.822  1.00  0.00     0.274 HD
ENDBRANCH  14  15
ENDBRANCH  13  14
ENDBRANCH  12  13
BRANCH   1  19
HETATM   19  N1  UNL     1      81.143 -14.836  62.259  1.00  0.00    -0.382 N 
ATOM     20  H12 UNL     1      81.094 -15.215  61.313  1.00  0.00     0.157 HD
ATOM     21  H11 UNL     1      80.422 -14.118  62.324  1.00  0.00     0.157 HD
ENDBRANCH   1  19
TORSDOF 4
ENDMDL
MODEL 5
REMARK VINA RESULT: -4.485858972      3.150      6.458
REMARK  4 active torsions:
REMARK  status: ('A' for Active; 'I' for Inactive)
REMARK    1  A    between atoms: N1_1  and  C1_4 
REMARK    2  A    between atoms: N6_15  and  C4_16 
REMARK    3  A    between atoms: C4_16  and  C5_17 
REMARK    4  A    between atoms: C5_17  and  N7_18 
ROOT
HETATM    1  C1  UNL     1      78.828 -19.800  63.297  1.00  0.00     0.146 A 
HETATM    2  N2  UNL     1      79.673 -20.488  64.048  1.00  0.00    -0.282 N 
ATOM      3  H2  UNL     1      79.502 -21.439  64.376  1.00  0.00     0.188 HD
HETATM    4  N3  UNL     1      80.762 -19.798  64.320  1.00  0.00    -0.281 N 
ATOM      5  H3  UNL     1      81.556 -20.113  64.879  1.00  0.00     0.188 HD
HETATM    6  C2  UNL     1      80.629 -18.588  63.717  1.00  0.00     0.170 A 
HETATM    7  C3  UNL     1      79.416 -18.565  63.065  1.00  0.00     0.141 A 
HETATM    8  N4  UNL     1      79.345 -17.362  62.495  1.00  0.00    -0.279 N 
ATOM      9  H4  UNL     1      78.559 -17.034  61.934  1.00  0.00     0.189 HD
HETATM   10  N5  UNL     1      80.424 -16.656  62.754  1.00  0.00    -0.238 N 
ATOM     11  H5  UNL     1      80.611 -15.706  62.433  1.00  0.00     0.208 HD
HETATM   12  N6  UNL     1      81.231 -17.405  63.514  1.00  0.00    -0.257 N 
ENDROOT
BRANCH  12  13
HETATM   13  C4  UNL     1      82.538 -16.987  64.027  1.00  0.00     0.179 C 
BRANCH  13  14
HETATM   14  C5  UNL     1      82.433 -15.639  64.666  1.00  0.00     0.251 C 
BRANCH  14  15
HETATM   15  N7  UNL     1      83.375 -15.547  65.752  1.00  0.00    -0.078 N 
ATOM     16  H73 UNL     1      83.873 -14.657  65.756  1.00  0.00     0.274 HD
ATOM     17  H72 UNL     1      82.912 -15.459  66.657  1.00  0.00     0.274 HD
ATOM     18  H71 UNL     1      84.010 -16.344  65.721  1.00  0.00     0.274 HD
ENDBRANCH  14  15
ENDBRANCH  13  14
ENDBRANCH  12  13
BRANCH   1  19
HETATM   19  N1  UNL     1      77.664 -20.126  62.823  1.00  0.00    -0.382 N 
ATOM     20  H12 UNL     1      77.547 -20.726  62.007  1.00  0.00     0.157 HD
ATOM     21  H11 UNL     1      76.728 -19.875  63.138  1.00  0.00     0.157 HD
ENDBRANCH   1  19
TORSDOF 4
ENDMDL
