MODEL 1
REMARK VINA RESULT: -7.928462980      0.000      0.000
REMARK  4 active torsions:
REMARK  status: ('A' for Active; 'I' for Inactive)
REMARK    1  A    between atoms: N1_2  and  N2_4 
REMARK    2  A    between atoms: N2_4  and  C2_6 
REMARK    3  A    between atoms: N6_13  and  N7_14 
REMARK       I    between atoms: N7_14  and  C3_16 
REMARK       I    between atoms: C3_16  and  N8_18 
REMARK    4  A    between atoms: N8_18  and  C4_20 
ROOT
HETATM    1  N7  UNL     1      17.754  66.133  36.590  1.00  0.00    -0.213 N 
ATOM      2  H7  UNL     1      17.793  65.346  35.943  1.00  0.00     0.194 HD
HETATM    3  C3  UNL     1      16.607  66.342  37.397  1.00  0.00     0.342 C 
HETATM    4  O1  UNL     1      16.532  67.314  38.212  1.00  0.00    -0.245 OA
HETATM    5  N8  UNL     1      15.512  65.441  37.293  1.00  0.00    -0.292 N 
ATOM      6  H8  UNL     1      14.877  65.462  36.495  1.00  0.00     0.172 HD
ENDROOT
BRANCH   1   7
HETATM    7  N6  UNL     1      18.838  67.026  36.694  1.00  0.00     0.003 N 
HETATM    8  C2  UNL     1      19.415  67.742  35.715  1.00  0.00     0.750 A 
HETATM    9  N3  UNL     1      20.419  68.471  36.232  1.00  0.00    -0.112 N 
HETATM   10  N4  UNL     1      20.452  68.200  37.517  1.00  0.00    -0.212 N 
ATOM     11  H3  UNL     1      21.034  69.109  35.726  1.00  0.00     0.207 HD
HETATM   12  N5  UNL     1      19.500  67.330  37.796  1.00  0.00    -0.191 N 
ATOM     13  H4  UNL     1      21.107  68.598  38.190  1.00  0.00     0.210 HD
ATOM     14  H5  UNL     1      19.306  66.950  38.723  1.00  0.00     0.212 HD
BRANCH   8  15
HETATM   15  N2  UNL     1      19.024  67.697  34.484  1.00  0.00    -0.129 N 
ATOM     16  H2  UNL     1      18.063  67.925  34.232  1.00  0.00     0.205 HD
BRANCH  15  17
HETATM   17  N1  UNL     1      19.952  67.330  33.514  1.00  0.00    -0.308 N 
HETATM   18  C1  UNL     1      19.651  67.243  32.258  1.00  0.00     0.139 C 
ATOM     19  H1  UNL     1      20.907  67.121  33.805  1.00  0.00     0.185 HD
ENDBRANCH  15  17
ENDBRANCH   8  15
ENDBRANCH   1   7
BRANCH   5  20
HETATM   20  C4  UNL     1      15.362  64.597  38.257  1.00  0.00     0.123 A 
HETATM   21  C5  UNL     1      14.264  63.777  38.389  1.00  0.00     0.055 A 
HETATM   22  C6  UNL     1      14.139  62.878  39.445  1.00  0.00     0.079 A 
HETATM   23  C7  UNL     1      15.174  62.850  40.357  1.00  0.00     0.259 A 
HETATM   24  O2  UNL     1      15.074  62.031  41.331  1.00  0.00    -0.267 OA
HETATM   25  N9  UNL     1      16.239  63.657  40.212  1.00  0.00    -0.265 N 
HETATM   26  N10 UNL     1      16.316  64.491  39.199  1.00  0.00    -0.283 N 
ATOM     27  H9  UNL     1      16.996  63.622  40.896  1.00  0.00     0.190 HD
ATOM     28  H10 UNL     1      17.140  65.087  39.124  1.00  0.00     0.188 HD
ENDBRANCH   5  20
TORSDOF 4
ENDMDL
MODEL 2
REMARK VINA RESULT: -7.630133722      4.202      6.084
REMARK  4 active torsions:
REMARK  status: ('A' for Active; 'I' for Inactive)
REMARK    1  A    between atoms: N1_2  and  N2_4 
REMARK    2  A    between atoms: N2_4  and  C2_6 
REMARK    3  A    between atoms: N6_13  and  N7_14 
REMARK       I    between atoms: N7_14  and  C3_16 
REMARK       I    between atoms: C3_16  and  N8_18 
REMARK    4  A    between atoms: N8_18  and  C4_20 
ROOT
HETATM    1  N7  UNL     1      17.636  69.246  32.903  1.00  0.00    -0.213 N 
ATOM      2  H7  UNL     1      18.512  69.747  32.756  1.00  0.00     0.194 HD
HETATM    3  C3  UNL     1      17.629  67.991  33.562  1.00  0.00     0.342 C 
HETATM    4  O1  UNL     1      16.552  67.346  33.758  1.00  0.00    -0.245 OA
HETATM    5  N8  UNL     1      18.858  67.438  34.015  1.00  0.00    -0.292 N 
ATOM      6  H8  UNL     1      19.529  67.024  33.368  1.00  0.00     0.172 HD
ENDROOT
BRANCH   1   7
HETATM    7  N6  UNL     1      16.419  69.793  32.454  1.00  0.00     0.003 N 
HETATM    8  C2  UNL     1      16.090  70.162  31.205  1.00  0.00     0.750 A 
HETATM    9  N3  UNL     1      14.832  70.637  31.201  1.00  0.00    -0.112 N 
HETATM   10  N4  UNL     1      14.399  70.556  32.439  1.00  0.00    -0.212 N 
ATOM     11  H3  UNL     1      14.315  70.989  30.395  1.00  0.00     0.207 HD
HETATM   12  N5  UNL     1      15.354  70.048  33.194  1.00  0.00    -0.191 N 
ATOM     13  H4  UNL     1      13.475  70.841  32.763  1.00  0.00     0.210 HD
ATOM     14  H5  UNL     1      15.281  69.880  34.197  1.00  0.00     0.212 HD
BRANCH   8  15
HETATM   15  N2  UNL     1      16.897  70.055  30.203  1.00  0.00    -0.129 N 
ATOM     16  H2  UNL     1      17.610  70.763  30.027  1.00  0.00     0.205 HD
BRANCH  15  17
HETATM   17  N1  UNL     1      16.765  68.949  29.369  1.00  0.00    -0.308 N 
HETATM   18  C1  UNL     1      17.354  67.820  29.608  1.00  0.00     0.139 C 
ATOM     19  H1  UNL     1      16.181  69.030  28.537  1.00  0.00     0.185 HD
ENDBRANCH  15  17
ENDBRANCH   8  15
ENDBRANCH   1   7
BRANCH   5  20
HETATM   20  C4  UNL     1      19.082  67.487  35.285  1.00  0.00     0.123 A 
HETATM   21  C5  UNL     1      18.384  66.745  36.212  1.00  0.00     0.055 A 
HETATM   22  C6  UNL     1      18.656  66.825  37.574  1.00  0.00     0.079 A 
HETATM   23  C7  UNL     1      19.663  67.689  37.953  1.00  0.00     0.259 A 
HETATM   24  O2  UNL     1      19.925  67.774  39.199  1.00  0.00    -0.267 OA
HETATM   25  N9  UNL     1      20.335  68.405  37.035  1.00  0.00    -0.265 N 
HETATM   26  N10 UNL     1      20.045  68.298  35.757  1.00  0.00    -0.283 N 
ATOM     27  H9  UNL     1      21.078  69.038  37.332  1.00  0.00     0.190 HD
ATOM     28  H10 UNL     1      20.577  68.857  35.091  1.00  0.00     0.188 HD
ENDBRANCH   5  20
TORSDOF 4
ENDMDL
MODEL 3
REMARK VINA RESULT: -7.475034303      4.246      6.358
REMARK  4 active torsions:
REMARK  status: ('A' for Active; 'I' for Inactive)
REMARK    1  A    between atoms: N1_2  and  N2_4 
REMARK    2  A    between atoms: N2_4  and  C2_6 
REMARK    3  A    between atoms: N6_13  and  N7_14 
REMARK       I    between atoms: N7_14  and  C3_16 
REMARK       I    between atoms: C3_16  and  N8_18 
REMARK    4  A    between atoms: N8_18  and  C4_20 
ROOT
HETATM    1  N7  UNL     1      18.354  68.877  32.248  1.00  0.00    -0.213 N 
ATOM      2  H7  UNL     1      19.254  69.353  32.190  1.00  0.00     0.194 HD
HETATM    3  C3  UNL     1      18.216  67.695  33.018  1.00  0.00     0.342 C 
HETATM    4  O1  UNL     1      17.106  67.083  33.107  1.00  0.00    -0.245 OA
HETATM    5  N8  UNL     1      19.346  67.181  33.709  1.00  0.00    -0.292 N 
ATOM      6  H8  UNL     1      20.098  66.698  33.219  1.00  0.00     0.172 HD
ENDROOT
BRANCH   1   7
HETATM    7  N6  UNL     1      17.234  69.385  31.563  1.00  0.00     0.003 N 
HETATM    8  C2  UNL     1      16.166  70.016  32.079  1.00  0.00     0.750 A 
HETATM    9  N3  UNL     1      15.320  70.340  31.087  1.00  0.00    -0.112 N 
HETATM   10  N4  UNL     1      15.869  69.909  29.974  1.00  0.00    -0.212 N 
ATOM     11  H3  UNL     1      14.427  70.825  31.179  1.00  0.00     0.207 HD
HETATM   12  N5  UNL     1      17.022  69.334  30.259  1.00  0.00    -0.191 N 
ATOM     13  H4  UNL     1      15.470  70.004  29.039  1.00  0.00     0.210 HD
ATOM     14  H5  UNL     1      17.653  68.913  29.577  1.00  0.00     0.212 HD
BRANCH   8  15
HETATM   15  N2  UNL     1      16.027  70.248  33.342  1.00  0.00    -0.129 N 
ATOM     16  H2  UNL     1      16.449  71.071  33.773  1.00  0.00     0.205 HD
BRANCH  15  17
HETATM   17  N1  UNL     1      15.285  69.345  34.098  1.00  0.00    -0.308 N 
HETATM   18  C1  UNL     1      14.183  68.817  33.672  1.00  0.00     0.139 C 
ATOM     19  H1  UNL     1      15.624  69.089  35.026  1.00  0.00     0.185 HD
ENDBRANCH  15  17
ENDBRANCH   8  15
ENDBRANCH   1   7
BRANCH   5  20
HETATM   20  C4  UNL     1      19.373  67.356  34.988  1.00  0.00     0.123 A 
HETATM   21  C5  UNL     1      18.527  66.713  35.864  1.00  0.00     0.055 A 
HETATM   22  C6  UNL     1      18.588  66.929  37.237  1.00  0.00     0.079 A 
HETATM   23  C7  UNL     1      19.541  67.822  37.680  1.00  0.00     0.259 A 
HETATM   24  O2  UNL     1      19.610  68.031  38.937  1.00  0.00    -0.267 OA
HETATM   25  N9  UNL     1      20.359  68.441  36.811  1.00  0.00    -0.265 N 
HETATM   26  N10 UNL     1      20.267  68.207  35.521  1.00  0.00    -0.283 N 
ATOM     27  H9  UNL     1      21.060  69.098  37.156  1.00  0.00     0.190 HD
ATOM     28  H10 UNL     1      20.906  68.695  34.893  1.00  0.00     0.188 HD
ENDBRANCH   5  20
TORSDOF 4
ENDMDL
MODEL 4
REMARK VINA RESULT: -7.229758471      3.949      5.759
REMARK  4 active torsions:
REMARK  status: ('A' for Active; 'I' for Inactive)
REMARK    1  A    between atoms: N1_2  and  N2_4 
REMARK    2  A    between atoms: N2_4  and  C2_6 
REMARK    3  A    between atoms: N6_13  and  N7_14 
REMARK       I    between atoms: N7_14  and  C3_16 
REMARK       I    between atoms: C3_16  and  N8_18 
REMARK    4  A    between atoms: N8_18  and  C4_20 
ROOT
HETATM    1  N7  UNL     1      16.988  69.569  33.490  1.00  0.00    -0.213 N 
ATOM      2  H7  UNL     1      17.660  70.227  33.885  1.00  0.00     0.194 HD
HETATM    3  C3  UNL     1      17.256  68.177  33.499  1.00  0.00     0.342 C 
HETATM    4  O1  UNL     1      16.436  67.336  33.013  1.00  0.00    -0.245 OA
HETATM    5  N8  UNL     1      18.472  67.709  34.066  1.00  0.00    -0.292 N 
ATOM      6  H8  UNL     1      19.363  67.813  33.582  1.00  0.00     0.172 HD
ENDROOT
BRANCH   1   7
HETATM    7  N6  UNL     1      15.783  70.033  32.927  1.00  0.00     0.003 N 
HETATM    8  C2  UNL     1      15.601  70.618  31.732  1.00  0.00     0.750 A 
HETATM    9  N3  UNL     1      14.298  70.910  31.576  1.00  0.00    -0.112 N 
HETATM   10  N4  UNL     1      13.692  70.505  32.669  1.00  0.00    -0.212 N 
ATOM     11  H3  UNL     1      13.865  71.357  30.768  1.00  0.00     0.207 HD
HETATM   12  N5  UNL     1      14.585  69.976  33.484  1.00  0.00    -0.191 N 
ATOM     13  H4  UNL     1      12.693  70.585  32.858  1.00  0.00     0.210 HD
ATOM     14  H5  UNL     1      14.382  69.585  34.403  1.00  0.00     0.212 HD
BRANCH   8  15
HETATM   15  N2  UNL     1      16.564  70.841  30.902  1.00  0.00    -0.129 N 
ATOM     16  H2  UNL     1      17.270  71.552  31.096  1.00  0.00     0.205 HD
BRANCH  15  17
HETATM   17  N1  UNL     1      16.613  70.085  29.735  1.00  0.00    -0.308 N 
HETATM   18  C1  UNL     1      16.606  68.790  29.740  1.00  0.00     0.139 C 
ATOM     19  H1  UNL     1      16.656  70.571  28.838  1.00  0.00     0.185 HD
ENDBRANCH  15  17
ENDBRANCH   8  15
ENDBRANCH   1   7
BRANCH   5  20
HETATM   20  C4  UNL     1      18.392  67.145  35.224  1.00  0.00     0.123 A 
HETATM   21  C5  UNL     1      19.462  66.555  35.861  1.00  0.00     0.055 A 
HETATM   22  C6  UNL     1      19.335  65.957  37.111  1.00  0.00     0.079 A 
HETATM   23  C7  UNL     1      18.080  65.983  37.684  1.00  0.00     0.259 A 
HETATM   24  O2  UNL     1      17.947  65.439  38.831  1.00  0.00    -0.267 OA
HETATM   25  N9  UNL     1      17.047  66.564  37.049  1.00  0.00    -0.265 N 
HETATM   26  N10 UNL     1      17.212  67.117  35.868  1.00  0.00    -0.283 N 
ATOM     27  H9  UNL     1      16.126  66.575  37.488  1.00  0.00     0.190 HD
ATOM     28  H10 UNL     1      16.405  67.548  35.418  1.00  0.00     0.188 HD
ENDBRANCH   5  20
TORSDOF 4
ENDMDL
MODEL 5
REMARK VINA RESULT: -7.130572914      3.716      7.428
REMARK  4 active torsions:
REMARK  status: ('A' for Active; 'I' for Inactive)
REMARK    1  A    between atoms: N1_2  and  N2_4 
REMARK    2  A    between atoms: N2_4  and  C2_6 
REMARK    3  A    between atoms: N6_13  and  N7_14 
REMARK       I    between atoms: N7_14  and  C3_16 
REMARK       I    between atoms: C3_16  and  N8_18 
REMARK    4  A    between atoms: N8_18  and  C4_20 
ROOT
HETATM    1  N7  UNL     1      18.131  67.679  34.702  1.00  0.00    -0.213 N 
ATOM      2  H7  UNL     1      19.056  68.052  34.913  1.00  0.00     0.194 HD
HETATM    3  C3  UNL     1      17.614  67.744  33.384  1.00  0.00     0.342 C 
HETATM    4  O1  UNL     1      16.464  67.288  33.094  1.00  0.00    -0.245 OA
HETATM    5  N8  UNL     1      18.401  68.336  32.359  1.00  0.00    -0.292 N 
ATOM      6  H8  UNL     1      18.522  69.347  32.294  1.00  0.00     0.172 HD
ENDROOT
BRANCH   1   7
HETATM    7  N6  UNL     1      17.350  67.093  35.717  1.00  0.00     0.003 N 
HETATM    8  C2  UNL     1      17.752  66.260  36.691  1.00  0.00     0.750 A 
HETATM    9  N3  UNL     1      16.696  65.929  37.454  1.00  0.00    -0.112 N 
HETATM   10  N4  UNL     1      15.658  66.555  36.947  1.00  0.00    -0.212 N 
ATOM     11  H3  UNL     1      16.699  65.312  38.267  1.00  0.00     0.207 HD
HETATM   12  N5  UNL     1      16.051  67.257  35.901  1.00  0.00    -0.191 N 
ATOM     13  H4  UNL     1      14.704  66.508  37.304  1.00  0.00     0.210 HD
ATOM     14  H5  UNL     1      15.444  67.836  35.321  1.00  0.00     0.212 HD
BRANCH   8  15
HETATM   15  N2  UNL     1      18.976  65.871  36.827  1.00  0.00    -0.129 N 
ATOM     16  H2  UNL     1      19.261  64.931  36.552  1.00  0.00     0.205 HD
BRANCH  15  17
HETATM   17  N1  UNL     1      19.895  66.771  37.358  1.00  0.00    -0.308 N 
HETATM   18  C1  UNL     1      19.581  67.636  38.268  1.00  0.00     0.139 C 
ATOM     19  H1  UNL     1      20.856  66.748  37.015  1.00  0.00     0.185 HD
ENDBRANCH  15  17
ENDBRANCH   8  15
ENDBRANCH   1   7
BRANCH   5  20
HETATM   20  C4  UNL     1      18.954  67.532  31.515  1.00  0.00     0.123 A 
HETATM   21  C5  UNL     1      18.430  67.253  30.272  1.00  0.00     0.055 A 
HETATM   22  C6  UNL     1      19.058  66.379  29.389  1.00  0.00     0.079 A 
HETATM   23  C7  UNL     1      20.234  65.802  29.822  1.00  0.00     0.259 A 
HETATM   24  O2  UNL     1      20.822  64.998  29.024  1.00  0.00    -0.267 OA
HETATM   25  N9  UNL     1      20.731  66.087  31.038  1.00  0.00    -0.265 N 
HETATM   26  N10 UNL     1      20.106  66.919  31.840  1.00  0.00    -0.283 N 
ATOM     27  H9  UNL     1      21.603  65.653  31.342  1.00  0.00     0.190 HD
ATOM     28  H10 UNL     1      20.514  67.110  32.755  1.00  0.00     0.188 HD
ENDBRANCH   5  20
TORSDOF 4
ENDMDL
