MODEL 1
REMARK VINA RESULT: -4.629664114      0.000      0.000
REMARK  4 active torsions:
REMARK  status: ('A' for Active; 'I' for Inactive)
REMARK    1  A    between atoms: N1_2  and  C2_3 
REMARK    2  A    between atoms: C2_3  and  C3_4 
REMARK    3  A    between atoms: C4_5  and  C5_6 
REMARK    4  A    between atoms: C5_6  and  O1_7 
ROOT
HETATM    1  C2  UNL     1       7.099  49.135  55.834  1.00  0.00     0.330 C 
ENDROOT
BRANCH   1   2
HETATM    2  N1  UNL     1       7.931  48.141  56.468  1.00  0.00    -0.058 N 
HETATM    3  C1  UNL     1       8.688  48.635  57.597  1.00  0.00     0.273 C 
HETATM    4  C6  UNL     1       8.548  47.216  55.547  1.00  0.00     0.266 A 
HETATM    5  C7  UNL     1       7.505  46.768  56.518  1.00  0.00     0.266 A 
ENDBRANCH   1   2
BRANCH   1   6
HETATM    6  C3  UNL     1       7.691  49.412  54.510  1.00  0.00    -0.076 C 
HETATM    7  C4  UNL     1       8.188  49.634  53.427  1.00  0.00    -0.079 C 
BRANCH   7   8
HETATM    8  C5  UNL     1       8.808  49.900  52.134  1.00  0.00     0.257 C 
BRANCH   8   9
HETATM    9  O1  UNL     1       9.987  49.140  52.077  1.00  0.00    -0.389 OA
ATOM     10  H1  UNL     1       9.849  48.458  51.431  1.00  0.00     0.210 HD
ENDBRANCH   8   9
ENDBRANCH   7   8
ENDBRANCH   1   6
TORSDOF 4
ENDMDL
MODEL 2
REMARK VINA RESULT: -4.234714155      1.656      1.919
REMARK  4 active torsions:
REMARK  status: ('A' for Active; 'I' for Inactive)
REMARK    1  A    between atoms: N1_2  and  C2_3 
REMARK    2  A    between atoms: C2_3  and  C3_4 
REMARK    3  A    between atoms: C4_5  and  C5_6 
REMARK    4  A    between atoms: C5_6  and  O1_7 
ROOT
HETATM    1  C2  UNL     1       8.187  47.054  54.818  1.00  0.00     0.330 C 
ENDROOT
BRANCH   1   2
HETATM    2  N1  UNL     1       7.983  47.321  56.221  1.00  0.00    -0.058 N 
HETATM    3  C1  UNL     1       7.193  48.503  56.489  1.00  0.00     0.273 C 
HETATM    4  C6  UNL     1       9.129  47.028  57.049  1.00  0.00     0.266 A 
HETATM    5  C7  UNL     1       7.868  46.234  57.154  1.00  0.00     0.266 A 
ENDBRANCH   1   2
BRANCH   1   6
HETATM    6  C3  UNL     1       8.138  48.355  54.120  1.00  0.00    -0.076 C 
HETATM    7  C4  UNL     1       8.101  49.428  53.558  1.00  0.00    -0.079 C 
BRANCH   7   8
HETATM    8  C5  UNL     1       8.050  50.730  52.903  1.00  0.00     0.257 C 
BRANCH   8   9
HETATM    9  O1  UNL     1       7.469  51.628  53.813  1.00  0.00    -0.389 OA
ATOM     10  H1  UNL     1       8.177  52.126  54.205  1.00  0.00     0.210 HD
ENDBRANCH   8   9
ENDBRANCH   7   8
ENDBRANCH   1   6
TORSDOF 4
ENDMDL
MODEL 3
REMARK VINA RESULT: -4.198879278      1.030      1.274
REMARK  4 active torsions:
REMARK  status: ('A' for Active; 'I' for Inactive)
REMARK    1  A    between atoms: N1_2  and  C2_3 
REMARK    2  A    between atoms: C2_3  and  C3_4 
REMARK    3  A    between atoms: C4_5  and  C5_6 
REMARK    4  A    between atoms: C5_6  and  O1_7 
ROOT
HETATM    1  C2  UNL     1       7.506  47.121  54.793  1.00  0.00     0.330 C 
ENDROOT
BRANCH   1   2
HETATM    2  N1  UNL     1       7.749  47.499  56.164  1.00  0.00    -0.058 N 
HETATM    3  C1  UNL     1       7.117  48.740  56.556  1.00  0.00     0.273 C 
HETATM    4  C6  UNL     1       9.083  47.201  56.629  1.00  0.00     0.266 A 
HETATM    5  C7  UNL     1       7.890  46.490  57.178  1.00  0.00     0.266 A 
ENDBRANCH   1   2
BRANCH   1   6
HETATM    6  C3  UNL     1       7.881  48.277  53.954  1.00  0.00    -0.076 C 
HETATM    7  C4  UNL     1       8.183  49.220  53.256  1.00  0.00    -0.079 C 
BRANCH   7   8
HETATM    8  C5  UNL     1       8.548  50.340  52.396  1.00  0.00     0.257 C 
BRANCH   8   9
HETATM    9  O1  UNL     1       9.807  50.047  51.847  1.00  0.00    -0.389 OA
ATOM     10  H1  UNL     1      10.225  50.877  51.647  1.00  0.00     0.210 HD
ENDBRANCH   8   9
ENDBRANCH   7   8
ENDBRANCH   1   6
TORSDOF 4
ENDMDL
MODEL 4
REMARK VINA RESULT: -4.059718353      1.345      1.729
REMARK  4 active torsions:
REMARK  status: ('A' for Active; 'I' for Inactive)
REMARK    1  A    between atoms: N1_2  and  C2_3 
REMARK    2  A    between atoms: C2_3  and  C3_4 
REMARK    3  A    between atoms: C4_5  and  C5_6 
REMARK    4  A    between atoms: C5_6  and  O1_7 
ROOT
HETATM    1  C2  UNL     1       7.526  46.796  56.315  1.00  0.00     0.330 C 
ENDROOT
BRANCH   1   2
HETATM    2  N1  UNL     1       8.538  46.984  57.328  1.00  0.00    -0.058 N 
HETATM    3  C1  UNL     1       8.800  48.368  57.652  1.00  0.00     0.273 C 
HETATM    4  C6  UNL     1       9.637  46.052  57.240  1.00  0.00     0.266 A 
HETATM    5  C7  UNL     1       8.684  46.025  58.389  1.00  0.00     0.266 A 
ENDBRANCH   1   2
BRANCH   1   6
HETATM    6  C3  UNL     1       7.882  47.675  55.182  1.00  0.00    -0.076 C 
HETATM    7  C4  UNL     1       8.163  48.399  54.253  1.00  0.00    -0.079 C 
BRANCH   7   8
HETATM    8  C5  UNL     1       8.478  49.272  53.128  1.00  0.00     0.257 C 
BRANCH   8   9
HETATM    9  O1  UNL     1       9.714  48.853  52.612  1.00  0.00    -0.389 OA
ATOM     10  H1  UNL     1      10.381  49.412  52.995  1.00  0.00     0.210 HD
ENDBRANCH   8   9
ENDBRANCH   7   8
ENDBRANCH   1   6
TORSDOF 4
ENDMDL
MODEL 5
REMARK VINA RESULT: -4.007930030      2.312      2.615
REMARK  4 active torsions:
REMARK  status: ('A' for Active; 'I' for Inactive)
REMARK    1  A    between atoms: N1_2  and  C2_3 
REMARK    2  A    between atoms: C2_3  and  C3_4 
REMARK    3  A    between atoms: C4_5  and  C5_6 
REMARK    4  A    between atoms: C5_6  and  O1_7 
ROOT
HETATM    1  C2  UNL     1       7.115  48.307  56.612  1.00  0.00     0.330 C 
ENDROOT
BRANCH   1   2
HETATM    2  N1  UNL     1       8.102  47.307  56.281  1.00  0.00    -0.058 N 
HETATM    3  C1  UNL     1       8.405  47.221  54.870  1.00  0.00     0.273 C 
HETATM    4  C6  UNL     1       7.999  46.098  57.063  1.00  0.00     0.266 A 
HETATM    5  C7  UNL     1       9.170  47.015  57.198  1.00  0.00     0.266 A 
ENDBRANCH   1   2
BRANCH   1   6
HETATM    6  C3  UNL     1       7.416  49.498  55.792  1.00  0.00    -0.076 C 
HETATM    7  C4  UNL     1       7.658  50.482  55.129  1.00  0.00    -0.079 C 
BRANCH   7   8
HETATM    8  C5  UNL     1       7.930  51.678  54.340  1.00  0.00     0.257 C 
BRANCH   8   9
HETATM    9  O1  UNL     1       7.571  52.783  55.128  1.00  0.00    -0.389 OA
ATOM     10  H1  UNL     1       8.191  53.477  54.937  1.00  0.00     0.210 HD
ENDBRANCH   8   9
ENDBRANCH   7   8
ENDBRANCH   1   6
TORSDOF 4
ENDMDL
