MODEL 1
REMARK VINA RESULT: -6.609132109      0.000      0.000
REMARK  18 active torsions:
REMARK  status: ('A' for Active; 'I' for Inactive)
REMARK    1  A    between atoms: C2_2  and  C3_3 
REMARK    2  A    between atoms: C3_3  and  C4_4 
REMARK    3  A    between atoms: C4_4  and  C5_5 
REMARK    4  A    between atoms: C5_5  and  C6_6 
REMARK    5  A    between atoms: C6_6  and  C7_7 
REMARK    6  A    between atoms: C7_7  and  C8_8 
REMARK    7  A    between atoms: C8_8  and  C9_9 
REMARK    8  A    between atoms: C9_9  and  C10_10 
REMARK    9  A    between atoms: C10_10  and  C11_11 
REMARK   10  A    between atoms: C11_11  and  C12_12 
REMARK   11  A    between atoms: C12_12  and  O2_14 
REMARK   12  A    between atoms: O2_14  and  C13_15 
REMARK   13  A    between atoms: C13_15  and  C14_16 
REMARK   14  A    between atoms: C17_19  and  O3_20 
REMARK   15  A    between atoms: O3_20  and  C18_21 
REMARK   16  A    between atoms: C18_21  and  C19_23 
REMARK   17  A    between atoms: C19_23  and  C20_24 
REMARK   18  A    between atoms: C20_24  and  N1_25 
ROOT
HETATM    1  C14 UNL     1      27.906  12.648  26.776  1.00  0.00     0.031 C 
HETATM    2  C15 UNL     1      28.948  13.326  25.866  1.00  0.00     0.018 C 
HETATM    3  C16 UNL     1      30.150  13.600  26.695  1.00  0.00     0.034 C 
HETATM    4  C17 UNL     1      30.058  12.749  27.929  1.00  0.00     0.141 C 
HETATM    5  C25 UNL     1      28.780  11.963  27.799  1.00  0.00    -0.004 C 
HETATM    6  C26 UNL     1      29.207  10.603  27.210  1.00  0.00     0.019 C 
HETATM    7  C27 UNL     1      28.132  11.652  29.097  1.00  0.00     0.013 C 
HETATM    8  C28 UNL     1      27.383  12.793  29.738  1.00  0.00     0.010 C 
HETATM    9  C29 UNL     1      26.470  13.364  28.734  1.00  0.00     0.045 C 
HETATM   10  C30 UNL     1      25.785  14.633  29.067  1.00  0.00     0.023 C 
HETATM   11  C31 UNL     1      24.450  14.396  29.776  1.00  0.00     0.023 C 
HETATM   12  C32 UNL     1      26.594  15.648  29.780  1.00  0.00     0.023 C 
HETATM   13  C33 UNL     1      25.445  15.189  27.714  1.00  0.00     0.172 C 
HETATM   14  O6  UNL     1      24.973  16.248  27.410  1.00  0.00    -0.294 OA
HETATM   15  C34 UNL     1      25.821  14.122  26.693  1.00  0.00     0.281 C 
HETATM   16  F1  UNL     1      24.773  13.223  26.834  1.00  0.00    -0.238 F 
HETATM   17  C35 UNL     1      27.088  13.675  27.390  1.00  0.00     0.156 C 
HETATM   18  F2  UNL     1      27.856  14.855  27.473  1.00  0.00    -0.238 F 
ENDROOT
BRANCH   1  19
HETATM   19  C13 UNL     1      27.225  11.662  25.862  1.00  0.00     0.192 C 
BRANCH  19  20
HETATM   20  O2  UNL     1      27.401  12.035  24.513  1.00  0.00    -0.321 OA
BRANCH  20  21
HETATM   21  C12 UNL     1      26.474  11.750  23.519  1.00  0.00     0.258 C 
HETATM   22  O1  UNL     1      26.524  10.631  22.985  1.00  0.00    -0.265 OA
BRANCH  21  23
HETATM   23  C11 UNL     1      25.510  12.806  23.187  1.00  0.00     0.111 C 
BRANCH  23  24
HETATM   24  C10 UNL     1      26.178  14.146  22.949  1.00  0.00     0.010 C 
BRANCH  24  25
HETATM   25  C9  UNL     1      26.207  14.514  21.503  1.00  0.00     0.000 C 
BRANCH  25  26
HETATM   26  C8  UNL     1      27.574  14.653  20.916  1.00  0.00     0.000 C 
BRANCH  26  27
HETATM   27  C7  UNL     1      28.203  13.321  20.546  1.00  0.00     0.000 C 
BRANCH  27  28
HETATM   28  C6  UNL     1      29.411  13.152  21.424  1.00  0.00     0.000 C 
BRANCH  28  29
HETATM   29  C5  UNL     1      29.667  14.342  22.278  1.00  0.00     0.000 C 
BRANCH  29  30
HETATM   30  C4  UNL     1      30.952  14.243  23.031  1.00  0.00     0.000 C 
BRANCH  30  31
HETATM   31  C3  UNL     1      31.425  12.805  22.913  1.00  0.00    -0.000 C 
BRANCH  31  32
HETATM   32  C2  UNL     1      32.734  12.576  23.603  1.00  0.00    -0.005 C 
HETATM   33  C1  UNL     1      32.598  11.560  24.733  1.00  0.00     0.005 C 
ENDBRANCH  31  32
ENDBRANCH  30  31
ENDBRANCH  29  30
ENDBRANCH  28  29
ENDBRANCH  27  28
ENDBRANCH  26  27
ENDBRANCH  25  26
ENDBRANCH  24  25
ENDBRANCH  23  24
ENDBRANCH  21  23
ENDBRANCH  20  21
ENDBRANCH  19  20
ENDBRANCH   1  19
BRANCH   4  34
HETATM   34  O3  UNL     1      30.153  13.528  29.085  1.00  0.00    -0.315 OA
BRANCH  34  35
HETATM   35  C18 UNL     1      30.977  14.610  29.258  1.00  0.00     0.260 C 
HETATM   36  O4  UNL     1      32.195  14.431  29.373  1.00  0.00    -0.265 OA
BRANCH  35  37
HETATM   37  C19 UNL     1      30.360  15.962  29.300  1.00  0.00     0.141 C 
BRANCH  37  38
HETATM   38  C20 UNL     1      30.980  16.903  28.297  1.00  0.00     0.282 C 
BRANCH  38  39
HETATM   39  N1  UNL     1      29.904  17.341  27.413  1.00  0.00     0.093 N 
HETATM   40  C21 UNL     1      30.496  18.136  26.378  1.00  0.00     0.298 C 
HETATM   41  C22 UNL     1      30.096  19.579  26.591  1.00  0.00     0.198 C 
HETATM   42  O5  UNL     1      28.726  19.642  26.401  1.00  0.00    -0.388 OA
HETATM   43  C23 UNL     1      28.072  18.996  27.417  1.00  0.00     0.198 C 
HETATM   44  C24 UNL     1      28.888  18.004  28.170  1.00  0.00     0.298 C 
ENDBRANCH  38  39
ENDBRANCH  37  38
ENDBRANCH  35  37
ENDBRANCH  34  35
ENDBRANCH   4  34
TORSDOF 18
ENDMDL
MODEL 2
REMARK VINA RESULT: -6.592163879      1.574      2.094
REMARK  18 active torsions:
REMARK  status: ('A' for Active; 'I' for Inactive)
REMARK    1  A    between atoms: C2_2  and  C3_3 
REMARK    2  A    between atoms: C3_3  and  C4_4 
REMARK    3  A    between atoms: C4_4  and  C5_5 
REMARK    4  A    between atoms: C5_5  and  C6_6 
REMARK    5  A    between atoms: C6_6  and  C7_7 
REMARK    6  A    between atoms: C7_7  and  C8_8 
REMARK    7  A    between atoms: C8_8  and  C9_9 
REMARK    8  A    between atoms: C9_9  and  C10_10 
REMARK    9  A    between atoms: C10_10  and  C11_11 
REMARK   10  A    between atoms: C11_11  and  C12_12 
REMARK   11  A    between atoms: C12_12  and  O2_14 
REMARK   12  A    between atoms: O2_14  and  C13_15 
REMARK   13  A    between atoms: C13_15  and  C14_16 
REMARK   14  A    between atoms: C17_19  and  O3_20 
REMARK   15  A    between atoms: O3_20  and  C18_21 
REMARK   16  A    between atoms: C18_21  and  C19_23 
REMARK   17  A    between atoms: C19_23  and  C20_24 
REMARK   18  A    between atoms: C20_24  and  N1_25 
ROOT
HETATM    1  C14 UNL     1      27.770  12.459  26.718  1.00  0.00     0.031 C 
HETATM    2  C15 UNL     1      28.869  13.037  25.806  1.00  0.00     0.018 C 
HETATM    3  C16 UNL     1      30.093  13.194  26.632  1.00  0.00     0.034 C 
HETATM    4  C17 UNL     1      29.924  12.352  27.865  1.00  0.00     0.141 C 
HETATM    5  C25 UNL     1      28.577  11.692  27.737  1.00  0.00    -0.004 C 
HETATM    6  C26 UNL     1      28.871  10.299  27.145  1.00  0.00     0.019 C 
HETATM    7  C27 UNL     1      27.906  11.442  29.036  1.00  0.00     0.013 C 
HETATM    8  C28 UNL     1      27.270  12.648  29.681  1.00  0.00     0.010 C 
HETATM    9  C29 UNL     1      26.413  13.305  28.680  1.00  0.00     0.045 C 
HETATM   10  C30 UNL     1      25.853  14.633  29.017  1.00  0.00     0.023 C 
HETATM   11  C31 UNL     1      24.503  14.523  29.729  1.00  0.00     0.023 C 
HETATM   12  C32 UNL     1      26.756  15.565  29.730  1.00  0.00     0.023 C 
HETATM   13  C33 UNL     1      25.564  15.221  27.666  1.00  0.00     0.172 C 
HETATM   14  O6  UNL     1      25.194  16.320  27.365  1.00  0.00    -0.294 OA
HETATM   15  C34 UNL     1      25.834  14.125  26.642  1.00  0.00     0.281 C 
HETATM   16  F1  UNL     1      24.706  13.329  26.785  1.00  0.00    -0.238 F 
HETATM   17  C35 UNL     1      27.055  13.558  27.335  1.00  0.00     0.156 C 
HETATM   18  F2  UNL     1      27.931  14.660  27.418  1.00  0.00    -0.238 F 
ENDROOT
BRANCH   1  19
HETATM   19  C13 UNL     1      26.995  11.544  25.804  1.00  0.00     0.192 C 
BRANCH  19  20
HETATM   20  O2  UNL     1      27.326  11.797  24.456  1.00  0.00    -0.321 OA
BRANCH  20  21
HETATM   21  C12 UNL     1      26.432  11.612  23.408  1.00  0.00     0.258 C 
HETATM   22  O1  UNL     1      26.514  10.559  22.757  1.00  0.00    -0.265 OA
BRANCH  21  23
HETATM   23  C11 UNL     1      25.464  12.688  23.163  1.00  0.00     0.111 C 
BRANCH  23  24
HETATM   24  C10 UNL     1      26.133  14.031  22.946  1.00  0.00     0.010 C 
BRANCH  24  25
HETATM   25  C9  UNL     1      26.189  14.407  21.503  1.00  0.00     0.000 C 
BRANCH  25  26
HETATM   26  C8  UNL     1      27.567  14.607  20.959  1.00  0.00     0.000 C 
BRANCH  26  27
HETATM   27  C7  UNL     1      28.222  13.315  20.504  1.00  0.00     0.000 C 
BRANCH  27  28
HETATM   28  C6  UNL     1      29.371  13.058  21.437  1.00  0.00     0.000 C 
BRANCH  28  29
HETATM   29  C5  UNL     1      29.686  14.232  22.293  1.00  0.00     0.000 C 
BRANCH  29  30
HETATM   30  C4  UNL     1      30.974  14.078  23.029  1.00  0.00     0.000 C 
BRANCH  30  31
HETATM   31  C3  UNL     1      31.449  12.654  22.799  1.00  0.00    -0.000 C 
BRANCH  31  32
HETATM   32  C2  UNL     1      32.858  12.440  23.257  1.00  0.00    -0.005 C 
HETATM   33  C1  UNL     1      32.921  11.474  24.436  1.00  0.00     0.005 C 
ENDBRANCH  31  32
ENDBRANCH  30  31
ENDBRANCH  29  30
ENDBRANCH  28  29
ENDBRANCH  27  28
ENDBRANCH  26  27
ENDBRANCH  25  26
ENDBRANCH  24  25
ENDBRANCH  23  24
ENDBRANCH  21  23
ENDBRANCH  20  21
ENDBRANCH  19  20
ENDBRANCH   1  19
BRANCH   4  34
HETATM   34  O3  UNL     1      30.096  13.117  29.022  1.00  0.00    -0.315 OA
BRANCH  34  35
HETATM   35  C18 UNL     1      31.150  13.029  29.893  1.00  0.00     0.260 C 
HETATM   36  O4  UNL     1      31.055  12.300  30.887  1.00  0.00    -0.265 OA
BRANCH  35  37
HETATM   37  C19 UNL     1      32.371  13.825  29.599  1.00  0.00     0.141 C 
BRANCH  37  38
HETATM   38  C20 UNL     1      32.044  15.220  29.128  1.00  0.00     0.282 C 
BRANCH  38  39
HETATM   39  N1  UNL     1      33.066  15.583  28.150  1.00  0.00     0.093 N 
HETATM   40  C21 UNL     1      32.537  16.649  27.352  1.00  0.00     0.298 C 
HETATM   41  C22 UNL     1      32.253  16.119  25.966  1.00  0.00     0.198 C 
HETATM   42  O5  UNL     1      33.478  15.783  25.412  1.00  0.00    -0.388 OA
HETATM   43  C23 UNL     1      34.007  14.691  26.049  1.00  0.00     0.198 C 
HETATM   44  C24 UNL     1      33.468  14.426  27.411  1.00  0.00     0.298 C 
ENDBRANCH  38  39
ENDBRANCH  37  38
ENDBRANCH  35  37
ENDBRANCH  34  35
ENDBRANCH   4  34
TORSDOF 18
ENDMDL
MODEL 3
REMARK VINA RESULT: -6.548965563      2.864      5.742
REMARK  18 active torsions:
REMARK  status: ('A' for Active; 'I' for Inactive)
REMARK    1  A    between atoms: C2_2  and  C3_3 
REMARK    2  A    between atoms: C3_3  and  C4_4 
REMARK    3  A    between atoms: C4_4  and  C5_5 
REMARK    4  A    between atoms: C5_5  and  C6_6 
REMARK    5  A    between atoms: C6_6  and  C7_7 
REMARK    6  A    between atoms: C7_7  and  C8_8 
REMARK    7  A    between atoms: C8_8  and  C9_9 
REMARK    8  A    between atoms: C9_9  and  C10_10 
REMARK    9  A    between atoms: C10_10  and  C11_11 
REMARK   10  A    between atoms: C11_11  and  C12_12 
REMARK   11  A    between atoms: C12_12  and  O2_14 
REMARK   12  A    between atoms: O2_14  and  C13_15 
REMARK   13  A    between atoms: C13_15  and  C14_16 
REMARK   14  A    between atoms: C17_19  and  O3_20 
REMARK   15  A    between atoms: O3_20  and  C18_21 
REMARK   16  A    between atoms: C18_21  and  C19_23 
REMARK   17  A    between atoms: C19_23  and  C20_24 
REMARK   18  A    between atoms: C20_24  and  N1_25 
ROOT
HETATM    1  C14 UNL     1      28.563  13.256  27.077  1.00  0.00     0.031 C 
HETATM    2  C15 UNL     1      29.592  12.800  28.129  1.00  0.00     0.018 C 
HETATM    3  C16 UNL     1      28.832  12.321  29.313  1.00  0.00     0.034 C 
HETATM    4  C17 UNL     1      27.418  12.064  28.876  1.00  0.00     0.141 C 
HETATM    5  C25 UNL     1      27.370  12.393  27.407  1.00  0.00    -0.004 C 
HETATM    6  C26 UNL     1      27.561  11.041  26.690  1.00  0.00     0.019 C 
HETATM    7  C27 UNL     1      26.056  12.907  26.950  1.00  0.00     0.013 C 
HETATM    8  C28 UNL     1      25.766  14.346  27.298  1.00  0.00     0.010 C 
HETATM    9  C29 UNL     1      26.912  15.162  26.865  1.00  0.00     0.045 C 
HETATM   10  C30 UNL     1      26.950  16.579  27.294  1.00  0.00     0.023 C 
HETATM   11  C31 UNL     1      26.243  17.500  26.298  1.00  0.00     0.023 C 
HETATM   12  C32 UNL     1      26.512  16.857  28.681  1.00  0.00     0.023 C 
HETATM   13  C33 UNL     1      28.412  16.911  27.203  1.00  0.00     0.172 C 
HETATM   14  O6  UNL     1      29.001  17.900  27.533  1.00  0.00    -0.294 OA
HETATM   15  C34 UNL     1      29.099  15.704  26.575  1.00  0.00     0.281 C 
HETATM   16  F1  UNL     1      28.752  15.852  25.239  1.00  0.00    -0.238 F 
HETATM   17  C35 UNL     1      28.271  14.659  27.293  1.00  0.00     0.156 C 
HETATM   18  F2  UNL     1      28.485  14.946  28.657  1.00  0.00    -0.238 F 
ENDROOT
BRANCH   1  19
HETATM   19  C13 UNL     1      29.199  12.867  25.767  1.00  0.00     0.192 C 
BRANCH  19  20
HETATM   20  O2  UNL     1      30.534  12.455  25.969  1.00  0.00    -0.321 OA
BRANCH  20  21
HETATM   21  C12 UNL     1      31.494  12.475  24.965  1.00  0.00     0.258 C 
HETATM   22  O1  UNL     1      32.188  11.459  24.808  1.00  0.00    -0.265 OA
BRANCH  21  23
HETATM   23  C11 UNL     1      31.602  13.707  24.173  1.00  0.00     0.111 C 
BRANCH  23  24
HETATM   24  C10 UNL     1      31.368  13.468  22.695  1.00  0.00     0.010 C 
BRANCH  24  25
HETATM   25  C9  UNL     1      29.978  13.816  22.279  1.00  0.00     0.000 C 
BRANCH  25  26
HETATM   26  C8  UNL     1      29.260  12.744  21.525  1.00  0.00     0.000 C 
BRANCH  26  27
HETATM   27  C7  UNL     1      28.385  13.284  20.407  1.00  0.00     0.000 C 
BRANCH  27  28
HETATM   28  C6  UNL     1      28.046  14.703  20.767  1.00  0.00     0.000 C 
BRANCH  28  29
HETATM   29  C5  UNL     1      26.650  14.850  21.256  1.00  0.00     0.000 C 
BRANCH  29  30
HETATM   30  C4  UNL     1      26.583  15.332  22.666  1.00  0.00     0.000 C 
BRANCH  30  31
HETATM   31  C3  UNL     1      26.556  14.101  23.555  1.00  0.00    -0.000 C 
BRANCH  31  32
HETATM   32  C2  UNL     1      25.589  13.066  23.068  1.00  0.00    -0.005 C 
HETATM   33  C1  UNL     1      26.051  11.657  23.427  1.00  0.00     0.005 C 
ENDBRANCH  31  32
ENDBRANCH  30  31
ENDBRANCH  29  30
ENDBRANCH  28  29
ENDBRANCH  27  28
ENDBRANCH  26  27
ENDBRANCH  25  26
ENDBRANCH  24  25
ENDBRANCH  23  24
ENDBRANCH  21  23
ENDBRANCH  20  21
ENDBRANCH  19  20
ENDBRANCH   1  19
BRANCH   4  34
HETATM   34  O3  UNL     1      26.511  12.774  29.666  1.00  0.00    -0.315 OA
BRANCH  34  35
HETATM   35  C18 UNL     1      25.678  12.235  30.613  1.00  0.00     0.260 C 
HETATM   36  O4  UNL     1      26.095  11.324  31.338  1.00  0.00    -0.265 OA
BRANCH  35  37
HETATM   37  C19 UNL     1      24.299  12.778  30.724  1.00  0.00     0.141 C 
BRANCH  37  38
HETATM   38  C20 UNL     1      23.312  11.738  31.194  1.00  0.00     0.282 C 
BRANCH  38  39
HETATM   39  N1  UNL     1      22.175  12.462  31.755  1.00  0.00     0.093 N 
HETATM   40  C21 UNL     1      20.987  11.765  31.363  1.00  0.00     0.298 C 
HETATM   41  C22 UNL     1      20.250  12.603  30.342  1.00  0.00     0.198 C 
HETATM   42  O5  UNL     1      19.835  13.750  30.998  1.00  0.00    -0.388 OA
HETATM   43  C23 UNL     1      20.912  14.537  31.313  1.00  0.00     0.198 C 
HETATM   44  C24 UNL     1      22.223  13.834  31.353  1.00  0.00     0.298 C 
ENDBRANCH  38  39
ENDBRANCH  37  38
ENDBRANCH  35  37
ENDBRANCH  34  35
ENDBRANCH   4  34
TORSDOF 18
ENDMDL
MODEL 4
REMARK VINA RESULT: -6.360958512      2.339      5.018
REMARK  18 active torsions:
REMARK  status: ('A' for Active; 'I' for Inactive)
REMARK    1  A    between atoms: C2_2  and  C3_3 
REMARK    2  A    between atoms: C3_3  and  C4_4 
REMARK    3  A    between atoms: C4_4  and  C5_5 
REMARK    4  A    between atoms: C5_5  and  C6_6 
REMARK    5  A    between atoms: C6_6  and  C7_7 
REMARK    6  A    between atoms: C7_7  and  C8_8 
REMARK    7  A    between atoms: C8_8  and  C9_9 
REMARK    8  A    between atoms: C9_9  and  C10_10 
REMARK    9  A    between atoms: C10_10  and  C11_11 
REMARK   10  A    between atoms: C11_11  and  C12_12 
REMARK   11  A    between atoms: C12_12  and  O2_14 
REMARK   12  A    between atoms: O2_14  and  C13_15 
REMARK   13  A    between atoms: C13_15  and  C14_16 
REMARK   14  A    between atoms: C17_19  and  O3_20 
REMARK   15  A    between atoms: O3_20  and  C18_21 
REMARK   16  A    between atoms: C18_21  and  C19_23 
REMARK   17  A    between atoms: C19_23  and  C20_24 
REMARK   18  A    between atoms: C20_24  and  N1_25 
ROOT
HETATM    1  C14 UNL     1      30.554  14.793  24.895  1.00  0.00     0.031 C 
HETATM    2  C15 UNL     1      29.033  15.012  24.782  1.00  0.00     0.018 C 
HETATM    3  C16 UNL     1      28.654  16.026  25.800  1.00  0.00     0.034 C 
HETATM    4  C17 UNL     1      29.907  16.738  26.225  1.00  0.00     0.141 C 
HETATM    5  C25 UNL     1      31.026  16.125  25.424  1.00  0.00    -0.004 C 
HETATM    6  C26 UNL     1      31.213  17.066  24.217  1.00  0.00     0.019 C 
HETATM    7  C27 UNL     1      32.331  16.113  26.130  1.00  0.00     0.013 C 
HETATM    8  C28 UNL     1      32.487  15.050  27.189  1.00  0.00     0.010 C 
HETATM    9  C29 UNL     1      32.113  13.755  26.597  1.00  0.00     0.045 C 
HETATM   10  C30 UNL     1      31.980  12.595  27.507  1.00  0.00     0.023 C 
HETATM   11  C31 UNL     1      33.303  11.847  27.681  1.00  0.00     0.023 C 
HETATM   12  C32 UNL     1      31.341  12.857  28.817  1.00  0.00     0.023 C 
HETATM   13  C33 UNL     1      31.079  11.673  26.736  1.00  0.00     0.172 C 
HETATM   14  O6  UNL     1      30.575  10.636  27.060  1.00  0.00    -0.294 OA
HETATM   15  C34 UNL     1      30.880  12.302  25.362  1.00  0.00     0.281 C 
HETATM   16  F1  UNL     1      32.086  12.004  24.743  1.00  0.00    -0.238 F 
HETATM   17  C35 UNL     1      30.798  13.732  25.852  1.00  0.00     0.156 C 
HETATM   18  F2  UNL     1      29.725  13.710  26.766  1.00  0.00    -0.238 F 
ENDROOT
BRANCH   1  19
HETATM   19  C13 UNL     1      30.986  14.564  23.469  1.00  0.00     0.192 C 
BRANCH  19  20
HETATM   20  O2  UNL     1      29.862  14.414  22.630  1.00  0.00    -0.321 OA
BRANCH  20  21
HETATM   21  C12 UNL     1      29.669  13.309  21.811  1.00  0.00     0.258 C 
HETATM   22  O1  UNL     1      30.490  12.381  21.888  1.00  0.00    -0.265 OA
BRANCH  21  23
HETATM   23  C11 UNL     1      28.501  13.337  20.921  1.00  0.00     0.111 C 
BRANCH  23  24
HETATM   24  C10 UNL     1      27.964  14.739  20.716  1.00  0.00     0.010 C 
BRANCH  24  25
HETATM   25  C9  UNL     1      26.683  14.966  21.448  1.00  0.00     0.000 C 
BRANCH  25  26
HETATM   26  C8  UNL     1      25.979  13.722  21.884  1.00  0.00     0.000 C 
BRANCH  26  27
HETATM   27  C7  UNL     1      25.829  13.619  23.391  1.00  0.00     0.000 C 
BRANCH  27  28
HETATM   28  C6  UNL     1      25.029  12.376  23.664  1.00  0.00     0.000 C 
BRANCH  28  29
HETATM   29  C5  UNL     1      25.762  11.402  24.515  1.00  0.00     0.000 C 
BRANCH  29  30
HETATM   30  C4  UNL     1      26.968  11.996  25.162  1.00  0.00     0.000 C 
BRANCH  30  31
HETATM   31  C3  UNL     1      27.224  11.208  26.434  1.00  0.00    -0.000 C 
BRANCH  31  32
HETATM   32  C2  UNL     1      27.298  12.085  27.644  1.00  0.00    -0.005 C 
HETATM   33  C1  UNL     1      26.506  13.375  27.449  1.00  0.00     0.005 C 
ENDBRANCH  31  32
ENDBRANCH  30  31
ENDBRANCH  29  30
ENDBRANCH  28  29
ENDBRANCH  27  28
ENDBRANCH  26  27
ENDBRANCH  25  26
ENDBRANCH  24  25
ENDBRANCH  23  24
ENDBRANCH  21  23
ENDBRANCH  20  21
ENDBRANCH  19  20
ENDBRANCH   1  19
BRANCH   4  34
HETATM   34  O3  UNL     1      30.074  16.676  27.611  1.00  0.00    -0.315 OA
BRANCH  34  35
HETATM   35  C18 UNL     1      30.073  17.746  28.468  1.00  0.00     0.260 C 
HETATM   36  O4  UNL     1      31.088  17.993  29.129  1.00  0.00    -0.265 OA
BRANCH  35  37
HETATM   37  C19 UNL     1      28.838  18.568  28.562  1.00  0.00     0.141 C 
BRANCH  37  38
HETATM   38  C20 UNL     1      27.657  17.769  29.057  1.00  0.00     0.282 C 
BRANCH  38  39
HETATM   39  N1  UNL     1      26.458  18.484  28.629  1.00  0.00     0.093 N 
HETATM   40  C21 UNL     1      25.721  17.608  27.767  1.00  0.00     0.298 C 
HETATM   41  C22 UNL     1      25.812  18.134  26.352  1.00  0.00     0.198 C 
HETATM   42  O5  UNL     1      25.148  19.350  26.340  1.00  0.00    -0.388 OA
HETATM   43  C23 UNL     1      25.849  20.285  27.055  1.00  0.00     0.198 C 
HETATM   44  C24 UNL     1      26.820  19.736  28.041  1.00  0.00     0.298 C 
ENDBRANCH  38  39
ENDBRANCH  37  38
ENDBRANCH  35  37
ENDBRANCH  34  35
ENDBRANCH   4  34
TORSDOF 18
ENDMDL
MODEL 5
REMARK VINA RESULT: -6.321943589      2.208      4.264
REMARK  18 active torsions:
REMARK  status: ('A' for Active; 'I' for Inactive)
REMARK    1  A    between atoms: C2_2  and  C3_3 
REMARK    2  A    between atoms: C3_3  and  C4_4 
REMARK    3  A    between atoms: C4_4  and  C5_5 
REMARK    4  A    between atoms: C5_5  and  C6_6 
REMARK    5  A    between atoms: C6_6  and  C7_7 
REMARK    6  A    between atoms: C7_7  and  C8_8 
REMARK    7  A    between atoms: C8_8  and  C9_9 
REMARK    8  A    between atoms: C9_9  and  C10_10 
REMARK    9  A    between atoms: C10_10  and  C11_11 
REMARK   10  A    between atoms: C11_11  and  C12_12 
REMARK   11  A    between atoms: C12_12  and  O2_14 
REMARK   12  A    between atoms: O2_14  and  C13_15 
REMARK   13  A    between atoms: C13_15  and  C14_16 
REMARK   14  A    between atoms: C17_19  and  O3_20 
REMARK   15  A    between atoms: O3_20  and  C18_21 
REMARK   16  A    between atoms: C18_21  and  C19_23 
REMARK   17  A    between atoms: C19_23  and  C20_24 
REMARK   18  A    between atoms: C20_24  and  N1_25 
ROOT
HETATM    1  C14 UNL     1      30.682  14.512  25.651  1.00  0.00     0.031 C 
HETATM    2  C15 UNL     1      30.221  15.334  24.433  1.00  0.00     0.018 C 
HETATM    3  C16 UNL     1      30.712  16.724  24.624  1.00  0.00     0.034 C 
HETATM    4  C17 UNL     1      31.796  16.687  25.663  1.00  0.00     0.141 C 
HETATM    5  C25 UNL     1      31.935  15.243  26.069  1.00  0.00    -0.004 C 
HETATM    6  C26 UNL     1      33.098  14.700  25.214  1.00  0.00     0.019 C 
HETATM    7  C27 UNL     1      32.352  15.054  27.480  1.00  0.00     0.013 C 
HETATM    8  C28 UNL     1      31.268  15.255  28.510  1.00  0.00     0.010 C 
HETATM    9  C29 UNL     1      30.105  14.444  28.115  1.00  0.00     0.045 C 
HETATM   10  C30 UNL     1      28.840  14.646  28.857  1.00  0.00     0.023 C 
HETATM   11  C31 UNL     1      28.741  13.733  30.081  1.00  0.00     0.023 C 
HETATM   12  C32 UNL     1      28.500  16.044  29.206  1.00  0.00     0.023 C 
HETATM   13  C33 UNL     1      27.806  14.153  27.885  1.00  0.00     0.172 C 
HETATM   14  O6  UNL     1      26.610  14.185  27.948  1.00  0.00    -0.294 OA
HETATM   15  C34 UNL     1      28.562  13.553  26.706  1.00  0.00     0.281 C 
HETATM   16  F1  UNL     1      28.974  12.336  27.230  1.00  0.00    -0.238 F 
HETATM   17  C35 UNL     1      29.662  14.593  26.677  1.00  0.00     0.156 C 
HETATM   18  F2  UNL     1      28.967  15.808  26.509  1.00  0.00    -0.238 F 
ENDROOT
BRANCH   1  19
HETATM   19  C13 UNL     1      30.986  13.155  25.069  1.00  0.00     0.192 C 
BRANCH  19  20
HETATM   20  O2  UNL     1      30.216  12.933  23.908  1.00  0.00    -0.321 OA
BRANCH  20  21
HETATM   21  C12 UNL     1      30.772  12.818  22.640  1.00  0.00     0.258 C 
HETATM   22  O1  UNL     1      31.932  12.385  22.553  1.00  0.00    -0.265 OA
BRANCH  21  23
HETATM   23  C11 UNL     1      29.930  13.223  21.507  1.00  0.00     0.111 C 
BRANCH  23  24
HETATM   24  C10 UNL     1      28.702  12.347  21.357  1.00  0.00     0.010 C 
BRANCH  24  25
HETATM   25  C9  UNL     1      27.613  13.027  20.596  1.00  0.00     0.000 C 
BRANCH  25  26
HETATM   26  C8  UNL     1      27.561  14.510  20.763  1.00  0.00     0.000 C 
BRANCH  26  27
HETATM   27  C7  UNL     1      26.337  14.983  21.527  1.00  0.00     0.000 C 
BRANCH  27  28
HETATM   28  C6  UNL     1      26.800  15.343  22.911  1.00  0.00     0.000 C 
BRANCH  28  29
HETATM   29  C5  UNL     1      26.683  14.209  23.865  1.00  0.00     0.000 C 
BRANCH  29  30
HETATM   30  C4  UNL     1      25.553  13.292  23.533  1.00  0.00     0.000 C 
BRANCH  30  31
HETATM   31  C3  UNL     1      25.244  12.496  24.788  1.00  0.00    -0.000 C 
BRANCH  31  32
HETATM   32  C2  UNL     1      25.934  11.168  24.808  1.00  0.00    -0.005 C 
HETATM   33  C1  UNL     1      26.134  10.622  23.397  1.00  0.00     0.005 C 
ENDBRANCH  31  32
ENDBRANCH  30  31
ENDBRANCH  29  30
ENDBRANCH  28  29
ENDBRANCH  27  28
ENDBRANCH  26  27
ENDBRANCH  25  26
ENDBRANCH  24  25
ENDBRANCH  23  24
ENDBRANCH  21  23
ENDBRANCH  20  21
ENDBRANCH  19  20
ENDBRANCH   1  19
BRANCH   4  34
HETATM   34  O3  UNL     1      31.516  17.567  26.711  1.00  0.00    -0.315 OA
BRANCH  34  35
HETATM   35  C18 UNL     1      30.990  18.827  26.583  1.00  0.00     0.260 C 
HETATM   36  O4  UNL     1      31.677  19.721  26.077  1.00  0.00    -0.265 OA
BRANCH  35  37
HETATM   37  C19 UNL     1      29.604  19.060  27.066  1.00  0.00     0.141 C 
BRANCH  37  38
HETATM   38  C20 UNL     1      28.980  20.283  26.440  1.00  0.00     0.282 C 
BRANCH  38  39
HETATM   39  N1  UNL     1      27.683  20.468  27.085  1.00  0.00     0.093 N 
HETATM   40  C21 UNL     1      27.204  19.173  27.465  1.00  0.00     0.298 C 
HETATM   41  C22 UNL     1      26.037  18.810  26.575  1.00  0.00     0.198 C 
HETATM   42  O5  UNL     1      25.022  19.707  26.869  1.00  0.00    -0.388 OA
HETATM   43  C23 UNL     1      25.354  20.963  26.433  1.00  0.00     0.198 C 
HETATM   44  C24 UNL     1      26.809  21.200  26.222  1.00  0.00     0.298 C 
ENDBRANCH  38  39
ENDBRANCH  37  38
ENDBRANCH  35  37
ENDBRANCH  34  35
ENDBRANCH   4  34
TORSDOF 18
ENDMDL
