MODEL 1
REMARK VINA RESULT: -6.468385997      0.000      0.000
REMARK  13 active torsions:
REMARK  status: ('A' for Active; 'I' for Inactive)
REMARK    1  A    between atoms: C2_2  and  C3_3 
REMARK    2  A    between atoms: C3_3  and  N1_5 
REMARK    3  A    between atoms: C3_3  and  C5_9 
REMARK    4  A    between atoms: C5_9  and  N2_10 
REMARK    5  A    between atoms: N2_10  and  C6_12 
REMARK    6  A    between atoms: C7_15  and  N4_16 
REMARK    7  A    between atoms: N4_16  and  C8_18 
REMARK    8  A    between atoms: C8_18  and  C9_19 
REMARK    9  A    between atoms: C10_23  and  N6_24 
REMARK   10  A    between atoms: N6_24  and  C11_26 
REMARK   11  A    between atoms: C11_26  and  C12_27 
REMARK   12  A    between atoms: C12_27  and  C13_28 
REMARK   13  A    between atoms: C13_28  and  N7_29 
ROOT
HETATM    1  C6  UNL     1      29.461  59.172  48.842  1.00  0.00     0.707 A 
HETATM    2  N3  UNL     1      29.020  60.014  49.784  1.00  0.00    -0.022 N 
ATOM      3  H3  UNL     1      29.560  60.846  50.021  1.00  0.00     0.203 HD
HETATM    4  C7  UNL     1      27.862  59.759  50.417  1.00  0.00     0.707 A 
HETATM    5  N5  UNL     1      27.125  58.671  50.129  1.00  0.00    -0.022 N 
ATOM      6  H5  UNL     1      26.249  58.494  50.621  1.00  0.00     0.203 HD
HETATM    7  C10 UNL     1      27.562  57.820  49.185  1.00  0.00     0.707 A 
HETATM    8  N8  UNL     1      28.729  58.091  48.557  1.00  0.00    -0.022 N 
ATOM      9  H8  UNL     1      29.062  57.447  47.839  1.00  0.00     0.203 HD
ENDROOT
BRANCH   1  10
HETATM   10  N2  UNL     1      30.547  59.397  48.238  1.00  0.00    -0.223 N 
ATOM     11  H2  UNL     1      30.834  60.372  48.157  1.00  0.00     0.177 HD
BRANCH  10  12
HETATM   12  C5  UNL     1      31.414  58.421  47.656  1.00  0.00     0.176 C 
BRANCH  12  13
HETATM   13  C3  UNL     1      31.801  58.828  46.252  1.00  0.00     0.136 C 
HETATM   14  C4  UNL     1      31.287  57.797  45.298  1.00  0.00     0.048 C 
BRANCH  13  15
HETATM   15  C2  UNL     1      33.304  58.956  46.156  1.00  0.00     0.035 C 
HETATM   16  C1  UNL     1      33.758  60.382  46.149  1.00  0.00     0.007 C 
ENDBRANCH  13  15
BRANCH  13  17
HETATM   17  N1  UNL     1      31.244  60.150  46.023  1.00  0.00    -0.069 N 
ATOM     18  H13 UNL     1      31.952  60.883  45.995  1.00  0.00     0.275 HD
ATOM     19  H12 UNL     1      30.889  60.276  45.075  1.00  0.00     0.275 HD
ATOM     20  H11 UNL     1      30.536  60.305  46.739  1.00  0.00     0.275 HD
ENDBRANCH  13  17
ENDBRANCH  12  13
ENDBRANCH  10  12
ENDBRANCH   1  10
BRANCH   4  21
HETATM   21  N4  UNL     1      27.392  60.546  51.338  1.00  0.00    -0.219 N 
ATOM     22  H4  UNL     1      26.673  61.222  51.080  1.00  0.00     0.178 HD
BRANCH  21  23
HETATM   23  C8  UNL     1      27.840  60.510  52.704  1.00  0.00     0.207 C 
BRANCH  23  24
HETATM   24  C9  UNL     1      27.006  59.500  53.442  1.00  0.00     0.251 C 
HETATM   25  O1  UNL     1      27.028  58.313  53.175  1.00  0.00    -0.305 OA
ENDBRANCH  23  24
ENDBRANCH  21  23
ENDBRANCH   4  21
BRANCH   7  26
HETATM   26  N6  UNL     1      26.900  56.752  48.858  1.00  0.00    -0.225 N 
ATOM     27  H6  UNL     1      27.363  55.852  48.985  1.00  0.00     0.177 HD
BRANCH  26  28
HETATM   28  C11 UNL     1      25.564  56.743  48.332  1.00  0.00     0.139 C 
BRANCH  28  29
HETATM   29  C12 UNL     1      25.219  55.322  47.915  1.00  0.00     0.047 C 
BRANCH  29  30
HETATM   30  C13 UNL     1      25.951  54.300  48.730  1.00  0.00     0.231 C 
BRANCH  30  31
HETATM   31  N7  UNL     1      25.249  53.032  48.756  1.00  0.00    -0.079 N 
ATOM     32  H73 UNL     1      24.462  53.029  48.107  1.00  0.00     0.274 HD
ATOM     33  H72 UNL     1      25.807  52.290  48.335  1.00  0.00     0.274 HD
ATOM     34  H71 UNL     1      24.952  52.785  49.701  1.00  0.00     0.274 HD
ENDBRANCH  30  31
ENDBRANCH  29  30
ENDBRANCH  28  29
ENDBRANCH  26  28
ENDBRANCH   7  26
TORSDOF 13
ENDMDL
MODEL 2
REMARK VINA RESULT: -6.436716895      1.594      1.813
REMARK  13 active torsions:
REMARK  status: ('A' for Active; 'I' for Inactive)
REMARK    1  A    between atoms: C2_2  and  C3_3 
REMARK    2  A    between atoms: C3_3  and  N1_5 
REMARK    3  A    between atoms: C3_3  and  C5_9 
REMARK    4  A    between atoms: C5_9  and  N2_10 
REMARK    5  A    between atoms: N2_10  and  C6_12 
REMARK    6  A    between atoms: C7_15  and  N4_16 
REMARK    7  A    between atoms: N4_16  and  C8_18 
REMARK    8  A    between atoms: C8_18  and  C9_19 
REMARK    9  A    between atoms: C10_23  and  N6_24 
REMARK   10  A    between atoms: N6_24  and  C11_26 
REMARK   11  A    between atoms: C11_26  and  C12_27 
REMARK   12  A    between atoms: C12_27  and  C13_28 
REMARK   13  A    between atoms: C13_28  and  N7_29 
ROOT
HETATM    1  C6  UNL     1      28.409  58.795  49.389  1.00  0.00     0.707 A 
HETATM    2  N3  UNL     1      27.878  59.443  50.432  1.00  0.00    -0.022 N 
ATOM      3  H3  UNL     1      28.400  60.189  50.891  1.00  0.00     0.203 HD
HETATM    4  C7  UNL     1      26.653  59.108  50.873  1.00  0.00     0.707 A 
HETATM    5  N5  UNL     1      25.938  58.129  50.292  1.00  0.00    -0.022 N 
ATOM      6  H5  UNL     1      25.010  57.889  50.640  1.00  0.00     0.203 HD
HETATM    7  C10 UNL     1      26.464  57.472  49.244  1.00  0.00     0.707 A 
HETATM    8  N8  UNL     1      27.698  57.822  48.812  1.00  0.00    -0.022 N 
ATOM      9  H8  UNL     1      28.099  57.326  48.016  1.00  0.00     0.203 HD
ENDROOT
BRANCH   1  10
HETATM   10  N2  UNL     1      29.558  59.097  48.963  1.00  0.00    -0.223 N 
ATOM     11  H2  UNL     1      29.688  60.053  48.631  1.00  0.00     0.177 HD
BRANCH  10  12
HETATM   12  C5  UNL     1      30.696  58.235  48.899  1.00  0.00     0.176 C 
BRANCH  12  13
HETATM   13  C3  UNL     1      31.624  58.666  47.786  1.00  0.00     0.136 C 
HETATM   14  C4  UNL     1      30.799  59.090  46.613  1.00  0.00     0.048 C 
BRANCH  13  15
HETATM   15  C2  UNL     1      32.543  57.524  47.419  1.00  0.00     0.035 C 
HETATM   16  C1  UNL     1      32.165  56.880  46.121  1.00  0.00     0.007 C 
ENDBRANCH  13  15
BRANCH  13  17
HETATM   17  N1  UNL     1      32.458  59.731  48.315  1.00  0.00    -0.069 N 
ATOM     18  H13 UNL     1      32.452  59.775  49.334  1.00  0.00     0.275 HD
ATOM     19  H12 UNL     1      33.456  59.555  48.197  1.00  0.00     0.275 HD
ATOM     20  H11 UNL     1      32.151  60.599  47.876  1.00  0.00     0.275 HD
ENDBRANCH  13  17
ENDBRANCH  12  13
ENDBRANCH  10  12
ENDBRANCH   1  10
BRANCH   4  21
HETATM   21  N4  UNL     1      26.096  59.709  51.882  1.00  0.00    -0.219 N 
ATOM     22  H4  UNL     1      25.275  60.290  51.709  1.00  0.00     0.178 HD
BRANCH  21  23
HETATM   23  C8  UNL     1      26.582  59.593  53.230  1.00  0.00     0.207 C 
BRANCH  23  24
HETATM   24  C9  UNL     1      25.423  59.808  54.164  1.00  0.00     0.251 C 
HETATM   25  O1  UNL     1      25.390  59.339  55.285  1.00  0.00    -0.305 OA
ENDBRANCH  23  24
ENDBRANCH  21  23
ENDBRANCH   4  21
BRANCH   7  26
HETATM   26  N6  UNL     1      25.827  56.518  48.636  1.00  0.00    -0.225 N 
ATOM     27  H6  UNL     1      25.129  56.784  47.942  1.00  0.00     0.177 HD
BRANCH  26  28
HETATM   28  C11 UNL     1      26.033  55.116  48.868  1.00  0.00     0.139 C 
BRANCH  28  29
HETATM   29  C12 UNL     1      25.204  54.333  47.862  1.00  0.00     0.047 C 
BRANCH  29  30
HETATM   30  C13 UNL     1      25.505  52.866  47.899  1.00  0.00     0.231 C 
BRANCH  30  31
HETATM   31  N7  UNL     1      26.416  52.533  48.976  1.00  0.00    -0.079 N 
ATOM     32  H73 UNL     1      27.288  52.141  48.618  1.00  0.00     0.274 HD
ATOM     33  H72 UNL     1      26.789  53.372  49.420  1.00  0.00     0.274 HD
ATOM     34  H71 UNL     1      25.982  51.911  49.659  1.00  0.00     0.274 HD
ENDBRANCH  30  31
ENDBRANCH  29  30
ENDBRANCH  28  29
ENDBRANCH  26  28
ENDBRANCH   7  26
TORSDOF 13
ENDMDL
MODEL 3
REMARK VINA RESULT: -6.399616061      2.265      6.514
REMARK  13 active torsions:
REMARK  status: ('A' for Active; 'I' for Inactive)
REMARK    1  A    between atoms: C2_2  and  C3_3 
REMARK    2  A    between atoms: C3_3  and  N1_5 
REMARK    3  A    between atoms: C3_3  and  C5_9 
REMARK    4  A    between atoms: C5_9  and  N2_10 
REMARK    5  A    between atoms: N2_10  and  C6_12 
REMARK    6  A    between atoms: C7_15  and  N4_16 
REMARK    7  A    between atoms: N4_16  and  C8_18 
REMARK    8  A    between atoms: C8_18  and  C9_19 
REMARK    9  A    between atoms: C10_23  and  N6_24 
REMARK   10  A    between atoms: N6_24  and  C11_26 
REMARK   11  A    between atoms: C11_26  and  C12_27 
REMARK   12  A    between atoms: C12_27  and  C13_28 
REMARK   13  A    between atoms: C13_28  and  N7_29 
ROOT
HETATM    1  C6  UNL     1      26.969  59.331  51.294  1.00  0.00     0.707 A 
HETATM    2  N3  UNL     1      28.120  59.798  50.795  1.00  0.00    -0.022 N 
ATOM      3  H3  UNL     1      28.639  60.519  51.295  1.00  0.00     0.203 HD
HETATM    4  C7  UNL     1      28.588  59.311  49.633  1.00  0.00     0.707 A 
HETATM    5  N5  UNL     1      27.929  58.361  48.949  1.00  0.00    -0.022 N 
ATOM      6  H5  UNL     1      28.301  58.004  48.069  1.00  0.00     0.203 HD
HETATM    7  C10 UNL     1      26.772  57.887  49.443  1.00  0.00     0.707 A 
HETATM    8  N8  UNL     1      26.313  58.387  50.613  1.00  0.00    -0.022 N 
ATOM      9  H8  UNL     1      25.436  58.029  50.991  1.00  0.00     0.203 HD
ENDROOT
BRANCH   1  10
HETATM   10  N2  UNL     1      26.514  59.777  52.384  1.00  0.00    -0.223 N 
ATOM     11  H2  UNL     1      25.678  60.359  52.329  1.00  0.00     0.177 HD
BRANCH  10  12
HETATM   12  C5  UNL     1      27.052  59.547  53.688  1.00  0.00     0.176 C 
BRANCH  12  13
HETATM   13  C3  UNL     1      26.222  60.255  54.735  1.00  0.00     0.136 C 
HETATM   14  C4  UNL     1      26.776  61.629  54.935  1.00  0.00     0.048 C 
BRANCH  13  15
HETATM   15  C2  UNL     1      26.249  59.466  56.024  1.00  0.00     0.035 C 
HETATM   16  C1  UNL     1      25.273  59.984  57.033  1.00  0.00     0.007 C 
ENDBRANCH  13  15
BRANCH  13  17
HETATM   17  N1  UNL     1      24.848  60.253  54.262  1.00  0.00    -0.069 N 
ATOM     18  H13 UNL     1      24.652  59.498  53.606  1.00  0.00     0.275 HD
ATOM     19  H12 UNL     1      24.178  59.979  54.981  1.00  0.00     0.275 HD
ATOM     20  H11 UNL     1      24.663  61.177  53.874  1.00  0.00     0.275 HD
ENDBRANCH  13  17
ENDBRANCH  12  13
ENDBRANCH  10  12
ENDBRANCH   1  10
BRANCH   4  21
HETATM   21  N4  UNL     1      29.701  59.732  49.110  1.00  0.00    -0.219 N 
ATOM     22  H4  UNL     1      29.671  60.542  48.489  1.00  0.00     0.178 HD
BRANCH  21  23
HETATM   23  C8  UNL     1      30.973  59.111  49.364  1.00  0.00     0.207 C 
BRANCH  23  24
HETATM   24  C9  UNL     1      31.408  58.409  48.108  1.00  0.00     0.251 C 
HETATM   25  O1  UNL     1      30.737  57.548  47.572  1.00  0.00    -0.305 OA
ENDBRANCH  23  24
ENDBRANCH  21  23
ENDBRANCH   4  21
BRANCH   7  26
HETATM   26  N6  UNL     1      26.085  56.969  48.833  1.00  0.00    -0.225 N 
ATOM     27  H6  UNL     1      25.373  57.275  48.169  1.00  0.00     0.177 HD
BRANCH  26  28
HETATM   28  C11 UNL     1      26.251  55.556  49.025  1.00  0.00     0.139 C 
BRANCH  28  29
HETATM   29  C12 UNL     1      25.397  54.826  48.001  1.00  0.00     0.047 C 
BRANCH  29  30
HETATM   30  C13 UNL     1      25.251  53.370  48.320  1.00  0.00     0.231 C 
BRANCH  30  31
HETATM   31  N7  UNL     1      26.386  52.868  49.067  1.00  0.00    -0.079 N 
ATOM     32  H73 UNL     1      27.107  53.582  49.173  1.00  0.00     0.274 HD
ATOM     33  H72 UNL     1      26.153  52.730  50.050  1.00  0.00     0.274 HD
ATOM     34  H71 UNL     1      26.765  52.017  48.652  1.00  0.00     0.274 HD
ENDBRANCH  30  31
ENDBRANCH  29  30
ENDBRANCH  28  29
ENDBRANCH  26  28
ENDBRANCH   7  26
TORSDOF 13
ENDMDL
MODEL 4
REMARK VINA RESULT: -6.372769722      2.283      6.012
REMARK  13 active torsions:
REMARK  status: ('A' for Active; 'I' for Inactive)
REMARK    1  A    between atoms: C2_2  and  C3_3 
REMARK    2  A    between atoms: C3_3  and  N1_5 
REMARK    3  A    between atoms: C3_3  and  C5_9 
REMARK    4  A    between atoms: C5_9  and  N2_10 
REMARK    5  A    between atoms: N2_10  and  C6_12 
REMARK    6  A    between atoms: C7_15  and  N4_16 
REMARK    7  A    between atoms: N4_16  and  C8_18 
REMARK    8  A    between atoms: C8_18  and  C9_19 
REMARK    9  A    between atoms: C10_23  and  N6_24 
REMARK   10  A    between atoms: N6_24  and  C11_26 
REMARK   11  A    between atoms: C11_26  and  C12_27 
REMARK   12  A    between atoms: C12_27  and  C13_28 
REMARK   13  A    between atoms: C13_28  and  N7_29 
ROOT
HETATM    1  C6  UNL     1      27.857  58.247  51.361  1.00  0.00     0.707 A 
HETATM    2  N3  UNL     1      28.808  58.875  50.661  1.00  0.00    -0.022 N 
ATOM      3  H3  UNL     1      29.396  59.576  51.111  1.00  0.00     0.203 HD
HETATM    4  C7  UNL     1      28.986  58.579  49.362  1.00  0.00     0.707 A 
HETATM    5  N5  UNL     1      28.228  57.661  48.737  1.00  0.00    -0.022 N 
ATOM      6  H5  UNL     1      28.378  57.450  47.751  1.00  0.00     0.203 HD
HETATM    7  C10 UNL     1      27.269  57.025  49.433  1.00  0.00     0.707 A 
HETATM    8  N8  UNL     1      27.103  57.334  50.740  1.00  0.00    -0.022 N 
ATOM      9  H8  UNL     1      26.377  56.853  51.270  1.00  0.00     0.203 HD
ENDROOT
BRANCH   1  10
HETATM   10  N2  UNL     1      27.676  58.513  52.582  1.00  0.00    -0.223 N 
ATOM     11  H2  UNL     1      28.261  58.014  53.252  1.00  0.00     0.177 HD
BRANCH  10  12
HETATM   12  C5  UNL     1      26.735  59.445  53.119  1.00  0.00     0.176 C 
BRANCH  12  13
HETATM   13  C3  UNL     1      27.433  60.447  54.011  1.00  0.00     0.136 C 
HETATM   14  C4  UNL     1      28.644  59.798  54.601  1.00  0.00     0.048 C 
BRANCH  13  15
HETATM   15  C2  UNL     1      26.485  60.912  55.092  1.00  0.00     0.035 C 
HETATM   16  C1  UNL     1      25.213  60.125  55.116  1.00  0.00     0.007 C 
ENDBRANCH  13  15
BRANCH  13  17
HETATM   17  N1  UNL     1      27.745  61.603  53.189  1.00  0.00    -0.069 N 
ATOM     18  H13 UNL     1      28.357  61.383  52.404  1.00  0.00     0.275 HD
ATOM     19  H12 UNL     1      26.948  61.934  52.645  1.00  0.00     0.275 HD
ATOM     20  H11 UNL     1      28.130  62.316  53.808  1.00  0.00     0.275 HD
ENDBRANCH  13  17
ENDBRANCH  12  13
ENDBRANCH  10  12
ENDBRANCH   1  10
BRANCH   4  21
HETATM   21  N4  UNL     1      29.897  59.163  48.641  1.00  0.00    -0.219 N 
ATOM     22  H4  UNL     1      29.597  59.787  47.891  1.00  0.00     0.178 HD
BRANCH  21  23
HETATM   23  C8  UNL     1      31.306  58.970  48.851  1.00  0.00     0.207 C 
BRANCH  23  24
HETATM   24  C9  UNL     1      31.769  57.875  47.931  1.00  0.00     0.251 C 
HETATM   25  O1  UNL     1      31.045  57.375  47.091  1.00  0.00    -0.305 OA
ENDBRANCH  23  24
ENDBRANCH  21  23
ENDBRANCH   4  21
BRANCH   7  26
HETATM   26  N6  UNL     1      26.503  56.128  48.892  1.00  0.00    -0.225 N 
ATOM     27  H6  UNL     1      26.792  55.152  48.968  1.00  0.00     0.177 HD
BRANCH  26  28
HETATM   28  C11 UNL     1      25.279  56.406  48.194  1.00  0.00     0.139 C 
BRANCH  28  29
HETATM   29  C12 UNL     1      24.788  55.120  47.550  1.00  0.00     0.047 C 
BRANCH  29  30
HETATM   30  C13 UNL     1      25.442  53.906  48.137  1.00  0.00     0.231 C 
BRANCH  30  31
HETATM   31  N7  UNL     1      24.475  52.872  48.444  1.00  0.00    -0.079 N 
ATOM     32  H73 UNL     1      24.275  52.295  47.627  1.00  0.00     0.274 HD
ATOM     33  H72 UNL     1      24.877  52.156  49.050  1.00  0.00     0.274 HD
ATOM     34  H71 UNL     1      23.620  53.260  48.843  1.00  0.00     0.274 HD
ENDBRANCH  30  31
ENDBRANCH  29  30
ENDBRANCH  28  29
ENDBRANCH  26  28
ENDBRANCH   7  26
TORSDOF 13
ENDMDL
MODEL 5
REMARK VINA RESULT: -6.295203177      2.245      6.527
REMARK  13 active torsions:
REMARK  status: ('A' for Active; 'I' for Inactive)
REMARK    1  A    between atoms: C2_2  and  C3_3 
REMARK    2  A    between atoms: C3_3  and  N1_5 
REMARK    3  A    between atoms: C3_3  and  C5_9 
REMARK    4  A    between atoms: C5_9  and  N2_10 
REMARK    5  A    between atoms: N2_10  and  C6_12 
REMARK    6  A    between atoms: C7_15  and  N4_16 
REMARK    7  A    between atoms: N4_16  and  C8_18 
REMARK    8  A    between atoms: C8_18  and  C9_19 
REMARK    9  A    between atoms: C10_23  and  N6_24 
REMARK   10  A    between atoms: N6_24  and  C11_26 
REMARK   11  A    between atoms: C11_26  and  C12_27 
REMARK   12  A    between atoms: C12_27  and  C13_28 
REMARK   13  A    between atoms: C13_28  and  N7_29 
ROOT
HETATM    1  C6  UNL     1      26.809  59.653  51.536  1.00  0.00     0.707 A 
HETATM    2  N3  UNL     1      27.982  59.991  50.989  1.00  0.00    -0.022 N 
ATOM      3  H3  UNL     1      28.644  60.566  51.510  1.00  0.00     0.203 HD
HETATM    4  C7  UNL     1      28.285  59.570  49.749  1.00  0.00     0.707 A 
HETATM    5  N5  UNL     1      27.436  58.811  49.034  1.00  0.00    -0.022 N 
ATOM      6  H5  UNL     1      27.684  58.501  48.095  1.00  0.00     0.203 HD
HETATM    7  C10 UNL     1      26.255  58.468  49.577  1.00  0.00     0.707 A 
HETATM    8  N8  UNL     1      25.965  58.899  50.825  1.00  0.00    -0.022 N 
ATOM      9  H8  UNL     1      25.070  58.639  51.240  1.00  0.00     0.203 HD
ENDROOT
BRANCH   1  10
HETATM   10  N2  UNL     1      26.508  60.040  52.700  1.00  0.00    -0.223 N 
ATOM     11  H2  UNL     1      25.722  60.685  52.780  1.00  0.00     0.177 HD
BRANCH  10  12
HETATM   12  C5  UNL     1      27.158  59.664  53.917  1.00  0.00     0.176 C 
BRANCH  12  13
HETATM   13  C3  UNL     1      26.570  60.421  55.086  1.00  0.00     0.136 C 
HETATM   14  C4  UNL     1      27.286  60.006  56.331  1.00  0.00     0.048 C 
BRANCH  13  15
HETATM   15  C2  UNL     1      25.091  60.131  55.188  1.00  0.00     0.035 C 
HETATM   16  C1  UNL     1      24.547  60.403  56.555  1.00  0.00     0.007 C 
ENDBRANCH  13  15
BRANCH  13  17
HETATM   17  N1  UNL     1      26.709  61.836  54.789  1.00  0.00    -0.069 N 
ATOM     18  H13 UNL     1      27.390  62.026  54.055  1.00  0.00     0.275 HD
ATOM     19  H12 UNL     1      25.894  62.228  54.317  1.00  0.00     0.275 HD
ATOM     20  H11 UNL     1      26.926  62.307  55.668  1.00  0.00     0.275 HD
ENDBRANCH  13  17
ENDBRANCH  12  13
ENDBRANCH  10  12
ENDBRANCH   1  10
BRANCH   4  21
HETATM   21  N4  UNL     1      29.412  59.872  49.175  1.00  0.00    -0.219 N 
ATOM     22  H4  UNL     1      29.823  60.787  49.363  1.00  0.00     0.178 HD
BRANCH  21  23
HETATM   23  C8  UNL     1      30.106  58.977  48.289  1.00  0.00     0.207 C 
BRANCH  23  24
HETATM   24  C9  UNL     1      31.428  58.631  48.916  1.00  0.00     0.251 C 
HETATM   25  O1  UNL     1      31.553  58.428  50.109  1.00  0.00    -0.305 OA
ENDBRANCH  23  24
ENDBRANCH  21  23
ENDBRANCH   4  21
BRANCH   7  26
HETATM   26  N6  UNL     1      25.390  57.737  48.942  1.00  0.00    -0.225 N 
ATOM     27  H6  UNL     1      24.423  57.762  49.266  1.00  0.00     0.177 HD
BRANCH  26  28
HETATM   28  C11 UNL     1      25.692  56.897  47.817  1.00  0.00     0.139 C 
BRANCH  28  29
HETATM   29  C12 UNL     1      25.355  55.460  48.184  1.00  0.00     0.047 C 
BRANCH  29  30
HETATM   30  C13 UNL     1      26.345  54.873  49.142  1.00  0.00     0.231 C 
BRANCH  30  31
HETATM   31  N7  UNL     1      26.314  53.424  49.126  1.00  0.00    -0.079 N 
ATOM     32  H73 UNL     1      25.370  53.071  49.288  1.00  0.00     0.274 HD
ATOM     33  H72 UNL     1      26.461  53.060  48.184  1.00  0.00     0.274 HD
ATOM     34  H71 UNL     1      26.979  53.025  49.788  1.00  0.00     0.274 HD
ENDBRANCH  30  31
ENDBRANCH  29  30
ENDBRANCH  28  29
ENDBRANCH  26  28
ENDBRANCH   7  26
TORSDOF 13
ENDMDL
