MODEL 1
REMARK VINA RESULT: -7.924000696      0.000      0.000
REMARK  17 active torsions:
REMARK  status: ('A' for Active; 'I' for Inactive)
REMARK    1  A    between atoms: N1_1  and  C1_5 
REMARK    2  A    between atoms: C1_5  and  C2_6 
REMARK    3  A    between atoms: C2_6  and  C3_7 
REMARK    4  A    between atoms: C3_7  and  N2_8 
REMARK    5  A    between atoms: N2_8  and  C4_11 
REMARK    6  A    between atoms: C4_11  and  C5_12 
REMARK    7  A    between atoms: C6_13  and  O1_14 
REMARK    8  A    between atoms: O1_14  and  C7_15 
REMARK    9  A    between atoms: C7_15  and  C8_16 
REMARK   10  A    between atoms: C8_16  and  N3_17 
REMARK       I    between atoms: N3_17  and  C9_19 
REMARK   11  A    between atoms: N5_21  and  N6_23 
REMARK   12  A    between atoms: C10_25  and  N7_26 
REMARK   13  A    between atoms: N7_26  and  N8_28 
REMARK   14  A    between atoms: N8_28  and  N9_29 
REMARK   15  A    between atoms: C11_35  and  N11_36 
REMARK       I    between atoms: N11_36  and  C12_38 
REMARK   16  A    between atoms: C13_41  and  O3_42 
REMARK   17  A    between atoms: C14_44  and  O4_45 
ROOT
HETATM    1  C5  UNL     1      34.017  50.123  19.425  1.00  0.00     0.099 C 
HETATM    2  C6  UNL     1      34.506  51.470  18.934  1.00  0.00     0.331 C 
HETATM    3  N10 UNL     1      35.519  51.177  17.899  1.00  0.00    -0.025 N 
ATOM      4 1H10 UNL     1      36.237  50.508  18.179  1.00  0.00     0.282 HD
ATOM      5 2H10 UNL     1      36.165  51.941  17.704  1.00  0.00     0.282 HD
HETATM    6  C11 UNL     1      34.692  50.756  16.756  1.00  0.00     0.322 C 
HETATM    7  C13 UNL     1      34.185  49.378  17.015  1.00  0.00     0.197 C 
HETATM    8  C14 UNL     1      33.588  49.181  18.374  1.00  0.00     0.160 C 
ENDROOT
BRANCH   2   9
HETATM    9  O1  UNL     1      35.041  52.170  19.979  1.00  0.00    -0.357 OA
BRANCH   9  10
HETATM   10  C7  UNL     1      36.165  52.912  19.694  1.00  0.00     0.190 C 
BRANCH  10  11
HETATM   11  C8  UNL     1      35.926  54.395  19.558  1.00  0.00     0.148 C 
BRANCH  11  12
HETATM   12  N3  UNL     1      35.082  54.613  18.401  1.00  0.00    -0.361 N 
HETATM   13  C9  UNL     1      35.743  54.766  17.137  1.00  0.00     0.203 C 
HETATM   14  N4  UNL     1      35.205  54.087  16.022  1.00  0.00    -0.062 NA
HETATM   15  N5  UNL     1      36.781  55.502  17.064  1.00  0.00    -0.273 N 
ATOM     16  H5  UNL     1      37.142  55.978  17.889  1.00  0.00     0.189 HD
ATOM     17  H3  UNL     1      34.065  54.654  18.481  1.00  0.00     0.162 HD
BRANCH  15  18
HETATM   18  N6  UNL     1      37.415  55.642  15.820  1.00  0.00    -0.293 N 
HETATM   19  C10 UNL     1      38.589  55.097  15.642  1.00  0.00     0.212 C 
ATOM     20  H6  UNL     1      36.966  56.161  15.065  1.00  0.00     0.187 HD
BRANCH  19  21
HETATM   21  N7  UNL     1      39.216  55.254  14.368  1.00  0.00    -0.279 N 
ATOM     22  H7  UNL     1      40.136  55.691  14.304  1.00  0.00     0.185 HD
BRANCH  21  23
HETATM   23  N8  UNL     1      38.579  54.812  13.214  1.00  0.00    -0.029 NA
BRANCH  23  24
HETATM   24  N9  UNL     1      38.998  55.596  12.134  1.00  0.00    -0.329 N 
ATOM     25  H92 UNL     1      38.396  56.230  11.608  1.00  0.00     0.174 HD
ATOM     26  H91 UNL     1      39.990  55.427  11.966  1.00  0.00     0.174 HD
ENDBRANCH  23  24
ENDBRANCH  21  23
ENDBRANCH  19  21
ENDBRANCH  15  18
ENDBRANCH  11  12
ENDBRANCH  10  11
ENDBRANCH   9  10
ENDBRANCH   2   9
BRANCH   1  27
HETATM   27  C4  UNL     1      35.098  49.584  20.339  1.00  0.00     0.243 C 
BRANCH  27  28
HETATM   28  N2  UNL     1      34.675  49.389  21.687  1.00  0.00    -0.074 N 
ATOM     29  H22 UNL     1      35.364  49.770  22.335  1.00  0.00     0.277 HD
ATOM     30  H21 UNL     1      34.727  48.402  21.937  1.00  0.00     0.277 HD
BRANCH  28  31
HETATM   31  C3  UNL     1      33.375  49.908  21.981  1.00  0.00     0.233 C 
BRANCH  31  32
HETATM   32  C2  UNL     1      33.377  51.066  22.937  1.00  0.00     0.055 C 
BRANCH  32  33
HETATM   33  C1  UNL     1      32.392  52.092  22.389  1.00  0.00     0.231 C 
BRANCH  33  34
HETATM   34  N1  UNL     1      31.044  51.807  22.792  1.00  0.00    -0.079 N 
ATOM     35  H13 UNL     1      30.706  52.493  23.467  1.00  0.00     0.274 HD
ATOM     36  H12 UNL     1      30.384  51.988  22.035  1.00  0.00     0.274 HD
ATOM     37  H11 UNL     1      30.948  50.856  23.149  1.00  0.00     0.274 HD
ENDBRANCH  33  34
ENDBRANCH  32  33
ENDBRANCH  31  32
ENDBRANCH  28  31
ENDBRANCH  27  28
ENDBRANCH   1  27
BRANCH   8  38
HETATM   38  O4  UNL     1      32.184  49.298  18.239  1.00  0.00    -0.392 OA
ATOM     39  H4  UNL     1      31.787  48.923  19.017  1.00  0.00     0.210 HD
ENDBRANCH   8  38
BRANCH   6  40
HETATM   40  N11 UNL     1      35.508  50.773  15.563  1.00  0.00    -0.315 N 
HETATM   41  C12 UNL     1      35.021  51.138  14.295  1.00  0.00     0.330 C 
HETATM   42  N12 UNL     1      35.865  51.136  13.165  1.00  0.00    -0.040 NA
HETATM   43  O2  UNL     1      33.826  51.470  14.163  1.00  0.00    -0.251 OA
ATOM     44  H11 UNL     1      36.489  50.507  15.646  1.00  0.00     0.166 HD
ENDBRANCH   6  40
BRANCH   7  45
HETATM   45  O3  UNL     1      33.226  49.083  16.043  1.00  0.00    -0.389 OA
ATOM     46  H3  UNL     1      32.370  49.132  16.454  1.00  0.00     0.210 HD
ENDBRANCH   7  45
TORSDOF 17
ENDMDL
MODEL 2
REMARK VINA RESULT: -7.848084915      2.856      7.405
REMARK  17 active torsions:
REMARK  status: ('A' for Active; 'I' for Inactive)
REMARK    1  A    between atoms: N1_1  and  C1_5 
REMARK    2  A    between atoms: C1_5  and  C2_6 
REMARK    3  A    between atoms: C2_6  and  C3_7 
REMARK    4  A    between atoms: C3_7  and  N2_8 
REMARK    5  A    between atoms: N2_8  and  C4_11 
REMARK    6  A    between atoms: C4_11  and  C5_12 
REMARK    7  A    between atoms: C6_13  and  O1_14 
REMARK    8  A    between atoms: O1_14  and  C7_15 
REMARK    9  A    between atoms: C7_15  and  C8_16 
REMARK   10  A    between atoms: C8_16  and  N3_17 
REMARK       I    between atoms: N3_17  and  C9_19 
REMARK   11  A    between atoms: N5_21  and  N6_23 
REMARK   12  A    between atoms: C10_25  and  N7_26 
REMARK   13  A    between atoms: N7_26  and  N8_28 
REMARK   14  A    between atoms: N8_28  and  N9_29 
REMARK   15  A    between atoms: C11_35  and  N11_36 
REMARK       I    between atoms: N11_36  and  C12_38 
REMARK   16  A    between atoms: C13_41  and  O3_42 
REMARK   17  A    between atoms: C14_44  and  O4_45 
ROOT
HETATM    1  C5  UNL     1      36.829  55.045  14.512  1.00  0.00     0.099 C 
HETATM    2  C6  UNL     1      36.996  54.105  15.689  1.00  0.00     0.331 C 
HETATM    3  N10 UNL     1      35.755  53.306  15.744  1.00  0.00    -0.025 N 
ATOM      4 1H10 UNL     1      34.893  53.850  15.717  1.00  0.00     0.282 HD
ATOM      5 2H10 UNL     1      35.568  52.867  16.645  1.00  0.00     0.282 HD
HETATM    6  C11 UNL     1      35.932  52.368  14.622  1.00  0.00     0.322 C 
HETATM    7  C13 UNL     1      35.705  53.104  13.345  1.00  0.00     0.197 C 
HETATM    8  C14 UNL     1      36.435  54.408  13.242  1.00  0.00     0.160 C 
ENDROOT
BRANCH   2   9
HETATM    9  O1  UNL     1      37.178  54.833  16.831  1.00  0.00    -0.357 OA
BRANCH   9  10
HETATM   10  C7  UNL     1      37.813  54.182  17.865  1.00  0.00     0.190 C 
BRANCH  10  11
HETATM   11  C8  UNL     1      37.313  54.545  19.242  1.00  0.00     0.148 C 
BRANCH  11  12
HETATM   12  N3  UNL     1      35.865  54.504  19.222  1.00  0.00    -0.361 N 
HETATM   13  C9  UNL     1      35.243  53.336  19.776  1.00  0.00     0.203 C 
HETATM   14  N4  UNL     1      34.123  53.518  20.618  1.00  0.00    -0.062 NA
HETATM   15  N5  UNL     1      35.715  52.186  19.493  1.00  0.00    -0.273 N 
ATOM     16  H5  UNL     1      36.525  52.091  18.882  1.00  0.00     0.189 HD
ATOM     17  H3  UNL     1      35.314  55.270  18.833  1.00  0.00     0.162 HD
BRANCH  15  18
HETATM   18  N6  UNL     1      35.093  51.054  20.043  1.00  0.00    -0.293 N 
HETATM   19  C10 UNL     1      35.660  50.448  21.052  1.00  0.00     0.212 C 
ATOM     20  H6  UNL     1      34.212  50.711  19.660  1.00  0.00     0.187 HD
BRANCH  19  21
HETATM   21  N7  UNL     1      35.010  49.297  21.594  1.00  0.00    -0.279 N 
ATOM     22  H7  UNL     1      35.522  48.669  22.214  1.00  0.00     0.185 HD
BRANCH  21  23
HETATM   23  N8  UNL     1      33.682  49.030  21.282  1.00  0.00    -0.029 NA
BRANCH  23  24
HETATM   24  N9  UNL     1      32.952  48.901  22.468  1.00  0.00    -0.329 N 
ATOM     25  H92 UNL     1      32.150  49.478  22.723  1.00  0.00     0.174 HD
ATOM     26  H91 UNL     1      33.353  48.146  23.024  1.00  0.00     0.174 HD
ENDBRANCH  23  24
ENDBRANCH  21  23
ENDBRANCH  19  21
ENDBRANCH  15  18
ENDBRANCH  11  12
ENDBRANCH  10  11
ENDBRANCH   9  10
ENDBRANCH   2   9
BRANCH   1  27
HETATM   27  C4  UNL     1      35.894  56.143  14.973  1.00  0.00     0.243 C 
BRANCH  27  28
HETATM   28  N2  UNL     1      36.560  57.324  15.418  1.00  0.00    -0.074 N 
ATOM     29  H22 UNL     1      37.561  57.154  15.512  1.00  0.00     0.277 HD
ATOM     30  H21 UNL     1      36.324  57.520  16.390  1.00  0.00     0.277 HD
BRANCH  28  31
HETATM   31  C3  UNL     1      36.324  58.478  14.606  1.00  0.00     0.233 C 
BRANCH  31  32
HETATM   32  C2  UNL     1      35.065  58.410  13.792  1.00  0.00     0.055 C 
BRANCH  32  33
HETATM   33  C1  UNL     1      34.218  59.614  14.187  1.00  0.00     0.231 C 
BRANCH  33  34
HETATM   34  N1  UNL     1      33.980  59.659  15.602  1.00  0.00    -0.079 N 
ATOM     35  H13 UNL     1      32.992  59.522  15.816  1.00  0.00     0.274 HD
ATOM     36  H12 UNL     1      34.360  58.835  16.068  1.00  0.00     0.274 HD
ATOM     37  H11 UNL     1      34.335  60.519  16.019  1.00  0.00     0.274 HD
ENDBRANCH  33  34
ENDBRANCH  32  33
ENDBRANCH  31  32
ENDBRANCH  28  31
ENDBRANCH  27  28
ENDBRANCH   1  27
BRANCH   8  38
HETATM   38  O4  UNL     1      37.614  54.173  12.494  1.00  0.00    -0.392 OA
ATOM     39  H4  UNL     1      37.382  53.626  11.753  1.00  0.00     0.210 HD
ENDBRANCH   8  38
BRANCH   6  40
HETATM   40  N11 UNL     1      34.973  51.296  14.759  1.00  0.00    -0.315 N 
HETATM   41  C12 UNL     1      34.809  50.548  15.939  1.00  0.00     0.330 C 
HETATM   42  N12 UNL     1      33.856  49.511  16.014  1.00  0.00    -0.040 NA
HETATM   43  O2  UNL     1      35.514  50.802  16.936  1.00  0.00    -0.251 OA
ATOM     44  H11 UNL     1      34.384  51.070  13.958  1.00  0.00     0.166 HD
ENDBRANCH   6  40
BRANCH   7  45
HETATM   45  O3  UNL     1      36.099  52.272  12.294  1.00  0.00    -0.389 OA
ATOM     46  H3  UNL     1      36.937  51.887  12.525  1.00  0.00     0.210 HD
ENDBRANCH   7  45
TORSDOF 17
ENDMDL
MODEL 3
REMARK VINA RESULT: -7.795623642      0.999      1.262
REMARK  17 active torsions:
REMARK  status: ('A' for Active; 'I' for Inactive)
REMARK    1  A    between atoms: N1_1  and  C1_5 
REMARK    2  A    between atoms: C1_5  and  C2_6 
REMARK    3  A    between atoms: C2_6  and  C3_7 
REMARK    4  A    between atoms: C3_7  and  N2_8 
REMARK    5  A    between atoms: N2_8  and  C4_11 
REMARK    6  A    between atoms: C4_11  and  C5_12 
REMARK    7  A    between atoms: C6_13  and  O1_14 
REMARK    8  A    between atoms: O1_14  and  C7_15 
REMARK    9  A    between atoms: C7_15  and  C8_16 
REMARK   10  A    between atoms: C8_16  and  N3_17 
REMARK       I    between atoms: N3_17  and  C9_19 
REMARK   11  A    between atoms: N5_21  and  N6_23 
REMARK   12  A    between atoms: C10_25  and  N7_26 
REMARK   13  A    between atoms: N7_26  and  N8_28 
REMARK   14  A    between atoms: N8_28  and  N9_29 
REMARK   15  A    between atoms: C11_35  and  N11_36 
REMARK       I    between atoms: N11_36  and  C12_38 
REMARK   16  A    between atoms: C13_41  and  O3_42 
REMARK   17  A    between atoms: C14_44  and  O4_45 
ROOT
HETATM    1  C5  UNL     1      34.073  50.043  19.350  1.00  0.00     0.099 C 
HETATM    2  C6  UNL     1      34.498  51.424  18.891  1.00  0.00     0.331 C 
HETATM    3  N10 UNL     1      35.528  51.204  17.857  1.00  0.00    -0.025 N 
ATOM      4 1H10 UNL     1      36.277  50.565  18.126  1.00  0.00     0.282 HD
ATOM      5 2H10 UNL     1      36.138  52.002  17.682  1.00  0.00     0.282 HD
HETATM    6  C11 UNL     1      34.728  50.768  16.699  1.00  0.00     0.322 C 
HETATM    7  C13 UNL     1      34.289  49.362  16.924  1.00  0.00     0.197 C 
HETATM    8  C14 UNL     1      33.696  49.105  18.276  1.00  0.00     0.160 C 
ENDROOT
BRANCH   2   9
HETATM    9  O1  UNL     1      34.992  52.125  19.955  1.00  0.00    -0.357 OA
BRANCH   9  10
HETATM   10  C7  UNL     1      35.990  53.030  19.668  1.00  0.00     0.190 C 
BRANCH  10  11
HETATM   11  C8  UNL     1      35.522  54.455  19.505  1.00  0.00     0.148 C 
BRANCH  11  12
HETATM   12  N3  UNL     1      35.242  54.681  18.102  1.00  0.00    -0.361 N 
HETATM   13  C9  UNL     1      36.363  54.659  17.206  1.00  0.00     0.203 C 
HETATM   14  N4  UNL     1      36.221  53.965  15.984  1.00  0.00    -0.062 NA
HETATM   15  N5  UNL     1      37.437  55.261  17.538  1.00  0.00    -0.273 N 
ATOM     16  H5  UNL     1      37.505  55.752  18.428  1.00  0.00     0.189 HD
ATOM     17  H3  UNL     1      34.293  54.848  17.766  1.00  0.00     0.162 HD
BRANCH  15  18
HETATM   18  N6  UNL     1      38.523  55.230  16.650  1.00  0.00    -0.293 N 
HETATM   19  C10 UNL     1      38.974  56.356  16.163  1.00  0.00     0.212 C 
ATOM     20  H6  UNL     1      38.953  54.343  16.389  1.00  0.00     0.187 HD
BRANCH  19  21
HETATM   21  N7  UNL     1      40.080  56.301  15.260  1.00  0.00    -0.279 N 
ATOM     22  H7  UNL     1      39.930  56.454  14.263  1.00  0.00     0.185 HD
BRANCH  21  23
HETATM   23  N8  UNL     1      41.361  56.039  15.735  1.00  0.00    -0.029 NA
BRANCH  23  24
HETATM   24  N9  UNL     1      42.227  57.041  15.284  1.00  0.00    -0.329 N 
ATOM     25  H92 UNL     1      42.691  57.722  15.885  1.00  0.00     0.174 HD
ATOM     26  H91 UNL     1      42.311  56.974  14.270  1.00  0.00     0.174 HD
ENDBRANCH  23  24
ENDBRANCH  21  23
ENDBRANCH  19  21
ENDBRANCH  15  18
ENDBRANCH  11  12
ENDBRANCH  10  11
ENDBRANCH   9  10
ENDBRANCH   2   9
BRANCH   1  27
HETATM   27  C4  UNL     1      35.175  49.538  20.257  1.00  0.00     0.243 C 
BRANCH  27  28
HETATM   28  N2  UNL     1      34.789  49.415  21.626  1.00  0.00    -0.074 N 
ATOM     29  H22 UNL     1      35.425  49.944  22.223  1.00  0.00     0.277 HD
ATOM     30  H21 UNL     1      34.977  48.472  21.964  1.00  0.00     0.277 HD
BRANCH  28  31
HETATM   31  C3  UNL     1      33.433  49.780  21.894  1.00  0.00     0.233 C 
BRANCH  31  32
HETATM   32  C2  UNL     1      33.284  51.001  22.755  1.00  0.00     0.055 C 
BRANCH  32  33
HETATM   33  C1  UNL     1      32.172  51.842  22.139  1.00  0.00     0.231 C 
BRANCH  33  34
HETATM   34  N1  UNL     1      31.022  51.918  22.995  1.00  0.00    -0.079 N 
ATOM     35  H13 UNL     1      31.289  51.884  23.979  1.00  0.00     0.274 HD
ATOM     36  H12 UNL     1      30.604  52.848  22.974  1.00  0.00     0.274 HD
ATOM     37  H11 UNL     1      30.335  51.197  22.772  1.00  0.00     0.274 HD
ENDBRANCH  33  34
ENDBRANCH  32  33
ENDBRANCH  31  32
ENDBRANCH  28  31
ENDBRANCH  27  28
ENDBRANCH   1  27
BRANCH   8  38
HETATM   38  O4  UNL     1      32.288  49.157  18.135  1.00  0.00    -0.392 OA
ATOM     39  H4  UNL     1      32.065  48.739  17.310  1.00  0.00     0.210 HD
ENDBRANCH   8  38
BRANCH   6  40
HETATM   40  N11 UNL     1      35.548  50.853  15.512  1.00  0.00    -0.315 N 
HETATM   41  C12 UNL     1      35.047  51.205  14.246  1.00  0.00     0.330 C 
HETATM   42  N12 UNL     1      35.896  51.271  13.122  1.00  0.00    -0.040 NA
HETATM   43  O2  UNL     1      33.835  51.465  14.111  1.00  0.00    -0.251 OA
ATOM     44  H11 UNL     1      36.543  50.646  15.597  1.00  0.00     0.166 HD
ENDBRANCH   6  40
BRANCH   7  45
HETATM   45  O3  UNL     1      33.350  49.043  15.941  1.00  0.00    -0.389 OA
ATOM     46  H3  UNL     1      33.338  49.750  15.307  1.00  0.00     0.210 HD
ENDBRANCH   7  45
TORSDOF 17
ENDMDL
MODEL 4
REMARK VINA RESULT: -7.793586805      2.310      7.464
REMARK  17 active torsions:
REMARK  status: ('A' for Active; 'I' for Inactive)
REMARK    1  A    between atoms: N1_1  and  C1_5 
REMARK    2  A    between atoms: C1_5  and  C2_6 
REMARK    3  A    between atoms: C2_6  and  C3_7 
REMARK    4  A    between atoms: C3_7  and  N2_8 
REMARK    5  A    between atoms: N2_8  and  C4_11 
REMARK    6  A    between atoms: C4_11  and  C5_12 
REMARK    7  A    between atoms: C6_13  and  O1_14 
REMARK    8  A    between atoms: O1_14  and  C7_15 
REMARK    9  A    between atoms: C7_15  and  C8_16 
REMARK   10  A    between atoms: C8_16  and  N3_17 
REMARK       I    between atoms: N3_17  and  C9_19 
REMARK   11  A    between atoms: N5_21  and  N6_23 
REMARK   12  A    between atoms: C10_25  and  N7_26 
REMARK   13  A    between atoms: N7_26  and  N8_28 
REMARK   14  A    between atoms: N8_28  and  N9_29 
REMARK   15  A    between atoms: C11_35  and  N11_36 
REMARK       I    between atoms: N11_36  and  C12_38 
REMARK   16  A    between atoms: C13_41  and  O3_42 
REMARK   17  A    between atoms: C14_44  and  O4_45 
ROOT
HETATM    1  C5  UNL     1      36.688  54.956  14.454  1.00  0.00     0.099 C 
HETATM    2  C6  UNL     1      36.817  54.066  15.673  1.00  0.00     0.331 C 
HETATM    3  N10 UNL     1      35.596  53.236  15.696  1.00  0.00    -0.025 N 
ATOM      4 1H10 UNL     1      34.722  53.755  15.604  1.00  0.00     0.282 HD
ATOM      5 2H10 UNL     1      35.373  52.826  16.602  1.00  0.00     0.282 HD
HETATM    6  C11 UNL     1      35.854  52.261  14.622  1.00  0.00     0.322 C 
HETATM    7  C13 UNL     1      35.676  52.942  13.308  1.00  0.00     0.197 C 
HETATM    8  C14 UNL     1      36.376  54.261  13.191  1.00  0.00     0.160 C 
ENDROOT
BRANCH   2   9
HETATM    9  O1  UNL     1      36.921  54.841  16.794  1.00  0.00    -0.357 OA
BRANCH   9  10
HETATM   10  C7  UNL     1      37.833  54.419  17.736  1.00  0.00     0.190 C 
BRANCH  10  11
HETATM   11  C8  UNL     1      37.363  54.531  19.165  1.00  0.00     0.148 C 
BRANCH  11  12
HETATM   12  N3  UNL     1      35.914  54.524  19.166  1.00  0.00    -0.361 N 
HETATM   13  C9  UNL     1      35.272  53.381  19.750  1.00  0.00     0.203 C 
HETATM   14  N4  UNL     1      34.170  53.606  20.604  1.00  0.00    -0.062 NA
HETATM   15  N5  UNL     1      35.713  52.216  19.482  1.00  0.00    -0.273 N 
ATOM     16  H5  UNL     1      36.511  52.090  18.862  1.00  0.00     0.189 HD
ATOM     17  H3  UNL     1      35.376  55.296  18.771  1.00  0.00     0.162 HD
BRANCH  15  18
HETATM   18  N6  UNL     1      35.073  51.110  20.061  1.00  0.00    -0.293 N 
HETATM   19  C10 UNL     1      35.643  50.504  21.069  1.00  0.00     0.212 C 
ATOM     20  H6  UNL     1      34.176  50.783  19.700  1.00  0.00     0.187 HD
BRANCH  19  21
HETATM   21  N7  UNL     1      34.973  49.379  21.642  1.00  0.00    -0.279 N 
ATOM     22  H7  UNL     1      35.457  48.793  22.323  1.00  0.00     0.185 HD
BRANCH  21  23
HETATM   23  N8  UNL     1      33.665  49.081  21.276  1.00  0.00    -0.029 NA
BRANCH  23  24
HETATM   24  N9  UNL     1      32.915  48.834  22.431  1.00  0.00    -0.329 N 
ATOM     25  H92 UNL     1      33.127  48.110  23.118  1.00  0.00     0.174 HD
ATOM     26  H91 UNL     1      32.135  49.490  22.466  1.00  0.00     0.174 HD
ENDBRANCH  23  24
ENDBRANCH  21  23
ENDBRANCH  19  21
ENDBRANCH  15  18
ENDBRANCH  11  12
ENDBRANCH  10  11
ENDBRANCH   9  10
ENDBRANCH   2   9
BRANCH   1  27
HETATM   27  C4  UNL     1      35.702  56.044  14.823  1.00  0.00     0.243 C 
BRANCH  27  28
HETATM   28  N2  UNL     1      36.313  57.285  15.176  1.00  0.00    -0.074 N 
ATOM     29  H22 UNL     1      36.373  57.377  16.190  1.00  0.00     0.277 HD
ATOM     30  H21 UNL     1      35.686  58.062  14.967  1.00  0.00     0.277 HD
BRANCH  28  31
HETATM   31  C3  UNL     1      37.594  57.506  14.579  1.00  0.00     0.233 C 
BRANCH  31  32
HETATM   32  C2  UNL     1      38.707  57.700  15.567  1.00  0.00     0.055 C 
BRANCH  32  33
HETATM   33  C1  UNL     1      39.792  56.690  15.213  1.00  0.00     0.231 C 
BRANCH  33  34
HETATM   34  N1  UNL     1      39.682  56.242  13.853  1.00  0.00    -0.079 N 
ATOM     35  H13 UNL     1      38.732  55.937  13.639  1.00  0.00     0.274 HD
ATOM     36  H12 UNL     1      39.751  57.021  13.199  1.00  0.00     0.274 HD
ATOM     37  H11 UNL     1      40.363  55.513  13.638  1.00  0.00     0.274 HD
ENDBRANCH  33  34
ENDBRANCH  32  33
ENDBRANCH  31  32
ENDBRANCH  28  31
ENDBRANCH  27  28
ENDBRANCH   1  27
BRANCH   8  38
HETATM   38  O4  UNL     1      37.599  54.030  12.514  1.00  0.00    -0.392 OA
ATOM     39  H4  UNL     1      37.409  53.983  11.584  1.00  0.00     0.210 HD
ENDBRANCH   8  38
BRANCH   6  40
HETATM   40  N11 UNL     1      34.917  51.169  14.752  1.00  0.00    -0.315 N 
HETATM   41  C12 UNL     1      34.721  50.453  15.946  1.00  0.00     0.330 C 
HETATM   42  N12 UNL     1      33.791  49.394  16.013  1.00  0.00    -0.040 NA
HETATM   43  O2  UNL     1      35.377  50.754  16.963  1.00  0.00    -0.251 OA
ATOM     44  H11 UNL     1      34.368  50.905  13.934  1.00  0.00     0.166 HD
ENDBRANCH   6  40
BRANCH   7  45
HETATM   45  O3  UNL     1      36.145  52.082  12.312  1.00  0.00    -0.389 OA
ATOM     46  H3  UNL     1      36.154  52.562  11.492  1.00  0.00     0.210 HD
ENDBRANCH   7  45
TORSDOF 17
ENDMDL
MODEL 5
REMARK VINA RESULT: -7.640162864      1.502      1.772
REMARK  17 active torsions:
REMARK  status: ('A' for Active; 'I' for Inactive)
REMARK    1  A    between atoms: N1_1  and  C1_5 
REMARK    2  A    between atoms: C1_5  and  C2_6 
REMARK    3  A    between atoms: C2_6  and  C3_7 
REMARK    4  A    between atoms: C3_7  and  N2_8 
REMARK    5  A    between atoms: N2_8  and  C4_11 
REMARK    6  A    between atoms: C4_11  and  C5_12 
REMARK    7  A    between atoms: C6_13  and  O1_14 
REMARK    8  A    between atoms: O1_14  and  C7_15 
REMARK    9  A    between atoms: C7_15  and  C8_16 
REMARK   10  A    between atoms: C8_16  and  N3_17 
REMARK       I    between atoms: N3_17  and  C9_19 
REMARK   11  A    between atoms: N5_21  and  N6_23 
REMARK   12  A    between atoms: C10_25  and  N7_26 
REMARK   13  A    between atoms: N7_26  and  N8_28 
REMARK   14  A    between atoms: N8_28  and  N9_29 
REMARK   15  A    between atoms: C11_35  and  N11_36 
REMARK       I    between atoms: N11_36  and  C12_38 
REMARK   16  A    between atoms: C13_41  and  O3_42 
REMARK   17  A    between atoms: C14_44  and  O4_45 
ROOT
HETATM    1  C5  UNL     1      34.087  50.261  19.434  1.00  0.00     0.099 C 
HETATM    2  C6  UNL     1      34.546  51.609  18.916  1.00  0.00     0.331 C 
HETATM    3  N10 UNL     1      35.573  51.320  17.895  1.00  0.00    -0.025 N 
ATOM      4 1H10 UNL     1      36.306  50.675  18.194  1.00  0.00     0.282 HD
ATOM      5 2H10 UNL     1      36.202  52.095  17.687  1.00  0.00     0.282 HD
HETATM    6  C11 UNL     1      34.764  50.854  16.755  1.00  0.00     0.322 C 
HETATM    7  C13 UNL     1      34.290  49.470  17.040  1.00  0.00     0.197 C 
HETATM    8  C14 UNL     1      33.689  49.287  18.400  1.00  0.00     0.160 C 
ENDROOT
BRANCH   2   9
HETATM    9  O1  UNL     1      35.056  52.344  19.950  1.00  0.00    -0.357 OA
BRANCH   9  10
HETATM   10  C7  UNL     1      36.308  52.882  19.747  1.00  0.00     0.190 C 
BRANCH  10  11
HETATM   11  C8  UNL     1      36.321  54.363  19.465  1.00  0.00     0.148 C 
BRANCH  11  12
HETATM   12  N3  UNL     1      37.402  54.638  18.541  1.00  0.00    -0.361 N 
HETATM   13  C9  UNL     1      37.085  55.437  17.391  1.00  0.00     0.203 C 
HETATM   14  N4  UNL     1      37.988  56.459  17.026  1.00  0.00    -0.062 NA
HETATM   15  N5  UNL     1      36.011  55.201  16.747  1.00  0.00    -0.273 N 
ATOM     16  H5  UNL     1      35.380  54.456  17.040  1.00  0.00     0.189 HD
ATOM     17  H3  UNL     1      38.345  54.281  18.699  1.00  0.00     0.162 HD
BRANCH  15  18
HETATM   18  N6  UNL     1      35.716  55.991  15.626  1.00  0.00    -0.293 N 
HETATM   19  C10 UNL     1      35.850  55.473  14.433  1.00  0.00     0.212 C 
ATOM     20  H6  UNL     1      35.402  56.955  15.740  1.00  0.00     0.187 HD
BRANCH  19  21
HETATM   21  N7  UNL     1      35.545  56.297  13.306  1.00  0.00    -0.279 N 
ATOM     22  H7  UNL     1      35.853  56.017  12.375  1.00  0.00     0.185 HD
BRANCH  21  23
HETATM   23  N8  UNL     1      34.829  57.477  13.473  1.00  0.00    -0.029 NA
BRANCH  23  24
HETATM   24  N9  UNL     1      35.335  58.443  12.597  1.00  0.00    -0.329 N 
ATOM     25  H92 UNL     1      36.277  58.436  12.205  1.00  0.00     0.174 HD
ATOM     26  H91 UNL     1      34.614  59.143  12.423  1.00  0.00     0.174 HD
ENDBRANCH  23  24
ENDBRANCH  21  23
ENDBRANCH  19  21
ENDBRANCH  15  18
ENDBRANCH  11  12
ENDBRANCH  10  11
ENDBRANCH   9  10
ENDBRANCH   2   9
BRANCH   1  27
HETATM   27  C4  UNL     1      35.175  49.769  20.365  1.00  0.00     0.243 C 
BRANCH  27  28
HETATM   28  N2  UNL     1      34.731  49.527  21.699  1.00  0.00    -0.074 N 
ATOM     29  H22 UNL     1      35.404  49.897  22.371  1.00  0.00     0.277 HD
ATOM     30  H21 UNL     1      34.793  48.534  21.920  1.00  0.00     0.277 HD
BRANCH  28  31
HETATM   31  C3  UNL     1      33.420  50.020  21.986  1.00  0.00     0.233 C 
BRANCH  31  32
HETATM   32  C2  UNL     1      33.386  51.124  23.002  1.00  0.00     0.055 C 
BRANCH  32  33
HETATM   33  C1  UNL     1      32.415  52.176  22.478  1.00  0.00     0.231 C 
BRANCH  33  34
HETATM   34  N1  UNL     1      31.056  51.866  22.819  1.00  0.00    -0.079 N 
ATOM     35  H13 UNL     1      30.925  51.833  23.830  1.00  0.00     0.274 HD
ATOM     36  H12 UNL     1      30.432  52.643  22.601  1.00  0.00     0.274 HD
ATOM     37  H11 UNL     1      30.742  51.002  22.376  1.00  0.00     0.274 HD
ENDBRANCH  33  34
ENDBRANCH  32  33
ENDBRANCH  31  32
ENDBRANCH  28  31
ENDBRANCH  27  28
ENDBRANCH   1  27
BRANCH   8  38
HETATM   38  O4  UNL     1      32.283  49.367  18.253  1.00  0.00    -0.392 OA
ATOM     39  H4  UNL     1      31.915  48.540  18.543  1.00  0.00     0.210 HD
ENDBRANCH   8  38
BRANCH   6  40
HETATM   40  N11 UNL     1      35.588  50.867  15.568  1.00  0.00    -0.315 N 
HETATM   41  C12 UNL     1      35.102  51.199  14.291  1.00  0.00     0.330 C 
HETATM   42  N12 UNL     1      35.954  51.193  13.166  1.00  0.00    -0.040 NA
HETATM   43  O2  UNL     1      33.901  51.504  14.144  1.00  0.00    -0.251 OA
ATOM     44  H11 UNL     1      36.573  50.622  15.662  1.00  0.00     0.166 HD
ENDBRANCH   6  40
BRANCH   7  45
HETATM   45  O3  UNL     1      33.345  49.132  16.070  1.00  0.00    -0.389 OA
ATOM     46  H3  UNL     1      32.491  49.120  16.485  1.00  0.00     0.210 HD
ENDBRANCH   7  45
TORSDOF 17
ENDMDL
