MODEL 1
REMARK VINA RESULT: -8.828085552      0.000      0.000
REMARK  2 active torsions:
REMARK  status: ('A' for Active; 'I' for Inactive)
REMARK    1  A    between atoms: N1_2  and  C2_4 
REMARK    2  A    between atoms: C10_16  and  C11_17 
ROOT
HETATM    1  C2  UNL     1      41.676  21.257  63.640  1.00  0.00     0.145 A 
HETATM    2  N2  UNL     1      42.555  21.378  64.637  1.00  0.00    -0.340 N 
ATOM      3  H2  UNL     1      43.210  20.603  64.740  1.00  0.00     0.168 HD
HETATM    4  C3  UNL     1      42.696  22.362  65.511  1.00  0.00     0.020 A 
HETATM    5  C4  UNL     1      43.780  22.271  66.561  1.00  0.00     0.069 C 
HETATM    6  C5  UNL     1      41.936  23.511  65.581  1.00  0.00     0.017 A 
HETATM    7  C6  UNL     1      41.952  24.632  66.427  1.00  0.00     0.006 A 
HETATM    8  C7  UNL     1      42.609  25.181  67.512  1.00  0.00     0.031 A 
HETATM    9  C8  UNL     1      42.008  26.377  67.779  1.00  0.00     0.089 A 
HETATM   10  N3  UNL     1      41.015  26.567  66.896  1.00  0.00    -0.365 N 
ATOM     11  H3  UNL     1      40.400  27.380  66.864  1.00  0.00     0.165 HD
HETATM   12  C9  UNL     1      40.961  25.518  66.063  1.00  0.00     0.051 A 
HETATM   13  C10 UNL     1      40.288  25.003  64.989  1.00  0.00    -0.005 A 
HETATM   14  C15 UNL     1      40.844  23.788  64.660  1.00  0.00     0.030 A 
HETATM   15  S1  UNL     1      40.580  22.580  63.492  1.00  0.00    -0.053 SA
ENDROOT
BRANCH  13  16
HETATM   16  C11 UNL     1      39.166  25.617  64.287  1.00  0.00    -0.021 C 
HETATM   17  C12 UNL     1      38.879  25.025  62.946  1.00  0.00     0.019 C 
HETATM   18  C13 UNL     1      39.387  27.105  64.101  1.00  0.00     0.019 C 
HETATM   19  C14 UNL     1      37.901  25.475  65.127  1.00  0.00     0.019 C 
ENDBRANCH  13  16
BRANCH   1  20
HETATM   20  N1  UNL     1      41.627  20.249  62.842  1.00  0.00    -0.375 N 
HETATM   21  C1  UNL     1      40.445  19.579  62.428  1.00  0.00     0.148 C 
ATOM     22  H1  UNL     1      42.513  19.901  62.476  1.00  0.00     0.161 HD
ENDBRANCH   1  20
TORSDOF 2
ENDMDL
MODEL 2
REMARK VINA RESULT: -8.746740497      1.821      4.485
REMARK  2 active torsions:
REMARK  status: ('A' for Active; 'I' for Inactive)
REMARK    1  A    between atoms: N1_2  and  C2_4 
REMARK    2  A    between atoms: C10_16  and  C11_17 
ROOT
HETATM    1  C2  UNL     1      42.718  25.449  67.404  1.00  0.00     0.145 A 
HETATM    2  N2  UNL     1      43.318  24.316  67.035  1.00  0.00    -0.340 N 
ATOM      3  H2  UNL     1      44.183  24.097  67.529  1.00  0.00     0.168 HD
HETATM    4  C3  UNL     1      42.949  23.435  66.119  1.00  0.00     0.020 A 
HETATM    5  C4  UNL     1      43.803  22.212  65.878  1.00  0.00     0.069 C 
HETATM    6  C5  UNL     1      41.825  23.506  65.321  1.00  0.00     0.017 A 
HETATM    7  C6  UNL     1      41.296  22.676  64.319  1.00  0.00     0.006 A 
HETATM    8  C7  UNL     1      41.522  21.496  63.636  1.00  0.00     0.031 A 
HETATM    9  C8  UNL     1      40.495  21.344  62.750  1.00  0.00     0.089 A 
HETATM   10  N3  UNL     1      39.660  22.388  62.875  1.00  0.00    -0.365 N 
ATOM     11  H3  UNL     1      38.807  22.531  62.335  1.00  0.00     0.165 HD
HETATM   12  C9  UNL     1      40.126  23.212  63.824  1.00  0.00     0.051 A 
HETATM   13  C10 UNL     1      39.873  24.385  64.481  1.00  0.00    -0.005 A 
HETATM   14  C15 UNL     1      40.874  24.605  65.398  1.00  0.00     0.030 A 
HETATM   15  S1  UNL     1      41.259  25.794  66.551  1.00  0.00    -0.053 SA
ENDROOT
BRANCH  13  16
HETATM   16  C11 UNL     1      38.736  25.275  64.267  1.00  0.00    -0.021 C 
HETATM   17  C12 UNL     1      37.823  24.853  63.162  1.00  0.00     0.019 C 
HETATM   18  C13 UNL     1      39.197  26.689  63.974  1.00  0.00     0.019 C 
HETATM   19  C14 UNL     1      37.902  25.352  65.541  1.00  0.00     0.019 C 
ENDBRANCH  13  16
BRANCH   1  20
HETATM   20  N1  UNL     1      43.168  26.238  68.315  1.00  0.00    -0.375 N 
HETATM   21  C1  UNL     1      44.530  26.374  68.693  1.00  0.00     0.148 C 
ATOM     22  H1  UNL     1      42.488  26.816  68.810  1.00  0.00     0.161 HD
ENDBRANCH   1  20
TORSDOF 2
ENDMDL
MODEL 3
REMARK VINA RESULT: -8.503286399      1.064      1.202
REMARK  2 active torsions:
REMARK  status: ('A' for Active; 'I' for Inactive)
REMARK    1  A    between atoms: N1_2  and  C2_4 
REMARK    2  A    between atoms: C10_16  and  C11_17 
ROOT
HETATM    1  C2  UNL     1      41.627  21.700  63.965  1.00  0.00     0.145 A 
HETATM    2  N2  UNL     1      42.726  21.715  64.720  1.00  0.00    -0.340 N 
ATOM      3  H2  UNL     1      43.357  20.924  64.593  1.00  0.00     0.168 HD
HETATM    4  C3  UNL     1      43.113  22.613  65.614  1.00  0.00     0.020 A 
HETATM    5  C4  UNL     1      44.416  22.410  66.353  1.00  0.00     0.069 C 
HETATM    6  C5  UNL     1      42.437  23.762  65.965  1.00  0.00     0.017 A 
HETATM    7  C6  UNL     1      42.700  24.801  66.874  1.00  0.00     0.006 A 
HETATM    8  C7  UNL     1      43.621  25.239  67.806  1.00  0.00     0.031 A 
HETATM    9  C8  UNL     1      43.149  26.414  68.313  1.00  0.00     0.089 A 
HETATM   10  N3  UNL     1      41.978  26.700  67.721  1.00  0.00    -0.365 N 
ATOM     11  H3  UNL     1      41.405  27.521  67.911  1.00  0.00     0.165 HD
HETATM   12  C9  UNL     1      41.684  25.732  66.841  1.00  0.00     0.051 A 
HETATM   13  C10 UNL     1      40.751  25.327  65.926  1.00  0.00    -0.005 A 
HETATM   14  C15 UNL     1      41.163  24.139  65.369  1.00  0.00     0.030 A 
HETATM   15  S1  UNL     1      40.578  23.048  64.203  1.00  0.00    -0.053 SA
ENDROOT
BRANCH  13  16
HETATM   16  C11 UNL     1      39.515  26.021  65.577  1.00  0.00    -0.021 C 
HETATM   17  C12 UNL     1      38.412  25.122  65.123  1.00  0.00     0.019 C 
HETATM   18  C13 UNL     1      39.754  27.050  64.490  1.00  0.00     0.019 C 
HETATM   19  C14 UNL     1      39.003  26.790  66.790  1.00  0.00     0.019 C 
ENDBRANCH  13  16
BRANCH   1  20
HETATM   20  N1  UNL     1      41.347  20.770  63.121  1.00  0.00    -0.375 N 
HETATM   21  C1  UNL     1      41.778  20.723  61.768  1.00  0.00     0.148 C 
ATOM     22  H1  UNL     1      40.766  20.000  63.451  1.00  0.00     0.161 HD
ENDBRANCH   1  20
TORSDOF 2
ENDMDL
MODEL 4
REMARK VINA RESULT: -8.442334483      1.412      3.856
REMARK  2 active torsions:
REMARK  status: ('A' for Active; 'I' for Inactive)
REMARK    1  A    between atoms: N1_2  and  C2_4 
REMARK    2  A    between atoms: C10_16  and  C11_17 
ROOT
HETATM    1  C2  UNL     1      40.967  21.372  62.968  1.00  0.00     0.145 A 
HETATM    2  N2  UNL     1      40.077  22.358  62.850  1.00  0.00    -0.340 N 
ATOM      3  H2  UNL     1      39.408  22.256  62.086  1.00  0.00     0.168 HD
HETATM    4  C3  UNL     1      39.939  23.452  63.583  1.00  0.00     0.020 A 
HETATM    5  C4  UNL     1      38.840  24.435  63.250  1.00  0.00     0.069 C 
HETATM    6  C5  UNL     1      40.715  23.817  64.663  1.00  0.00     0.017 A 
HETATM    7  C6  UNL     1      40.706  24.919  65.534  1.00  0.00     0.006 A 
HETATM    8  C7  UNL     1      40.043  26.100  65.804  1.00  0.00     0.031 A 
HETATM    9  C8  UNL     1      40.659  26.667  66.882  1.00  0.00     0.089 A 
HETATM   10  N3  UNL     1      41.667  25.870  67.271  1.00  0.00    -0.365 N 
ATOM     11  H3  UNL     1      42.295  26.050  68.054  1.00  0.00     0.165 HD
HETATM   12  C9  UNL     1      41.715  24.800  66.465  1.00  0.00     0.051 A 
HETATM   13  C10 UNL     1      42.394  23.636  66.225  1.00  0.00    -0.005 A 
HETATM   14  C15 UNL     1      41.825  23.006  65.144  1.00  0.00     0.030 A 
HETATM   15  S1  UNL     1      42.086  21.572  64.266  1.00  0.00    -0.053 SA
ENDROOT
BRANCH  13  16
HETATM   16  C11 UNL     1      43.536  23.123  66.977  1.00  0.00    -0.021 C 
HETATM   17  C12 UNL     1      44.223  24.143  67.824  1.00  0.00     0.019 C 
HETATM   18  C13 UNL     1      44.571  22.515  66.050  1.00  0.00     0.019 C 
HETATM   19  C14 UNL     1      43.075  22.000  67.899  1.00  0.00     0.019 C 
ENDBRANCH  13  16
BRANCH   1  20
HETATM   20  N1  UNL     1      41.011  20.345  62.194  1.00  0.00    -0.375 N 
HETATM   21  C1  UNL     1      40.202  19.185  62.312  1.00  0.00     0.148 C 
ATOM     22  H1  UNL     1      41.686  20.367  61.429  1.00  0.00     0.161 HD
ENDBRANCH   1  20
TORSDOF 2
ENDMDL
MODEL 5
REMARK VINA RESULT: -8.405364281      1.831      3.959
REMARK  2 active torsions:
REMARK  status: ('A' for Active; 'I' for Inactive)
REMARK    1  A    between atoms: N1_2  and  C2_4 
REMARK    2  A    between atoms: C10_16  and  C11_17 
ROOT
HETATM    1  C2  UNL     1      43.439  22.259  65.782  1.00  0.00     0.145 A 
HETATM    2  N2  UNL     1      42.800  21.734  64.735  1.00  0.00    -0.340 N 
ATOM      3  H2  UNL     1      43.234  20.906  64.327  1.00  0.00     0.168 HD
HETATM    4  C3  UNL     1      41.682  22.136  64.151  1.00  0.00     0.020 A 
HETATM    5  C4  UNL     1      41.146  21.367  62.965  1.00  0.00     0.069 C 
HETATM    6  C5  UNL     1      40.914  23.223  64.514  1.00  0.00     0.017 A 
HETATM    7  C6  UNL     1      39.725  23.779  64.013  1.00  0.00     0.006 A 
HETATM    8  C7  UNL     1      38.764  23.618  63.034  1.00  0.00     0.031 A 
HETATM    9  C8  UNL     1      37.855  24.623  63.198  1.00  0.00     0.089 A 
HETATM   10  N3  UNL     1      38.233  25.381  64.239  1.00  0.00    -0.365 N 
ATOM     11  H3  UNL     1      37.736  26.202  64.584  1.00  0.00     0.165 HD
HETATM   12  C9  UNL     1      39.369  24.887  64.751  1.00  0.00     0.051 A 
HETATM   13  C10 UNL     1      40.304  25.076  65.733  1.00  0.00    -0.005 A 
HETATM   14  C15 UNL     1      41.259  24.092  65.630  1.00  0.00     0.030 A 
HETATM   15  S1  UNL     1      42.685  23.658  66.450  1.00  0.00    -0.053 SA
ENDROOT
BRANCH  13  16
HETATM   16  C11 UNL     1      40.310  26.136  66.737  1.00  0.00    -0.021 C 
HETATM   17  C12 UNL     1      41.534  26.164  67.593  1.00  0.00     0.019 C 
HETATM   18  C13 UNL     1      39.106  26.029  67.651  1.00  0.00     0.019 C 
HETATM   19  C14 UNL     1      40.206  27.491  66.047  1.00  0.00     0.019 C 
ENDBRANCH  13  16
BRANCH   1  20
HETATM   20  N1  UNL     1      44.529  21.783  66.272  1.00  0.00    -0.375 N 
HETATM   21  C1  UNL     1      45.780  22.454  66.314  1.00  0.00     0.148 C 
ATOM     22  H1  UNL     1      44.492  20.842  66.665  1.00  0.00     0.161 HD
ENDBRANCH   1  20
TORSDOF 2
ENDMDL
