MODEL 1
REMARK VINA RESULT: -7.230199753      0.000      0.000
REMARK  6 active torsions:
REMARK  status: ('A' for Active; 'I' for Inactive)
REMARK    1  A    between atoms: C2_2  and  N1_4 
REMARK    2  A    between atoms: C2_2  and  C10_20 
REMARK       I    between atoms: N1_4  and  C4_6 
REMARK    3  A    between atoms: C4_6  and  C5_8 
REMARK    4  A    between atoms: C5_8  and  N2_9 
REMARK    5  A    between atoms: N8_24  and  N9_25 
REMARK    6  A    between atoms: C11_28  and  N10_29 
ROOT
HETATM    1  N1  UNL     1      13.758  46.944 -46.999  1.00  0.00    -0.345 N 
ATOM      2  H1  UNL     1      14.000  46.009 -46.670  1.00  0.00     0.163 HD
HETATM    3  C4  UNL     1      13.535  47.122 -48.368  1.00  0.00     0.236 C 
HETATM    4  O1  UNL     1      13.236  48.253 -48.810  1.00  0.00    -0.272 OA
ENDROOT
BRANCH   1   5
HETATM    5  C2  UNL     1      13.665  48.007 -46.019  1.00  0.00     0.073 C 
HETATM    6  C1  UNL     1      14.628  49.096 -46.488  1.00  0.00     0.045 C 
HETATM    7  C3  UNL     1      14.186  47.483 -44.706  1.00  0.00     0.045 C 
BRANCH   5   8
HETATM    8  C10 UNL     1      12.314  48.553 -45.897  1.00  0.00     0.098 A 
HETATM    9  N6  UNL     1      11.902  49.733 -46.388  1.00  0.00    -0.280 N 
HETATM   10  N7  UNL     1      10.608  49.911 -46.093  1.00  0.00     0.002 NA
ATOM     11  H6  UNL     1      12.485  50.391 -46.906  1.00  0.00     0.184 HD
HETATM   12  N8  UNL     1      10.192  48.839 -45.408  1.00  0.00    -0.168 N 
HETATM   13  C11 UNL     1      11.226  47.991 -45.277  1.00  0.00     0.163 A 
BRANCH  12  14
HETATM   14  N9  UNL     1       8.897  48.619 -44.904  1.00  0.00    -0.324 N 
ATOM     15  H92 UNL     1       8.433  49.200 -44.206  1.00  0.00     0.178 HD
ATOM     16  H91 UNL     1       8.264  47.863 -45.167  1.00  0.00     0.178 HD
ENDBRANCH  12  14
BRANCH  13  17
HETATM   17  N10 UNL     1      11.147  46.859 -44.663  1.00  0.00    -0.381 N 
ATOM     18 2H10 UNL     1      11.174  46.766 -43.648  1.00  0.00     0.157 HD
ATOM     19 1H10 UNL     1      11.049  45.925 -45.062  1.00  0.00     0.157 HD
ENDBRANCH  13  17
ENDBRANCH   5   8
ENDBRANCH   1   5
BRANCH   3  20
HETATM   20  C5  UNL     1      13.650  45.985 -49.302  1.00  0.00     0.234 C 
BRANCH  20  21
HETATM   21  N2  UNL     1      14.824  46.036 -50.118  1.00  0.00    -0.317 N 
HETATM   22  C6  UNL     1      16.082  46.257 -49.718  1.00  0.00     0.186 A 
HETATM   23  N3  UNL     1      16.913  46.227 -50.801  1.00  0.00    -0.335 N 
HETATM   24  C7  UNL     1      16.157  45.985 -51.874  1.00  0.00     0.152 A 
ATOM     25  H3  UNL     1      17.924  46.363 -50.792  1.00  0.00     0.168 HD
HETATM   26  N4  UNL     1      16.139  45.807 -53.208  1.00  0.00    -0.335 N 
HETATM   27  C9  UNL     1      14.857  45.865 -51.447  1.00  0.00     0.154 A 
HETATM   28  C8  UNL     1      14.873  45.585 -53.601  1.00  0.00     0.183 A 
ATOM     29  H4  UNL     1      16.954  45.837 -53.820  1.00  0.00     0.168 HD
HETATM   30  N5  UNL     1      14.087  45.621 -52.520  1.00  0.00    -0.335 N 
ATOM     31  H5  UNL     1      13.077  45.486 -52.511  1.00  0.00     0.168 HD
ENDBRANCH  20  21
ENDBRANCH   3  20
TORSDOF 6
ENDMDL
MODEL 2
REMARK VINA RESULT: -7.175036055      1.266      1.796
REMARK  6 active torsions:
REMARK  status: ('A' for Active; 'I' for Inactive)
REMARK    1  A    between atoms: C2_2  and  N1_4 
REMARK    2  A    between atoms: C2_2  and  C10_20 
REMARK       I    between atoms: N1_4  and  C4_6 
REMARK    3  A    between atoms: C4_6  and  C5_8 
REMARK    4  A    between atoms: C5_8  and  N2_9 
REMARK    5  A    between atoms: N8_24  and  N9_25 
REMARK    6  A    between atoms: C11_28  and  N10_29 
ROOT
HETATM    1  N1  UNL     1      14.098  47.442 -48.097  1.00  0.00    -0.345 N 
ATOM      2  H1  UNL     1      14.605  48.268 -48.416  1.00  0.00     0.163 HD
HETATM    3  C4  UNL     1      13.417  46.681 -49.053  1.00  0.00     0.236 C 
HETATM    4  O1  UNL     1      12.783  45.662 -48.703  1.00  0.00    -0.272 OA
ENDROOT
BRANCH   1   5
HETATM    5  C2  UNL     1      14.126  47.129 -46.683  1.00  0.00     0.073 C 
HETATM    6  C1  UNL     1      15.008  48.193 -46.034  1.00  0.00     0.045 C 
HETATM    7  C3  UNL     1      14.822  45.803 -46.509  1.00  0.00     0.045 C 
BRANCH   5   8
HETATM    8  C10 UNL     1      12.798  47.139 -46.071  1.00  0.00     0.098 A 
HETATM    9  N6  UNL     1      12.109  46.053 -45.683  1.00  0.00    -0.280 N 
HETATM   10  N7  UNL     1      10.934  46.433 -45.165  1.00  0.00     0.002 NA
ATOM     11  H6  UNL     1      12.432  45.090 -45.770  1.00  0.00     0.184 HD
HETATM   12  N8  UNL     1      10.872  47.768 -45.223  1.00  0.00    -0.168 N 
HETATM   13  C11 UNL     1      12.009  48.222 -45.777  1.00  0.00     0.163 A 
BRANCH  12  14
HETATM   14  N9  UNL     1       9.807  48.576 -44.784  1.00  0.00    -0.324 N 
ATOM     15  H92 UNL     1       8.818  48.345 -44.879  1.00  0.00     0.178 HD
ATOM     16  H91 UNL     1       9.884  49.483 -44.322  1.00  0.00     0.178 HD
ENDBRANCH  12  14
BRANCH  13  17
HETATM   17  N10 UNL     1      12.257  49.474 -45.972  1.00  0.00    -0.381 N 
ATOM     18 2H10 UNL     1      12.616  50.096 -45.248  1.00  0.00     0.157 HD
ATOM     19 1H10 UNL     1      12.144  50.019 -46.827  1.00  0.00     0.157 HD
ENDBRANCH  13  17
ENDBRANCH   5   8
ENDBRANCH   1   5
BRANCH   3  20
HETATM   20  C5  UNL     1      13.438  47.069 -50.477  1.00  0.00     0.234 C 
BRANCH  20  21
HETATM   21  N2  UNL     1      14.715  46.883 -51.097  1.00  0.00    -0.317 N 
HETATM   22  C6  UNL     1      15.909  47.264 -50.628  1.00  0.00     0.186 A 
HETATM   23  N3  UNL     1      16.880  46.901 -51.516  1.00  0.00    -0.335 N 
HETATM   24  C7  UNL     1      16.275  46.293 -52.539  1.00  0.00     0.152 A 
ATOM     25  H3  UNL     1      17.882  47.064 -51.417  1.00  0.00     0.168 HD
HETATM   26  N4  UNL     1      16.438  45.682 -53.726  1.00  0.00    -0.335 N 
HETATM   27  C9  UNL     1      14.927  46.282 -52.276  1.00  0.00     0.154 A 
HETATM   28  C8  UNL     1      15.234  45.302 -54.190  1.00  0.00     0.183 A 
ATOM     29  H4  UNL     1      17.330  45.531 -54.198  1.00  0.00     0.168 HD
HETATM   30  N5  UNL     1      14.309  45.671 -53.299  1.00  0.00    -0.335 N 
ATOM     31  H5  UNL     1      13.304  45.515 -53.383  1.00  0.00     0.168 HD
ENDBRANCH  20  21
ENDBRANCH   3  20
TORSDOF 6
ENDMDL
MODEL 3
REMARK VINA RESULT: -7.153687613      1.743      2.621
REMARK  6 active torsions:
REMARK  status: ('A' for Active; 'I' for Inactive)
REMARK    1  A    between atoms: C2_2  and  N1_4 
REMARK    2  A    between atoms: C2_2  and  C10_20 
REMARK       I    between atoms: N1_4  and  C4_6 
REMARK    3  A    between atoms: C4_6  and  C5_8 
REMARK    4  A    between atoms: C5_8  and  N2_9 
REMARK    5  A    between atoms: N8_24  and  N9_25 
REMARK    6  A    between atoms: C11_28  and  N10_29 
ROOT
HETATM    1  N1  UNL     1      16.025  46.122 -47.642  1.00  0.00    -0.345 N 
ATOM      2  H1  UNL     1      16.642  45.315 -47.545  1.00  0.00     0.163 HD
HETATM    3  C4  UNL     1      15.798  46.624 -48.928  1.00  0.00     0.236 C 
HETATM    4  O1  UNL     1      15.048  47.611 -49.089  1.00  0.00    -0.272 OA
ENDROOT
BRANCH   1   5
HETATM    5  C2  UNL     1      15.437  46.679 -46.441  1.00  0.00     0.073 C 
HETATM    6  C1  UNL     1      15.727  48.178 -46.487  1.00  0.00     0.045 C 
HETATM    7  C3  UNL     1      16.173  46.117 -45.252  1.00  0.00     0.045 C 
BRANCH   5   8
HETATM    8  C10 UNL     1      13.995  46.451 -46.354  1.00  0.00     0.098 A 
HETATM    9  N6  UNL     1      13.278  45.673 -47.179  1.00  0.00    -0.280 N 
HETATM   10  N7  UNL     1      11.992  45.695 -46.807  1.00  0.00     0.002 NA
ATOM     11  H6  UNL     1      13.654  45.146 -47.967  1.00  0.00     0.184 HD
HETATM   12  N8  UNL     1      11.888  46.493 -45.737  1.00  0.00    -0.168 N 
HETATM   13  C11 UNL     1      13.109  46.969 -45.443  1.00  0.00     0.163 A 
BRANCH  12  14
HETATM   14  N9  UNL     1      10.710  46.795 -45.030  1.00  0.00    -0.324 N 
ATOM     15  H92 UNL     1       9.763  46.617 -45.364  1.00  0.00     0.178 HD
ATOM     16  H91 UNL     1      10.650  47.224 -44.106  1.00  0.00     0.178 HD
ENDBRANCH  12  14
BRANCH  13  17
HETATM   17  N10 UNL     1      13.344  47.770 -44.459  1.00  0.00    -0.381 N 
ATOM     18 2H10 UNL     1      14.230  47.799 -43.955  1.00  0.00     0.157 HD
ATOM     19 1H10 UNL     1      12.724  48.466 -44.044  1.00  0.00     0.157 HD
ENDBRANCH  13  17
ENDBRANCH   5   8
ENDBRANCH   1   5
BRANCH   3  20
HETATM   20  C5  UNL     1      16.436  45.997 -50.102  1.00  0.00     0.234 C 
BRANCH  20  21
HETATM   21  N2  UNL     1      15.523  45.732 -51.172  1.00  0.00    -0.317 N 
HETATM   22  C6  UNL     1      14.255  45.316 -51.072  1.00  0.00     0.186 A 
HETATM   23  N3  UNL     1      13.724  45.181 -52.322  1.00  0.00    -0.335 N 
HETATM   24  C7  UNL     1      14.676  45.516 -53.196  1.00  0.00     0.152 A 
ATOM     25  H3  UNL     1      12.776  44.880 -52.547  1.00  0.00     0.168 HD
HETATM   26  N4  UNL     1      14.996  45.659 -54.495  1.00  0.00    -0.335 N 
HETATM   27  C9  UNL     1      15.795  45.859 -52.478  1.00  0.00     0.154 A 
HETATM   28  C8  UNL     1      16.271  46.077 -54.585  1.00  0.00     0.183 A 
ATOM     29  H4  UNL     1      14.373  45.480 -55.282  1.00  0.00     0.168 HD
HETATM   30  N5  UNL     1      16.760  46.199 -53.347  1.00  0.00    -0.335 N 
ATOM     31  H5  UNL     1      17.704  46.499 -53.105  1.00  0.00     0.168 HD
ENDBRANCH  20  21
ENDBRANCH   3  20
TORSDOF 6
ENDMDL
MODEL 4
REMARK VINA RESULT: -6.831480536      3.051      4.153
REMARK  6 active torsions:
REMARK  status: ('A' for Active; 'I' for Inactive)
REMARK    1  A    between atoms: C2_2  and  N1_4 
REMARK    2  A    between atoms: C2_2  and  C10_20 
REMARK       I    between atoms: N1_4  and  C4_6 
REMARK    3  A    between atoms: C4_6  and  C5_8 
REMARK    4  A    between atoms: C5_8  and  N2_9 
REMARK    5  A    between atoms: N8_24  and  N9_25 
REMARK    6  A    between atoms: C11_28  and  N10_29 
ROOT
HETATM    1  N1  UNL     1      16.261  47.371 -46.788  1.00  0.00    -0.345 N 
ATOM      2  H1  UNL     1      16.874  48.096 -46.415  1.00  0.00     0.163 HD
HETATM    3  C4  UNL     1      16.025  47.355 -48.167  1.00  0.00     0.236 C 
HETATM    4  O1  UNL     1      15.279  46.482 -48.662  1.00  0.00    -0.272 OA
ENDROOT
BRANCH   1   5
HETATM    5  C2  UNL     1      15.687  46.419 -45.857  1.00  0.00     0.073 C 
HETATM    6  C1  UNL     1      16.228  46.800 -44.481  1.00  0.00     0.045 C 
HETATM    7  C3  UNL     1      16.227  45.052 -46.189  1.00  0.00     0.045 C 
BRANCH   5   8
HETATM    8  C10 UNL     1      14.225  46.446 -45.845  1.00  0.00     0.098 A 
HETATM    9  N6  UNL     1      13.424  45.609 -46.522  1.00  0.00    -0.280 N 
HETATM   10  N7  UNL     1      12.145  45.921 -46.279  1.00  0.00     0.002 NA
ATOM     11  H6  UNL     1      13.741  44.852 -47.128  1.00  0.00     0.184 HD
HETATM   12  N8  UNL     1      12.129  46.965 -45.442  1.00  0.00    -0.168 N 
HETATM   13  C11 UNL     1      13.399  47.304 -45.162  1.00  0.00     0.163 A 
BRANCH  12  14
HETATM   14  N9  UNL     1      10.989  47.611 -44.931  1.00  0.00    -0.324 N 
ATOM     15  H92 UNL     1      10.318  47.194 -44.286  1.00  0.00     0.178 HD
ATOM     16  H91 UNL     1      10.689  48.565 -45.136  1.00  0.00     0.178 HD
ENDBRANCH  12  14
BRANCH  13  17
HETATM   17  N10 UNL     1      13.722  48.277 -44.379  1.00  0.00    -0.381 N 
ATOM     18 2H10 UNL     1      14.542  48.264 -43.774  1.00  0.00     0.157 HD
ATOM     19 1H10 UNL     1      13.243  49.167 -44.241  1.00  0.00     0.157 HD
ENDBRANCH  13  17
ENDBRANCH   5   8
ENDBRANCH   1   5
BRANCH   3  20
HETATM   20  C5  UNL     1      16.650  48.361 -49.047  1.00  0.00     0.234 C 
BRANCH  20  21
HETATM   21  N2  UNL     1      15.961  49.616 -49.053  1.00  0.00    -0.317 N 
HETATM   22  C6  UNL     1      16.465  50.820 -48.752  1.00  0.00     0.186 A 
HETATM   23  N3  UNL     1      15.487  51.763 -48.879  1.00  0.00    -0.335 N 
HETATM   24  C7  UNL     1      14.374  51.132 -49.261  1.00  0.00     0.152 A 
ATOM     25  H3  UNL     1      15.587  52.764 -48.714  1.00  0.00     0.168 HD
HETATM   26  N4  UNL     1      13.075  51.262 -49.586  1.00  0.00    -0.335 N 
HETATM   27  C9  UNL     1      14.672  49.795 -49.370  1.00  0.00     0.154 A 
HETATM   28  C8  UNL     1      12.578  50.050 -49.888  1.00  0.00     0.183 A 
ATOM     29  H4  UNL     1      12.553  52.138 -49.602  1.00  0.00     0.168 HD
HETATM   30  N5  UNL     1      13.559  49.151 -49.754  1.00  0.00    -0.335 N 
ATOM     31  H5  UNL     1      13.475  48.148 -49.917  1.00  0.00     0.168 HD
ENDBRANCH  20  21
ENDBRANCH   3  20
TORSDOF 6
ENDMDL
MODEL 5
REMARK VINA RESULT: -6.807336296      1.757      2.752
REMARK  6 active torsions:
REMARK  status: ('A' for Active; 'I' for Inactive)
REMARK    1  A    between atoms: C2_2  and  N1_4 
REMARK    2  A    between atoms: C2_2  and  C10_20 
REMARK       I    between atoms: N1_4  and  C4_6 
REMARK    3  A    between atoms: C4_6  and  C5_8 
REMARK    4  A    between atoms: C5_8  and  N2_9 
REMARK    5  A    between atoms: N8_24  and  N9_25 
REMARK    6  A    between atoms: C11_28  and  N10_29 
ROOT
HETATM    1  N1  UNL     1      15.166  47.593 -49.019  1.00  0.00    -0.345 N 
ATOM      2  H1  UNL     1      14.986  48.017 -49.930  1.00  0.00     0.163 HD
HETATM    3  C4  UNL     1      15.989  46.463 -48.972  1.00  0.00     0.236 C 
HETATM    4  O1  UNL     1      16.234  45.914 -47.876  1.00  0.00    -0.272 OA
ENDROOT
BRANCH   1   5
HETATM    5  C2  UNL     1      14.555  48.198 -47.853  1.00  0.00     0.073 C 
HETATM    6  C1  UNL     1      13.936  49.508 -48.335  1.00  0.00     0.045 C 
HETATM    7  C3  UNL     1      15.649  48.552 -46.879  1.00  0.00     0.045 C 
BRANCH   5   8
HETATM    8  C10 UNL     1      13.528  47.353 -47.245  1.00  0.00     0.098 A 
HETATM    9  N6  UNL     1      13.108  46.171 -47.723  1.00  0.00    -0.280 N 
HETATM   10  N7  UNL     1      12.161  45.675 -46.916  1.00  0.00     0.002 NA
ATOM     11  H6  UNL     1      13.456  45.721 -48.569  1.00  0.00     0.184 HD
HETATM   12  N8  UNL     1      11.975  46.547 -45.918  1.00  0.00    -0.168 N 
HETATM   13  C11 UNL     1      12.807  47.586 -46.101  1.00  0.00     0.163 A 
BRANCH  12  14
HETATM   14  N9  UNL     1      11.069  46.415 -44.850  1.00  0.00    -0.324 N 
ATOM     15  H92 UNL     1      11.073  45.657 -44.167  1.00  0.00     0.178 HD
ATOM     16  H91 UNL     1      10.303  47.049 -44.622  1.00  0.00     0.178 HD
ENDBRANCH  12  14
BRANCH  13  17
HETATM   17  N10 UNL     1      12.869  48.599 -45.304  1.00  0.00    -0.381 N 
ATOM     18 2H10 UNL     1      13.732  48.915 -44.861  1.00  0.00     0.157 HD
ATOM     19 1H10 UNL     1      12.116  49.216 -45.000  1.00  0.00     0.157 HD
ENDBRANCH  13  17
ENDBRANCH   5   8
ENDBRANCH   1   5
BRANCH   3  20
HETATM   20  C5  UNL     1      16.574  45.909 -50.209  1.00  0.00     0.234 C 
BRANCH  20  21
HETATM   21  N2  UNL     1      15.613  45.698 -51.248  1.00  0.00    -0.317 N 
HETATM   22  C6  UNL     1      14.335  45.325 -51.108  1.00  0.00     0.186 A 
HETATM   23  N3  UNL     1      13.752  45.236 -52.339  1.00  0.00    -0.335 N 
HETATM   24  C7  UNL     1      14.682  45.557 -53.242  1.00  0.00     0.152 A 
ATOM     25  H3  UNL     1      12.787  44.973 -52.534  1.00  0.00     0.168 HD
HETATM   26  N4  UNL     1      14.958  45.718 -54.549  1.00  0.00    -0.335 N 
HETATM   27  C9  UNL     1      15.839  45.846 -52.560  1.00  0.00     0.154 A 
HETATM   28  C8  UNL     1      16.242  46.094 -54.680  1.00  0.00     0.183 A 
ATOM     29  H4  UNL     1      14.300  45.578 -55.315  1.00  0.00     0.168 HD
HETATM   30  N5  UNL     1      16.781  46.171 -53.459  1.00  0.00    -0.335 N 
ATOM     31  H5  UNL     1      17.744  46.433 -53.248  1.00  0.00     0.168 HD
ENDBRANCH  20  21
ENDBRANCH   3  20
TORSDOF 6
ENDMDL
