MODEL 1
REMARK VINA RESULT: -8.156389364      0.000      0.000
REMARK  4 active torsions:
REMARK  status: ('A' for Active; 'I' for Inactive)
REMARK    1  A    between atoms: O1_2  and  N1_3 
REMARK    2  A    between atoms: C3_5  and  C4_6 
REMARK    3  A    between atoms: C4_6  and  N2_7 
REMARK       I    between atoms: N2_7  and  C5_9 
REMARK    4  A    between atoms: C5_9  and  C6_11 
ROOT
HETATM    1  C6  UNL     1      16.528  45.586 -52.110  1.00  0.00     0.132 A 
HETATM    2  N3  UNL     1      17.669  45.418 -51.363  1.00  0.00    -0.293 N 
ATOM      3  H3  UNL     1      17.578  45.229 -50.365  1.00  0.00     0.187 HD
HETATM    4  N4  UNL     1      18.869  45.493 -51.882  1.00  0.00    -0.283 N 
ATOM      5  H4  UNL     1      19.688  45.361 -51.289  1.00  0.00     0.188 HD
HETATM    6  C7  UNL     1      19.024  45.741 -53.188  1.00  0.00     0.141 A 
HETATM    7  N5  UNL     1      20.216  45.816 -53.708  1.00  0.00    -0.383 N 
ATOM      8  H51 UNL     1      20.334  46.005 -54.703  1.00  0.00     0.157 HD
ATOM      9  H52 UNL     1      21.019  45.681 -53.095  1.00  0.00     0.157 HD
HETATM   10  C8  UNL     1      17.934  45.924 -54.019  1.00  0.00     0.095 A 
HETATM   11  N6  UNL     1      18.051  46.175 -55.318  1.00  0.00    -0.348 N 
ATOM     12  H6  UNL     1      18.978  46.237 -55.738  1.00  0.00     0.167 HD
HETATM   13  C9  UNL     1      16.963  46.348 -56.084  1.00  0.00     0.182 A 
HETATM   14  N7  UNL     1      15.724  46.280 -55.591  1.00  0.00    -0.338 N 
ATOM     15  H7  UNL     1      14.914  46.417 -56.197  1.00  0.00     0.168 HD
HETATM   16  C10 UNL     1      15.561  46.025 -54.262  1.00  0.00     0.115 A 
HETATM   17  N8  UNL     1      14.374  45.972 -53.831  1.00  0.00    -0.385 N 
ATOM     18  H81 UNL     1      14.253  45.781 -52.836  1.00  0.00     0.157 HD
ATOM     19  H82 UNL     1      13.563  46.108 -54.434  1.00  0.00     0.157 HD
HETATM   20  C11 UNL     1      16.654  45.842 -53.450  1.00  0.00     0.072 A 
ENDROOT
BRANCH   1  21
HETATM   21  C5  UNL     1      15.240  45.494 -51.478  1.00  0.00     0.271 C 
HETATM   22  N2  UNL     1      14.594  46.541 -50.781  1.00  0.00    -0.350 N 
ATOM     23  H2  UNL     1      15.077  47.438 -50.722  1.00  0.00     0.163 HD
HETATM   24  O2  UNL     1      14.624  44.378 -51.545  1.00  0.00    -0.266 OA
BRANCH  22  25
HETATM   25  C4  UNL     1      13.308  46.433 -50.151  1.00  0.00     0.183 C 
BRANCH  25  26
HETATM   26  C3  UNL     1      13.494  46.137 -48.707  1.00  0.00     0.064 A 
HETATM   27  C2  UNL     1      14.633  46.427 -47.958  1.00  0.00     0.173 A 
HETATM   28  N1  UNL     1      14.457  46.024 -46.692  1.00  0.00    -0.157 N 
HETATM   29  N10 UNL     1      13.231  45.491 -46.658  1.00  0.00    -0.216 N 
HETATM   30  N9  UNL     1      12.655  45.554 -47.839  1.00  0.00    -0.285 N 
ATOM     31  H10 UNL     1      12.798  45.090 -45.826  1.00  0.00     0.211 HD
ATOM     32  H9  UNL     1      11.720  45.212 -48.060  1.00  0.00     0.188 HD
BRANCH  28  33
HETATM   33  O1  UNL     1      15.324  46.111 -45.619  1.00  0.00    -0.263 OA
HETATM   34  C1  UNL     1      16.490  45.327 -45.570  1.00  0.00     0.240 C 
ENDBRANCH  28  33
ENDBRANCH  25  26
ENDBRANCH  22  25
ENDBRANCH   1  21
TORSDOF 4
ENDMDL
MODEL 2
REMARK VINA RESULT: -8.028799588      1.298      2.751
REMARK  4 active torsions:
REMARK  status: ('A' for Active; 'I' for Inactive)
REMARK    1  A    between atoms: O1_2  and  N1_3 
REMARK    2  A    between atoms: C3_5  and  C4_6 
REMARK    3  A    between atoms: C4_6  and  N2_7 
REMARK       I    between atoms: N2_7  and  C5_9 
REMARK    4  A    between atoms: C5_9  and  C6_11 
ROOT
HETATM    1  C6  UNL     1      15.211  45.622 -52.997  1.00  0.00     0.132 A 
HETATM    2  N3  UNL     1      14.687  45.810 -54.254  1.00  0.00    -0.293 N 
ATOM      3  H3  UNL     1      13.674  45.773 -54.373  1.00  0.00     0.187 HD
HETATM    4  N4  UNL     1      15.437  46.036 -55.303  1.00  0.00    -0.283 N 
ATOM      5  H4  UNL     1      15.004  46.170 -56.217  1.00  0.00     0.188 HD
HETATM    6  C7  UNL     1      16.768  46.089 -55.181  1.00  0.00     0.141 A 
HETATM    7  N5  UNL     1      17.518  46.313 -56.223  1.00  0.00    -0.383 N 
ATOM      8  H51 UNL     1      18.532  46.354 -56.130  1.00  0.00     0.157 HD
ATOM      9  H52 UNL     1      17.062  46.444 -57.126  1.00  0.00     0.157 HD
HETATM   10  C8  UNL     1      17.386  45.911 -53.957  1.00  0.00     0.095 A 
HETATM   11  N6  UNL     1      18.703  45.955 -53.799  1.00  0.00    -0.348 N 
ATOM     12  H6  UNL     1      19.302  46.129 -54.607  1.00  0.00     0.167 HD
HETATM   13  C9  UNL     1      19.257  45.774 -52.591  1.00  0.00     0.182 A 
HETATM   14  N7  UNL     1      18.526  45.541 -51.497  1.00  0.00    -0.338 N 
ATOM     15  H7  UNL     1      18.973  45.407 -50.591  1.00  0.00     0.168 HD
HETATM   16  C10 UNL     1      17.169  45.489 -51.617  1.00  0.00     0.115 A 
HETATM   17  N8  UNL     1      16.510  45.263 -50.562  1.00  0.00    -0.385 N 
ATOM     18  H81 UNL     1      15.495  45.223 -50.652  1.00  0.00     0.157 HD
ATOM     19  H82 UNL     1      16.955  45.127 -49.654  1.00  0.00     0.157 HD
HETATM   20  C11 UNL     1      16.570  45.671 -52.839  1.00  0.00     0.072 A 
ENDROOT
BRANCH   1  21
HETATM   21  C5  UNL     1      14.332  45.377 -51.886  1.00  0.00     0.271 C 
HETATM   22  N2  UNL     1      13.800  46.369 -51.029  1.00  0.00    -0.350 N 
ATOM     23  H2  UNL     1      14.055  47.339 -51.212  1.00  0.00     0.163 HD
HETATM   24  O2  UNL     1      14.003  44.167 -51.645  1.00  0.00    -0.266 OA
BRANCH  22  25
HETATM   25  C4  UNL     1      12.925  46.107 -49.920  1.00  0.00     0.183 C 
BRANCH  25  26
HETATM   26  C3  UNL     1      13.566  46.585 -48.668  1.00  0.00     0.064 A 
HETATM   27  C2  UNL     1      13.224  46.188 -47.376  1.00  0.00     0.173 A 
HETATM   28  N1  UNL     1      14.006  46.817 -46.487  1.00  0.00    -0.157 N 
HETATM   29  N10 UNL     1      14.818  47.590 -47.216  1.00  0.00    -0.216 N 
HETATM   30  N9  UNL     1      14.567  47.460 -48.501  1.00  0.00    -0.285 N 
ATOM     31  H10 UNL     1      15.537  48.200 -46.827  1.00  0.00     0.211 HD
ATOM     32  H9  UNL     1      15.057  47.948 -49.251  1.00  0.00     0.188 HD
BRANCH  28  33
HETATM   33  O1  UNL     1      14.009  46.724 -45.108  1.00  0.00    -0.263 OA
HETATM   34  C1  UNL     1      14.436  47.804 -44.315  1.00  0.00     0.240 C 
ENDBRANCH  28  33
ENDBRANCH  25  26
ENDBRANCH  22  25
ENDBRANCH   1  21
TORSDOF 4
ENDMDL
MODEL 3
REMARK VINA RESULT: -7.987857174      1.375      2.812
REMARK  4 active torsions:
REMARK  status: ('A' for Active; 'I' for Inactive)
REMARK    1  A    between atoms: O1_2  and  N1_3 
REMARK    2  A    between atoms: C3_5  and  C4_6 
REMARK    3  A    between atoms: C4_6  and  N2_7 
REMARK       I    between atoms: N2_7  and  C5_9 
REMARK    4  A    between atoms: C5_9  and  C6_11 
ROOT
HETATM    1  C6  UNL     1      15.195  45.608 -53.005  1.00  0.00     0.132 A 
HETATM    2  N3  UNL     1      14.702  45.793 -54.275  1.00  0.00    -0.293 N 
ATOM      3  H3  UNL     1      13.693  45.745 -54.421  1.00  0.00     0.187 HD
HETATM    4  N4  UNL     1      15.476  46.030 -55.304  1.00  0.00    -0.283 N 
ATOM      5  H4  UNL     1      15.067  46.162 -56.228  1.00  0.00     0.188 HD
HETATM    6  C7  UNL     1      16.803  46.098 -55.147  1.00  0.00     0.141 A 
HETATM    7  N5  UNL     1      17.578  46.333 -56.168  1.00  0.00    -0.383 N 
ATOM      8  H51 UNL     1      18.589  46.385 -56.048  1.00  0.00     0.157 HD
ATOM      9  H52 UNL     1      17.144  46.462 -57.082  1.00  0.00     0.157 HD
HETATM   10  C8  UNL     1      17.391  45.924 -53.907  1.00  0.00     0.095 A 
HETATM   11  N6  UNL     1      18.703  45.982 -53.714  1.00  0.00    -0.348 N 
ATOM     12  H6  UNL     1      19.321  46.165 -54.505  1.00  0.00     0.167 HD
HETATM   13  C9  UNL     1      19.227  45.804 -52.492  1.00  0.00     0.182 A 
HETATM   14  N7  UNL     1      18.470  45.560 -51.419  1.00  0.00    -0.338 N 
ATOM     15  H7  UNL     1      18.895  45.428 -50.501  1.00  0.00     0.168 HD
HETATM   16  C10 UNL     1      17.117  45.492 -51.574  1.00  0.00     0.115 A 
HETATM   17  N8  UNL     1      16.434  45.256 -50.538  1.00  0.00    -0.385 N 
ATOM     18  H81 UNL     1      15.422  45.205 -50.654  1.00  0.00     0.157 HD
ATOM     19  H82 UNL     1      16.855  45.123 -49.619  1.00  0.00     0.157 HD
HETATM   20  C11 UNL     1      16.549  45.671 -52.812  1.00  0.00     0.072 A 
ENDROOT
BRANCH   1  21
HETATM   21  C5  UNL     1      14.290  45.349 -51.919  1.00  0.00     0.271 C 
HETATM   22  N2  UNL     1      13.721  46.333 -51.076  1.00  0.00    -0.350 N 
ATOM     23  H2  UNL     1      13.968  47.307 -51.251  1.00  0.00     0.163 HD
HETATM   24  O2  UNL     1      13.971  44.135 -51.687  1.00  0.00    -0.266 OA
BRANCH  22  25
HETATM   25  C4  UNL     1      12.820  46.058 -49.991  1.00  0.00     0.183 C 
BRANCH  25  26
HETATM   26  C3  UNL     1      13.458  46.464 -48.711  1.00  0.00     0.064 A 
HETATM   27  C2  UNL     1      14.163  47.647 -48.494  1.00  0.00     0.173 A 
HETATM   28  N1  UNL     1      14.600  47.687 -47.228  1.00  0.00    -0.157 N 
HETATM   29  N10 UNL     1      14.173  46.549 -46.671  1.00  0.00    -0.216 N 
HETATM   30  N9  UNL     1      13.500  45.823 -47.536  1.00  0.00    -0.285 N 
ATOM     31  H10 UNL     1      14.347  46.279 -45.702  1.00  0.00     0.211 HD
ATOM     32  H9  UNL     1      13.076  44.915 -47.342  1.00  0.00     0.188 HD
BRANCH  28  33
HETATM   33  O1  UNL     1      15.337  48.667 -46.589  1.00  0.00    -0.263 OA
HETATM   34  C1  UNL     1      14.780  49.931 -46.325  1.00  0.00     0.240 C 
ENDBRANCH  28  33
ENDBRANCH  25  26
ENDBRANCH  22  25
ENDBRANCH   1  21
TORSDOF 4
ENDMDL
MODEL 4
REMARK VINA RESULT: -7.683160188      2.597      7.492
REMARK  4 active torsions:
REMARK  status: ('A' for Active; 'I' for Inactive)
REMARK    1  A    between atoms: O1_2  and  N1_3 
REMARK    2  A    between atoms: C3_5  and  C4_6 
REMARK    3  A    between atoms: C4_6  and  N2_7 
REMARK       I    between atoms: N2_7  and  C5_9 
REMARK    4  A    between atoms: C5_9  and  C6_11 
ROOT
HETATM    1  C6  UNL     1      13.571  46.512 -48.144  1.00  0.00     0.132 A 
HETATM    2  N3  UNL     1      13.888  45.763 -47.036  1.00  0.00    -0.293 N 
ATOM      3  H3  UNL     1      14.068  44.766 -47.154  1.00  0.00     0.187 HD
HETATM    4  N4  UNL     1      13.967  46.280 -45.835  1.00  0.00    -0.283 N 
ATOM      5  H4  UNL     1      14.206  45.686 -45.041  1.00  0.00     0.188 HD
HETATM    6  C7  UNL     1      13.736  47.584 -45.646  1.00  0.00     0.141 A 
HETATM    7  N5  UNL     1      13.813  48.102 -44.454  1.00  0.00    -0.383 N 
ATOM      8  H51 UNL     1      13.637  49.096 -44.309  1.00  0.00     0.157 HD
ATOM      9  H52 UNL     1      14.054  47.488 -43.676  1.00  0.00     0.157 HD
HETATM   10  C8  UNL     1      13.410  48.417 -46.701  1.00  0.00     0.095 A 
HETATM   11  N6  UNL     1      13.171  49.714 -46.550  1.00  0.00    -0.348 N 
ATOM     12  H6  UNL     1      13.228  50.133 -45.621  1.00  0.00     0.167 HD
HETATM   13  C9  UNL     1      12.855  50.482 -47.604  1.00  0.00     0.182 A 
HETATM   14  N7  UNL     1      12.764  49.991 -48.843  1.00  0.00    -0.338 N 
ATOM     15  H7  UNL     1      12.522  50.598 -49.627  1.00  0.00     0.168 HD
HETATM   16  C10 UNL     1      13.002  48.664 -49.041  1.00  0.00     0.115 A 
HETATM   17  N8  UNL     1      12.903  48.235 -50.226  1.00  0.00    -0.385 N 
ATOM     18  H81 UNL     1      13.080  47.242 -50.373  1.00  0.00     0.157 HD
ATOM     19  H82 UNL     1      12.660  48.839 -51.011  1.00  0.00     0.157 HD
HETATM   20  C11 UNL     1      13.328  47.851 -47.983  1.00  0.00     0.072 A 
ENDROOT
BRANCH   1  21
HETATM   21  C5  UNL     1      13.499  45.883 -49.435  1.00  0.00     0.271 C 
HETATM   22  N2  UNL     1      14.587  45.706 -50.321  1.00  0.00    -0.350 N 
ATOM     23  H2  UNL     1      15.500  46.048 -50.024  1.00  0.00     0.163 HD
HETATM   24  O2  UNL     1      12.362  45.449 -49.820  1.00  0.00    -0.266 OA
BRANCH  22  25
HETATM   25  C4  UNL     1      14.497  45.078 -51.610  1.00  0.00     0.183 C 
BRANCH  25  26
HETATM   26  C3  UNL     1      15.095  45.974 -52.633  1.00  0.00     0.064 A 
HETATM   27  C2  UNL     1      15.011  45.801 -54.014  1.00  0.00     0.173 A 
HETATM   28  N1  UNL     1      15.663  46.794 -54.635  1.00  0.00    -0.157 N 
HETATM   29  N10 UNL     1      16.142  47.568 -53.656  1.00  0.00    -0.216 N 
HETATM   30  N9  UNL     1      15.813  47.094 -52.474  1.00  0.00    -0.285 N 
ATOM     31  H10 UNL     1      16.692  48.415 -53.805  1.00  0.00     0.211 HD
ATOM     32  H9  UNL     1      16.065  47.512 -51.578  1.00  0.00     0.188 HD
BRANCH  28  33
HETATM   33  O1  UNL     1      15.834  47.014 -55.989  1.00  0.00    -0.263 OA
HETATM   34  C1  UNL     1      15.530  48.262 -56.560  1.00  0.00     0.240 C 
ENDBRANCH  28  33
ENDBRANCH  25  26
ENDBRANCH  22  25
ENDBRANCH   1  21
TORSDOF 4
ENDMDL
MODEL 5
REMARK VINA RESULT: -7.674197729      2.348      3.686
REMARK  4 active torsions:
REMARK  status: ('A' for Active; 'I' for Inactive)
REMARK    1  A    between atoms: O1_2  and  N1_3 
REMARK    2  A    between atoms: C3_5  and  C4_6 
REMARK    3  A    between atoms: C4_6  and  N2_7 
REMARK       I    between atoms: N2_7  and  C5_9 
REMARK    4  A    between atoms: C5_9  and  C6_11 
ROOT
HETATM    1  C6  UNL     1      15.450  45.717 -53.057  1.00  0.00     0.132 A 
HETATM    2  N3  UNL     1      14.844  45.900 -54.276  1.00  0.00    -0.293 N 
ATOM      3  H3  UNL     1      13.824  45.905 -54.321  1.00  0.00     0.187 HD
HETATM    4  N4  UNL     1      15.523  46.068 -55.383  1.00  0.00    -0.283 N 
ATOM      5  H4  UNL     1      15.031  46.201 -56.266  1.00  0.00     0.188 HD
HETATM    6  C7  UNL     1      16.861  46.065 -55.359  1.00  0.00     0.141 A 
HETATM    7  N5  UNL     1      17.540  46.231 -56.458  1.00  0.00    -0.383 N 
ATOM      8  H51 UNL     1      18.560  46.229 -56.441  1.00  0.00     0.157 HD
ATOM      9  H52 UNL     1      17.025  46.362 -57.329  1.00  0.00     0.157 HD
HETATM   10  C8  UNL     1      17.559  45.887 -54.179  1.00  0.00     0.095 A 
HETATM   11  N6  UNL     1      18.885  45.876 -54.119  1.00  0.00    -0.348 N 
ATOM     12  H6  UNL     1      19.430  46.004 -54.972  1.00  0.00     0.167 HD
HETATM   13  C9  UNL     1      19.518  45.697 -52.950  1.00  0.00     0.182 A 
HETATM   14  N7  UNL     1      18.860  45.522 -51.800  1.00  0.00    -0.338 N 
ATOM     15  H7  UNL     1      19.367  45.388 -50.926  1.00  0.00     0.168 HD
HETATM   16  C10 UNL     1      17.497  45.527 -51.819  1.00  0.00     0.115 A 
HETATM   17  N8  UNL     1      16.909  45.355 -50.714  1.00  0.00    -0.385 N 
ATOM     18  H81 UNL     1      15.890  45.358 -50.729  1.00  0.00     0.157 HD
ATOM     19  H82 UNL     1      17.413  45.220 -49.838  1.00  0.00     0.157 HD
HETATM   20  C11 UNL     1      16.819  45.708 -53.000  1.00  0.00     0.072 A 
ENDROOT
BRANCH   1  21
HETATM   21  C5  UNL     1      14.646  45.536 -51.879  1.00  0.00     0.271 C 
HETATM   22  N2  UNL     1      14.230  46.568 -51.006  1.00  0.00    -0.350 N 
ATOM     23  H2  UNL     1      14.520  47.521 -51.227  1.00  0.00     0.163 HD
HETATM   24  O2  UNL     1      14.275  44.349 -51.589  1.00  0.00    -0.266 OA
BRANCH  22  25
HETATM   25  C4  UNL     1      13.429  46.371 -49.829  1.00  0.00     0.183 C 
BRANCH  25  26
HETATM   26  C3  UNL     1      13.291  47.663 -49.109  1.00  0.00     0.064 A 
HETATM   27  C2  UNL     1      13.172  48.917 -49.705  1.00  0.00     0.173 A 
HETATM   28  N1  UNL     1      13.067  49.860 -48.758  1.00  0.00    -0.157 N 
HETATM   29  N10 UNL     1      13.120  49.201 -47.596  1.00  0.00    -0.216 N 
HETATM   30  N9  UNL     1      13.252  47.907 -47.792  1.00  0.00    -0.285 N 
ATOM     31  H10 UNL     1      13.066  49.642 -46.678  1.00  0.00     0.211 HD
ATOM     32  H9  UNL     1      13.314  47.201 -47.058  1.00  0.00     0.188 HD
BRANCH  28  33
HETATM   33  O1  UNL     1      12.934  51.228 -48.899  1.00  0.00    -0.263 OA
HETATM   34  C1  UNL     1      12.968  51.828 -50.171  1.00  0.00     0.240 C 
ENDBRANCH  28  33
ENDBRANCH  25  26
ENDBRANCH  22  25
ENDBRANCH   1  21
TORSDOF 4
ENDMDL
