MODEL 1
REMARK VINA RESULT: -4.800280644      0.000      0.000
REMARK  15 active torsions:
REMARK  status: ('A' for Active; 'I' for Inactive)
REMARK    1  A    between atoms: O1_2  and  C2_3 
REMARK    2  A    between atoms: C4_5  and  O2_6 
REMARK    3  A    between atoms: C6_9  and  O3_10 
REMARK    4  A    between atoms: O3_10  and  C7_11 
REMARK    5  A    between atoms: C7_11  and  C8_12 
REMARK    6  A    between atoms: C8_12  and  C9_13 
REMARK    7  A    between atoms: C8_12  and  C10_16 
REMARK    8  A    between atoms: C9_13  and  O4_14 
REMARK    9  A    between atoms: C11_17  and  O5_18 
REMARK   10  A    between atoms: C12_20  and  O6_21 
REMARK   11  A    between atoms: C14_23  and  O7_24 
REMARK   12  A    between atoms: C15_26  and  O8_27 
REMARK   13  A    between atoms: C17_29  and  C18_30 
REMARK   14  A    between atoms: C18_30  and  O9_31 
REMARK   15  A    between atoms: C18_30  and  C19_33 
ROOT
HETATM    1  C10 UNL     1      18.551  35.875   7.018  1.00  0.00    -0.002 A 
HETATM    2  C11 UNL     1      17.415  36.490   6.473  1.00  0.00     0.109 A 
HETATM    3  C12 UNL     1      17.083  36.437   5.144  1.00  0.00     0.138 A 
HETATM    4  C14 UNL     1      17.912  35.748   4.308  1.00  0.00     0.136 A 
HETATM    5  C15 UNL     1      19.071  35.114   4.793  1.00  0.00     0.114 A 
HETATM    6  C17 UNL     1      19.364  35.187   6.106  1.00  0.00     0.023 A 
ENDROOT
BRANCH   1   7
HETATM    7  C8  UNL     1      18.761  36.042   8.443  1.00  0.00     0.070 C 
BRANCH   7   8
HETATM    8  C7  UNL     1      19.833  37.108   8.790  1.00  0.00     0.187 C 
BRANCH   8   9
HETATM    9  O3  UNL     1      20.706  36.643   9.767  1.00  0.00    -0.350 OA
BRANCH   9  10
HETATM   10  C6  UNL     1      20.855  37.111  11.052  1.00  0.00     0.074 A 
HETATM   11  C5  UNL     1      19.759  37.037  11.925  1.00  0.00     0.073 A 
HETATM   12  C4  UNL     1      19.820  37.469  13.224  1.00  0.00     0.070 A 
HETATM   13  C3  UNL     1      20.998  37.993  13.689  1.00  0.00     0.073 A 
HETATM   14  C2  UNL     1      22.126  38.093  12.869  1.00  0.00     0.073 A 
HETATM   15  C20 UNL     1      22.014  37.652  11.583  1.00  0.00     0.073 A 
BRANCH  12  16
HETATM   16  O2  UNL     1      18.754  37.407  14.098  1.00  0.00    -0.361 OA
ATOM     17  H2  UNL     1      18.161  36.669  14.021  1.00  0.00     0.217 HD
ENDBRANCH  12  16
BRANCH  14  18
HETATM   18  O1  UNL     1      23.290  38.619  13.380  1.00  0.00    -0.356 OA
HETATM   19  C1  UNL     1      24.430  38.969  12.650  1.00  0.00     0.210 C 
ENDBRANCH  14  18
ENDBRANCH   9  10
ENDBRANCH   8   9
ENDBRANCH   7   8
BRANCH   7  20
HETATM   20  C9  UNL     1      18.985  34.827   9.246  1.00  0.00     0.175 C 
BRANCH  20  21
HETATM   21  O4  UNL     1      18.000  33.862   8.896  1.00  0.00    -0.400 OA
ATOM     22  H4  UNL     1      17.571  33.563   9.689  1.00  0.00     0.209 HD
ENDBRANCH  20  21
ENDBRANCH   7  20
ENDBRANCH   1   7
BRANCH   2  23
HETATM   23  O5  UNL     1      16.553  37.195   7.302  1.00  0.00    -0.357 OA
ATOM     24  H5  UNL     1      16.095  37.957   6.964  1.00  0.00     0.217 HD
ENDBRANCH   2  23
BRANCH   6  25
HETATM   25  C18 UNL     1      20.618  34.646   6.672  1.00  0.00     0.215 C 
BRANCH  25  26
HETATM   26  O9  UNL     1      21.559  34.982   5.560  1.00  0.00    -0.384 OA
ATOM     27  H9  UNL     1      21.795  35.867   5.813  1.00  0.00     0.211 HD
ENDBRANCH  25  26
BRANCH  25  28
HETATM   28  C19 UNL     1      20.807  33.209   6.764  1.00  0.00     0.267 C 
HETATM   29  O10 UNL     1      20.617  32.622   7.825  1.00  0.00    -0.304 OA
ENDBRANCH  25  28
ENDBRANCH   6  25
BRANCH   3  30
HETATM   30  O6  UNL     1      15.936  37.055   4.621  1.00  0.00    -0.351 OA
HETATM   31  C13 UNL     1      16.115  38.344   4.070  1.00  0.00     0.210 C 
ENDBRANCH   3  30
BRANCH   5  32
HETATM   32  O8  UNL     1      19.792  34.462   3.799  1.00  0.00    -0.352 OA
HETATM   33  C16 UNL     1      19.133  34.258   2.516  1.00  0.00     0.210 C 
ENDBRANCH   5  32
BRANCH   4  34
HETATM   34  O7  UNL     1      17.606  35.676   2.978  1.00  0.00    -0.356 OA
ATOM     35  H7  UNL     1      18.129  35.121   2.412  1.00  0.00     0.218 HD
ENDBRANCH   4  34
TORSDOF 15
ENDMDL
MODEL 2
REMARK VINA RESULT: -4.032593808      1.202      1.829
REMARK  15 active torsions:
REMARK  status: ('A' for Active; 'I' for Inactive)
REMARK    1  A    between atoms: O1_2  and  C2_3 
REMARK    2  A    between atoms: C4_5  and  O2_6 
REMARK    3  A    between atoms: C6_9  and  O3_10 
REMARK    4  A    between atoms: O3_10  and  C7_11 
REMARK    5  A    between atoms: C7_11  and  C8_12 
REMARK    6  A    between atoms: C8_12  and  C9_13 
REMARK    7  A    between atoms: C8_12  and  C10_16 
REMARK    8  A    between atoms: C9_13  and  O4_14 
REMARK    9  A    between atoms: C11_17  and  O5_18 
REMARK   10  A    between atoms: C12_20  and  O6_21 
REMARK   11  A    between atoms: C14_23  and  O7_24 
REMARK   12  A    between atoms: C15_26  and  O8_27 
REMARK   13  A    between atoms: C17_29  and  C18_30 
REMARK   14  A    between atoms: C18_30  and  O9_31 
REMARK   15  A    between atoms: C18_30  and  C19_33 
ROOT
HETATM    1  C10 UNL     1      18.639  35.806   7.500  1.00  0.00    -0.002 A 
HETATM    2  C11 UNL     1      17.527  36.465   6.957  1.00  0.00     0.109 A 
HETATM    3  C12 UNL     1      17.205  36.444   5.626  1.00  0.00     0.138 A 
HETATM    4  C14 UNL     1      18.018  35.742   4.784  1.00  0.00     0.136 A 
HETATM    5  C15 UNL     1      19.153  35.064   5.267  1.00  0.00     0.114 A 
HETATM    6  C17 UNL     1      19.437  35.106   6.584  1.00  0.00     0.023 A 
ENDROOT
BRANCH   1   7
HETATM    7  C8  UNL     1      18.843  35.943   8.930  1.00  0.00     0.070 C 
BRANCH   7   8
HETATM    8  C7  UNL     1      20.052  36.842   9.299  1.00  0.00     0.187 C 
BRANCH   8   9
HETATM    9  O3  UNL     1      19.994  37.239  10.630  1.00  0.00    -0.350 OA
BRANCH   9  10
HETATM   10  C6  UNL     1      21.015  37.744  11.401  1.00  0.00     0.074 A 
HETATM   11  C5  UNL     1      22.301  37.205  11.249  1.00  0.00     0.073 A 
HETATM   12  C4  UNL     1      23.378  37.653  11.967  1.00  0.00     0.070 A 
HETATM   13  C3  UNL     1      23.193  38.668  12.868  1.00  0.00     0.073 A 
HETATM   14  C2  UNL     1      21.936  39.248  13.065  1.00  0.00     0.073 A 
HETATM   15  C20 UNL     1      20.895  38.766  12.329  1.00  0.00     0.073 A 
BRANCH  12  16
HETATM   16  O2  UNL     1      24.651  37.135  11.834  1.00  0.00    -0.361 OA
ATOM     17  H2  UNL     1      25.291  37.358  12.500  1.00  0.00     0.217 HD
ENDBRANCH  12  16
BRANCH  14  18
HETATM   18  O1  UNL     1      21.797  40.271  13.976  1.00  0.00    -0.356 OA
HETATM   19  C1  UNL     1      22.731  40.647  14.946  1.00  0.00     0.210 C 
ENDBRANCH  14  18
ENDBRANCH   9  10
ENDBRANCH   8   9
ENDBRANCH   7   8
BRANCH   7  20
HETATM   20  C9  UNL     1      18.872  34.709   9.735  1.00  0.00     0.175 C 
BRANCH  20  21
HETATM   21  O4  UNL     1      18.314  34.986  11.014  1.00  0.00    -0.400 OA
ATOM     22  H4  UNL     1      18.851  34.571  11.678  1.00  0.00     0.209 HD
ENDBRANCH  20  21
ENDBRANCH   7  20
ENDBRANCH   1   7
BRANCH   2  23
HETATM   23  O5  UNL     1      16.682  37.184   7.791  1.00  0.00    -0.357 OA
ATOM     24  H5  UNL     1      16.561  36.904   8.692  1.00  0.00     0.217 HD
ENDBRANCH   2  23
BRANCH   6  25
HETATM   25  C18 UNL     1      20.669  34.517   7.150  1.00  0.00     0.215 C 
BRANCH  25  26
HETATM   26  O9  UNL     1      21.655  34.962   6.118  1.00  0.00    -0.384 OA
ATOM     27  H9  UNL     1      21.408  35.877   6.047  1.00  0.00     0.211 HD
ENDBRANCH  25  26
BRANCH  25  28
HETATM   28  C19 UNL     1      20.864  33.078   7.110  1.00  0.00     0.267 C 
HETATM   29  O10 UNL     1      20.575  32.383   8.079  1.00  0.00    -0.304 OA
ENDBRANCH  25  28
ENDBRANCH   6  25
BRANCH   3  30
HETATM   30  O6  UNL     1      16.081  37.106   5.104  1.00  0.00    -0.351 OA
HETATM   31  C13 UNL     1      16.340  38.156   4.194  1.00  0.00     0.210 C 
ENDBRANCH   3  30
BRANCH   5  32
HETATM   32  O8  UNL     1      19.860  34.406   4.268  1.00  0.00    -0.352 OA
HETATM   33  C16 UNL     1      19.297  34.421   2.925  1.00  0.00     0.210 C 
ENDBRANCH   5  32
BRANCH   4  34
HETATM   34  O7  UNL     1      17.720  35.702   3.451  1.00  0.00    -0.356 OA
ATOM     35  H7  UNL     1      17.463  34.876   3.059  1.00  0.00     0.218 HD
ENDBRANCH   4  34
TORSDOF 15
ENDMDL
MODEL 3
REMARK VINA RESULT: -3.843639706      2.916      6.178
REMARK  15 active torsions:
REMARK  status: ('A' for Active; 'I' for Inactive)
REMARK    1  A    between atoms: O1_2  and  C2_3 
REMARK    2  A    between atoms: C4_5  and  O2_6 
REMARK    3  A    between atoms: C6_9  and  O3_10 
REMARK    4  A    between atoms: O3_10  and  C7_11 
REMARK    5  A    between atoms: C7_11  and  C8_12 
REMARK    6  A    between atoms: C8_12  and  C9_13 
REMARK    7  A    between atoms: C8_12  and  C10_16 
REMARK    8  A    between atoms: C9_13  and  O4_14 
REMARK    9  A    between atoms: C11_17  and  O5_18 
REMARK   10  A    between atoms: C12_20  and  O6_21 
REMARK   11  A    between atoms: C14_23  and  O7_24 
REMARK   12  A    between atoms: C15_26  and  O8_27 
REMARK   13  A    between atoms: C17_29  and  C18_30 
REMARK   14  A    between atoms: C18_30  and  O9_31 
REMARK   15  A    between atoms: C18_30  and  C19_33 
ROOT
HETATM    1  C10 UNL     1      20.573  36.639  11.072  1.00  0.00    -0.002 A 
HETATM    2  C11 UNL     1      19.920  36.281  12.259  1.00  0.00     0.109 A 
HETATM    3  C12 UNL     1      18.912  35.355  12.325  1.00  0.00     0.138 A 
HETATM    4  C14 UNL     1      18.523  34.753  11.164  1.00  0.00     0.136 A 
HETATM    5  C15 UNL     1      19.136  35.074   9.939  1.00  0.00     0.114 A 
HETATM    6  C17 UNL     1      20.125  35.988   9.914  1.00  0.00     0.023 A 
ENDROOT
BRANCH   1   7
HETATM    7  C8  UNL     1      21.610  37.648  11.178  1.00  0.00     0.070 C 
BRANCH   7   8
HETATM    8  C7  UNL     1      22.760  37.253  12.141  1.00  0.00     0.187 C 
BRANCH   8   9
HETATM    9  O3  UNL     1      23.636  38.315  12.339  1.00  0.00    -0.350 OA
BRANCH   9  10
HETATM   10  C6  UNL     1      25.011  38.283  12.327  1.00  0.00     0.074 A 
HETATM   11  C5  UNL     1      25.705  39.420  11.889  1.00  0.00     0.073 A 
HETATM   12  C4  UNL     1      27.073  39.482  11.854  1.00  0.00     0.070 A 
HETATM   13  C3  UNL     1      27.792  38.389  12.263  1.00  0.00     0.073 A 
HETATM   14  C2  UNL     1      27.159  37.226  12.711  1.00  0.00     0.073 A 
HETATM   15  C20 UNL     1      25.796  37.213  12.725  1.00  0.00     0.073 A 
BRANCH  12  16
HETATM   16  O2  UNL     1      27.776  40.590  11.424  1.00  0.00    -0.361 OA
ATOM     17  H2  UNL     1      27.443  41.446  11.667  1.00  0.00     0.217 HD
ENDBRANCH  12  16
BRANCH  14  18
HETATM   18  O1  UNL     1      27.921  36.155  13.120  1.00  0.00    -0.356 OA
HETATM   19  C1  UNL     1      29.283  36.181  13.436  1.00  0.00     0.210 C 
ENDBRANCH  14  18
ENDBRANCH   9  10
ENDBRANCH   8   9
ENDBRANCH   7   8
BRANCH   7  20
HETATM   20  C9  UNL     1      21.187  39.034  11.444  1.00  0.00     0.175 C 
BRANCH  20  21
HETATM   21  O4  UNL     1      21.320  39.292  12.837  1.00  0.00    -0.400 OA
ATOM     22  H4  UNL     1      20.671  39.938  13.090  1.00  0.00     0.209 HD
ENDBRANCH  20  21
ENDBRANCH   7  20
ENDBRANCH   1   7
BRANCH   2  23
HETATM   23  O5  UNL     1      20.298  36.876  13.456  1.00  0.00    -0.357 OA
ATOM     24  H5  UNL     1      20.151  37.806  13.584  1.00  0.00     0.217 HD
ENDBRANCH   2  23
BRANCH   6  25
HETATM   25  C18 UNL     1      20.739  36.462   8.654  1.00  0.00     0.215 C 
BRANCH  25  26
HETATM   26  O9  UNL     1      19.902  37.676   8.411  1.00  0.00    -0.384 OA
ATOM     27  H9  UNL     1      20.362  38.299   8.963  1.00  0.00     0.211 HD
ENDBRANCH  25  26
BRANCH  25  28
HETATM   28  C19 UNL     1      20.515  35.725   7.423  1.00  0.00     0.267 C 
HETATM   29  O10 UNL     1      21.463  35.346   6.741  1.00  0.00    -0.304 OA
ENDBRANCH  25  28
ENDBRANCH   6  25
BRANCH   3  30
HETATM   30  O6  UNL     1      18.276  35.006  13.528  1.00  0.00    -0.351 OA
HETATM   31  C13 UNL     1      17.665  36.062  14.243  1.00  0.00     0.210 C 
ENDBRANCH   3  30
BRANCH   5  32
HETATM   32  O8  UNL     1      18.611  34.363   8.865  1.00  0.00    -0.352 OA
HETATM   33  C16 UNL     1      19.204  33.068   8.563  1.00  0.00     0.210 C 
ENDBRANCH   5  32
BRANCH   4  34
HETATM   34  O7  UNL     1      17.521  33.824  11.199  1.00  0.00    -0.356 OA
ATOM     35  H7  UNL     1      17.171  33.491  10.382  1.00  0.00     0.218 HD
ENDBRANCH   4  34
TORSDOF 15
ENDMDL
MODEL 4
REMARK VINA RESULT: -3.574983878      1.908      3.345
REMARK  15 active torsions:
REMARK  status: ('A' for Active; 'I' for Inactive)
REMARK    1  A    between atoms: O1_2  and  C2_3 
REMARK    2  A    between atoms: C4_5  and  O2_6 
REMARK    3  A    between atoms: C6_9  and  O3_10 
REMARK    4  A    between atoms: O3_10  and  C7_11 
REMARK    5  A    between atoms: C7_11  and  C8_12 
REMARK    6  A    between atoms: C8_12  and  C9_13 
REMARK    7  A    between atoms: C8_12  and  C10_16 
REMARK    8  A    between atoms: C9_13  and  O4_14 
REMARK    9  A    between atoms: C11_17  and  O5_18 
REMARK   10  A    between atoms: C12_20  and  O6_21 
REMARK   11  A    between atoms: C14_23  and  O7_24 
REMARK   12  A    between atoms: C15_26  and  O8_27 
REMARK   13  A    between atoms: C17_29  and  C18_30 
REMARK   14  A    between atoms: C18_30  and  O9_31 
REMARK   15  A    between atoms: C18_30  and  C19_33 
ROOT
HETATM    1  C10 UNL     1      19.675  35.959   8.716  1.00  0.00    -0.002 A 
HETATM    2  C11 UNL     1      19.523  36.578   7.467  1.00  0.00     0.109 A 
HETATM    3  C12 UNL     1      19.362  35.892   6.292  1.00  0.00     0.138 A 
HETATM    4  C14 UNL     1      19.352  34.529   6.346  1.00  0.00     0.136 A 
HETATM    5  C15 UNL     1      19.506  33.848   7.568  1.00  0.00     0.114 A 
HETATM    6  C17 UNL     1      19.660  34.557   8.704  1.00  0.00     0.023 A 
ENDROOT
BRANCH   1   7
HETATM    7  C8  UNL     1      19.849  36.835   9.859  1.00  0.00     0.070 C 
BRANCH   7   8
HETATM    8  C7  UNL     1      21.334  37.166  10.163  1.00  0.00     0.187 C 
BRANCH   8   9
HETATM    9  O3  UNL     1      21.562  37.236  11.533  1.00  0.00    -0.350 OA
BRANCH   9  10
HETATM   10  C6  UNL     1      22.415  38.083  12.200  1.00  0.00     0.074 A 
HETATM   11  C5  UNL     1      21.890  38.913  13.202  1.00  0.00     0.073 A 
HETATM   12  C4  UNL     1      22.666  39.780  13.924  1.00  0.00     0.070 A 
HETATM   13  C3  UNL     1      24.010  39.838  13.659  1.00  0.00     0.073 A 
HETATM   14  C2  UNL     1      24.594  39.035  12.675  1.00  0.00     0.073 A 
HETATM   15  C20 UNL     1      23.779  38.191  11.981  1.00  0.00     0.073 A 
BRANCH  12  16
HETATM   16  O2  UNL     1      22.169  40.607  14.912  1.00  0.00    -0.361 OA
ATOM     17  H2  UNL     1      22.572  40.561  15.771  1.00  0.00     0.217 HD
ENDBRANCH  12  16
BRANCH  14  18
HETATM   18  O1  UNL     1      25.949  39.121  12.447  1.00  0.00    -0.356 OA
HETATM   19  C1  UNL     1      26.841  38.050  12.351  1.00  0.00     0.210 C 
ENDBRANCH  14  18
ENDBRANCH   9  10
ENDBRANCH   8   9
ENDBRANCH   7   8
BRANCH   7  20
HETATM   20  C9  UNL     1      19.150  36.476  11.105  1.00  0.00     0.175 C 
BRANCH  20  21
HETATM   21  O4  UNL     1      18.919  37.661  11.856  1.00  0.00    -0.400 OA
ATOM     22  H4  UNL     1      18.555  38.322  11.279  1.00  0.00     0.209 HD
ENDBRANCH  20  21
ENDBRANCH   7  20
ENDBRANCH   1   7
BRANCH   2  23
HETATM   23  O5  UNL     1      19.526  37.964   7.383  1.00  0.00    -0.357 OA
ATOM     24  H5  UNL     1      18.805  38.410   6.954  1.00  0.00     0.217 HD
ENDBRANCH   2  23
BRANCH   6  25
HETATM   25  C18 UNL     1      19.940  33.919  10.007  1.00  0.00     0.215 C 
BRANCH  25  26
HETATM   26  O9  UNL     1      20.653  32.692   9.536  1.00  0.00    -0.384 OA
ATOM     27  H9  UNL     1      20.149  32.030   9.994  1.00  0.00     0.211 HD
ENDBRANCH  25  26
BRANCH  25  28
HETATM   28  C19 UNL     1      18.854  33.327  10.768  1.00  0.00     0.267 C 
HETATM   29  O10 UNL     1      17.944  34.026  11.204  1.00  0.00    -0.304 OA
ENDBRANCH  25  28
ENDBRANCH   6  25
BRANCH   3  30
HETATM   30  O6  UNL     1      19.205  36.533   5.051  1.00  0.00    -0.351 OA
HETATM   31  C13 UNL     1      17.876  36.780   4.638  1.00  0.00     0.210 C 
ENDBRANCH   3  30
BRANCH   5  32
HETATM   32  O8  UNL     1      19.471  32.466   7.430  1.00  0.00    -0.352 OA
HETATM   33  C16 UNL     1      18.233  31.786   7.786  1.00  0.00     0.210 C 
ENDBRANCH   5  32
BRANCH   4  34
HETATM   34  O7  UNL     1      19.191  33.818   5.190  1.00  0.00    -0.356 OA
ATOM     35  H7  UNL     1      19.497  32.919   5.153  1.00  0.00     0.218 HD
ENDBRANCH   4  34
TORSDOF 15
ENDMDL
MODEL 5
REMARK VINA RESULT: -3.488248125      0.640      1.975
REMARK  15 active torsions:
REMARK  status: ('A' for Active; 'I' for Inactive)
REMARK    1  A    between atoms: O1_2  and  C2_3 
REMARK    2  A    between atoms: C4_5  and  O2_6 
REMARK    3  A    between atoms: C6_9  and  O3_10 
REMARK    4  A    between atoms: O3_10  and  C7_11 
REMARK    5  A    between atoms: C7_11  and  C8_12 
REMARK    6  A    between atoms: C8_12  and  C9_13 
REMARK    7  A    between atoms: C8_12  and  C10_16 
REMARK    8  A    between atoms: C9_13  and  O4_14 
REMARK    9  A    between atoms: C11_17  and  O5_18 
REMARK   10  A    between atoms: C12_20  and  O6_21 
REMARK   11  A    between atoms: C14_23  and  O7_24 
REMARK   12  A    between atoms: C15_26  and  O8_27 
REMARK   13  A    between atoms: C17_29  and  C18_30 
REMARK   14  A    between atoms: C18_30  and  O9_31 
REMARK   15  A    between atoms: C18_30  and  C19_33 
ROOT
HETATM    1  C10 UNL     1      18.581  35.896   7.022  1.00  0.00    -0.002 A 
HETATM    2  C11 UNL     1      17.432  36.501   6.493  1.00  0.00     0.109 A 
HETATM    3  C12 UNL     1      17.085  36.449   5.169  1.00  0.00     0.138 A 
HETATM    4  C14 UNL     1      17.910  35.771   4.320  1.00  0.00     0.136 A 
HETATM    5  C15 UNL     1      19.081  35.147   4.789  1.00  0.00     0.114 A 
HETATM    6  C17 UNL     1      19.389  35.218   6.099  1.00  0.00     0.023 A 
ENDROOT
BRANCH   1   7
HETATM    7  C8  UNL     1      18.806  36.060   8.446  1.00  0.00     0.070 C 
BRANCH   7   8
HETATM    8  C7  UNL     1      19.887  37.121   8.782  1.00  0.00     0.187 C 
BRANCH   8   9
HETATM    9  O3  UNL     1      20.803  36.628   9.705  1.00  0.00    -0.350 OA
BRANCH   9  10
HETATM   10  C6  UNL     1      21.062  37.104  10.969  1.00  0.00     0.074 A 
HETATM   11  C5  UNL     1      22.213  37.878  11.173  1.00  0.00     0.073 A 
HETATM   12  C4  UNL     1      22.544  38.402  12.395  1.00  0.00     0.070 A 
HETATM   13  C3  UNL     1      21.716  38.160  13.460  1.00  0.00     0.073 A 
HETATM   14  C2  UNL     1      20.553  37.397  13.322  1.00  0.00     0.073 A 
HETATM   15  C20 UNL     1      20.269  36.896  12.086  1.00  0.00     0.073 A 
BRANCH  12  16
HETATM   16  O2  UNL     1      23.673  39.164  12.617  1.00  0.00    -0.361 OA
ATOM     17  H2  UNL     1      23.555  40.090  12.791  1.00  0.00     0.217 HD
ENDBRANCH  12  16
BRANCH  14  18
HETATM   18  O1  UNL     1      19.747  37.185  14.417  1.00  0.00    -0.356 OA
HETATM   19  C1  UNL     1      18.396  36.828  14.394  1.00  0.00     0.210 C 
ENDBRANCH  14  18
ENDBRANCH   9  10
ENDBRANCH   8   9
ENDBRANCH   7   8
BRANCH   7  20
HETATM   20  C9  UNL     1      19.032  34.843   9.245  1.00  0.00     0.175 C 
BRANCH  20  21
HETATM   21  O4  UNL     1      18.311  34.958  10.466  1.00  0.00    -0.400 OA
ATOM     22  H4  UNL     1      18.918  35.196  11.157  1.00  0.00     0.209 HD
ENDBRANCH  20  21
ENDBRANCH   7  20
ENDBRANCH   1   7
BRANCH   2  23
HETATM   23  O5  UNL     1      16.574  37.195   7.335  1.00  0.00    -0.357 OA
ATOM     24  H5  UNL     1      16.921  37.867   7.910  1.00  0.00     0.217 HD
ENDBRANCH   2  23
BRANCH   6  25
HETATM   25  C18 UNL     1      20.655  34.688   6.648  1.00  0.00     0.215 C 
BRANCH  25  26
HETATM   26  O9  UNL     1      21.578  35.031   5.523  1.00  0.00    -0.384 OA
ATOM     27  H9  UNL     1      21.314  34.370   4.894  1.00  0.00     0.211 HD
ENDBRANCH  25  26
BRANCH  25  28
HETATM   28  C19 UNL     1      20.857  33.252   6.738  1.00  0.00     0.267 C 
HETATM   29  O10 UNL     1      20.358  32.609   7.656  1.00  0.00    -0.304 OA
ENDBRANCH  25  28
ENDBRANCH   6  25
BRANCH   3  30
HETATM   30  O6  UNL     1      15.925  37.058   4.661  1.00  0.00    -0.351 OA
HETATM   31  C13 UNL     1      16.090  38.338   4.085  1.00  0.00     0.210 C 
ENDBRANCH   3  30
BRANCH   5  32
HETATM   32  O8  UNL     1      19.796  34.505   3.784  1.00  0.00    -0.352 OA
HETATM   33  C16 UNL     1      19.097  34.221   2.539  1.00  0.00     0.210 C 
ENDBRANCH   5  32
BRANCH   4  34
HETATM   34  O7  UNL     1      17.589  35.701   2.994  1.00  0.00    -0.356 OA
ATOM     35  H7  UNL     1      18.067  36.237   2.373  1.00  0.00     0.218 HD
ENDBRANCH   4  34
TORSDOF 15
ENDMDL
