MODEL 1
REMARK VINA RESULT: -4.455022967      0.000      0.000
REMARK  3 active torsions:
REMARK  status: ('A' for Active; 'I' for Inactive)
REMARK    1  A    between atoms: O1_1  and  C1_3 
REMARK    2  A    between atoms: C3_5  and  N1_6 
REMARK    3  A    between atoms: N1_6  and  C4_9 
ROOT
HETATM    1  N1  UNL     1      41.918 -33.201  -4.644  1.00  0.00    -0.064 N 
ATOM      2  H11 UNL     1      41.374 -32.368  -4.868  1.00  0.00     0.278 HD
ATOM      3  H12 UNL     1      42.367 -32.885  -3.784  1.00  0.00     0.278 HD
ENDROOT
BRANCH   1   4
HETATM    4  C3  UNL     1      42.891 -33.458  -5.657  1.00  0.00     0.217 A 
HETATM    5  C1  UNL     1      43.921 -32.360  -5.829  1.00  0.00     0.150 A 
HETATM    6  C2  UNL     1      44.309 -33.729  -5.423  1.00  0.00     0.069 A 
BRANCH   5   7
HETATM    7  O1  UNL     1      44.034 -31.919  -7.147  1.00  0.00    -0.393 OA
ATOM      8  H1  UNL     1      43.949 -31.002  -7.381  1.00  0.00     0.210 HD
ENDBRANCH   5   7
ENDBRANCH   1   4
BRANCH   1   9
HETATM    9  C4  UNL     1      41.047 -34.324  -4.381  1.00  0.00     0.186 A 
HETATM   10  C5  UNL     1      40.633 -34.445  -2.921  1.00  0.00     0.035 A 
HETATM   11  C6  UNL     1      41.580 -35.435  -3.498  1.00  0.00     0.035 A 
ENDBRANCH   1   9
TORSDOF 3
ENDMDL
MODEL 2
REMARK VINA RESULT: -4.381622937      2.246      2.670
REMARK  3 active torsions:
REMARK  status: ('A' for Active; 'I' for Inactive)
REMARK    1  A    between atoms: O1_1  and  C1_3 
REMARK    2  A    between atoms: C3_5  and  N1_6 
REMARK    3  A    between atoms: N1_6  and  C4_9 
ROOT
HETATM    1  N1  UNL     1      42.931 -32.566  -5.015  1.00  0.00    -0.064 N 
ATOM      2  H11 UNL     1      42.400 -32.010  -5.686  1.00  0.00     0.278 HD
ATOM      3  H12 UNL     1      42.250 -32.614  -4.257  1.00  0.00     0.278 HD
ENDROOT
BRANCH   1   4
HETATM    4  C3  UNL     1      44.104 -31.866  -4.597  1.00  0.00     0.217 A 
HETATM    5  C1  UNL     1      43.849 -30.757  -3.596  1.00  0.00     0.150 A 
HETATM    6  C2  UNL     1      44.695 -31.924  -3.260  1.00  0.00     0.069 A 
BRANCH   5   7
HETATM    7  O1  UNL     1      44.395 -29.535  -3.986  1.00  0.00    -0.393 OA
ATOM      8  H1  UNL     1      43.949 -28.711  -3.828  1.00  0.00     0.210 HD
ENDBRANCH   5   7
ENDBRANCH   1   4
BRANCH   1   9
HETATM    9  C4  UNL     1      43.201 -33.883  -5.543  1.00  0.00     0.186 A 
HETATM   10  C5  UNL     1      41.963 -34.762  -5.650  1.00  0.00     0.035 A 
HETATM   11  C6  UNL     1      42.990 -35.067  -4.620  1.00  0.00     0.035 A 
ENDBRANCH   1   9
TORSDOF 3
ENDMDL
MODEL 3
REMARK VINA RESULT: -4.227915890      3.213      4.662
REMARK  3 active torsions:
REMARK  status: ('A' for Active; 'I' for Inactive)
REMARK    1  A    between atoms: O1_1  and  C1_3 
REMARK    2  A    between atoms: C3_5  and  N1_6 
REMARK    3  A    between atoms: N1_6  and  C4_9 
ROOT
HETATM    1  N1  UNL     1      42.321 -34.469  -3.277  1.00  0.00    -0.064 N 
ATOM      2  H11 UNL     1      43.126 -34.222  -2.701  1.00  0.00     0.278 HD
ATOM      3  H12 UNL     1      41.940 -33.537  -3.443  1.00  0.00     0.278 HD
ENDROOT
BRANCH   1   4
HETATM    4  C3  UNL     1      41.397 -35.269  -2.540  1.00  0.00     0.217 A 
HETATM    5  C1  UNL     1      40.513 -34.488  -1.588  1.00  0.00     0.150 A 
HETATM    6  C2  UNL     1      39.944 -35.265  -2.712  1.00  0.00     0.069 A 
BRANCH   5   7
HETATM    7  O1  UNL     1      40.541 -34.985  -0.286  1.00  0.00    -0.393 OA
ATOM      8  H1  UNL     1      41.270 -34.818   0.302  1.00  0.00     0.210 HD
ENDBRANCH   5   7
ENDBRANCH   1   4
BRANCH   1   9
HETATM    9  C4  UNL     1      42.747 -35.074  -4.518  1.00  0.00     0.186 A 
HETATM   10  C5  UNL     1      43.309 -34.076  -5.521  1.00  0.00     0.035 A 
HETATM   11  C6  UNL     1      41.988 -34.705  -5.777  1.00  0.00     0.035 A 
ENDBRANCH   1   9
TORSDOF 3
ENDMDL
MODEL 4
REMARK VINA RESULT: -4.188383848      2.028      2.605
REMARK  3 active torsions:
REMARK  status: ('A' for Active; 'I' for Inactive)
REMARK    1  A    between atoms: O1_1  and  C1_3 
REMARK    2  A    between atoms: C3_5  and  N1_6 
REMARK    3  A    between atoms: N1_6  and  C4_9 
ROOT
HETATM    1  N1  UNL     1      42.810 -34.741  -3.189  1.00  0.00    -0.064 N 
ATOM      2  H11 UNL     1      42.849 -34.094  -2.401  1.00  0.00     0.278 HD
ATOM      3  H12 UNL     1      43.782 -34.696  -3.494  1.00  0.00     0.278 HD
ENDROOT
BRANCH   1   4
HETATM    4  C3  UNL     1      41.938 -34.247  -4.206  1.00  0.00     0.217 A 
HETATM    5  C1  UNL     1      42.607 -33.344  -5.221  1.00  0.00     0.150 A 
HETATM    6  C2  UNL     1      41.981 -34.624  -5.618  1.00  0.00     0.069 A 
BRANCH   5   7
HETATM    7  O1  UNL     1      41.955 -32.122  -5.378  1.00  0.00    -0.393 OA
ATOM      8  H1  UNL     1      42.120 -31.554  -6.122  1.00  0.00     0.210 HD
ENDBRANCH   5   7
ENDBRANCH   1   4
BRANCH   1   9
HETATM    9  C4  UNL     1      42.478 -36.073  -2.739  1.00  0.00     0.186 A 
HETATM   10  C5  UNL     1      43.379 -36.582  -1.622  1.00  0.00     0.035 A 
HETATM   11  C6  UNL     1      43.496 -37.170  -2.981  1.00  0.00     0.035 A 
ENDBRANCH   1   9
TORSDOF 3
ENDMDL
MODEL 5
REMARK VINA RESULT: -4.158954824      3.588      4.797
REMARK  3 active torsions:
REMARK  status: ('A' for Active; 'I' for Inactive)
REMARK    1  A    between atoms: O1_1  and  C1_3 
REMARK    2  A    between atoms: C3_5  and  N1_6 
REMARK    3  A    between atoms: N1_6  and  C4_9 
ROOT
HETATM    1  N1  UNL     1      43.070 -35.529  -3.556  1.00  0.00    -0.064 N 
ATOM      2  H11 UNL     1      43.929 -34.978  -3.565  1.00  0.00     0.278 HD
ATOM      3  H12 UNL     1      42.568 -35.048  -2.809  1.00  0.00     0.278 HD
ENDROOT
BRANCH   1   4
HETATM    4  C3  UNL     1      43.341 -36.882  -3.191  1.00  0.00     0.217 A 
HETATM    5  C1  UNL     1      43.141 -37.187  -1.720  1.00  0.00     0.150 A 
HETATM    6  C2  UNL     1      42.343 -37.863  -2.766  1.00  0.00     0.069 A 
BRANCH   5   7
HETATM    7  O1  UNL     1      44.252 -37.790  -1.131  1.00  0.00    -0.393 OA
ATOM      8  H1  UNL     1      44.724 -37.384  -0.413  1.00  0.00     0.210 HD
ENDBRANCH   5   7
ENDBRANCH   1   4
BRANCH   1   9
HETATM    9  C4  UNL     1      42.367 -35.398  -4.811  1.00  0.00     0.186 A 
HETATM   10  C5  UNL     1      42.770 -34.168  -5.611  1.00  0.00     0.035 A 
HETATM   11  C6  UNL     1      41.430 -34.217  -4.971  1.00  0.00     0.035 A 
ENDBRANCH   1   9
TORSDOF 3
ENDMDL
