MODEL 1
REMARK VINA RESULT: -6.109238289      0.000      0.000
REMARK  6 active torsions:
REMARK  status: ('A' for Active; 'I' for Inactive)
REMARK    1  A    between atoms: C2_2  and  C3_3 
REMARK    2  A    between atoms: C3_3  and  O1_4 
REMARK    3  A    between atoms: O1_4  and  C4_5 
REMARK    4  A    between atoms: C8_10  and  O3_11 
REMARK    5  A    between atoms: C12_16  and  O4_17 
REMARK    6  A    between atoms: C13_19  and  O5_20 
ROOT
HETATM    1  C4  UNL     1      11.620   8.487  27.582  1.00  0.00     0.292 C 
HETATM    2  O2  UNL     1      10.297   8.649  27.184  1.00  0.00    -0.353 OA
HETATM    3  C5  UNL     1       9.828   9.881  26.913  1.00  0.00     0.132 C 
HETATM    4  C6  UNL     1       8.398   9.985  27.492  1.00  0.00     0.035 C 
HETATM    5  C7  UNL     1       8.101  11.439  27.098  1.00  0.00     0.035 C 
HETATM    6  C8  UNL     1       8.783  11.623  25.741  1.00  0.00     0.125 C 
HETATM    7  C9  UNL     1       9.530  10.355  25.521  1.00  0.00     0.054 C 
HETATM    8  C10 UNL     1      10.818  10.613  24.662  1.00  0.00     0.092 C 
HETATM    9  C11 UNL     1      11.742   9.679  25.162  1.00  0.00    -0.148 C 
HETATM   10  C12 UNL     1      12.924   8.973  25.411  1.00  0.00     0.217 C 
HETATM   11  C13 UNL     1      12.577   7.955  26.512  1.00  0.00     0.213 C 
ENDROOT
BRANCH   1  12
HETATM   12  O1  UNL     1      11.641   7.545  28.546  1.00  0.00    -0.358 OA
BRANCH  12  13
HETATM   13  C3  UNL     1      12.446   7.325  29.534  1.00  0.00     0.170 C 
BRANCH  13  14
HETATM   14  C2  UNL     1      13.178   8.489  30.114  1.00  0.00     0.022 C 
HETATM   15  C1  UNL     1      14.624   8.607  29.800  1.00  0.00     0.007 C 
ENDBRANCH  13  14
ENDBRANCH  12  13
ENDBRANCH   1  12
BRANCH  11  16
HETATM   16  O5  UNL     1      11.900   6.938  25.817  1.00  0.00    -0.387 OA
ATOM     17  H5  UNL     1      12.554   6.314  25.523  1.00  0.00     0.210 HD
ENDBRANCH  11  16
BRANCH  10  18
HETATM   18  O4  UNL     1      14.065   9.649  25.865  1.00  0.00    -0.381 OA
ATOM     19  H4  UNL     1      14.916   9.228  25.826  1.00  0.00     0.211 HD
ENDBRANCH  10  18
BRANCH   6  20
HETATM   20  O3  UNL     1       9.565  12.762  25.722  1.00  0.00    -0.395 OA
ATOM     21  H3  UNL     1       9.684  13.084  24.836  1.00  0.00     0.210 HD
ENDBRANCH   6  20
TORSDOF 6
ENDMDL
MODEL 2
REMARK VINA RESULT: -6.046589441      2.305      4.067
REMARK  6 active torsions:
REMARK  status: ('A' for Active; 'I' for Inactive)
REMARK    1  A    between atoms: C2_2  and  C3_3 
REMARK    2  A    between atoms: C3_3  and  O1_4 
REMARK    3  A    between atoms: O1_4  and  C4_5 
REMARK    4  A    between atoms: C8_10  and  O3_11 
REMARK    5  A    between atoms: C12_16  and  O4_17 
REMARK    6  A    between atoms: C13_19  and  O5_20 
ROOT
HETATM    1  C4  UNL     1      13.055   7.894  25.672  1.00  0.00     0.292 C 
HETATM    2  O2  UNL     1      13.639   8.977  25.021  1.00  0.00    -0.353 OA
HETATM    3  C5  UNL     1      12.952   9.630  24.065  1.00  0.00     0.132 C 
HETATM    4  C6  UNL     1      13.932   9.961  22.916  1.00  0.00     0.035 C 
HETATM    5  C7  UNL     1      12.940  10.651  21.967  1.00  0.00     0.035 C 
HETATM    6  C8  UNL     1      11.986  11.413  22.888  1.00  0.00     0.125 C 
HETATM    7  C9  UNL     1      12.382  11.004  24.262  1.00  0.00     0.054 C 
HETATM    8  C10 UNL     1      11.144  11.031  25.228  1.00  0.00     0.092 C 
HETATM    9  C11 UNL     1      11.400   9.979  26.124  1.00  0.00    -0.148 C 
HETATM   10  C12 UNL     1      11.255   9.022  27.134  1.00  0.00     0.217 C 
HETATM   11  C13 UNL     1      12.536   8.169  27.085  1.00  0.00     0.213 C 
ENDROOT
BRANCH   1  12
HETATM   12  O1  UNL     1      14.012   6.961  25.843  1.00  0.00    -0.358 OA
BRANCH  12  13
HETATM   13  C3  UNL     1      13.960   5.699  26.124  1.00  0.00     0.170 C 
BRANCH  13  14
HETATM   14  C2  UNL     1      14.602   5.237  27.389  1.00  0.00     0.022 C 
HETATM   15  C1  UNL     1      14.291   3.859  27.845  1.00  0.00     0.007 C 
ENDBRANCH  13  14
ENDBRANCH  12  13
ENDBRANCH   1  12
BRANCH  11  16
HETATM   16  O5  UNL     1      13.491   8.973  27.731  1.00  0.00    -0.387 OA
ATOM     17  H5  UNL     1      13.766   8.510  28.513  1.00  0.00     0.210 HD
ENDBRANCH  11  16
BRANCH  10  18
HETATM   18  O4  UNL     1      10.191   8.112  27.094  1.00  0.00    -0.381 OA
ATOM     19  H4  UNL     1       9.896   7.686  27.891  1.00  0.00     0.211 HD
ENDBRANCH  10  18
BRANCH   6  20
HETATM   20  O3  UNL     1      10.667  11.153  22.569  1.00  0.00    -0.395 OA
ATOM     21  H3  UNL     1      10.089  11.364  23.293  1.00  0.00     0.210 HD
ENDBRANCH   6  20
TORSDOF 6
ENDMDL
MODEL 3
REMARK VINA RESULT: -6.016332557      1.846      5.513
REMARK  6 active torsions:
REMARK  status: ('A' for Active; 'I' for Inactive)
REMARK    1  A    between atoms: C2_2  and  C3_3 
REMARK    2  A    between atoms: C3_3  and  O1_4 
REMARK    3  A    between atoms: O1_4  and  C4_5 
REMARK    4  A    between atoms: C8_10  and  O3_11 
REMARK    5  A    between atoms: C12_16  and  O4_17 
REMARK    6  A    between atoms: C13_19  and  O5_20 
ROOT
HETATM    1  C4  UNL     1      11.974   8.617  26.667  1.00  0.00     0.292 C 
HETATM    2  O2  UNL     1      12.808   8.921  27.738  1.00  0.00    -0.353 OA
HETATM    3  C5  UNL     1      12.996   8.015  28.715  1.00  0.00     0.132 C 
HETATM    4  C6  UNL     1      12.999   8.765  30.067  1.00  0.00     0.035 C 
HETATM    5  C7  UNL     1      13.189   7.556  30.995  1.00  0.00     0.035 C 
HETATM    6  C8  UNL     1      14.120   6.617  30.226  1.00  0.00     0.125 C 
HETATM    7  C9  UNL     1      14.277   7.254  28.890  1.00  0.00     0.054 C 
HETATM    8  C10 UNL     1      14.512   6.167  27.782  1.00  0.00     0.092 C 
HETATM    9  C11 UNL     1      13.886   6.711  26.647  1.00  0.00    -0.148 C 
HETATM   10  C12 UNL     1      13.344   6.863  25.366  1.00  0.00     0.217 C 
HETATM   11  C13 UNL     1      12.677   8.250  25.359  1.00  0.00     0.213 C 
ENDROOT
BRANCH   1  12
HETATM   12  O1  UNL     1      11.275   9.731  26.369  1.00  0.00    -0.358 OA
BRANCH  12  13
HETATM   13  C3  UNL     1      10.604  10.086  25.322  1.00  0.00     0.170 C 
BRANCH  13  14
HETATM   14  C2  UNL     1      10.830  11.457  24.779  1.00  0.00     0.022 C 
HETATM   15  C1  UNL     1      11.683  11.577  23.569  1.00  0.00     0.007 C 
ENDBRANCH  13  14
ENDBRANCH  12  13
ENDBRANCH   1  12
BRANCH  11  16
HETATM   16  O5  UNL     1      13.760   9.134  25.205  1.00  0.00    -0.387 OA
ATOM     17  H5  UNL     1      13.592   9.885  25.761  1.00  0.00     0.210 HD
ENDBRANCH  11  16
BRANCH  10  18
HETATM   18  O4  UNL     1      12.369   5.969  24.904  1.00  0.00    -0.381 OA
ATOM     19  H4  UNL     1      11.864   6.175  24.126  1.00  0.00     0.211 HD
ENDBRANCH  10  18
BRANCH   6  20
HETATM   20  O3  UNL     1      13.619   5.329  30.194  1.00  0.00    -0.395 OA
ATOM     21  H3  UNL     1      14.119   4.780  29.601  1.00  0.00     0.210 HD
ENDBRANCH   6  20
TORSDOF 6
ENDMDL
MODEL 4
REMARK VINA RESULT: -5.999698135      0.896      1.197
REMARK  6 active torsions:
REMARK  status: ('A' for Active; 'I' for Inactive)
REMARK    1  A    between atoms: C2_2  and  C3_3 
REMARK    2  A    between atoms: C3_3  and  O1_4 
REMARK    3  A    between atoms: O1_4  and  C4_5 
REMARK    4  A    between atoms: C8_10  and  O3_11 
REMARK    5  A    between atoms: C12_16  and  O4_17 
REMARK    6  A    between atoms: C13_19  and  O5_20 
ROOT
HETATM    1  C4  UNL     1      11.670   8.484  27.587  1.00  0.00     0.292 C 
HETATM    2  O2  UNL     1      10.346   8.635  27.188  1.00  0.00    -0.353 OA
HETATM    3  C5  UNL     1       9.867   9.863  26.914  1.00  0.00     0.132 C 
HETATM    4  C6  UNL     1       8.436   9.957  27.492  1.00  0.00     0.035 C 
HETATM    5  C7  UNL     1       8.129  11.408  27.094  1.00  0.00     0.035 C 
HETATM    6  C8  UNL     1       8.808  11.593  25.737  1.00  0.00     0.125 C 
HETATM    7  C9  UNL     1       9.565  10.330  25.520  1.00  0.00     0.054 C 
HETATM    8  C10 UNL     1      10.852  10.595  24.660  1.00  0.00     0.092 C 
HETATM    9  C11 UNL     1      11.783   9.670  25.163  1.00  0.00    -0.148 C 
HETATM   10  C12 UNL     1      12.971   8.975  25.415  1.00  0.00     0.217 C 
HETATM   11  C13 UNL     1      12.631   7.957  26.519  1.00  0.00     0.213 C 
ENDROOT
BRANCH   1  12
HETATM   12  O1  UNL     1      11.698   7.546  28.554  1.00  0.00    -0.358 OA
BRANCH  12  13
HETATM   13  C3  UNL     1      11.724   7.623  29.845  1.00  0.00     0.170 C 
BRANCH  13  14
HETATM   14  C2  UNL     1      11.508   8.960  30.471  1.00  0.00     0.022 C 
HETATM   15  C1  UNL     1      10.117   9.318  30.848  1.00  0.00     0.007 C 
ENDBRANCH  13  14
ENDBRANCH  12  13
ENDBRANCH   1  12
BRANCH  11  16
HETATM   16  O5  UNL     1      11.963   6.932  25.826  1.00  0.00    -0.387 OA
ATOM     17  H5  UNL     1      12.199   6.111  26.241  1.00  0.00     0.210 HD
ENDBRANCH  11  16
BRANCH  10  18
HETATM   18  O4  UNL     1      14.106   9.661  25.866  1.00  0.00    -0.381 OA
ATOM     19  H4  UNL     1      14.638  10.157  25.255  1.00  0.00     0.211 HD
ENDBRANCH  10  18
BRANCH   6  20
HETATM   20  O3  UNL     1       9.582  12.738  25.715  1.00  0.00    -0.395 OA
ATOM     21  H3  UNL     1      10.234  12.727  26.406  1.00  0.00     0.210 HD
ENDBRANCH   6  20
TORSDOF 6
ENDMDL
MODEL 5
REMARK VINA RESULT: -5.963721620      2.323      5.628
REMARK  6 active torsions:
REMARK  status: ('A' for Active; 'I' for Inactive)
REMARK    1  A    between atoms: C2_2  and  C3_3 
REMARK    2  A    between atoms: C3_3  and  O1_4 
REMARK    3  A    between atoms: O1_4  and  C4_5 
REMARK    4  A    between atoms: C8_10  and  O3_11 
REMARK    5  A    between atoms: C12_16  and  O4_17 
REMARK    6  A    between atoms: C13_19  and  O5_20 
ROOT
HETATM    1  C4  UNL     1       9.101  12.353  26.670  1.00  0.00     0.292 C 
HETATM    2  O2  UNL     1       9.544  11.691  25.530  1.00  0.00    -0.353 OA
HETATM    3  C5  UNL     1      10.760  11.114  25.522  1.00  0.00     0.132 C 
HETATM    4  C6  UNL     1      11.409  11.385  24.145  1.00  0.00     0.035 C 
HETATM    5  C7  UNL     1      12.752  10.680  24.388  1.00  0.00     0.035 C 
HETATM    6  C8  UNL     1      12.405   9.465  25.249  1.00  0.00     0.125 C 
HETATM    7  C9  UNL     1      10.960   9.627  25.564  1.00  0.00     0.054 C 
HETATM    8  C10 UNL     1      10.621   8.992  26.959  1.00  0.00     0.092 C 
HETATM    9  C11 UNL     1       9.603   9.820  27.462  1.00  0.00    -0.148 C 
HETATM   10  C12 UNL     1       8.662  10.413  28.311  1.00  0.00     0.217 C 
HETATM   11  C13 UNL     1       8.078  11.598  27.522  1.00  0.00     0.213 C 
ENDROOT
BRANCH   1  12
HETATM   12  O1  UNL     1       8.448  13.461  26.268  1.00  0.00    -0.358 OA
BRANCH  12  13
HETATM   13  C3  UNL     1       7.916  14.445  26.917  1.00  0.00     0.170 C 
BRANCH  13  14
HETATM   14  C2  UNL     1       8.817  15.320  27.722  1.00  0.00     0.022 C 
HETATM   15  C1  UNL     1       8.978  14.990  29.161  1.00  0.00     0.007 C 
ENDBRANCH  13  14
ENDBRANCH  12  13
ENDBRANCH   1  12
BRANCH  11  16
HETATM   16  O5  UNL     1       7.168  10.989  26.640  1.00  0.00    -0.387 OA
ATOM     17  H5  UNL     1       6.904  10.165  27.033  1.00  0.00     0.210 HD
ENDBRANCH  11  16
BRANCH  10  18
HETATM   18  O4  UNL     1       9.063  10.939  29.547  1.00  0.00    -0.381 OA
ATOM     19  H4  UNL     1       9.512  11.775  29.586  1.00  0.00     0.211 HD
ENDBRANCH  10  18
BRANCH   6  20
HETATM   20  O3  UNL     1      13.228   9.383  26.356  1.00  0.00    -0.395 OA
ATOM     21  H3  UNL     1      13.977   9.962  26.273  1.00  0.00     0.210 HD
ENDBRANCH   6  20
TORSDOF 6
ENDMDL
