MODEL 1
REMARK VINA RESULT: -5.792950843      0.000      0.000
REMARK  4 active torsions:
REMARK  status: ('A' for Active; 'I' for Inactive)
REMARK    1  A    between atoms: N1_1  and  N2_4 
REMARK    2  A    between atoms: C1_6  and  C2_7 
REMARK    3  A    between atoms: N4_13  and  C6_14 
REMARK    4  A    between atoms: C6_14  and  C7_15 
ROOT
HETATM    1  C2  UNL     1      13.785  -1.079  22.951  1.00  0.00     0.067 A 
HETATM    2  C3  UNL     1      12.496  -1.446  22.563  1.00  0.00     0.118 A 
HETATM    3  N3  UNL     1      12.069  -1.022  21.335  1.00  0.00    -0.372 N 
ATOM      4  H3  UNL     1      11.131  -1.277  21.027  1.00  0.00     0.164 HD
HETATM    5  C4  UNL     1      12.831  -0.291  20.528  1.00  0.00     0.104 A 
HETATM    6  C5  UNL     1      14.079   0.046  20.942  1.00  0.00     0.108 A 
HETATM    7  N4  UNL     1      14.544  -0.341  22.133  1.00  0.00    -0.349 N 
ENDROOT
BRANCH   7   8
HETATM    8  C6  UNL     1      15.850   0.103  22.497  1.00  0.00     0.167 C 
BRANCH   8   9
HETATM    9  C7  UNL     1      15.940   1.438  23.092  1.00  0.00    -0.040 A 
HETATM   10  C8  UNL     1      16.039   1.576  24.479  1.00  0.00     0.009 A 
HETATM   11  C9  UNL     1      16.119   2.822  25.092  1.00  0.00     0.001 A 
HETATM   12  C10 UNL     1      16.103   3.978  24.343  1.00  0.00     0.000 A 
HETATM   13  C11 UNL     1      16.006   3.863  22.977  1.00  0.00     0.001 A 
HETATM   14  C12 UNL     1      15.926   2.600  22.378  1.00  0.00     0.009 A 
ENDBRANCH   8   9
ENDBRANCH   7   8
BRANCH   1  15
HETATM   15  C1  UNL     1      14.239  -1.559  24.244  1.00  0.00     0.137 C 
HETATM   16  N2  UNL     1      14.570  -2.677  24.615  1.00  0.00    -0.316 N 
ATOM     17  H2  UNL     1      14.836  -2.657  25.600  1.00  0.00     0.185 HD
BRANCH  16  18
HETATM   18  N1  UNL     1      14.691  -3.918  24.128  1.00  0.00    -0.345 N 
ATOM     19  H12 UNL     1      14.595  -3.881  23.114  1.00  0.00     0.176 HD
ATOM     20  H11 UNL     1      14.846  -4.871  24.459  1.00  0.00     0.176 HD
ENDBRANCH  16  18
ENDBRANCH   1  15
TORSDOF 4
ENDMDL
MODEL 2
REMARK VINA RESULT: -5.771182572      0.973      1.254
REMARK  4 active torsions:
REMARK  status: ('A' for Active; 'I' for Inactive)
REMARK    1  A    between atoms: N1_1  and  N2_4 
REMARK    2  A    between atoms: C1_6  and  C2_7 
REMARK    3  A    between atoms: N4_13  and  C6_14 
REMARK    4  A    between atoms: C6_14  and  C7_15 
ROOT
HETATM    1  C2  UNL     1      13.669  -1.032  22.973  1.00  0.00     0.067 A 
HETATM    2  C3  UNL     1      12.385  -1.372  22.544  1.00  0.00     0.118 A 
HETATM    3  N3  UNL     1      12.026  -0.983  21.283  1.00  0.00    -0.372 N 
ATOM      4  H3  UNL     1      11.093  -1.219  20.945  1.00  0.00     0.164 HD
HETATM    5  C4  UNL     1      12.846  -0.310  20.483  1.00  0.00     0.104 A 
HETATM    6  C5  UNL     1      14.086   0.003  20.938  1.00  0.00     0.108 A 
HETATM    7  N4  UNL     1      14.486  -0.352  22.162  1.00  0.00    -0.349 N 
ENDROOT
BRANCH   7   8
HETATM    8  C6  UNL     1      15.790   0.063  22.565  1.00  0.00     0.167 C 
BRANCH   8   9
HETATM    9  C7  UNL     1      15.898   1.410  23.131  1.00  0.00    -0.040 A 
HETATM   10  C8  UNL     1      16.034   1.575  24.512  1.00  0.00     0.009 A 
HETATM   11  C9  UNL     1      16.131   2.832  25.098  1.00  0.00     0.001 A 
HETATM   12  C10 UNL     1      16.096   3.974  24.327  1.00  0.00     0.000 A 
HETATM   13  C11 UNL     1      15.963   3.832  22.966  1.00  0.00     0.001 A 
HETATM   14  C12 UNL     1      15.867   2.557  22.394  1.00  0.00     0.009 A 
ENDBRANCH   8   9
ENDBRANCH   7   8
BRANCH   1  15
HETATM   15  C1  UNL     1      14.052  -1.475  24.302  1.00  0.00     0.137 C 
HETATM   16  N2  UNL     1      13.779  -1.028  25.408  1.00  0.00    -0.316 N 
ATOM     17  H2  UNL     1      14.222  -1.590  26.135  1.00  0.00     0.185 HD
BRANCH  16  18
HETATM   18  N1  UNL     1      13.080  -0.028  25.958  1.00  0.00    -0.345 N 
ATOM     19  H12 UNL     1      12.095  -0.292  25.979  1.00  0.00     0.176 HD
ATOM     20  H11 UNL     1      13.231   0.900  26.355  1.00  0.00     0.176 HD
ENDBRANCH  16  18
ENDBRANCH   1  15
TORSDOF 4
ENDMDL
MODEL 3
REMARK VINA RESULT: -5.768390545      0.986      1.728
REMARK  4 active torsions:
REMARK  status: ('A' for Active; 'I' for Inactive)
REMARK    1  A    between atoms: N1_1  and  N2_4 
REMARK    2  A    between atoms: C1_6  and  C2_7 
REMARK    3  A    between atoms: N4_13  and  C6_14 
REMARK    4  A    between atoms: C6_14  and  C7_15 
ROOT
HETATM    1  C2  UNL     1      13.711  -0.980  22.939  1.00  0.00     0.067 A 
HETATM    2  C3  UNL     1      12.436  -1.313  22.479  1.00  0.00     0.118 A 
HETATM    3  N3  UNL     1      12.108  -0.918  21.212  1.00  0.00    -0.372 N 
ATOM      4  H3  UNL     1      11.182  -1.148  20.851  1.00  0.00     0.164 HD
HETATM    5  C4  UNL     1      12.949  -0.247  20.433  1.00  0.00     0.104 A 
HETATM    6  C5  UNL     1      14.180   0.059  20.917  1.00  0.00     0.108 A 
HETATM    7  N4  UNL     1      14.550  -0.302  22.149  1.00  0.00    -0.349 N 
ENDROOT
BRANCH   7   8
HETATM    8  C6  UNL     1      15.847   0.106  22.583  1.00  0.00     0.167 C 
BRANCH   8   9
HETATM    9  C7  UNL     1      15.941   1.437  23.186  1.00  0.00    -0.040 A 
HETATM   10  C8  UNL     1      15.929   2.572  22.371  1.00  0.00     0.009 A 
HETATM   11  C9  UNL     1      16.026   3.857  22.894  1.00  0.00     0.001 A 
HETATM   12  C10 UNL     1      16.138   4.057  24.253  1.00  0.00     0.000 A 
HETATM   13  C11 UNL     1      16.151   2.954  25.071  1.00  0.00     0.001 A 
HETATM   14  C12 UNL     1      16.053   1.668  24.525  1.00  0.00     0.009 A 
ENDBRANCH   8   9
ENDBRANCH   7   8
BRANCH   1  15
HETATM   15  C1  UNL     1      14.061  -1.429  24.275  1.00  0.00     0.137 C 
HETATM   16  N2  UNL     1      13.771  -0.980  25.376  1.00  0.00    -0.316 N 
ATOM     17  H2  UNL     1      14.192  -1.548  26.111  1.00  0.00     0.185 HD
BRANCH  16  18
HETATM   18  N1  UNL     1      13.073   0.028  25.912  1.00  0.00    -0.345 N 
ATOM     19  H12 UNL     1      13.034   0.793  25.240  1.00  0.00     0.176 HD
ATOM     20  H11 UNL     1      12.577   0.257  26.775  1.00  0.00     0.176 HD
ENDBRANCH  16  18
ENDBRANCH   1  15
TORSDOF 4
ENDMDL
MODEL 4
REMARK VINA RESULT: -5.764880045      0.031      1.175
REMARK  4 active torsions:
REMARK  status: ('A' for Active; 'I' for Inactive)
REMARK    1  A    between atoms: N1_1  and  N2_4 
REMARK    2  A    between atoms: C1_6  and  C2_7 
REMARK    3  A    between atoms: N4_13  and  C6_14 
REMARK    4  A    between atoms: C6_14  and  C7_15 
ROOT
HETATM    1  C2  UNL     1      13.778  -1.079  22.962  1.00  0.00     0.067 A 
HETATM    2  C3  UNL     1      12.491  -1.445  22.567  1.00  0.00     0.118 A 
HETATM    3  N3  UNL     1      12.072  -1.023  21.336  1.00  0.00    -0.372 N 
ATOM      4  H3  UNL     1      11.135  -1.276  21.022  1.00  0.00     0.164 HD
HETATM    5  C4  UNL     1      12.840  -0.294  20.532  1.00  0.00     0.104 A 
HETATM    6  C5  UNL     1      14.086   0.042  20.953  1.00  0.00     0.108 A 
HETATM    7  N4  UNL     1      14.543  -0.344  22.147  1.00  0.00    -0.349 N 
ENDROOT
BRANCH   7   8
HETATM    8  C6  UNL     1      15.847   0.100  22.518  1.00  0.00     0.167 C 
BRANCH   8   9
HETATM    9  C7  UNL     1      15.929   1.409  23.168  1.00  0.00    -0.040 A 
HETATM   10  C8  UNL     1      15.925   2.572  22.393  1.00  0.00     0.009 A 
HETATM   11  C9  UNL     1      16.010   3.838  22.963  1.00  0.00     0.001 A 
HETATM   12  C10 UNL     1      16.101   3.991  24.329  1.00  0.00     0.000 A 
HETATM   13  C11 UNL     1      16.106   2.859  25.108  1.00  0.00     0.001 A 
HETATM   14  C12 UNL     1      16.020   1.593  24.516  1.00  0.00     0.009 A 
ENDBRANCH   8   9
ENDBRANCH   7   8
BRANCH   1  15
HETATM   15  C1  UNL     1      14.224  -1.557  24.258  1.00  0.00     0.137 C 
HETATM   16  N2  UNL     1      14.562  -2.673  24.630  1.00  0.00    -0.316 N 
ATOM     17  H2  UNL     1      14.818  -2.653  25.618  1.00  0.00     0.185 HD
BRANCH  16  18
HETATM   18  N1  UNL     1      14.699  -3.912  24.142  1.00  0.00    -0.345 N 
ATOM     19  H12 UNL     1      13.955  -4.079  23.465  1.00  0.00     0.176 HD
ATOM     20  H11 UNL     1      15.309  -4.723  24.242  1.00  0.00     0.176 HD
ENDBRANCH  16  18
ENDBRANCH   1  15
TORSDOF 4
ENDMDL
MODEL 5
REMARK VINA RESULT: -5.565148812      2.349      4.264
REMARK  4 active torsions:
REMARK  status: ('A' for Active; 'I' for Inactive)
REMARK    1  A    between atoms: N1_1  and  N2_4 
REMARK    2  A    between atoms: C1_6  and  C2_7 
REMARK    3  A    between atoms: N4_13  and  C6_14 
REMARK    4  A    between atoms: C6_14  and  C7_15 
ROOT
HETATM    1  C2  UNL     1      11.960  -2.768  20.485  1.00  0.00     0.067 A 
HETATM    2  C3  UNL     1      12.099  -3.932  19.728  1.00  0.00     0.118 A 
HETATM    3  N3  UNL     1      12.918  -4.906  20.227  1.00  0.00    -0.372 N 
ATOM      4  H3  UNL     1      13.037  -5.767  19.693  1.00  0.00     0.164 HD
HETATM    5  C4  UNL     1      13.564  -4.774  21.381  1.00  0.00     0.104 A 
HETATM    6  C5  UNL     1      13.403  -3.626  22.087  1.00  0.00     0.108 A 
HETATM    7  N4  UNL     1      12.616  -2.642  21.644  1.00  0.00    -0.349 N 
ENDROOT
BRANCH   7   8
HETATM    8  C6  UNL     1      12.549  -1.457  22.435  1.00  0.00     0.167 C 
BRANCH   8   9
HETATM    9  C7  UNL     1      13.704  -0.559  22.360  1.00  0.00    -0.040 A 
HETATM   10  C8  UNL     1      14.708  -0.635  23.329  1.00  0.00     0.009 A 
HETATM   11  C9  UNL     1      15.819   0.201  23.306  1.00  0.00     0.001 A 
HETATM   12  C10 UNL     1      15.970   1.146  22.314  1.00  0.00     0.000 A 
HETATM   13  C11 UNL     1      14.993   1.236  21.352  1.00  0.00     0.001 A 
HETATM   14  C12 UNL     1      13.881   0.385  21.392  1.00  0.00     0.009 A 
ENDBRANCH   8   9
ENDBRANCH   7   8
BRANCH   1  15
HETATM   15  C1  UNL     1      11.065  -1.751  19.961  1.00  0.00     0.137 C 
HETATM   16  N2  UNL     1      11.202  -0.958  19.038  1.00  0.00    -0.316 N 
ATOM     17  H2  UNL     1      10.366  -0.380  18.944  1.00  0.00     0.185 HD
BRANCH  16  18
HETATM   18  N1  UNL     1      12.108  -0.617  18.115  1.00  0.00    -0.345 N 
ATOM     19  H12 UNL     1      12.983  -1.098  18.322  1.00  0.00     0.176 HD
ATOM     20  H11 UNL     1      12.187  -0.031  17.283  1.00  0.00     0.176 HD
ENDBRANCH  16  18
ENDBRANCH   1  15
TORSDOF 4
ENDMDL
