MODEL 1
REMARK VINA RESULT: -6.873385045      0.000      0.000
REMARK  9 active torsions:
REMARK  status: ('A' for Active; 'I' for Inactive)
REMARK    1  A    between atoms: C3_3  and  C4_4 
REMARK    2  A    between atoms: C3_3  and  N7_37 
REMARK    3  A    between atoms: C4_4  and  N1_5 
REMARK    4  A    between atoms: C4_4  and  C5_10 
REMARK    5  A    between atoms: C5_10  and  N4_14 
REMARK    6  A    between atoms: C7_17  and  C8_18 
REMARK       I    between atoms: C8_18  and  N5_20 
REMARK    7  A    between atoms: N5_20  and  C9_22 
REMARK    8  A    between atoms: C13_26  and  C14_27 
REMARK    9  A    between atoms: C14_27  and  N6_28 
REMARK       I    between atoms: N7_37  and  C24_39 
ROOT
HETATM    1  C1  UNL     1      -5.559   4.511  20.746  1.00  0.00     0.014 C 
HETATM    2  C2  UNL     1      -4.371   4.662  20.593  1.00  0.00    -0.089 C 
HETATM    3  C3  UNL     1      -2.915   4.839  20.382  1.00  0.00     0.198 C 
ENDROOT
BRANCH   3   4
HETATM    4  C4  UNL     1      -2.139   4.120  21.458  1.00  0.00     0.200 C 
BRANCH   4   5
HETATM    5  N1  UNL     1      -1.163   5.056  21.961  1.00  0.00    -0.328 N 
HETATM    6  N2  UNL     1      -0.402   4.680  22.856  1.00  0.00    -0.349 N 
ATOM      7  H22 UNL     1      -0.474   3.730  23.221  1.00  0.00     0.176 HD
ATOM      8  H21 UNL     1       0.288   5.342  23.212  1.00  0.00     0.176 HD
ATOM      9  H1  UNL     1      -1.104   6.002  21.585  1.00  0.00     0.180 HD
ENDBRANCH   4   5
BRANCH   4  10
HETATM   10  C5  UNL     1      -1.456   2.949  20.854  1.00  0.00     0.107 C 
HETATM   11  N3  UNL     1      -0.875   3.049  19.697  1.00  0.00    -0.387 N 
ATOM     12  H32 UNL     1      -0.903   3.951  19.221  1.00  0.00     0.157 HD
ATOM     13  H31 UNL     1      -0.406   2.244  19.282  1.00  0.00     0.157 HD
BRANCH  10  14
HETATM   14  N4  UNL     1      -1.417   1.698  21.514  1.00  0.00    -0.297 N 
HETATM   15  C6  UNL     1      -2.347   0.918  22.262  1.00  0.00     0.241 C 
HETATM   16  O1  UNL     1      -3.577   0.724  22.257  1.00  0.00    -0.272 OA
HETATM   17  C7  UNL     1      -1.175   0.436  23.061  1.00  0.00     0.195 C 
HETATM   18  C13 UNL     1      -0.449   0.615  21.758  1.00  0.00     0.142 C 
BRANCH  17  19
HETATM   19  C8  UNL     1      -0.728   1.332  24.128  1.00  0.00     0.233 C 
HETATM   20  O2  UNL     1       0.399   1.855  24.024  1.00  0.00    -0.273 OA
HETATM   21  N5  UNL     1      -1.540   1.597  25.236  1.00  0.00    -0.351 N 
ATOM     22  H5  UNL     1      -2.446   1.129  25.243  1.00  0.00     0.163 HD
BRANCH  21  23
HETATM   23  C9  UNL     1      -1.266   2.436  26.356  1.00  0.00     0.029 A 
HETATM   24  C10 UNL     1      -1.625   3.929  26.212  1.00  0.00     0.038 C 
HETATM   25  C11 UNL     1      -1.496   1.828  27.724  1.00  0.00     0.033 A 
HETATM   26  C12 UNL     1      -0.125   2.087  27.244  1.00  0.00     0.033 A 
ENDBRANCH  21  23
ENDBRANCH  17  19
BRANCH  18  27
HETATM   27  C14 UNL     1      -0.706  -0.481  20.753  1.00  0.00     0.264 C 
BRANCH  27  28
HETATM   28  N6  UNL     1       0.474  -1.121  20.272  1.00  0.00    -0.065 N 
HETATM   29  C15 UNL     1       0.088  -1.932  19.129  1.00  0.00     0.237 C 
HETATM   30  C16 UNL     1       1.001  -1.792  17.960  1.00  0.00     0.028 C 
HETATM   31  C17 UNL     1       2.314  -2.532  18.132  1.00  0.00     0.006 C 
HETATM   32  C18 UNL     1       2.860  -2.141  19.485  1.00  0.00    -0.011 C 
HETATM   33  C19 UNL     1       2.810  -0.654  19.632  1.00  0.00     0.032 C 
HETATM   34  C21 UNL     1       2.161  -2.831  20.604  1.00  0.00     0.032 C 
HETATM   35  C20 UNL     1       1.448  -0.120  19.925  1.00  0.00     0.238 C 
HETATM   36  C22 UNL     1       1.092  -1.984  21.272  1.00  0.00     0.238 C 
ENDBRANCH  27  28
ENDBRANCH  18  27
ENDBRANCH  10  14
ENDBRANCH   4  10
ENDBRANCH   3   4
BRANCH   3  37
HETATM   37  N7  UNL     1      -2.616   6.221  20.282  1.00  0.00    -0.323 N 
HETATM   38  C23 UNL     1      -3.500   7.200  20.854  1.00  0.00     0.155 C 
HETATM   39  C24 UNL     1      -1.446   6.652  19.621  1.00  0.00     0.331 C 
HETATM   40  N8  UNL     1      -1.110   8.022  19.500  1.00  0.00    -0.040 NA
HETATM   41  O3  UNL     1      -0.643   5.808  19.104  1.00  0.00    -0.251 OA
ENDBRANCH   3  37
TORSDOF 9
ENDMDL
MODEL 2
REMARK VINA RESULT: -6.861532998      0.471      1.251
REMARK  9 active torsions:
REMARK  status: ('A' for Active; 'I' for Inactive)
REMARK    1  A    between atoms: C3_3  and  C4_4 
REMARK    2  A    between atoms: C3_3  and  N7_37 
REMARK    3  A    between atoms: C4_4  and  N1_5 
REMARK    4  A    between atoms: C4_4  and  C5_10 
REMARK    5  A    between atoms: C5_10  and  N4_14 
REMARK    6  A    between atoms: C7_17  and  C8_18 
REMARK       I    between atoms: C8_18  and  N5_20 
REMARK    7  A    between atoms: N5_20  and  C9_22 
REMARK    8  A    between atoms: C13_26  and  C14_27 
REMARK    9  A    between atoms: C14_27  and  N6_28 
REMARK       I    between atoms: N7_37  and  C24_39 
ROOT
HETATM    1  C1  UNL     1      -5.543   4.451  20.754  1.00  0.00     0.014 C 
HETATM    2  C2  UNL     1      -4.358   4.613  20.587  1.00  0.00    -0.089 C 
HETATM    3  C3  UNL     1      -2.907   4.803  20.358  1.00  0.00     0.198 C 
ENDROOT
BRANCH   3   4
HETATM    4  C4  UNL     1      -2.110   4.070  21.409  1.00  0.00     0.200 C 
BRANCH   4   5
HETATM    5  N1  UNL     1      -1.138   5.005  21.920  1.00  0.00    -0.328 N 
HETATM    6  N2  UNL     1      -0.411   4.642  22.848  1.00  0.00    -0.349 N 
ATOM      7  H22 UNL     1      -0.507   3.702  23.233  1.00  0.00     0.176 HD
ATOM      8  H21 UNL     1       0.276   5.303  23.210  1.00  0.00     0.176 HD
ATOM      9  H1  UNL     1      -1.055   5.942  21.525  1.00  0.00     0.180 HD
ENDBRANCH   4   5
BRANCH   4  10
HETATM   10  C5  UNL     1      -1.421   2.921  20.771  1.00  0.00     0.107 C 
HETATM   11  N3  UNL     1      -0.801   3.068  19.640  1.00  0.00    -0.387 N 
ATOM     12  H32 UNL     1      -0.802   3.992  19.208  1.00  0.00     0.157 HD
ATOM     13  H31 UNL     1      -0.328   2.278  19.202  1.00  0.00     0.157 HD
BRANCH  10  14
HETATM   14  N4  UNL     1      -1.420   1.638  21.370  1.00  0.00    -0.297 N 
HETATM   15  C6  UNL     1      -2.348   0.881  22.143  1.00  0.00     0.241 C 
HETATM   16  O1  UNL     1      -3.586   0.761  22.211  1.00  0.00    -0.272 OA
HETATM   17  C7  UNL     1      -1.160   0.290  22.840  1.00  0.00     0.195 C 
HETATM   18  C13 UNL     1      -0.509   0.488  21.500  1.00  0.00     0.142 C 
BRANCH  17  19
HETATM   19  C8  UNL     1      -0.590   1.105  23.914  1.00  0.00     0.233 C 
HETATM   20  O2  UNL     1       0.463   1.730  23.682  1.00  0.00    -0.273 OA
HETATM   21  N5  UNL     1      -1.207   1.181  25.167  1.00  0.00    -0.351 N 
ATOM     22  H5  UNL     1      -2.064   0.638  25.273  1.00  0.00     0.163 HD
BRANCH  21  23
HETATM   23  C9  UNL     1      -0.794   1.918  26.315  1.00  0.00     0.029 A 
HETATM   24  C10 UNL     1      -1.247   3.390  26.399  1.00  0.00     0.038 C 
HETATM   25  C11 UNL     1      -0.762   1.160  27.626  1.00  0.00     0.033 A 
HETATM   26  C12 UNL     1       0.495   1.559  26.965  1.00  0.00     0.033 A 
ENDBRANCH  21  23
ENDBRANCH  17  19
BRANCH  18  27
HETATM   27  C14 UNL     1      -0.898  -0.540  20.467  1.00  0.00     0.264 C 
BRANCH  27  28
HETATM   28  N6  UNL     1       0.207  -1.209  19.863  1.00  0.00    -0.065 N 
HETATM   29  C15 UNL     1       1.308  -0.261  19.812  1.00  0.00     0.237 C 
HETATM   30  C16 UNL     1       2.610  -0.831  20.260  1.00  0.00     0.028 C 
HETATM   31  C17 UNL     1       3.252  -1.741  19.230  1.00  0.00     0.006 C 
HETATM   32  C18 UNL     1       2.187  -2.717  18.787  1.00  0.00    -0.011 C 
HETATM   33  C19 UNL     1       1.513  -3.297  19.989  1.00  0.00     0.032 C 
HETATM   34  C21 UNL     1       1.209  -2.105  17.846  1.00  0.00     0.032 C 
HETATM   35  C20 UNL     1       0.532  -2.379  20.636  1.00  0.00     0.238 C 
HETATM   36  C22 UNL     1      -0.084  -1.664  18.509  1.00  0.00     0.238 C 
ENDBRANCH  27  28
ENDBRANCH  18  27
ENDBRANCH  10  14
ENDBRANCH   4  10
ENDBRANCH   3   4
BRANCH   3  37
HETATM   37  N7  UNL     1      -2.618   6.189  20.280  1.00  0.00    -0.323 N 
HETATM   38  C23 UNL     1      -3.484   7.150  20.906  1.00  0.00     0.155 C 
HETATM   39  C24 UNL     1      -1.476   6.642  19.585  1.00  0.00     0.331 C 
HETATM   40  N8  UNL     1      -1.151   8.016  19.483  1.00  0.00    -0.040 NA
HETATM   41  O3  UNL     1      -0.688   5.815  19.018  1.00  0.00    -0.251 OA
ENDBRANCH   3  37
TORSDOF 9
ENDMDL
MODEL 3
REMARK VINA RESULT: -6.724998537      1.821      2.215
REMARK  9 active torsions:
REMARK  status: ('A' for Active; 'I' for Inactive)
REMARK    1  A    between atoms: C3_3  and  C4_4 
REMARK    2  A    between atoms: C3_3  and  N7_37 
REMARK    3  A    between atoms: C4_4  and  N1_5 
REMARK    4  A    between atoms: C4_4  and  C5_10 
REMARK    5  A    between atoms: C5_10  and  N4_14 
REMARK    6  A    between atoms: C7_17  and  C8_18 
REMARK       I    between atoms: C8_18  and  N5_20 
REMARK    7  A    between atoms: N5_20  and  C9_22 
REMARK    8  A    between atoms: C13_26  and  C14_27 
REMARK    9  A    between atoms: C14_27  and  N6_28 
REMARK       I    between atoms: N7_37  and  C24_39 
ROOT
HETATM    1  C1  UNL     1      -4.520   2.282  22.633  1.00  0.00     0.014 C 
HETATM    2  C2  UNL     1      -3.529   2.727  22.108  1.00  0.00    -0.089 C 
HETATM    3  C3  UNL     1      -2.319   3.264  21.441  1.00  0.00     0.198 C 
ENDROOT
BRANCH   3   4
HETATM    4  C4  UNL     1      -1.075   2.791  22.152  1.00  0.00     0.200 C 
BRANCH   4   5
HETATM    5  N1  UNL     1      -0.204   3.935  22.269  1.00  0.00    -0.328 N 
HETATM    6  N2  UNL     1       0.250   4.212  23.382  1.00  0.00    -0.349 N 
ATOM      7  H22 UNL     1       0.005   3.638  24.189  1.00  0.00     0.176 HD
ATOM      8  H21 UNL     1       0.866   5.021  23.465  1.00  0.00     0.176 HD
ATOM      9  H1  UNL     1       0.031   4.499  21.452  1.00  0.00     0.180 HD
ENDBRANCH   4   5
BRANCH   4  10
HETATM   10  C5  UNL     1      -0.425   1.739  21.332  1.00  0.00     0.107 C 
HETATM   11  N3  UNL     1       0.250   2.055  20.269  1.00  0.00    -0.387 N 
ATOM     12  H32 UNL     1       0.318   3.041  20.018  1.00  0.00     0.157 HD
ATOM     13  H31 UNL     1       0.696   1.332  19.705  1.00  0.00     0.157 HD
BRANCH  10  14
HETATM   14  N4  UNL     1      -0.520   0.371  21.679  1.00  0.00    -0.297 N 
HETATM   15  C6  UNL     1      -1.589  -0.540  21.923  1.00  0.00     0.241 C 
HETATM   16  O1  UNL     1      -2.751  -0.706  21.508  1.00  0.00    -0.272 OA
HETATM   17  C7  UNL     1      -0.682  -1.213  22.909  1.00  0.00     0.195 C 
HETATM   18  C13 UNL     1       0.386  -0.757  21.955  1.00  0.00     0.142 C 
BRANCH  17  19
HETATM   19  C8  UNL     1      -0.616  -0.590  24.231  1.00  0.00     0.233 C 
HETATM   20  O2  UNL     1      -1.676  -0.184  24.745  1.00  0.00    -0.273 OA
HETATM   21  N5  UNL     1       0.604  -0.451  24.903  1.00  0.00    -0.351 N 
ATOM     22  H5  UNL     1       1.423  -0.809  24.413  1.00  0.00     0.163 HD
BRANCH  21  23
HETATM   23  C9  UNL     1       0.850   0.126  26.183  1.00  0.00     0.029 A 
HETATM   24  C10 UNL     1       0.438  -0.708  27.414  1.00  0.00     0.038 C 
HETATM   25  C11 UNL     1       2.125   0.930  26.324  1.00  0.00     0.033 A 
HETATM   26  C12 UNL     1       0.815   1.607  26.315  1.00  0.00     0.033 A 
ENDBRANCH  21  23
ENDBRANCH  17  19
BRANCH  18  27
HETATM   27  C14 UNL     1       0.493  -1.593  20.704  1.00  0.00     0.264 C 
BRANCH  27  28
HETATM   28  N6  UNL     1       1.802  -2.096  20.447  1.00  0.00    -0.065 N 
HETATM   29  C15 UNL     1       1.650  -3.311  19.662  1.00  0.00     0.237 C 
HETATM   30  C16 UNL     1       2.574  -3.390  18.497  1.00  0.00     0.028 C 
HETATM   31  C17 UNL     1       4.000  -3.734  18.883  1.00  0.00     0.006 C 
HETATM   32  C18 UNL     1       4.384  -2.798  20.006  1.00  0.00    -0.011 C 
HETATM   33  C19 UNL     1       4.022  -1.397  19.632  1.00  0.00     0.032 C 
HETATM   34  C21 UNL     1       3.783  -3.195  21.310  1.00  0.00     0.032 C 
HETATM   35  C20 UNL     1       2.567  -1.093  19.753  1.00  0.00     0.238 C 
HETATM   36  C22 UNL     1       2.531  -2.415  21.668  1.00  0.00     0.238 C 
ENDBRANCH  27  28
ENDBRANCH  18  27
ENDBRANCH  10  14
ENDBRANCH   4  10
ENDBRANCH   3   4
BRANCH   3  37
HETATM   37  N7  UNL     1      -2.422   4.673  21.337  1.00  0.00    -0.323 N 
HETATM   38  C23 UNL     1      -3.102   5.431  22.353  1.00  0.00     0.155 C 
HETATM   39  C24 UNL     1      -1.859   5.352  20.234  1.00  0.00     0.331 C 
HETATM   40  N8  UNL     1      -1.939   6.758  20.093  1.00  0.00    -0.040 NA
HETATM   41  O3  UNL     1      -1.250   4.708  19.318  1.00  0.00    -0.251 OA
ENDBRANCH   3  37
TORSDOF 9
ENDMDL
MODEL 4
REMARK VINA RESULT: -6.570002047      1.556      2.177
REMARK  9 active torsions:
REMARK  status: ('A' for Active; 'I' for Inactive)
REMARK    1  A    between atoms: C3_3  and  C4_4 
REMARK    2  A    between atoms: C3_3  and  N7_37 
REMARK    3  A    between atoms: C4_4  and  N1_5 
REMARK    4  A    between atoms: C4_4  and  C5_10 
REMARK    5  A    between atoms: C5_10  and  N4_14 
REMARK    6  A    between atoms: C7_17  and  C8_18 
REMARK       I    between atoms: C8_18  and  N5_20 
REMARK    7  A    between atoms: N5_20  and  C9_22 
REMARK    8  A    between atoms: C13_26  and  C14_27 
REMARK    9  A    between atoms: C14_27  and  N6_28 
REMARK       I    between atoms: N7_37  and  C24_39 
ROOT
HETATM    1  C1  UNL     1      -5.582   4.412  21.463  1.00  0.00     0.014 C 
HETATM    2  C2  UNL     1      -4.397   4.612  21.356  1.00  0.00    -0.089 C 
HETATM    3  C3  UNL     1      -2.939   4.839  21.208  1.00  0.00     0.198 C 
ENDROOT
BRANCH   3   4
HETATM    4  C4  UNL     1      -2.263   4.797  22.557  1.00  0.00     0.200 C 
BRANCH   4   5
HETATM    5  N1  UNL     1      -0.849   4.660  22.308  1.00  0.00    -0.328 N 
HETATM    6  N2  UNL     1      -0.100   4.498  23.274  1.00  0.00    -0.349 N 
ATOM      7  H22 UNL     1      -0.486   4.465  24.218  1.00  0.00     0.176 HD
ATOM      8  H21 UNL     1       0.900   4.401  23.099  1.00  0.00     0.176 HD
ATOM      9  H1  UNL     1      -0.479   4.695  21.358  1.00  0.00     0.180 HD
ENDBRANCH   4   5
BRANCH   4  10
HETATM   10  C5  UNL     1      -2.764   3.618  23.306  1.00  0.00     0.107 C 
HETATM   11  N3  UNL     1      -3.379   3.770  24.440  1.00  0.00    -0.387 N 
ATOM     12  H32 UNL     1      -3.505   4.717  24.796  1.00  0.00     0.157 HD
ATOM     13  H31 UNL     1      -3.722   2.959  24.955  1.00  0.00     0.157 HD
BRANCH  10  14
HETATM   14  N4  UNL     1      -2.588   2.303  22.813  1.00  0.00    -0.297 N 
HETATM   15  C6  UNL     1      -3.438   1.176  22.609  1.00  0.00     0.241 C 
HETATM   16  O1  UNL     1      -4.631   0.984  22.308  1.00  0.00    -0.272 OA
HETATM   17  C7  UNL     1      -2.245   0.324  22.919  1.00  0.00     0.195 C 
HETATM   18  C13 UNL     1      -1.498   1.464  22.287  1.00  0.00     0.142 C 
BRANCH  17  19
HETATM   19  C8  UNL     1      -1.961   0.133  24.342  1.00  0.00     0.233 C 
HETATM   20  O2  UNL     1      -2.869  -0.316  25.069  1.00  0.00    -0.273 OA
HETATM   21  N5  UNL     1      -0.706   0.443  24.876  1.00  0.00    -0.351 N 
ATOM     22  H5  UNL     1      -0.020   0.805  24.213  1.00  0.00     0.163 HD
BRANCH  21  23
HETATM   23  C9  UNL     1      -0.260   0.321  26.224  1.00  0.00     0.029 A 
HETATM   24  C10 UNL     1       0.010  -1.107  26.742  1.00  0.00     0.038 C 
HETATM   25  C11 UNL     1       0.684   1.396  26.721  1.00  0.00     0.033 A 
HETATM   26  C12 UNL     1      -0.704   1.337  27.215  1.00  0.00     0.033 A 
ENDBRANCH  21  23
ENDBRANCH  17  19
BRANCH  18  27
HETATM   27  C14 UNL     1      -1.570   1.489  20.780  1.00  0.00     0.264 C 
BRANCH  27  28
HETATM   28  N6  UNL     1      -0.524   0.767  20.134  1.00  0.00    -0.065 N 
HETATM   29  C15 UNL     1      -1.089  -0.492  19.675  1.00  0.00     0.237 C 
HETATM   30  C16 UNL     1      -0.714  -0.843  18.277  1.00  0.00     0.028 C 
HETATM   31  C17 UNL     1       0.708  -1.352  18.147  1.00  0.00     0.006 C 
HETATM   32  C18 UNL     1       1.593  -0.364  18.871  1.00  0.00    -0.011 C 
HETATM   33  C19 UNL     1       1.248   1.024  18.437  1.00  0.00     0.032 C 
HETATM   34  C21 UNL     1       1.523  -0.514  20.351  1.00  0.00     0.032 C 
HETATM   35  C20 UNL     1      -0.004   1.557  19.048  1.00  0.00     0.238 C 
HETATM   36  C22 UNL     1       0.596   0.482  21.023  1.00  0.00     0.238 C 
ENDBRANCH  27  28
ENDBRANCH  18  27
ENDBRANCH  10  14
ENDBRANCH   4  10
ENDBRANCH   3   4
BRANCH   3  37
HETATM   37  N7  UNL     1      -2.718   6.041  20.491  1.00  0.00    -0.323 N 
HETATM   38  C23 UNL     1      -3.555   7.188  20.716  1.00  0.00     0.155 C 
HETATM   39  C24 UNL     1      -1.673   6.127  19.546  1.00  0.00     0.331 C 
HETATM   40  N8  UNL     1      -1.418   7.308  18.809  1.00  0.00    -0.040 NA
HETATM   41  O3  UNL     1      -0.914   5.127  19.324  1.00  0.00    -0.251 OA
ENDBRANCH   3  37
TORSDOF 9
ENDMDL
MODEL 5
REMARK VINA RESULT: -6.553625116      3.554      5.583
REMARK  9 active torsions:
REMARK  status: ('A' for Active; 'I' for Inactive)
REMARK    1  A    between atoms: C3_3  and  C4_4 
REMARK    2  A    between atoms: C3_3  and  N7_37 
REMARK    3  A    between atoms: C4_4  and  N1_5 
REMARK    4  A    between atoms: C4_4  and  C5_10 
REMARK    5  A    between atoms: C5_10  and  N4_14 
REMARK    6  A    between atoms: C7_17  and  C8_18 
REMARK       I    between atoms: C8_18  and  N5_20 
REMARK    7  A    between atoms: N5_20  and  C9_22 
REMARK    8  A    between atoms: C13_26  and  C14_27 
REMARK    9  A    between atoms: C14_27  and  N6_28 
REMARK       I    between atoms: N7_37  and  C24_39 
ROOT
HETATM    1  C1  UNL     1      -5.201   4.562  21.009  1.00  0.00     0.014 C 
HETATM    2  C2  UNL     1      -4.059   4.883  20.784  1.00  0.00    -0.089 C 
HETATM    3  C3  UNL     1      -2.658   5.262  20.486  1.00  0.00     0.198 C 
ENDROOT
BRANCH   3   4
HETATM    4  C4  UNL     1      -1.770   4.959  21.668  1.00  0.00     0.200 C 
BRANCH   4   5
HETATM    5  N1  UNL     1      -0.848   3.934  21.243  1.00  0.00    -0.328 N 
HETATM    6  N2  UNL     1      -0.843   3.611  20.053  1.00  0.00    -0.349 N 
ATOM      7  H22 UNL     1      -1.480   4.066  19.399  1.00  0.00     0.176 HD
ATOM      8  H21 UNL     1      -0.191   2.887  19.752  1.00  0.00     0.176 HD
ATOM      9  H1  UNL     1      -0.217   3.489  21.910  1.00  0.00     0.180 HD
ENDBRANCH   4   5
BRANCH   4  10
HETATM   10  C5  UNL     1      -2.613   4.453  22.781  1.00  0.00     0.107 C 
HETATM   11  N3  UNL     1      -3.276   5.278  23.533  1.00  0.00    -0.387 N 
ATOM     12  H32 UNL     1      -3.201   6.276  23.335  1.00  0.00     0.157 HD
ATOM     13  H31 UNL     1      -3.855   4.931  24.297  1.00  0.00     0.157 HD
BRANCH  10  14
HETATM   14  N4  UNL     1      -2.717   3.069  23.055  1.00  0.00    -0.297 N 
HETATM   15  C6  UNL     1      -2.848   1.888  22.267  1.00  0.00     0.241 C 
HETATM   16  O1  UNL     1      -2.465   1.498  21.148  1.00  0.00    -0.272 OA
HETATM   17  C7  UNL     1      -3.655   1.322  23.397  1.00  0.00     0.195 C 
HETATM   18  C13 UNL     1      -2.746   2.182  24.230  1.00  0.00     0.142 C 
BRANCH  17  19
HETATM   19  C8  UNL     1      -5.062   1.724  23.428  1.00  0.00     0.233 C 
HETATM   20  O2  UNL     1      -5.775   1.447  22.445  1.00  0.00    -0.273 OA
HETATM   21  N5  UNL     1      -5.594   2.400  24.531  1.00  0.00    -0.351 N 
ATOM     22  H5  UNL     1      -4.942   2.587  25.293  1.00  0.00     0.163 HD
BRANCH  21  23
HETATM   23  C9  UNL     1      -6.928   2.861  24.729  1.00  0.00     0.029 A 
HETATM   24  C10 UNL     1      -7.978   1.807  25.137  1.00  0.00     0.038 C 
HETATM   25  C11 UNL     1      -7.080   4.228  25.364  1.00  0.00     0.033 A 
HETATM   26  C12 UNL     1      -7.401   4.030  23.939  1.00  0.00     0.033 A 
ENDBRANCH  21  23
ENDBRANCH  17  19
BRANCH  18  27
HETATM   27  C14 UNL     1      -1.363   1.611  24.424  1.00  0.00     0.264 C 
BRANCH  27  28
HETATM   28  N6  UNL     1      -0.908   1.627  25.775  1.00  0.00    -0.065 N 
HETATM   29  C15 UNL     1      -0.746   3.020  26.158  1.00  0.00     0.237 C 
HETATM   30  C16 UNL     1      -1.319   3.345  27.493  1.00  0.00     0.028 C 
HETATM   31  C17 UNL     1      -0.467   2.854  28.648  1.00  0.00     0.006 C 
HETATM   32  C18 UNL     1      -0.148   1.405  28.368  1.00  0.00    -0.011 C 
HETATM   33  C19 UNL     1      -1.403   0.681  27.999  1.00  0.00     0.032 C 
HETATM   34  C21 UNL     1       0.909   1.243  27.332  1.00  0.00     0.032 C 
HETATM   35  C20 UNL     1      -1.866   0.943  26.605  1.00  0.00     0.238 C 
HETATM   36  C22 UNL     1       0.367   0.941  25.947  1.00  0.00     0.238 C 
ENDBRANCH  27  28
ENDBRANCH  18  27
ENDBRANCH  10  14
ENDBRANCH   4  10
ENDBRANCH   3   4
BRANCH   3  37
HETATM   37  N7  UNL     1      -2.613   6.615  20.065  1.00  0.00    -0.323 N 
HETATM   38  C23 UNL     1      -3.670   7.523  20.419  1.00  0.00     0.155 C 
HETATM   39  C24 UNL     1      -1.530   7.087  19.293  1.00  0.00     0.331 C 
HETATM   40  N8  UNL     1      -1.446   8.430  18.853  1.00  0.00    -0.040 NA
HETATM   41  O3  UNL     1      -0.577   6.306  18.963  1.00  0.00    -0.251 OA
ENDBRANCH   3  37
TORSDOF 9
ENDMDL
