MODEL 1
REMARK VINA RESULT: -7.715241319      0.000      0.000
REMARK  12 active torsions:
REMARK  status: ('A' for Active; 'I' for Inactive)
REMARK    1  A    between atoms: C3_3  and  C4_4 
REMARK    2  A    between atoms: C4_4  and  N1_5 
REMARK    3  A    between atoms: N1_5  and  C5_6 
REMARK    4  A    between atoms: C6_7  and  O1_8 
REMARK    5  A    between atoms: C6_7  and  N2_10 
REMARK    6  A    between atoms: N3_15  and  N4_17 
REMARK    7  A    between atoms: N4_17  and  N5_19 
REMARK    8  A    between atoms: C16_28  and  C17_29 
REMARK    9  A    between atoms: C19_31  and  C20_32 
REMARK   10  A    between atoms: C20_32  and  C21_33 
REMARK       I    between atoms: C21_33  and  N6_35 
REMARK   11  A    between atoms: N6_35  and  C22_37 
REMARK   12  A    between atoms: N7_39  and  O3_40 
ROOT
HETATM    1  C1  UNL     1      -0.875   6.756  29.382  1.00  0.00     0.112 C 
HETATM    2  C2  UNL     1      -1.548   5.938  28.364  1.00  0.00    -0.109 C 
HETATM    3  C3  UNL     1      -2.089   5.270  27.510  1.00  0.00    -0.078 C 
ENDROOT
BRANCH   3   4
HETATM    4  C4  UNL     1      -2.719   4.456  26.470  1.00  0.00     0.348 C 
BRANCH   4   5
HETATM    5  N1  UNL     1      -1.773   3.501  25.863  1.00  0.00     0.017 N 
HETATM    6  C8  UNL     1      -0.794   3.223  26.830  1.00  0.00     0.242 C 
HETATM    7  C9  UNL     1      -0.612   1.828  27.314  1.00  0.00     0.057 C 
HETATM    8  N3  UNL     1      -0.059   1.682  28.431  1.00  0.00    -0.289 N 
HETATM    9  C10 UNL     1      -1.072   0.776  26.450  1.00  0.00     0.053 C 
ATOM     10  H3  UNL     1       0.207   2.554  28.887  1.00  0.00     0.188 HD
HETATM   11  C11 UNL     1      -1.091  -0.621  26.934  1.00  0.00     0.012 C 
HETATM   12  C15 UNL     1      -2.538   1.143  26.172  1.00  0.00     0.025 A 
HETATM   13  C12 UNL     1      -2.030  -1.226  25.863  1.00  0.00     0.006 C 
HETATM   14  C13 UNL     1      -3.031  -0.143  25.657  1.00  0.00     0.002 A 
HETATM   15  C14 UNL     1      -3.544   0.533  26.934  1.00  0.00     0.023 A 
HETATM   16  C16 UNL     1      -2.470   2.359  25.314  1.00  0.00     0.141 C 
BRANCH   5  17
HETATM   17  C5  UNL     1      -1.131   4.149  24.744  1.00  0.00     0.270 C 
HETATM   18  C6  UNL     1      -0.221   3.527  23.852  1.00  0.00     0.160 C 
BRANCH  18  19
HETATM   19  O1  UNL     1       0.250   4.305  22.882  1.00  0.00    -0.345 OA
ATOM     20  H1  UNL     1      -0.188   4.221  22.043  1.00  0.00     0.219 HD
ENDBRANCH  18  19
BRANCH  18  21
HETATM   21  N2  UNL     1       0.277   2.236  23.808  1.00  0.00    -0.374 N 
HETATM   22  C7  UNL     1      -0.125   1.270  22.762  1.00  0.00     0.148 C 
ATOM     23  H2  UNL     1       0.943   1.940  24.521  1.00  0.00     0.161 HD
ENDBRANCH  18  21
ENDBRANCH   5  17
BRANCH   8  24
HETATM   24  N4  UNL     1       0.250   0.555  29.142  1.00  0.00    -0.249 N 
ATOM     25  H4  UNL     1       0.529  -0.290  28.645  1.00  0.00     0.207 HD
BRANCH  24  26
HETATM   26  N5  UNL     1       0.194   0.544  30.428  1.00  0.00    -0.331 N 
ATOM     27  H52 UNL     1      -0.102   1.394  30.909  1.00  0.00     0.178 HD
ATOM     28  H51 UNL     1       0.440  -0.292  30.959  1.00  0.00     0.178 HD
ENDBRANCH  24  26
ENDBRANCH   8  24
BRANCH  16  29
HETATM   29  C17 UNL     1      -3.657   2.607  24.494  1.00  0.00    -0.033 C 
HETATM   30  C18 UNL     1      -5.071   2.694  24.959  1.00  0.00     0.050 C 
HETATM   31  C19 UNL     1      -3.590   2.768  23.164  1.00  0.00    -0.009 C 
BRANCH  31  32
HETATM   32  C20 UNL     1      -4.685   3.018  22.242  1.00  0.00     0.131 C 
BRANCH  32  33
HETATM   33  C21 UNL     1      -4.903   4.461  21.955  1.00  0.00     0.226 C 
HETATM   34  O2  UNL     1      -5.980   4.910  21.482  1.00  0.00    -0.273 OA
HETATM   35  N6  UNL     1      -3.872   5.404  22.213  1.00  0.00    -0.312 N 
ATOM     36  H6  UNL     1      -3.556   5.510  23.178  1.00  0.00     0.170 HD
BRANCH  35  37
HETATM   37  C22 UNL     1      -3.312   6.128  21.322  1.00  0.00     0.125 A 
HETATM   38  C23 UNL     1      -1.993   5.961  20.938  1.00  0.00     0.170 A 
HETATM   39  N7  UNL     1      -1.442   6.745  19.993  1.00  0.00    -0.242 N 
HETATM   40  C24 UNL     1      -2.211   7.697  19.433  1.00  0.00     0.139 A 
HETATM   41  C25 UNL     1      -3.525   7.861  19.817  1.00  0.00     0.109 A 
HETATM   42  N8  UNL     1      -4.095   7.090  20.757  1.00  0.00    -0.350 N 
ATOM     43  H8  UNL     1      -5.068   7.219  21.035  1.00  0.00     0.166 HD
BRANCH  39  44
HETATM   44  O3  UNL     1      -0.125   6.556  19.632  1.00  0.00    -0.284 OA
ATOM     45  H3  UNL     1       0.317   7.212  19.106  1.00  0.00     0.245 HD
ENDBRANCH  39  44
ENDBRANCH  35  37
ENDBRANCH  32  33
ENDBRANCH  31  32
ENDBRANCH  16  29
ENDBRANCH   4   5
ENDBRANCH   3   4
TORSDOF 12
ENDMDL
MODEL 2
REMARK VINA RESULT: -7.589878658      2.703      5.179
REMARK  12 active torsions:
REMARK  status: ('A' for Active; 'I' for Inactive)
REMARK    1  A    between atoms: C3_3  and  C4_4 
REMARK    2  A    between atoms: C4_4  and  N1_5 
REMARK    3  A    between atoms: N1_5  and  C5_6 
REMARK    4  A    between atoms: C6_7  and  O1_8 
REMARK    5  A    between atoms: C6_7  and  N2_10 
REMARK    6  A    between atoms: N3_15  and  N4_17 
REMARK    7  A    between atoms: N4_17  and  N5_19 
REMARK    8  A    between atoms: C16_28  and  C17_29 
REMARK    9  A    between atoms: C19_31  and  C20_32 
REMARK   10  A    between atoms: C20_32  and  C21_33 
REMARK       I    between atoms: C21_33  and  N6_35 
REMARK   11  A    between atoms: N6_35  and  C22_37 
REMARK   12  A    between atoms: N7_39  and  O3_40 
ROOT
HETATM    1  C1  UNL     1      -4.593   0.925  29.894  1.00  0.00     0.112 C 
HETATM    2  C2  UNL     1      -4.548   1.504  28.545  1.00  0.00    -0.109 C 
HETATM    3  C3  UNL     1      -4.508   2.001  27.441  1.00  0.00    -0.078 C 
ENDROOT
BRANCH   3   4
HETATM    4  C4  UNL     1      -4.442   2.617  26.114  1.00  0.00     0.348 C 
BRANCH   4   5
HETATM    5  N1  UNL     1      -4.317   4.084  26.189  1.00  0.00     0.017 N 
HETATM    6  C8  UNL     1      -5.252   4.527  27.139  1.00  0.00     0.242 C 
HETATM    7  C9  UNL     1      -4.782   5.250  28.352  1.00  0.00     0.057 C 
HETATM    8  N3  UNL     1      -5.550   5.254  29.344  1.00  0.00    -0.289 N 
HETATM    9  C10 UNL     1      -3.498   5.891  28.270  1.00  0.00     0.053 C 
ATOM     10  H3  UNL     1      -6.426   4.751  29.202  1.00  0.00     0.188 HD
HETATM   11  C11 UNL     1      -2.884   6.472  29.482  1.00  0.00     0.012 C 
HETATM   12  C15 UNL     1      -2.553   4.764  27.821  1.00  0.00     0.025 A 
HETATM   13  C12 UNL     1      -1.432   6.607  28.967  1.00  0.00     0.006 C 
HETATM   14  C13 UNL     1      -1.255   5.368  28.159  1.00  0.00     0.002 A 
HETATM   15  C14 UNL     1      -1.805   4.084  28.792  1.00  0.00     0.023 A 
HETATM   16  C16 UNL     1      -2.943   4.477  26.413  1.00  0.00     0.141 C 
BRANCH   5  17
HETATM   17  C5  UNL     1      -4.683   4.636  24.906  1.00  0.00     0.270 C 
HETATM   18  C6  UNL     1      -5.884   4.354  24.208  1.00  0.00     0.160 C 
BRANCH  18  19
HETATM   19  O1  UNL     1      -6.027   4.977  23.041  1.00  0.00    -0.345 OA
ATOM     20  H1  UNL     1      -6.469   4.479  22.364  1.00  0.00     0.219 HD
ENDBRANCH  18  19
BRANCH  18  21
HETATM   21  N2  UNL     1      -6.953   3.533  24.524  1.00  0.00    -0.374 N 
HETATM   22  C7  UNL     1      -8.348   4.025  24.544  1.00  0.00     0.148 C 
ATOM     23  H2  UNL     1      -6.773   2.555  24.750  1.00  0.00     0.161 HD
ENDBRANCH  18  21
ENDBRANCH   5  17
BRANCH   8  24
HETATM   24  N4  UNL     1      -5.417   5.817  30.583  1.00  0.00    -0.249 N 
ATOM     25  H4  UNL     1      -4.824   5.365  31.278  1.00  0.00     0.207 HD
BRANCH  24  26
HETATM   26  N5  UNL     1      -6.029   6.909  30.887  1.00  0.00    -0.331 N 
ATOM     27  H52 UNL     1      -6.972   7.054  30.526  1.00  0.00     0.178 HD
ATOM     28  H51 UNL     1      -5.586   7.616  31.475  1.00  0.00     0.178 HD
ENDBRANCH  24  26
ENDBRANCH   8  24
BRANCH  16  29
HETATM   29  C17 UNL     1      -1.906   3.843  25.599  1.00  0.00    -0.033 C 
HETATM   30  C18 UNL     1      -1.191   2.567  25.885  1.00  0.00     0.050 C 
HETATM   31  C19 UNL     1      -1.454   4.389  24.460  1.00  0.00    -0.009 C 
BRANCH  31  32
HETATM   32  C20 UNL     1      -0.435   3.866  23.566  1.00  0.00     0.131 C 
BRANCH  32  33
HETATM   33  C21 UNL     1      -0.816   3.927  22.129  1.00  0.00     0.226 C 
HETATM   34  O2  UNL     1      -0.149   3.368  21.219  1.00  0.00    -0.273 OA
HETATM   35  N6  UNL     1      -1.980   4.638  21.729  1.00  0.00    -0.312 N 
ATOM     36  H6  UNL     1      -2.879   4.318  22.088  1.00  0.00     0.170 HD
BRANCH  35  37
HETATM   37  C22 UNL     1      -1.977   5.652  20.951  1.00  0.00     0.125 A 
HETATM   38  C23 UNL     1      -3.113   6.396  20.683  1.00  0.00     0.170 A 
HETATM   39  N7  UNL     1      -3.066   7.458  19.857  1.00  0.00    -0.242 N 
HETATM   40  C24 UNL     1      -1.883   7.774  19.299  1.00  0.00     0.139 A 
HETATM   41  C25 UNL     1      -0.753   7.030  19.568  1.00  0.00     0.109 A 
HETATM   42  N8  UNL     1      -0.776   5.968  20.388  1.00  0.00    -0.350 N 
ATOM     43  H8  UNL     1       0.064   5.423  20.580  1.00  0.00     0.166 HD
BRANCH  39  44
HETATM   44  O3  UNL     1      -4.214   8.180  19.609  1.00  0.00    -0.284 OA
ATOM     45  H3  UNL     1      -4.236   8.791  18.882  1.00  0.00     0.245 HD
ENDBRANCH  39  44
ENDBRANCH  35  37
ENDBRANCH  32  33
ENDBRANCH  31  32
ENDBRANCH  16  29
ENDBRANCH   4   5
ENDBRANCH   3   4
TORSDOF 12
ENDMDL
MODEL 3
REMARK VINA RESULT: -7.492481170      2.712      4.712
REMARK  12 active torsions:
REMARK  status: ('A' for Active; 'I' for Inactive)
REMARK    1  A    between atoms: C3_3  and  C4_4 
REMARK    2  A    between atoms: C4_4  and  N1_5 
REMARK    3  A    between atoms: N1_5  and  C5_6 
REMARK    4  A    between atoms: C6_7  and  O1_8 
REMARK    5  A    between atoms: C6_7  and  N2_10 
REMARK    6  A    between atoms: N3_15  and  N4_17 
REMARK    7  A    between atoms: N4_17  and  N5_19 
REMARK    8  A    between atoms: C16_28  and  C17_29 
REMARK    9  A    between atoms: C19_31  and  C20_32 
REMARK   10  A    between atoms: C20_32  and  C21_33 
REMARK       I    between atoms: C21_33  and  N6_35 
REMARK   11  A    between atoms: N6_35  and  C22_37 
REMARK   12  A    between atoms: N7_39  and  O3_40 
ROOT
HETATM    1  C1  UNL     1      -0.949   7.351  30.436  1.00  0.00     0.112 C 
HETATM    2  C2  UNL     1      -1.339   6.604  29.234  1.00  0.00    -0.109 C 
HETATM    3  C3  UNL     1      -1.671   6.005  28.234  1.00  0.00    -0.078 C 
ENDROOT
BRANCH   3   4
HETATM    4  C4  UNL     1      -2.066   5.302  27.012  1.00  0.00     0.348 C 
BRANCH   4   5
HETATM    5  N1  UNL     1      -2.845   4.083  27.300  1.00  0.00     0.017 N 
HETATM    6  C8  UNL     1      -3.990   4.486  28.007  1.00  0.00     0.242 C 
HETATM    7  C9  UNL     1      -5.338   4.221  27.437  1.00  0.00     0.057 C 
HETATM    8  N3  UNL     1      -6.282   4.935  27.854  1.00  0.00    -0.289 N 
HETATM    9  C10 UNL     1      -5.439   3.159  26.474  1.00  0.00     0.053 C 
ATOM     10  H3  UNL     1      -6.009   5.630  28.550  1.00  0.00     0.188 HD
HETATM   11  C11 UNL     1      -6.700   2.953  25.732  1.00  0.00     0.012 C 
HETATM   12  C15 UNL     1      -4.385   3.522  25.416  1.00  0.00     0.025 A 
HETATM   13  C12 UNL     1      -6.158   2.057  24.593  1.00  0.00     0.006 C 
HETATM   14  C13 UNL     1      -4.827   2.662  24.308  1.00  0.00     0.002 A 
HETATM   15  C14 UNL     1      -4.796   4.194  24.256  1.00  0.00     0.023 A 
HETATM   16  C16 UNL     1      -3.076   3.318  26.095  1.00  0.00     0.141 C 
BRANCH   5  17
HETATM   17  C5  UNL     1      -2.058   3.235  28.163  1.00  0.00     0.270 C 
HETATM   18  C6  UNL     1      -2.465   1.970  28.658  1.00  0.00     0.160 C 
BRANCH  18  19
HETATM   19  O1  UNL     1      -1.580   1.350  29.435  1.00  0.00    -0.345 OA
ATOM     20  H1  UNL     1      -0.741   1.786  29.526  1.00  0.00     0.219 HD
ENDBRANCH  18  19
BRANCH  18  21
HETATM   21  N2  UNL     1      -3.635   1.253  28.479  1.00  0.00    -0.374 N 
HETATM   22  C7  UNL     1      -4.638   1.098  29.555  1.00  0.00     0.148 C 
ATOM     23  H2  UNL     1      -3.812   0.817  27.575  1.00  0.00     0.161 HD
ENDBRANCH  18  21
ENDBRANCH   5  17
BRANCH   8  24
HETATM   24  N4  UNL     1      -7.612   4.943  27.538  1.00  0.00    -0.249 N 
ATOM     25  H4  UNL     1      -8.163   4.095  27.667  1.00  0.00     0.207 HD
BRANCH  24  26
HETATM   26  N5  UNL     1      -8.181   6.005  27.082  1.00  0.00    -0.331 N 
ATOM     27  H52 UNL     1      -9.065   6.299  27.499  1.00  0.00     0.178 HD
ATOM     28  H51 UNL     1      -7.762   6.542  26.323  1.00  0.00     0.178 HD
ENDBRANCH  24  26
ENDBRANCH   8  24
BRANCH  16  29
HETATM   29  C17 UNL     1      -1.941   3.088  25.199  1.00  0.00    -0.033 C 
HETATM   30  C18 UNL     1      -1.136   1.841  25.068  1.00  0.00     0.050 C 
HETATM   31  C19 UNL     1      -1.472   4.039  24.376  1.00  0.00    -0.009 C 
BRANCH  31  32
HETATM   32  C20 UNL     1      -0.360   3.939  23.446  1.00  0.00     0.131 C 
BRANCH  32  33
HETATM   33  C21 UNL     1      -0.775   3.989  22.018  1.00  0.00     0.226 C 
HETATM   34  O2  UNL     1      -0.129   3.421  21.098  1.00  0.00    -0.273 OA
HETATM   35  N6  UNL     1      -1.945   4.700  21.639  1.00  0.00    -0.312 N 
ATOM     36  H6  UNL     1      -2.837   4.385  22.021  1.00  0.00     0.170 HD
BRANCH  35  37
HETATM   37  C22 UNL     1      -1.958   5.707  20.852  1.00  0.00     0.125 A 
HETATM   38  C23 UNL     1      -3.104   6.437  20.585  1.00  0.00     0.170 A 
HETATM   39  N7  UNL     1      -3.074   7.493  19.750  1.00  0.00    -0.242 N 
HETATM   40  C24 UNL     1      -1.898   7.816  19.182  1.00  0.00     0.139 A 
HETATM   41  C25 UNL     1      -0.758   7.087  19.450  1.00  0.00     0.109 A 
HETATM   42  N8  UNL     1      -0.765   6.032  20.279  1.00  0.00    -0.350 N 
ATOM     43  H8  UNL     1       0.083   5.498  20.471  1.00  0.00     0.166 HD
BRANCH  39  44
HETATM   44  O3  UNL     1      -4.230   8.200  19.504  1.00  0.00    -0.284 OA
ATOM     45  H3  UNL     1      -4.176   9.101  19.207  1.00  0.00     0.245 HD
ENDBRANCH  39  44
ENDBRANCH  35  37
ENDBRANCH  32  33
ENDBRANCH  31  32
ENDBRANCH  16  29
ENDBRANCH   4   5
ENDBRANCH   3   4
TORSDOF 12
ENDMDL
MODEL 4
REMARK VINA RESULT: -7.481218805      2.631      4.209
REMARK  12 active torsions:
REMARK  status: ('A' for Active; 'I' for Inactive)
REMARK    1  A    between atoms: C3_3  and  C4_4 
REMARK    2  A    between atoms: C4_4  and  N1_5 
REMARK    3  A    between atoms: N1_5  and  C5_6 
REMARK    4  A    between atoms: C6_7  and  O1_8 
REMARK    5  A    between atoms: C6_7  and  N2_10 
REMARK    6  A    between atoms: N3_15  and  N4_17 
REMARK    7  A    between atoms: N4_17  and  N5_19 
REMARK    8  A    between atoms: C16_28  and  C17_29 
REMARK    9  A    between atoms: C19_31  and  C20_32 
REMARK   10  A    between atoms: C20_32  and  C21_33 
REMARK       I    between atoms: C21_33  and  N6_35 
REMARK   11  A    between atoms: N6_35  and  C22_37 
REMARK   12  A    between atoms: N7_39  and  O3_40 
ROOT
HETATM    1  C1  UNL     1      -0.896   7.786  30.535  1.00  0.00     0.112 C 
HETATM    2  C2  UNL     1      -1.172   6.858  29.431  1.00  0.00    -0.109 C 
HETATM    3  C3  UNL     1      -1.416   6.106  28.512  1.00  0.00    -0.078 C 
ENDROOT
BRANCH   3   4
HETATM    4  C4  UNL     1      -1.713   5.218  27.388  1.00  0.00     0.348 C 
BRANCH   4   5
HETATM    5  N1  UNL     1      -2.110   3.869  27.835  1.00  0.00     0.017 N 
HETATM    6  C8  UNL     1      -3.272   4.021  28.610  1.00  0.00     0.242 C 
HETATM    7  C9  UNL     1      -4.533   3.355  28.185  1.00  0.00     0.057 C 
HETATM    8  N3  UNL     1      -5.605   3.830  28.630  1.00  0.00    -0.289 N 
HETATM    9  C10 UNL     1      -4.405   2.217  27.316  1.00  0.00     0.053 C 
ATOM     10  H3  UNL     1      -5.486   4.636  29.244  1.00  0.00     0.188 HD
HETATM   11  C11 UNL     1      -5.609   1.614  26.708  1.00  0.00     0.012 C 
HETATM   12  C15 UNL     1      -3.562   2.743  26.143  1.00  0.00     0.025 A 
HETATM   13  C12 UNL     1      -4.921   0.788  25.595  1.00  0.00     0.006 C 
HETATM   14  C13 UNL     1      -3.826   1.693  25.147  1.00  0.00     0.002 A 
HETATM   15  C14 UNL     1      -4.216   3.167  24.978  1.00  0.00     0.023 A 
HETATM   16  C16 UNL     1      -2.204   2.959  26.715  1.00  0.00     0.141 C 
BRANCH   5  17
HETATM   17  C5  UNL     1      -1.067   3.347  28.685  1.00  0.00     0.270 C 
HETATM   18  C6  UNL     1      -1.077   2.070  29.299  1.00  0.00     0.160 C 
BRANCH  18  19
HETATM   19  O1  UNL     1      -0.009   1.784  30.039  1.00  0.00    -0.345 OA
ATOM     20  H1  UNL     1       0.464   0.999  29.786  1.00  0.00     0.219 HD
ENDBRANCH  18  19
BRANCH  18  21
HETATM   21  N2  UNL     1      -2.013   1.050  29.272  1.00  0.00    -0.374 N 
HETATM   22  C7  UNL     1      -1.788  -0.207  28.524  1.00  0.00     0.148 C 
ATOM     23  H2  UNL     1      -2.886   1.169  29.784  1.00  0.00     0.161 HD
ENDBRANCH  18  21
ENDBRANCH   5  17
BRANCH   8  24
HETATM   24  N4  UNL     1      -6.905   3.456  28.435  1.00  0.00    -0.249 N 
ATOM     25  H4  UNL     1      -7.306   3.506  27.499  1.00  0.00     0.207 HD
BRANCH  24  26
HETATM   26  N5  UNL     1      -7.632   3.041  29.414  1.00  0.00    -0.331 N 
ATOM     27  H52 UNL     1      -7.818   2.041  29.490  1.00  0.00     0.178 HD
ATOM     28  H51 UNL     1      -8.014   3.692  30.100  1.00  0.00     0.178 HD
ENDBRANCH  24  26
ENDBRANCH   8  24
BRANCH  16  29
HETATM   29  C17 UNL     1      -1.112   2.952  25.741  1.00  0.00    -0.033 C 
HETATM   30  C18 UNL     1       0.113   2.103  25.767  1.00  0.00     0.050 C 
HETATM   31  C19 UNL     1      -1.092   3.773  24.680  1.00  0.00    -0.009 C 
BRANCH  31  32
HETATM   32  C20 UNL     1      -0.074   3.866  23.647  1.00  0.00     0.131 C 
BRANCH  32  33
HETATM   33  C21 UNL     1      -0.628   3.889  22.267  1.00  0.00     0.226 C 
HETATM   34  O2  UNL     1      -0.077   3.303  21.298  1.00  0.00    -0.273 OA
HETATM   35  N6  UNL     1      -1.831   4.594  21.992  1.00  0.00    -0.312 N 
ATOM     36  H6  UNL     1      -2.680   4.287  22.467  1.00  0.00     0.170 HD
BRANCH  35  37
HETATM   37  C22 UNL     1      -1.923   5.585  21.191  1.00  0.00     0.125 A 
HETATM   38  C23 UNL     1      -3.081   6.329  21.048  1.00  0.00     0.170 A 
HETATM   39  N7  UNL     1      -3.135   7.368  20.193  1.00  0.00    -0.242 N 
HETATM   40  C24 UNL     1      -2.031   7.661  19.482  1.00  0.00     0.139 A 
HETATM   41  C25 UNL     1      -0.878   6.918  19.628  1.00  0.00     0.109 A 
HETATM   42  N8  UNL     1      -0.802   5.878  20.474  1.00  0.00    -0.350 N 
ATOM     43  H8  UNL     1       0.055   5.334  20.575  1.00  0.00     0.166 HD
BRANCH  39  44
HETATM   44  O3  UNL     1      -4.303   8.090  20.071  1.00  0.00    -0.284 OA
ATOM     45  H3  UNL     1      -4.481   8.801  20.675  1.00  0.00     0.245 HD
ENDBRANCH  39  44
ENDBRANCH  35  37
ENDBRANCH  32  33
ENDBRANCH  31  32
ENDBRANCH  16  29
ENDBRANCH   4   5
ENDBRANCH   3   4
TORSDOF 12
ENDMDL
MODEL 5
REMARK VINA RESULT: -7.414927323      3.913      6.549
REMARK  12 active torsions:
REMARK  status: ('A' for Active; 'I' for Inactive)
REMARK    1  A    between atoms: C3_3  and  C4_4 
REMARK    2  A    between atoms: C4_4  and  N1_5 
REMARK    3  A    between atoms: N1_5  and  C5_6 
REMARK    4  A    between atoms: C6_7  and  O1_8 
REMARK    5  A    between atoms: C6_7  and  N2_10 
REMARK    6  A    between atoms: N3_15  and  N4_17 
REMARK    7  A    between atoms: N4_17  and  N5_19 
REMARK    8  A    between atoms: C16_28  and  C17_29 
REMARK    9  A    between atoms: C19_31  and  C20_32 
REMARK   10  A    between atoms: C20_32  and  C21_33 
REMARK       I    between atoms: C21_33  and  N6_35 
REMARK   11  A    between atoms: N6_35  and  C22_37 
REMARK   12  A    between atoms: N7_39  and  O3_40 
ROOT
HETATM    1  C1  UNL     1      -6.881   2.924  23.344  1.00  0.00     0.112 C 
HETATM    2  C2  UNL     1      -5.623   3.177  22.629  1.00  0.00    -0.109 C 
HETATM    3  C3  UNL     1      -4.597   3.390  22.021  1.00  0.00    -0.078 C 
ENDROOT
BRANCH   3   4
HETATM    4  C4  UNL     1      -3.368   3.668  21.275  1.00  0.00     0.348 C 
BRANCH   4   5
HETATM    5  N1  UNL     1      -2.291   4.172  22.147  1.00  0.00     0.017 N 
HETATM    6  C8  UNL     1      -2.854   5.173  22.956  1.00  0.00     0.242 C 
HETATM    7  C9  UNL     1      -2.853   5.012  24.435  1.00  0.00     0.057 C 
HETATM    8  N3  UNL     1      -3.701   5.676  25.079  1.00  0.00    -0.289 N 
HETATM    9  C10 UNL     1      -1.870   4.123  24.991  1.00  0.00     0.053 C 
ATOM     10  H3  UNL     1      -4.305   6.261  24.502  1.00  0.00     0.188 HD
HETATM   11  C11 UNL     1      -1.920   3.773  26.426  1.00  0.00     0.012 C 
HETATM   12  C15 UNL     1      -2.093   2.807  24.230  1.00  0.00     0.025 A 
HETATM   13  C12 UNL     1      -0.997   2.532  26.395  1.00  0.00     0.006 C 
HETATM   14  C13 UNL     1      -1.373   1.876  25.112  1.00  0.00     0.002 A 
HETATM   15  C14 UNL     1      -2.878   1.808  24.822  1.00  0.00     0.023 A 
HETATM   16  C16 UNL     1      -1.634   3.086  22.841  1.00  0.00     0.141 C 
BRANCH   5  17
HETATM   17  C5  UNL     1      -1.281   4.780  21.315  1.00  0.00     0.270 C 
HETATM   18  C6  UNL     1      -1.485   5.900  20.470  1.00  0.00     0.160 C 
BRANCH  18  19
HETATM   19  O1  UNL     1      -0.414   6.306  19.792  1.00  0.00    -0.345 OA
ATOM     20  H1  UNL     1      -0.365   7.241  19.629  1.00  0.00     0.219 HD
ENDBRANCH  18  19
BRANCH  18  21
HETATM   21  N2  UNL     1      -2.614   6.659  20.215  1.00  0.00    -0.374 N 
HETATM   22  C7  UNL     1      -2.537   8.021  19.643  1.00  0.00     0.148 C 
ATOM     23  H2  UNL     1      -3.530   6.266  20.429  1.00  0.00     0.161 HD
ENDBRANCH  18  21
ENDBRANCH   5  17
BRANCH   8  24
HETATM   24  N4  UNL     1      -3.954   5.752  26.421  1.00  0.00    -0.249 N 
ATOM     25  H4  UNL     1      -3.291   5.345  27.080  1.00  0.00     0.207 HD
BRANCH  24  26
HETATM   26  N5  UNL     1      -5.016   6.330  26.866  1.00  0.00    -0.331 N 
ATOM     27  H52 UNL     1      -5.331   7.185  26.408  1.00  0.00     0.178 HD
ATOM     28  H51 UNL     1      -5.533   5.945  27.657  1.00  0.00     0.178 HD
ENDBRANCH  24  26
ENDBRANCH   8  24
BRANCH  16  29
HETATM   29  C17 UNL     1      -1.252   1.907  22.064  1.00  0.00    -0.033 C 
HETATM   30  C18 UNL     1      -2.098   0.720  21.754  1.00  0.00     0.050 C 
HETATM   31  C19 UNL     1      -0.025   1.757  21.542  1.00  0.00    -0.009 C 
BRANCH  31  32
HETATM   32  C20 UNL     1       0.479   0.642  20.757  1.00  0.00     0.131 C 
BRANCH  32  33
HETATM   33  C21 UNL     1       0.479   0.899  19.292  1.00  0.00     0.226 C 
HETATM   34  O2  UNL     1       0.127   1.999  18.790  1.00  0.00    -0.273 OA
HETATM   35  N6  UNL     1       0.890  -0.118  18.389  1.00  0.00    -0.312 N 
ATOM     36  H6  UNL     1       1.849  -0.458  18.461  1.00  0.00     0.170 HD
BRANCH  35  37
HETATM   37  C22 UNL     1       0.141  -0.637  17.493  1.00  0.00     0.125 A 
HETATM   38  C23 UNL     1      -1.205  -0.889  17.693  1.00  0.00     0.170 A 
HETATM   39  N7  UNL     1      -1.958  -1.436  16.721  1.00  0.00    -0.242 N 
HETATM   40  C24 UNL     1      -1.364  -1.731  15.550  1.00  0.00     0.139 A 
HETATM   41  C25 UNL     1      -0.023  -1.478  15.354  1.00  0.00     0.109 A 
HETATM   42  N8  UNL     1       0.747  -0.933  16.309  1.00  0.00    -0.350 N 
ATOM     43  H8  UNL     1       1.739  -0.750  16.155  1.00  0.00     0.166 HD
BRANCH  39  44
HETATM   44  O3  UNL     1      -3.296  -1.677  16.949  1.00  0.00    -0.284 OA
ATOM     45  H3  UNL     1      -3.951  -1.213  16.440  1.00  0.00     0.245 HD
ENDBRANCH  39  44
ENDBRANCH  35  37
ENDBRANCH  32  33
ENDBRANCH  31  32
ENDBRANCH  16  29
ENDBRANCH   4   5
ENDBRANCH   3   4
TORSDOF 12
ENDMDL
