MODEL 1
REMARK VINA RESULT: -8.209334256      0.000      0.000
REMARK  9 active torsions:
REMARK  status: ('A' for Active; 'I' for Inactive)
REMARK    1  A    between atoms: C2_2  and  C3_3 
REMARK    2  A    between atoms: C3_3  and  C4_4 
REMARK    3  A    between atoms: C10_13  and  O2_14 
REMARK    4  A    between atoms: C11_16  and  O3_17 
REMARK    5  A    between atoms: C13_20  and  N3_21 
REMARK    6  A    between atoms: N4_24  and  C16_25 
REMARK    7  A    between atoms: C16_25  and  C17_26 
REMARK    8  A    between atoms: C17_26  and  C18_27 
REMARK    9  A    between atoms: C18_27  and  C19_28 
ROOT
HETATM    1  C4  UNL     1      -1.067  -1.402  18.700  1.00  0.00     0.083 A 
HETATM    2  C5  UNL     1      -1.589  -1.655  17.315  1.00  0.00     0.256 C 
HETATM    3  O1  UNL     1      -2.757  -1.310  17.048  1.00  0.00    -0.271 OA
HETATM    4  N1  UNL     1      -0.766  -2.276  16.341  1.00  0.00    -0.167 N 
HETATM    5  C6  UNL     1       0.625  -2.340  16.223  1.00  0.00     0.178 C 
HETATM    6  C7  UNL     1       0.354  -3.610  15.390  1.00  0.00     0.294 C 
HETATM    7  N2  UNL     1      -0.924  -3.013  15.163  1.00  0.00     0.011 N 
HETATM    8  C8  UNL     1      -0.872  -2.185  13.953  1.00  0.00     0.302 C 
HETATM    9  C9  UNL     1      -2.047  -3.928  15.134  1.00  0.00     0.302 C 
HETATM   10  C10 UNL     1       1.512  -2.615  17.366  1.00  0.00     0.174 C 
HETATM   11  C11 UNL     1       1.277  -1.814  18.643  1.00  0.00     0.156 C 
HETATM   12  C12 UNL     1       0.288  -0.780  18.469  1.00  0.00     0.070 A 
HETATM   13  C13 UNL     1      -0.709  -0.043  19.142  1.00  0.00     0.219 A 
ENDROOT
BRANCH  13  14
HETATM   14  N3  UNL     1      -0.739   0.459  20.464  1.00  0.00    -0.034 N 
HETATM   15  C14 UNL     1      -1.976   0.307  21.183  1.00  0.00     0.268 C 
HETATM   16  C15 UNL     1      -2.238   1.625  21.928  1.00  0.00     0.267 C 
HETATM   17  N4  UNL     1      -0.870   2.164  21.846  1.00  0.00    -0.040 N 
HETATM   18  C24 UNL     1       0.087   1.290  22.418  1.00  0.00     0.267 C 
HETATM   19  C26 UNL     1      -0.684   1.963  20.417  1.00  0.00     0.473 C 
HETATM   20  C25 UNL     1       0.441   0.318  21.269  1.00  0.00     0.268 C 
BRANCH  17  21
HETATM   21  C16 UNL     1      -0.897   3.509  22.269  1.00  0.00     0.240 C 
BRANCH  21  22
HETATM   22  C17 UNL     1      -1.004   4.534  21.204  1.00  0.00     0.032 C 
BRANCH  22  23
HETATM   23  C18 UNL     1      -2.360   5.185  21.280  1.00  0.00     0.040 C 
BRANCH  23  24
HETATM   24  C19 UNL     1      -2.473   6.447  20.539  1.00  0.00    -0.053 A 
HETATM   25  C20 UNL     1      -1.376   6.873  19.797  1.00  0.00     0.024 A 
HETATM   26  C21 UNL     1      -1.387   8.039  19.058  1.00  0.00     0.090 A 
HETATM   27  N5  UNL     1      -2.502   8.802  19.051  1.00  0.00    -0.353 N 
HETATM   28  C22 UNL     1      -3.581   8.425  19.753  1.00  0.00     0.098 A 
ATOM     29  H5  UNL     1      -2.524   9.667  18.510  1.00  0.00     0.166 HD
HETATM   30  N6  UNL     1      -4.649   9.151  19.750  1.00  0.00    -0.385 N 
HETATM   31  C23 UNL     1      -3.576   7.263  20.492  1.00  0.00     0.055 A 
ATOM     32  H62 UNL     1      -4.653  10.012  19.202  1.00  0.00     0.157 HD
ATOM     33  H61 UNL     1      -5.470   8.865  20.284  1.00  0.00     0.157 HD
ENDBRANCH  23  24
ENDBRANCH  22  23
ENDBRANCH  21  22
ENDBRANCH  17  21
ENDBRANCH  13  14
BRANCH   1  34
HETATM   34  C3  UNL     1      -1.624  -2.302  19.663  1.00  0.00     0.048 C 
BRANCH  34  35
HETATM   35  C2  UNL     1      -1.706  -3.740  19.282  1.00  0.00    -0.036 C 
HETATM   36  C1  UNL     1      -0.964  -4.694  19.802  1.00  0.00     0.007 C 
ENDBRANCH  34  35
ENDBRANCH   1  34
BRANCH  11  37
HETATM   37  O3  UNL     1       2.550  -1.208  18.920  1.00  0.00    -0.392 OA
ATOM     38  H3  UNL     1       3.183  -1.811  18.548  1.00  0.00     0.210 HD
ENDBRANCH  11  37
BRANCH  10  39
HETATM   39  O2  UNL     1       1.673  -3.999  17.646  1.00  0.00    -0.391 OA
ATOM     40  H2  UNL     1       2.478  -4.206  18.108  1.00  0.00     0.210 HD
ENDBRANCH  10  39
TORSDOF 9
ENDMDL
MODEL 2
REMARK VINA RESULT: -8.121343874      6.252     10.133
REMARK  9 active torsions:
REMARK  status: ('A' for Active; 'I' for Inactive)
REMARK    1  A    between atoms: C2_2  and  C3_3 
REMARK    2  A    between atoms: C3_3  and  C4_4 
REMARK    3  A    between atoms: C10_13  and  O2_14 
REMARK    4  A    between atoms: C11_16  and  O3_17 
REMARK    5  A    between atoms: C13_20  and  N3_21 
REMARK    6  A    between atoms: N4_24  and  C16_25 
REMARK    7  A    between atoms: C16_25  and  C17_26 
REMARK    8  A    between atoms: C17_26  and  C18_27 
REMARK    9  A    between atoms: C18_27  and  C19_28 
ROOT
HETATM    1  C4  UNL     1      -2.543   4.093  27.674  1.00  0.00     0.083 A 
HETATM    2  C5  UNL     1      -3.531   3.953  28.795  1.00  0.00     0.256 C 
HETATM    3  O1  UNL     1      -4.563   4.652  28.768  1.00  0.00    -0.271 OA
HETATM    4  N1  UNL     1      -3.287   3.046  29.858  1.00  0.00    -0.167 N 
HETATM    5  C6  UNL     1      -2.510   1.886  29.911  1.00  0.00     0.178 C 
HETATM    6  C7  UNL     1      -2.462   2.159  31.429  1.00  0.00     0.294 C 
HETATM    7  N2  UNL     1      -3.674   2.879  31.191  1.00  0.00     0.011 N 
HETATM    8  C8  UNL     1      -4.821   1.977  31.351  1.00  0.00     0.302 C 
HETATM    9  C9  UNL     1      -3.841   4.095  31.960  1.00  0.00     0.302 C 
HETATM   10  C10 UNL     1      -1.160   1.802  29.329  1.00  0.00     0.174 C 
HETATM   11  C11 UNL     1      -0.980   2.311  27.903  1.00  0.00     0.156 C 
HETATM   12  C12 UNL     1      -2.233   2.669  27.284  1.00  0.00     0.070 A 
HETATM   13  C13 UNL     1      -2.821   3.534  26.339  1.00  0.00     0.219 A 
ENDROOT
BRANCH  13  14
HETATM   14  N3  UNL     1      -2.329   4.004  25.099  1.00  0.00    -0.034 N 
HETATM   15  C14 UNL     1      -2.881   5.242  24.614  1.00  0.00     0.268 C 
HETATM   16  C15 UNL     1      -3.145   5.069  23.111  1.00  0.00     0.267 C 
HETATM   17  N4  UNL     1      -2.291   3.887  22.904  1.00  0.00    -0.040 N 
HETATM   18  C24 UNL     1      -0.948   4.120  23.291  1.00  0.00     0.267 C 
HETATM   19  C26 UNL     1      -2.816   3.092  24.003  1.00  0.00     0.473 C 
HETATM   20  C25 UNL     1      -0.937   3.816  24.807  1.00  0.00     0.268 C 
BRANCH  17  21
HETATM   21  C16 UNL     1      -2.544   3.377  21.613  1.00  0.00     0.240 C 
BRANCH  21  22
HETATM   22  C17 UNL     1      -3.134   4.321  20.636  1.00  0.00     0.032 C 
BRANCH  22  23
HETATM   23  C18 UNL     1      -2.025   5.008  19.882  1.00  0.00     0.040 C 
BRANCH  23  24
HETATM   24  C19 UNL     1      -2.162   6.467  19.792  1.00  0.00    -0.053 A 
HETATM   25  C20 UNL     1      -1.004   7.228  19.668  1.00  0.00     0.024 A 
HETATM   26  C21 UNL     1      -1.029   8.605  19.565  1.00  0.00     0.090 A 
HETATM   27  N5  UNL     1      -2.218   9.244  19.585  1.00  0.00    -0.353 N 
HETATM   28  C22 UNL     1      -3.356   8.546  19.703  1.00  0.00     0.098 A 
ATOM     29  H5  UNL     1      -2.250  10.262  19.511  1.00  0.00     0.166 HD
HETATM   30  N6  UNL     1      -4.497   9.153  19.723  1.00  0.00    -0.385 N 
HETATM   31  C23 UNL     1      -3.339   7.173  19.806  1.00  0.00     0.055 A 
ATOM     32  H62 UNL     1      -4.510  10.170  19.646  1.00  0.00     0.157 HD
ATOM     33  H61 UNL     1      -5.363   8.622  19.813  1.00  0.00     0.157 HD
ENDBRANCH  23  24
ENDBRANCH  22  23
ENDBRANCH  21  22
ENDBRANCH  17  21
ENDBRANCH  13  14
BRANCH   1  34
HETATM   34  C3  UNL     1      -1.798   5.312  27.755  1.00  0.00     0.048 C 
BRANCH  34  35
HETATM   35  C2  UNL     1      -1.217   5.666  29.080  1.00  0.00    -0.036 C 
HETATM   36  C1  UNL     1      -0.753   6.856  29.399  1.00  0.00     0.007 C 
ENDBRANCH  34  35
ENDBRANCH   1  34
BRANCH  11  37
HETATM   37  O3  UNL     1      -0.407   1.197  27.198  1.00  0.00    -0.392 OA
ATOM     38  H3  UNL     1      -1.060   0.971  26.546  1.00  0.00     0.210 HD
ENDBRANCH  11  37
BRANCH  10  39
HETATM   39  O2  UNL     1      -0.135   2.287  30.185  1.00  0.00    -0.391 OA
ATOM     40  H2  UNL     1       0.634   1.729  30.218  1.00  0.00     0.210 HD
ENDBRANCH  10  39
TORSDOF 9
ENDMDL
MODEL 3
REMARK VINA RESULT: -8.011296807      2.037      3.186
REMARK  9 active torsions:
REMARK  status: ('A' for Active; 'I' for Inactive)
REMARK    1  A    between atoms: C2_2  and  C3_3 
REMARK    2  A    between atoms: C3_3  and  C4_4 
REMARK    3  A    between atoms: C10_13  and  O2_14 
REMARK    4  A    between atoms: C11_16  and  O3_17 
REMARK    5  A    between atoms: C13_20  and  N3_21 
REMARK    6  A    between atoms: N4_24  and  C16_25 
REMARK    7  A    between atoms: C16_25  and  C17_26 
REMARK    8  A    between atoms: C17_26  and  C18_27 
REMARK    9  A    between atoms: C18_27  and  C19_28 
ROOT
HETATM    1  C4  UNL     1      -0.530  -0.113  21.327  1.00  0.00     0.083 A 
HETATM    2  C5  UNL     1      -0.900  -1.518  20.951  1.00  0.00     0.256 C 
HETATM    3  O1  UNL     1      -1.564  -2.195  21.761  1.00  0.00    -0.271 OA
HETATM    4  N1  UNL     1      -0.498  -2.055  19.701  1.00  0.00    -0.167 N 
HETATM    5  C6  UNL     1      -0.179  -1.427  18.494  1.00  0.00     0.178 C 
HETATM    6  C7  UNL     1       0.625  -2.712  18.203  1.00  0.00     0.294 C 
HETATM    7  N2  UNL     1      -0.277  -3.314  19.134  1.00  0.00     0.011 N 
HETATM    8  C8  UNL     1      -1.445  -3.838  18.417  1.00  0.00     0.302 C 
HETATM    9  C9  UNL     1       0.301  -4.312  20.010  1.00  0.00     0.302 C 
HETATM   10  C10 UNL     1       0.667  -0.225  18.419  1.00  0.00     0.174 C 
HETATM   11  C11 UNL     1       0.336   0.924  19.367  1.00  0.00     0.156 C 
HETATM   12  C12 UNL     1      -0.882   0.696  20.103  1.00  0.00     0.070 A 
HETATM   13  C13 UNL     1      -1.533   0.966  21.324  1.00  0.00     0.219 A 
ENDROOT
BRANCH  13  14
HETATM   14  N3  UNL     1      -1.532   2.134  22.122  1.00  0.00    -0.034 N 
HETATM   15  C14 UNL     1      -2.123   2.022  23.430  1.00  0.00     0.268 C 
HETATM   16  C15 UNL     1      -2.971   3.283  23.659  1.00  0.00     0.267 C 
HETATM   17  N4  UNL     1      -2.370   4.111  22.599  1.00  0.00    -0.040 N 
HETATM   18  C24 UNL     1      -0.968   4.249  22.755  1.00  0.00     0.267 C 
HETATM   19  C26 UNL     1      -2.484   3.136  21.525  1.00  0.00     0.473 C 
HETATM   20  C25 UNL     1      -0.388   2.998  22.056  1.00  0.00     0.268 C 
BRANCH  17  21
HETATM   21  C16 UNL     1      -3.152   5.274  22.446  1.00  0.00     0.240 C 
BRANCH  21  22
HETATM   22  C17 UNL     1      -4.290   5.184  21.502  1.00  0.00     0.032 C 
BRANCH  22  23
HETATM   23  C18 UNL     1      -3.788   5.418  20.101  1.00  0.00     0.040 C 
BRANCH  23  24
HETATM   24  C19 UNL     1      -3.084   6.692  19.910  1.00  0.00    -0.053 A 
HETATM   25  C20 UNL     1      -1.698   6.665  19.797  1.00  0.00     0.024 A 
HETATM   26  C21 UNL     1      -0.947   7.808  19.604  1.00  0.00     0.090 A 
HETATM   27  N5  UNL     1      -1.575   9.001  19.522  1.00  0.00    -0.353 N 
HETATM   28  C22 UNL     1      -2.910   9.068  19.626  1.00  0.00     0.098 A 
ATOM     29  H5  UNL     1      -1.032   9.853  19.382  1.00  0.00     0.166 HD
HETATM   30  N6  UNL     1      -3.515  10.207  19.550  1.00  0.00    -0.385 N 
HETATM   31  C23 UNL     1      -3.664   7.932  19.818  1.00  0.00     0.055 A 
ATOM     32  H62 UNL     1      -2.956  11.048  19.407  1.00  0.00     0.157 HD
ATOM     33  H61 UNL     1      -4.531  10.258  19.629  1.00  0.00     0.157 HD
ENDBRANCH  23  24
ENDBRANCH  22  23
ENDBRANCH  21  22
ENDBRANCH  17  21
ENDBRANCH  13  14
BRANCH   1  34
HETATM   34  C3  UNL     1       0.507  -0.070  22.312  1.00  0.00     0.048 C 
BRANCH  34  35
HETATM   35  C2  UNL     1       1.661  -0.992  22.125  1.00  0.00    -0.036 C 
HETATM   36  C1  UNL     1       2.175  -1.747  23.072  1.00  0.00     0.007 C 
ENDBRANCH  34  35
ENDBRANCH   1  34
BRANCH  11  37
HETATM   37  O3  UNL     1       0.159   2.058  18.501  1.00  0.00    -0.392 OA
ATOM     38  H3  UNL     1      -0.008   2.781  19.093  1.00  0.00     0.210 HD
ENDBRANCH  11  37
BRANCH  10  39
HETATM   39  O2  UNL     1       2.061  -0.503  18.412  1.00  0.00    -0.391 OA
ATOM     40  H2  UNL     1       2.522  -0.132  17.668  1.00  0.00     0.210 HD
ENDBRANCH  10  39
TORSDOF 9
ENDMDL
MODEL 4
REMARK VINA RESULT: -7.939870024      6.253     10.428
REMARK  9 active torsions:
REMARK  status: ('A' for Active; 'I' for Inactive)
REMARK    1  A    between atoms: C2_2  and  C3_3 
REMARK    2  A    between atoms: C3_3  and  C4_4 
REMARK    3  A    between atoms: C10_13  and  O2_14 
REMARK    4  A    between atoms: C11_16  and  O3_17 
REMARK    5  A    between atoms: C13_20  and  N3_21 
REMARK    6  A    between atoms: N4_24  and  C16_25 
REMARK    7  A    between atoms: C16_25  and  C17_26 
REMARK    8  A    between atoms: C17_26  and  C18_27 
REMARK    9  A    between atoms: C18_27  and  C19_28 
ROOT
HETATM    1  C4  UNL     1      -2.500   3.909  27.479  1.00  0.00     0.083 A 
HETATM    2  C5  UNL     1      -2.044   4.724  28.654  1.00  0.00     0.256 C 
HETATM    3  O1  UNL     1      -0.883   4.560  29.077  1.00  0.00    -0.271 OA
HETATM    4  N1  UNL     1      -2.923   5.656  29.264  1.00  0.00    -0.167 N 
HETATM    5  C6  UNL     1      -4.031   6.339  28.756  1.00  0.00     0.178 C 
HETATM    6  C7  UNL     1      -4.468   6.438  30.232  1.00  0.00     0.294 C 
HETATM    7  N2  UNL     1      -3.074   6.284  30.504  1.00  0.00     0.011 N 
HETATM    8  C8  UNL     1      -2.436   7.604  30.566  1.00  0.00     0.302 C 
HETATM    9  C9  UNL     1      -2.748   5.481  31.665  1.00  0.00     0.302 C 
HETATM   10  C10 UNL     1      -5.057   5.687  27.925  1.00  0.00     0.174 C 
HETATM   11  C11 UNL     1      -4.574   4.831  26.759  1.00  0.00     0.156 C 
HETATM   12  C12 UNL     1      -3.148   4.920  26.565  1.00  0.00     0.070 A 
HETATM   13  C13 UNL     1      -2.020   4.202  26.117  1.00  0.00     0.219 A 
ENDROOT
BRANCH  13  14
HETATM   14  N3  UNL     1      -1.885   3.288  25.046  1.00  0.00    -0.034 N 
HETATM   15  C14 UNL     1      -0.609   2.634  24.914  1.00  0.00     0.268 C 
HETATM   16  C15 UNL     1      -0.250   2.628  23.420  1.00  0.00     0.267 C 
HETATM   17  N4  UNL     1      -1.600   2.905  22.899  1.00  0.00    -0.040 N 
HETATM   18  C24 UNL     1      -2.549   1.945  23.329  1.00  0.00     0.267 C 
HETATM   19  C26 UNL     1      -1.887   4.051  23.748  1.00  0.00     0.473 C 
HETATM   20  C25 UNL     1      -3.013   2.468  24.707  1.00  0.00     0.268 C 
BRANCH  17  21
HETATM   21  C16 UNL     1      -1.495   3.184  21.521  1.00  0.00     0.240 C 
BRANCH  21  22
HETATM   22  C17 UNL     1      -1.224   4.593  21.152  1.00  0.00     0.032 C 
BRANCH  22  23
HETATM   23  C18 UNL     1      -2.231   5.036  20.122  1.00  0.00     0.040 C 
BRANCH  23  24
HETATM   24  C19 UNL     1      -2.320   6.489  19.942  1.00  0.00    -0.053 A 
HETATM   25  C20 UNL     1      -1.141   7.198  19.733  1.00  0.00     0.024 A 
HETATM   26  C21 UNL     1      -1.121   8.566  19.542  1.00  0.00     0.090 A 
HETATM   27  N5  UNL     1      -2.287   9.248  19.557  1.00  0.00    -0.353 N 
HETATM   28  C22 UNL     1      -3.444   8.601  19.755  1.00  0.00     0.098 A 
ATOM     29  H5  UNL     1      -2.286  10.259  19.418  1.00  0.00     0.166 HD
HETATM   30  N6  UNL     1      -4.561   9.250  19.771  1.00  0.00    -0.385 N 
HETATM   31  C23 UNL     1      -3.471   7.238  19.946  1.00  0.00     0.055 A 
ATOM     32  H62 UNL     1      -4.542  10.260  19.629  1.00  0.00     0.157 HD
ATOM     33  H61 UNL     1      -5.442   8.758  19.922  1.00  0.00     0.157 HD
ENDBRANCH  23  24
ENDBRANCH  22  23
ENDBRANCH  21  22
ENDBRANCH  17  21
ENDBRANCH  13  14
BRANCH   1  34
HETATM   34  C3  UNL     1      -2.751   2.544  27.829  1.00  0.00     0.048 C 
BRANCH  34  35
HETATM   35  C2  UNL     1      -3.433   2.291  29.129  1.00  0.00    -0.036 C 
HETATM   36  C1  UNL     1      -4.668   1.854  29.252  1.00  0.00     0.007 C 
ENDBRANCH  34  35
ENDBRANCH   1  34
BRANCH  11  37
HETATM   37  O3  UNL     1      -5.242   5.383  25.612  1.00  0.00    -0.392 OA
ATOM     38  H3  UNL     1      -5.492   4.624  25.099  1.00  0.00     0.210 HD
ENDBRANCH  11  37
BRANCH  10  39
HETATM   39  O2  UNL     1      -6.064   5.020  28.674  1.00  0.00    -0.391 OA
ATOM     40  H2  UNL     1      -5.739   4.285  29.183  1.00  0.00     0.210 HD
ENDBRANCH  10  39
TORSDOF 9
ENDMDL
MODEL 5
REMARK VINA RESULT: -7.938948227      6.965     11.039
REMARK  9 active torsions:
REMARK  status: ('A' for Active; 'I' for Inactive)
REMARK    1  A    between atoms: C2_2  and  C3_3 
REMARK    2  A    between atoms: C3_3  and  C4_4 
REMARK    3  A    between atoms: C10_13  and  O2_14 
REMARK    4  A    between atoms: C11_16  and  O3_17 
REMARK    5  A    between atoms: C13_20  and  N3_21 
REMARK    6  A    between atoms: N4_24  and  C16_25 
REMARK    7  A    between atoms: C16_25  and  C17_26 
REMARK    8  A    between atoms: C17_26  and  C18_27 
REMARK    9  A    between atoms: C18_27  and  C19_28 
ROOT
HETATM    1  C4  UNL     1      -3.113   4.553  28.141  1.00  0.00     0.083 A 
HETATM    2  C5  UNL     1      -3.934   5.306  29.148  1.00  0.00     0.256 C 
HETATM    3  O1  UNL     1      -4.494   6.360  28.789  1.00  0.00    -0.271 OA
HETATM    4  N1  UNL     1      -4.061   4.821  30.475  1.00  0.00    -0.167 N 
HETATM    5  C6  UNL     1      -3.944   3.529  30.994  1.00  0.00     0.178 C 
HETATM    6  C7  UNL     1      -3.625   4.246  32.323  1.00  0.00     0.294 C 
HETATM    7  N2  UNL     1      -4.351   5.332  31.744  1.00  0.00     0.011 N 
HETATM    8  C8  UNL     1      -5.771   5.220  32.100  1.00  0.00     0.302 C 
HETATM    9  C9  UNL     1      -3.833   6.654  32.030  1.00  0.00     0.302 C 
HETATM   10  C10 UNL     1      -2.867   2.606  30.600  1.00  0.00     0.174 C 
HETATM   11  C11 UNL     1      -2.599   2.439  29.107  1.00  0.00     0.156 C 
HETATM   12  C12 UNL     1      -3.572   3.124  28.293  1.00  0.00     0.070 A 
HETATM   13  C13 UNL     1      -3.753   3.782  27.060  1.00  0.00     0.219 A 
ENDROOT
BRANCH  13  14
HETATM   14  N3  UNL     1      -3.216   3.496  25.783  1.00  0.00    -0.034 N 
HETATM   15  C14 UNL     1      -1.791   3.300  25.713  1.00  0.00     0.268 C 
HETATM   16  C15 UNL     1      -1.287   4.039  24.464  1.00  0.00     0.267 C 
HETATM   17  N4  UNL     1      -2.589   4.179  23.789  1.00  0.00    -0.040 N 
HETATM   18  C24 UNL     1      -3.221   2.929  23.577  1.00  0.00     0.267 C 
HETATM   19  C26 UNL     1      -3.319   4.727  24.922  1.00  0.00     0.473 C 
HETATM   20  C25 UNL     1      -3.978   2.663  24.898  1.00  0.00     0.268 C 
BRANCH  17  21
HETATM   21  C16 UNL     1      -2.428   5.053  22.693  1.00  0.00     0.240 C 
BRANCH  21  22
HETATM   22  C17 UNL     1      -1.681   4.520  21.530  1.00  0.00     0.032 C 
BRANCH  22  23
HETATM   23  C18 UNL     1      -2.377   4.940  20.262  1.00  0.00     0.040 C 
BRANCH  23  24
HETATM   24  C19 UNL     1      -2.392   6.388  20.026  1.00  0.00    -0.053 A 
HETATM   25  C20 UNL     1      -1.178   7.029  19.801  1.00  0.00     0.024 A 
HETATM   26  C21 UNL     1      -1.088   8.385  19.557  1.00  0.00     0.090 A 
HETATM   27  N5  UNL     1      -2.218   9.125  19.536  1.00  0.00    -0.353 N 
HETATM   28  C22 UNL     1      -3.408   8.544  19.748  1.00  0.00     0.098 A 
ATOM     29  H5  UNL     1      -2.166  10.128  19.359  1.00  0.00     0.166 HD
HETATM   30  N6  UNL     1      -4.491   9.248  19.729  1.00  0.00    -0.385 N 
HETATM   31  C23 UNL     1      -3.504   7.192  19.991  1.00  0.00     0.055 A 
ATOM     32  H62 UNL     1      -4.420  10.249  19.549  1.00  0.00     0.157 HD
ATOM     33  H61 UNL     1      -5.396   8.806  19.891  1.00  0.00     0.157 HD
ENDBRANCH  23  24
ENDBRANCH  22  23
ENDBRANCH  21  22
ENDBRANCH  17  21
ENDBRANCH  13  14
BRANCH   1  34
HETATM   34  C3  UNL     1      -1.866   5.199  27.864  1.00  0.00     0.048 C 
BRANCH  34  35
HETATM   35  C2  UNL     1      -1.072   5.669  29.033  1.00  0.00    -0.036 C 
HETATM   36  C1  UNL     1      -0.753   6.925  29.262  1.00  0.00     0.007 C 
ENDBRANCH  34  35
ENDBRANCH   1  34
BRANCH  11  37
HETATM   37  O3  UNL     1      -2.708   1.024  28.883  1.00  0.00    -0.392 OA
ATOM     38  H3  UNL     1      -3.360   0.945  28.197  1.00  0.00     0.210 HD
ENDBRANCH  11  37
BRANCH  10  39
HETATM   39  O2  UNL     1      -1.659   2.790  31.325  1.00  0.00    -0.391 OA
ATOM     40  H2  UNL     1      -0.879   2.769  30.782  1.00  0.00     0.210 HD
ENDBRANCH  10  39
TORSDOF 9
ENDMDL
