MODEL 1
REMARK VINA RESULT: -5.814129843      0.000      0.000
REMARK  8 active torsions:
REMARK  status: ('A' for Active; 'I' for Inactive)
REMARK    1  A    between atoms: C2_2  and  N1_3 
REMARK    2  A    between atoms: C6_8  and  C7_9 
REMARK       I    between atoms: C7_9  and  N3_11 
REMARK    3  A    between atoms: N3_11  and  C8_13 
REMARK    4  A    between atoms: C17_23  and  C18_24 
REMARK    5  A    between atoms: C17_23  and  C20_27 
REMARK    6  A    between atoms: C18_24  and  O2_25 
REMARK    7  A    between atoms: C20_27  and  N5_28 
REMARK    8  A    between atoms: C23_31  and  O3_32 
ROOT
HETATM    1  N1  UNL     1      -2.716   2.408  22.676  1.00  0.00    -0.311 N 
HETATM    2  N2  UNL     1      -3.150   2.250  23.991  1.00  0.00    -0.136 NA
HETATM    3  C3  UNL     1      -1.957   1.881  24.789  1.00  0.00     0.114 C 
HETATM    4  C4  UNL     1      -1.305   3.236  25.002  1.00  0.00     0.027 C 
HETATM    5  C5  UNL     1      -0.911   3.599  23.610  1.00  0.00     0.045 C 
HETATM    6  C6  UNL     1      -1.321   2.410  22.725  1.00  0.00     0.138 C 
HETATM    7  C17 UNL     1      -1.131   1.234  23.734  1.00  0.00     0.060 C 
ENDROOT
BRANCH   6   8
HETATM    8  C7  UNL     1      -0.500   2.261  21.563  1.00  0.00     0.248 C 
HETATM    9  O1  UNL     1       0.250   3.200  21.135  1.00  0.00    -0.271 OA
HETATM   10  N3  UNL     1      -0.436   1.085  20.798  1.00  0.00    -0.354 N 
ATOM     11  H3  UNL     1      -1.010   0.290  21.080  1.00  0.00     0.162 HD
BRANCH  10  12
HETATM   12  C8  UNL     1       0.412   0.947  19.616  1.00  0.00     0.086 C 
HETATM   13  C9  UNL     1       1.646   0.181  19.840  1.00  0.00     0.027 C 
HETATM   14  C10 UNL     1       1.921  -0.847  18.730  1.00  0.00     0.035 C 
HETATM   15  C11 UNL     1       0.954  -1.911  18.866  1.00  0.00     0.191 C 
HETATM   16  C12 UNL     1       1.130  -3.265  18.264  1.00  0.00     0.061 C 
HETATM   17  N4  UNL     1      -0.243  -1.803  18.030  1.00  0.00    -0.067 N 
HETATM   18  C13 UNL     1      -0.400  -3.205  18.308  1.00  0.00     0.239 C 
HETATM   19  C14 UNL     1      -0.049  -1.580  16.652  1.00  0.00     0.273 C 
HETATM   20  C15 UNL     1      -1.096  -0.887  18.742  1.00  0.00     0.239 C 
HETATM   21  C16 UNL     1      -0.494   0.482  18.507  1.00  0.00     0.053 C 
ENDBRANCH  10  12
ENDBRANCH   6   8
BRANCH   1  22
HETATM   22  C2  UNL     1      -3.442   3.319  21.901  1.00  0.00     0.135 C 
HETATM   23  C1  UNL     1      -4.537   4.033  22.702  1.00  0.00     0.028 C 
ENDBRANCH   1  22
BRANCH   7  24
HETATM   24  C18 UNL     1      -1.737  -0.036  23.180  1.00  0.00     0.183 C 
BRANCH  24  25
HETATM   25  O2  UNL     1      -0.901  -0.963  22.651  1.00  0.00    -0.395 OA
HETATM   26  C19 UNL     1      -1.307  -2.233  23.047  1.00  0.00     0.201 C 
ENDBRANCH  24  25
ENDBRANCH   7  24
BRANCH   7  27
HETATM   27  C20 UNL     1       0.306   1.054  23.925  1.00  0.00     0.254 C 
BRANCH  27  28
HETATM   28  N5  UNL     1       0.917   0.426  24.981  1.00  0.00    -0.063 N 
HETATM   29  C21 UNL     1       1.968  -0.506  24.477  1.00  0.00     0.240 C 
HETATM   30  C22 UNL     1       2.987  -0.637  25.563  1.00  0.00     0.067 C 
HETATM   31  C23 UNL     1       2.411   0.215  26.643  1.00  0.00     0.085 C 
HETATM   32  C24 UNL     1       1.171  -0.484  27.142  1.00  0.00     0.067 C 
HETATM   33  C26 UNL     1       1.747   1.305  25.785  1.00  0.00     0.275 C 
HETATM   34  C25 UNL     1       0.217  -0.328  25.946  1.00  0.00     0.240 C 
BRANCH  31  35
HETATM   35  O3  UNL     1       3.250   0.697  27.573  1.00  0.00    -0.388 OA
ATOM     36  H3  UNL     1       3.301   1.641  27.676  1.00  0.00     0.210 HD
ENDBRANCH  31  35
ENDBRANCH  27  28
ENDBRANCH   7  27
TORSDOF 8
ENDMDL
MODEL 2
REMARK VINA RESULT: -5.739192792      3.311      8.654
REMARK  8 active torsions:
REMARK  status: ('A' for Active; 'I' for Inactive)
REMARK    1  A    between atoms: C2_2  and  N1_3 
REMARK    2  A    between atoms: C6_8  and  C7_9 
REMARK       I    between atoms: C7_9  and  N3_11 
REMARK    3  A    between atoms: N3_11  and  C8_13 
REMARK    4  A    between atoms: C17_23  and  C18_24 
REMARK    5  A    between atoms: C17_23  and  C20_27 
REMARK    6  A    between atoms: C18_24  and  O2_25 
REMARK    7  A    between atoms: C20_27  and  N5_28 
REMARK    8  A    between atoms: C23_31  and  O3_32 
ROOT
HETATM    1  N1  UNL     1      -0.381   0.917  24.686  1.00  0.00    -0.311 N 
HETATM    2  N2  UNL     1       0.360   1.230  23.547  1.00  0.00    -0.136 NA
HETATM    3  C3  UNL     1      -0.335   2.361  22.889  1.00  0.00     0.114 C 
HETATM    4  C4  UNL     1       0.148   3.538  23.718  1.00  0.00     0.027 C 
HETATM    5  C5  UNL     1      -0.472   3.244  25.042  1.00  0.00     0.045 C 
HETATM    6  C6  UNL     1      -1.295   1.958  24.854  1.00  0.00     0.138 C 
HETATM    7  C17 UNL     1      -1.726   2.121  23.361  1.00  0.00     0.060 C 
ENDROOT
BRANCH   6   8
HETATM    8  C7  UNL     1      -2.420   1.874  25.732  1.00  0.00     0.248 C 
HETATM    9  O1  UNL     1      -3.094   0.800  25.873  1.00  0.00    -0.271 OA
HETATM   10  N3  UNL     1      -2.881   2.944  26.516  1.00  0.00    -0.354 N 
ATOM     11  H3  UNL     1      -2.391   3.838  26.455  1.00  0.00     0.162 HD
BRANCH  10  12
HETATM   12  C8  UNL     1      -4.030   2.840  27.413  1.00  0.00     0.086 C 
HETATM   13  C9  UNL     1      -3.806   3.399  28.754  1.00  0.00     0.027 C 
HETATM   14  C10 UNL     1      -4.974   4.272  29.240  1.00  0.00     0.035 C 
HETATM   15  C11 UNL     1      -4.961   5.493  28.469  1.00  0.00     0.191 C 
HETATM   16  C12 UNL     1      -5.653   6.745  28.898  1.00  0.00     0.061 C 
HETATM   17  N4  UNL     1      -5.842   5.526  27.300  1.00  0.00    -0.067 N 
HETATM   18  C13 UNL     1      -5.674   6.951  27.381  1.00  0.00     0.239 C 
HETATM   19  C14 UNL     1      -7.189   5.163  27.497  1.00  0.00     0.273 C 
HETATM   20  C15 UNL     1      -5.104   4.829  26.277  1.00  0.00     0.239 C 
HETATM   21  C16 UNL     1      -5.210   3.363  26.639  1.00  0.00     0.053 C 
ENDBRANCH  10  12
ENDBRANCH   6   8
BRANCH   1  22
HETATM   22  C2  UNL     1       0.343   0.374  25.753  1.00  0.00     0.135 C 
HETATM   23  C1  UNL     1       1.859   0.525  25.574  1.00  0.00     0.028 C 
ENDBRANCH   1  22
BRANCH   7  24
HETATM   24  C18 UNL     1      -2.329   0.833  22.846  1.00  0.00     0.183 C 
BRANCH  24  25
HETATM   25  O2  UNL     1      -2.232   0.570  21.519  1.00  0.00    -0.395 OA
HETATM   26  C19 UNL     1      -1.652  -0.681  21.337  1.00  0.00     0.201 C 
ENDBRANCH  24  25
ENDBRANCH   7  24
BRANCH   7  27
HETATM   27  C20 UNL     1      -2.721   3.188  23.311  1.00  0.00     0.254 C 
BRANCH  27  28
HETATM   28  N5  UNL     1      -3.035   3.960  22.220  1.00  0.00    -0.063 N 
HETATM   29  C21 UNL     1      -4.440   3.688  21.795  1.00  0.00     0.240 C 
HETATM   30  C22 UNL     1      -4.932   4.924  21.113  1.00  0.00     0.067 C 
HETATM   31  C23 UNL     1      -3.736   5.813  21.166  1.00  0.00     0.085 C 
HETATM   32  C24 UNL     1      -2.700   5.213  20.250  1.00  0.00     0.067 C 
HETATM   33  C26 UNL     1      -3.149   5.377  22.519  1.00  0.00     0.275 C 
HETATM   34  C25 UNL     1      -2.298   3.943  21.018  1.00  0.00     0.240 C 
BRANCH  31  35
HETATM   35  O3  UNL     1      -3.938   7.137  21.067  1.00  0.00    -0.388 OA
ATOM     36  H3  UNL     1      -3.539   7.695  21.725  1.00  0.00     0.210 HD
ENDBRANCH  31  35
ENDBRANCH  27  28
ENDBRANCH   7  27
TORSDOF 8
ENDMDL
MODEL 3
REMARK VINA RESULT: -5.725366408      2.016      2.923
REMARK  8 active torsions:
REMARK  status: ('A' for Active; 'I' for Inactive)
REMARK    1  A    between atoms: C2_2  and  N1_3 
REMARK    2  A    between atoms: C6_8  and  C7_9 
REMARK       I    between atoms: C7_9  and  N3_11 
REMARK    3  A    between atoms: N3_11  and  C8_13 
REMARK    4  A    between atoms: C17_23  and  C18_24 
REMARK    5  A    between atoms: C17_23  and  C20_27 
REMARK    6  A    between atoms: C18_24  and  O2_25 
REMARK    7  A    between atoms: C20_27  and  N5_28 
REMARK    8  A    between atoms: C23_31  and  O3_32 
ROOT
HETATM    1  N1  UNL     1      -2.788   3.916  22.347  1.00  0.00    -0.311 N 
HETATM    2  N2  UNL     1      -2.572   4.797  23.406  1.00  0.00    -0.136 NA
HETATM    3  C3  UNL     1      -1.707   4.086  24.376  1.00  0.00     0.114 C 
HETATM    4  C4  UNL     1      -0.336   4.260  23.745  1.00  0.00     0.027 C 
HETATM    5  C5  UNL     1      -0.481   3.463  22.493  1.00  0.00     0.045 C 
HETATM    6  C6  UNL     1      -1.896   2.859  22.531  1.00  0.00     0.138 C 
HETATM    7  C17 UNL     1      -2.079   2.677  24.071  1.00  0.00     0.060 C 
ENDROOT
BRANCH   6   8
HETATM    8  C7  UNL     1      -2.000   1.619  21.827  1.00  0.00     0.248 C 
HETATM    9  O1  UNL     1      -3.090   0.959  21.769  1.00  0.00    -0.271 OA
HETATM   10  N3  UNL     1      -0.932   1.021  21.137  1.00  0.00    -0.354 N 
ATOM     11  H3  UNL     1      -0.027   1.492  21.139  1.00  0.00     0.162 HD
BRANCH  10  12
HETATM   12  C8  UNL     1      -1.056  -0.245  20.417  1.00  0.00     0.086 C 
HETATM   13  C9  UNL     1      -0.641  -0.186  19.009  1.00  0.00     0.027 C 
HETATM   14  C10 UNL     1       0.246  -1.372  18.598  1.00  0.00     0.035 C 
HETATM   15  C11 UNL     1       1.532  -1.200  19.231  1.00  0.00     0.191 C 
HETATM   16  C12 UNL     1       2.774  -1.890  18.773  1.00  0.00     0.061 C 
HETATM   17  N4  UNL     1       1.725  -1.907  20.498  1.00  0.00    -0.067 N 
HETATM   18  C13 UNL     1       3.125  -1.692  20.251  1.00  0.00     0.239 C 
HETATM   19  C14 UNL     1       1.422  -3.283  20.522  1.00  0.00     0.273 C 
HETATM   20  C15 UNL     1       1.089  -1.064  21.478  1.00  0.00     0.239 C 
HETATM   21  C16 UNL     1      -0.397  -1.283  21.285  1.00  0.00     0.053 C 
ENDBRANCH  10  12
ENDBRANCH   6   8
BRANCH   1  22
HETATM   22  C2  UNL     1      -3.005   4.508  21.098  1.00  0.00     0.135 C 
HETATM   23  C1  UNL     1      -3.054   6.039  21.172  1.00  0.00     0.028 C 
ENDBRANCH   1  22
BRANCH   7  24
HETATM   24  C18 UNL     1      -3.519   2.345  24.393  1.00  0.00     0.183 C 
BRANCH  24  25
HETATM   25  O2  UNL     1      -4.017   2.758  25.585  1.00  0.00    -0.395 OA
HETATM   26  C19 UNL     1      -5.275   3.320  25.391  1.00  0.00     0.201 C 
ENDBRANCH  24  25
ENDBRANCH   7  24
BRANCH   7  27
HETATM   27  C20 UNL     1      -1.213   1.576  24.484  1.00  0.00     0.254 C 
BRANCH  27  28
HETATM   28  N5  UNL     1      -0.678   1.382  25.733  1.00  0.00    -0.063 N 
HETATM   29  C21 UNL     1      -1.013   0.012  26.221  1.00  0.00     0.240 C 
HETATM   30  C22 UNL     1       0.061  -0.380  27.182  1.00  0.00     0.067 C 
HETATM   31  C23 UNL     1       0.928   0.834  27.202  1.00  0.00     0.085 C 
HETATM   32  C24 UNL     1       0.139   1.927  27.878  1.00  0.00     0.067 C 
HETATM   33  C26 UNL     1       0.771   1.287  25.741  1.00  0.00     0.275 C 
HETATM   34  C25 UNL     1      -0.951   2.221  26.833  1.00  0.00     0.240 C 
BRANCH  31  35
HETATM   35  O3  UNL     1       2.205   0.683  27.586  1.00  0.00    -0.388 OA
ATOM     36  H3  UNL     1       2.397   0.010  28.229  1.00  0.00     0.210 HD
ENDBRANCH  31  35
ENDBRANCH  27  28
ENDBRANCH   7  27
TORSDOF 8
ENDMDL
MODEL 4
REMARK VINA RESULT: -5.698495284      2.564      5.812
REMARK  8 active torsions:
REMARK  status: ('A' for Active; 'I' for Inactive)
REMARK    1  A    between atoms: C2_2  and  N1_3 
REMARK    2  A    between atoms: C6_8  and  C7_9 
REMARK       I    between atoms: C7_9  and  N3_11 
REMARK    3  A    between atoms: N3_11  and  C8_13 
REMARK    4  A    between atoms: C17_23  and  C18_24 
REMARK    5  A    between atoms: C17_23  and  C20_27 
REMARK    6  A    between atoms: C18_24  and  O2_25 
REMARK    7  A    between atoms: C20_27  and  N5_28 
REMARK    8  A    between atoms: C23_31  and  O3_32 
ROOT
HETATM    1  N1  UNL     1      -0.746   3.401  23.598  1.00  0.00    -0.311 N 
HETATM    2  N2  UNL     1      -1.533   3.810  24.673  1.00  0.00    -0.136 NA
HETATM    3  C3  UNL     1      -2.944   3.662  24.245  1.00  0.00     0.114 C 
HETATM    4  C4  UNL     1      -3.167   2.174  24.445  1.00  0.00     0.027 C 
HETATM    5  C5  UNL     1      -2.248   1.595  23.423  1.00  0.00     0.045 C 
HETATM    6  C6  UNL     1      -1.614   2.790  22.691  1.00  0.00     0.138 C 
HETATM    7  C17 UNL     1      -2.785   3.820  22.773  1.00  0.00     0.060 C 
ENDROOT
BRANCH   6   8
HETATM    8  C7  UNL     1      -1.249   2.497  21.340  1.00  0.00     0.248 C 
HETATM    9  O1  UNL     1      -0.988   3.412  20.491  1.00  0.00    -0.271 OA
HETATM   10  N3  UNL     1      -1.139   1.194  20.826  1.00  0.00    -0.354 N 
ATOM     11  H3  UNL     1      -1.333   0.408  21.448  1.00  0.00     0.162 HD
BRANCH  10  12
HETATM   12  C8  UNL     1      -0.760   0.911  19.444  1.00  0.00     0.086 C 
HETATM   13  C9  UNL     1       0.617   1.292  19.100  1.00  0.00     0.027 C 
HETATM   14  C10 UNL     1       1.358   0.205  18.306  1.00  0.00     0.035 C 
HETATM   15  C11 UNL     1       1.634  -0.888  19.209  1.00  0.00     0.191 C 
HETATM   16  C12 UNL     1       2.671  -1.930  18.948  1.00  0.00     0.061 C 
HETATM   17  N4  UNL     1       0.669  -1.989  19.200  1.00  0.00    -0.067 N 
HETATM   18  C13 UNL     1       1.719  -2.737  19.835  1.00  0.00     0.239 C 
HETATM   19  C14 UNL     1       0.337  -2.546  17.949  1.00  0.00     0.273 C 
HETATM   20  C15 UNL     1      -0.411  -1.525  20.033  1.00  0.00     0.239 C 
HETATM   21  C16 UNL     1      -1.160  -0.518  19.187  1.00  0.00     0.053 C 
ENDBRANCH  10  12
ENDBRANCH   6   8
BRANCH   1  22
HETATM   22  C2  UNL     1       0.501   2.858  23.927  1.00  0.00     0.135 C 
HETATM   23  C1  UNL     1       0.543   2.305  25.357  1.00  0.00     0.028 C 
ENDBRANCH   1  22
BRANCH   7  24
HETATM   24  C18 UNL     1      -2.307   5.193  22.356  1.00  0.00     0.183 C 
BRANCH  24  25
HETATM   25  O2  UNL     1      -3.234   6.092  21.942  1.00  0.00    -0.395 OA
HETATM   26  C19 UNL     1      -2.870   6.591  20.696  1.00  0.00     0.201 C 
ENDBRANCH  24  25
ENDBRANCH   7  24
BRANCH   7  27
HETATM   27  C20 UNL     1      -3.830   3.361  21.862  1.00  0.00     0.254 C 
BRANCH  27  28
HETATM   28  N5  UNL     1      -5.185   3.503  22.036  1.00  0.00    -0.063 N 
HETATM   29  C21 UNL     1      -5.787   4.132  20.824  1.00  0.00     0.240 C 
HETATM   30  C22 UNL     1      -7.210   3.679  20.764  1.00  0.00     0.067 C 
HETATM   31  C23 UNL     1      -7.327   2.839  21.991  1.00  0.00     0.085 C 
HETATM   32  C24 UNL     1      -7.233   3.771  23.173  1.00  0.00     0.067 C 
HETATM   33  C26 UNL     1      -5.909   2.245  22.035  1.00  0.00     0.275 C 
HETATM   34  C25 UNL     1      -5.759   4.205  23.115  1.00  0.00     0.240 C 
BRANCH  31  35
HETATM   35  O3  UNL     1      -8.300   1.915  22.025  1.00  0.00    -0.388 OA
ATOM     36  H3  UNL     1      -8.154   1.137  22.551  1.00  0.00     0.210 HD
ENDBRANCH  31  35
ENDBRANCH  27  28
ENDBRANCH   7  27
TORSDOF 8
ENDMDL
MODEL 5
REMARK VINA RESULT: -5.634388446      3.572      8.970
REMARK  8 active torsions:
REMARK  status: ('A' for Active; 'I' for Inactive)
REMARK    1  A    between atoms: C2_2  and  N1_3 
REMARK    2  A    between atoms: C6_8  and  C7_9 
REMARK       I    between atoms: C7_9  and  N3_11 
REMARK    3  A    between atoms: N3_11  and  C8_13 
REMARK    4  A    between atoms: C17_23  and  C18_24 
REMARK    5  A    between atoms: C17_23  and  C20_27 
REMARK    6  A    between atoms: C18_24  and  O2_25 
REMARK    7  A    between atoms: C20_27  and  N5_28 
REMARK    8  A    between atoms: C23_31  and  O3_32 
ROOT
HETATM    1  N1  UNL     1      -0.401   0.930  24.911  1.00  0.00    -0.311 N 
HETATM    2  N2  UNL     1       0.255   1.086  23.691  1.00  0.00    -0.136 NA
HETATM    3  C3  UNL     1      -0.418   2.203  22.989  1.00  0.00     0.114 C 
HETATM    4  C4  UNL     1       0.215   3.409  23.662  1.00  0.00     0.027 C 
HETATM    5  C5  UNL     1      -0.303   3.279  25.054  1.00  0.00     0.045 C 
HETATM    6  C6  UNL     1      -1.225   2.048  25.055  1.00  0.00     0.138 C 
HETATM    7  C17 UNL     1      -1.774   2.110  23.595  1.00  0.00     0.060 C 
ENDROOT
BRANCH   6   8
HETATM    8  C7  UNL     1      -2.271   2.125  26.027  1.00  0.00     0.248 C 
HETATM    9  O1  UNL     1      -3.131   1.196  26.176  1.00  0.00    -0.271 OA
HETATM   10  N3  UNL     1      -2.446   3.211  26.901  1.00  0.00    -0.354 N 
ATOM     11  H3  UNL     1      -1.794   3.993  26.841  1.00  0.00     0.162 HD
BRANCH  10  12
HETATM   12  C8  UNL     1      -3.517   3.272  27.893  1.00  0.00     0.086 C 
HETATM   13  C9  UNL     1      -3.111   2.884  29.252  1.00  0.00     0.027 C 
HETATM   14  C10 UNL     1      -3.632   3.849  30.329  1.00  0.00     0.035 C 
HETATM   15  C11 UNL     1      -2.896   5.085  30.206  1.00  0.00     0.191 C 
HETATM   16  C12 UNL     1      -2.808   6.102  31.295  1.00  0.00     0.061 C 
HETATM   17  N4  UNL     1      -3.533   6.137  29.411  1.00  0.00    -0.067 N 
HETATM   18  C13 UNL     1      -2.612   7.014  30.081  1.00  0.00     0.239 C 
HETATM   19  C14 UNL     1      -4.866   6.466  29.727  1.00  0.00     0.273 C 
HETATM   20  C15 UNL     1      -3.237   5.782  28.047  1.00  0.00     0.239 C 
HETATM   21  C16 UNL     1      -4.158   4.624  27.728  1.00  0.00     0.053 C 
ENDBRANCH  10  12
ENDBRANCH   6   8
BRANCH   1  22
HETATM   22  C2  UNL     1       0.377   0.429  25.962  1.00  0.00     0.135 C 
HETATM   23  C1  UNL     1       1.870   0.375  25.615  1.00  0.00     0.028 C 
ENDBRANCH   1  22
BRANCH   7  24
HETATM   24  C18 UNL     1      -2.506   0.831  23.254  1.00  0.00     0.183 C 
BRANCH  24  25
HETATM   25  O2  UNL     1      -2.523   0.433  21.958  1.00  0.00    -0.395 OA
HETATM   26  C19 UNL     1      -2.128  -0.898  21.877  1.00  0.00     0.201 C 
ENDBRANCH  24  25
ENDBRANCH   7  24
BRANCH   7  27
HETATM   27  C20 UNL     1      -2.695   3.241  23.526  1.00  0.00     0.254 C 
BRANCH  27  28
HETATM   28  N5  UNL     1      -3.034   3.951  22.401  1.00  0.00    -0.063 N 
HETATM   29  C21 UNL     1      -4.447   3.657  22.023  1.00  0.00     0.240 C 
HETATM   30  C22 UNL     1      -4.955   4.853  21.284  1.00  0.00     0.067 C 
HETATM   31  C23 UNL     1      -3.759   5.743  21.261  1.00  0.00     0.085 C 
HETATM   32  C24 UNL     1      -2.742   5.092  20.357  1.00  0.00     0.067 C 
HETATM   33  C26 UNL     1      -3.142   5.382  22.623  1.00  0.00     0.275 C 
HETATM   34  C25 UNL     1      -2.323   3.866  21.187  1.00  0.00     0.240 C 
BRANCH  31  35
HETATM   35  O3  UNL     1      -3.962   7.060  21.093  1.00  0.00    -0.388 OA
ATOM     36  H3  UNL     1      -3.198   7.616  20.992  1.00  0.00     0.210 HD
ENDBRANCH  31  35
ENDBRANCH  27  28
ENDBRANCH   7  27
TORSDOF 8
ENDMDL
