MODEL 1
REMARK VINA RESULT: -8.891628146      0.000      0.000
REMARK  10 active torsions:
REMARK  status: ('A' for Active; 'I' for Inactive)
REMARK    1  A    between atoms: C2_2  and  C3_3 
REMARK    2  A    between atoms: C3_3  and  C4_4 
REMARK    3  A    between atoms: C4_4  and  C5_5 
REMARK    4  A    between atoms: N2_9  and  C7_10 
REMARK    5  A    between atoms: C7_10  and  C8_11 
REMARK    6  A    between atoms: C9_12  and  C10_13 
REMARK    7  A    between atoms: C10_13  and  N3_14 
REMARK    8  A    between atoms: C14_20  and  N5_21 
REMARK    9  A    between atoms: C19_30  and  C20_31 
REMARK   10  A    between atoms: N8_32  and  N9_34 
REMARK       I    between atoms: N9_34  and  C21_36 
ROOT
HETATM    1  C7  UNL     1      19.038 -13.591  20.943  1.00  0.00     0.157 C 
ENDROOT
BRANCH   1   2
HETATM    2  N2  UNL     1      18.800 -13.985  22.294  1.00  0.00    -0.337 N 
HETATM    3  C6  UNL     1      17.863 -13.403  23.084  1.00  0.00     0.184 A 
HETATM    4  N1  UNL     1      17.861 -13.998  24.263  1.00  0.00    -0.354 N 
HETATM    5  C5  UNL     1      18.808 -14.983  24.247  1.00  0.00     0.038 A 
ATOM      6  H1  UNL     1      17.257 -13.762  25.050  1.00  0.00     0.166 HD
HETATM    7  C19 UNL     1      19.372 -14.955  23.026  1.00  0.00     0.075 A 
BRANCH   5   8
HETATM    8  C4  UNL     1      19.083 -15.866  25.389  1.00  0.00     0.059 C 
BRANCH   8   9
HETATM    9  C3  UNL     1      19.424 -15.086  26.642  1.00  0.00     0.006 C 
BRANCH   9  10
HETATM   10  C2  UNL     1      20.837 -14.511  26.451  1.00  0.00    -0.004 C 
HETATM   11  C1  UNL     1      20.791 -13.013  26.713  1.00  0.00     0.005 C 
ENDBRANCH   9  10
ENDBRANCH   8   9
ENDBRANCH   5   8
BRANCH   7  12
HETATM   12  C20 UNL     1      20.467 -15.839  22.537  1.00  0.00     0.139 C 
HETATM   13  N8  UNL     1      21.517 -15.984  23.106  1.00  0.00    -0.306 N 
ATOM     14  H8  UNL     1      21.461 -15.392  23.934  1.00  0.00     0.186 HD
BRANCH  13  15
HETATM   15  N9  UNL     1      22.729 -16.561  23.160  1.00  0.00    -0.254 N 
HETATM   16  C21 UNL     1      23.894 -15.804  23.479  1.00  0.00     0.347 C 
HETATM   17  N10 UNL     1      25.161 -16.432  23.533  1.00  0.00    -0.038 NA
HETATM   18  O1  UNL     1      23.784 -14.585  23.713  1.00  0.00    -0.249 OA
ATOM     19  H9  UNL     1      22.817 -17.559  22.970  1.00  0.00     0.191 HD
ENDBRANCH  13  15
ENDBRANCH   7  12
ENDBRANCH   1   2
BRANCH   1  20
HETATM   20  C8  UNL     1      18.821 -12.150  20.732  1.00  0.00    -0.009 C 
HETATM   21  C9  UNL     1      17.855 -11.630  20.023  1.00  0.00    -0.009 C 
BRANCH  21  22
HETATM   22  C10 UNL     1      16.801 -12.362  19.304  1.00  0.00     0.156 C 
BRANCH  22  23
HETATM   23  N3  UNL     1      15.626 -12.442  20.196  1.00  0.00    -0.347 N 
HETATM   24  C11 UNL     1      15.028 -11.298  20.565  1.00  0.00     0.125 A 
HETATM   25  C12 UNL     1      13.937 -11.421  21.393  1.00  0.00     0.094 A 
HETATM   26  C13 UNL     1      13.459 -12.645  21.839  1.00  0.00     0.138 A 
HETATM   27  N6  UNL     1      13.284 -10.309  21.795  1.00  0.00    -0.353 N 
HETATM   28  N4  UNL     1      12.383 -12.731  22.645  1.00  0.00    -0.326 N 
HETATM   29  N7  UNL     1      14.096 -13.758  21.439  1.00  0.00    -0.332 N 
HETATM   30  C14 UNL     1      11.755 -11.632  23.031  1.00  0.00     0.116 A 
ATOM     31  H4  UNL     1      12.052 -13.644  22.957  1.00  0.00     0.169 HD
HETATM   32  C15 UNL     1      12.220 -10.392  22.593  1.00  0.00     0.139 A 
HETATM   33  C17 UNL     1      13.682 -15.083  21.841  1.00  0.00     0.158 C 
HETATM   34  C18 UNL     1      15.181 -13.631  20.615  1.00  0.00     0.186 A 
HETATM   35  C16 UNL     1      13.783  -9.034  21.322  1.00  0.00     0.156 C 
BRANCH  30  36
HETATM   36  N5  UNL     1      10.738 -11.638  23.791  1.00  0.00    -0.384 N 
ATOM     37  H52 UNL     1      10.893 -11.464  24.784  1.00  0.00     0.157 HD
ATOM     38  H51 UNL     1       9.789 -11.807  23.457  1.00  0.00     0.157 HD
ENDBRANCH  30  36
ENDBRANCH  22  23
ENDBRANCH  21  22
ENDBRANCH   1  20
TORSDOF 10
ENDMDL
MODEL 2
REMARK VINA RESULT: -8.774270287      1.296      1.404
REMARK  10 active torsions:
REMARK  status: ('A' for Active; 'I' for Inactive)
REMARK    1  A    between atoms: C2_2  and  C3_3 
REMARK    2  A    between atoms: C3_3  and  C4_4 
REMARK    3  A    between atoms: C4_4  and  C5_5 
REMARK    4  A    between atoms: N2_9  and  C7_10 
REMARK    5  A    between atoms: C7_10  and  C8_11 
REMARK    6  A    between atoms: C9_12  and  C10_13 
REMARK    7  A    between atoms: C10_13  and  N3_14 
REMARK    8  A    between atoms: C14_20  and  N5_21 
REMARK    9  A    between atoms: C19_30  and  C20_31 
REMARK   10  A    between atoms: N8_32  and  N9_34 
REMARK       I    between atoms: N9_34  and  C21_36 
ROOT
HETATM    1  C7  UNL     1      19.071 -13.583  20.943  1.00  0.00     0.157 C 
ENDROOT
BRANCH   1   2
HETATM    2  N2  UNL     1      18.895 -13.956  22.308  1.00  0.00    -0.337 N 
HETATM    3  C6  UNL     1      17.775 -13.667  23.020  1.00  0.00     0.184 A 
HETATM    4  N1  UNL     1      17.896 -14.162  24.237  1.00  0.00    -0.354 N 
HETATM    5  C5  UNL     1      19.110 -14.784  24.328  1.00  0.00     0.038 A 
ATOM      6  H1  UNL     1      17.204 -14.092  24.982  1.00  0.00     0.166 HD
HETATM    7  C19 UNL     1      19.705 -14.644  23.129  1.00  0.00     0.075 A 
BRANCH   5   8
HETATM    8  C4  UNL     1      19.588 -15.464  25.540  1.00  0.00     0.059 C 
BRANCH   8   9
HETATM    9  C3  UNL     1      19.775 -14.502  26.695  1.00  0.00     0.006 C 
BRANCH   9  10
HETATM   10  C2  UNL     1      21.116 -13.782  26.476  1.00  0.00    -0.004 C 
HETATM   11  C1  UNL     1      20.835 -12.386  25.937  1.00  0.00     0.005 C 
ENDBRANCH   9  10
ENDBRANCH   8   9
ENDBRANCH   5   8
BRANCH   7  12
HETATM   12  C20 UNL     1      21.053 -15.149  22.746  1.00  0.00     0.139 C 
HETATM   13  N8  UNL     1      21.296 -16.305  22.518  1.00  0.00    -0.306 N 
ATOM     14  H8  UNL     1      20.413 -16.798  22.647  1.00  0.00     0.186 HD
BRANCH  13  15
HETATM   15  N9  UNL     1      22.187 -17.249  22.172  1.00  0.00    -0.254 N 
HETATM   16  C21 UNL     1      22.318 -17.681  20.820  1.00  0.00     0.347 C 
HETATM   17  N10 UNL     1      23.264 -18.675  20.476  1.00  0.00    -0.038 NA
HETATM   18  O1  UNL     1      21.592 -17.171  19.944  1.00  0.00    -0.249 OA
ATOM     19  H9  UNL     1      22.781 -17.664  22.890  1.00  0.00     0.191 HD
ENDBRANCH  13  15
ENDBRANCH   7  12
ENDBRANCH   1   2
BRANCH   1  20
HETATM   20  C8  UNL     1      18.778 -12.159  20.706  1.00  0.00    -0.009 C 
HETATM   21  C9  UNL     1      17.770 -11.703  20.012  1.00  0.00    -0.009 C 
BRANCH  21  22
HETATM   22  C10 UNL     1      16.735 -12.501  19.337  1.00  0.00     0.156 C 
BRANCH  22  23
HETATM   23  N3  UNL     1      15.563 -12.561  20.234  1.00  0.00    -0.347 N 
HETATM   24  C11 UNL     1      14.971 -11.408  20.586  1.00  0.00     0.125 A 
HETATM   25  C12 UNL     1      13.883 -11.512  21.419  1.00  0.00     0.094 A 
HETATM   26  C13 UNL     1      13.400 -12.727  21.887  1.00  0.00     0.138 A 
HETATM   27  N6  UNL     1      13.236 -10.391  21.804  1.00  0.00    -0.353 N 
HETATM   28  N4  UNL     1      12.327 -12.794  22.697  1.00  0.00    -0.326 N 
HETATM   29  N7  UNL     1      14.031 -13.849  21.504  1.00  0.00    -0.332 N 
HETATM   30  C14 UNL     1      11.705 -11.686  23.067  1.00  0.00     0.116 A 
ATOM     31  H4  UNL     1      11.992 -13.700  23.026  1.00  0.00     0.169 HD
HETATM   32  C15 UNL     1      12.174 -10.456  22.607  1.00  0.00     0.139 A 
HETATM   33  C17 UNL     1      13.612 -15.166  21.928  1.00  0.00     0.158 C 
HETATM   34  C18 UNL     1      15.114 -13.741  20.674  1.00  0.00     0.186 A 
HETATM   35  C16 UNL     1      13.739  -9.126  21.309  1.00  0.00     0.156 C 
BRANCH  30  36
HETATM   36  N5  UNL     1      10.690 -11.676  23.830  1.00  0.00    -0.384 N 
ATOM     37  H52 UNL     1       9.801 -11.384  23.424  1.00  0.00     0.157 HD
ATOM     38  H51 UNL     1      10.724 -11.941  24.814  1.00  0.00     0.157 HD
ENDBRANCH  30  36
ENDBRANCH  22  23
ENDBRANCH  21  22
ENDBRANCH   1  20
TORSDOF 10
ENDMDL
MODEL 3
REMARK VINA RESULT: -8.738209877      2.145      3.384
REMARK  10 active torsions:
REMARK  status: ('A' for Active; 'I' for Inactive)
REMARK    1  A    between atoms: C2_2  and  C3_3 
REMARK    2  A    between atoms: C3_3  and  C4_4 
REMARK    3  A    between atoms: C4_4  and  C5_5 
REMARK    4  A    between atoms: N2_9  and  C7_10 
REMARK    5  A    between atoms: C7_10  and  C8_11 
REMARK    6  A    between atoms: C9_12  and  C10_13 
REMARK    7  A    between atoms: C10_13  and  N3_14 
REMARK    8  A    between atoms: C14_20  and  N5_21 
REMARK    9  A    between atoms: C19_30  and  C20_31 
REMARK   10  A    between atoms: N8_32  and  N9_34 
REMARK       I    between atoms: N9_34  and  C21_36 
ROOT
HETATM    1  C7  UNL     1      18.474 -13.701  20.955  1.00  0.00     0.157 C 
ENDROOT
BRANCH   1   2
HETATM    2  N2  UNL     1      19.405 -14.046  21.980  1.00  0.00    -0.337 N 
HETATM    3  C6  UNL     1      20.470 -13.271  22.308  1.00  0.00     0.184 A 
HETATM    4  N1  UNL     1      21.126 -13.836  23.305  1.00  0.00    -0.354 N 
HETATM    5  C5  UNL     1      20.483 -14.996  23.637  1.00  0.00     0.038 A 
ATOM      6  H1  UNL     1      21.967 -13.471  23.750  1.00  0.00     0.166 HD
HETATM    7  C19 UNL     1      19.428 -15.103  22.808  1.00  0.00     0.075 A 
BRANCH   5   8
HETATM    8  C4  UNL     1      20.923 -15.890  24.717  1.00  0.00     0.059 C 
BRANCH   8   9
HETATM    9  C3  UNL     1      21.548 -15.128  25.867  1.00  0.00     0.006 C 
BRANCH   9  10
HETATM   10  C2  UNL     1      20.405 -14.450  26.640  1.00  0.00    -0.004 C 
HETATM   11  C1  UNL     1      20.762 -12.985  26.849  1.00  0.00     0.005 C 
ENDBRANCH   9  10
ENDBRANCH   8   9
ENDBRANCH   5   8
BRANCH   7  12
HETATM   12  C20 UNL     1      18.433 -16.211  22.782  1.00  0.00     0.139 C 
HETATM   13  N8  UNL     1      17.435 -16.233  23.452  1.00  0.00    -0.306 N 
ATOM     14  H8  UNL     1      17.454 -15.370  23.995  1.00  0.00     0.186 HD
BRANCH  13  15
HETATM   15  N9  UNL     1      16.307 -16.863  23.821  1.00  0.00    -0.254 N 
HETATM   16  C21 UNL     1      15.522 -17.586  22.876  1.00  0.00     0.347 C 
HETATM   17  N10 UNL     1      14.339 -18.244  23.285  1.00  0.00    -0.038 NA
HETATM   18  O1  UNL     1      15.892 -17.634  21.686  1.00  0.00    -0.249 OA
ATOM     19  H9  UNL     1      16.007 -16.824  24.795  1.00  0.00     0.191 HD
ENDBRANCH  13  15
ENDBRANCH   7  12
ENDBRANCH   1   2
BRANCH   1  20
HETATM   20  C8  UNL     1      18.445 -12.254  20.686  1.00  0.00    -0.009 C 
HETATM   21  C9  UNL     1      17.568 -11.647  19.932  1.00  0.00    -0.009 C 
BRANCH  21  22
HETATM   22  C10 UNL     1      16.447 -12.270  19.211  1.00  0.00     0.156 C 
BRANCH  22  23
HETATM   23  N3  UNL     1      15.308 -12.358  20.148  1.00  0.00    -0.347 N 
HETATM   24  C11 UNL     1      14.767 -11.215  20.600  1.00  0.00     0.125 A 
HETATM   25  C12 UNL     1      13.708 -11.345  21.467  1.00  0.00     0.094 A 
HETATM   26  C13 UNL     1      13.205 -12.574  21.870  1.00  0.00     0.138 A 
HETATM   27  N6  UNL     1      13.111 -10.235  21.953  1.00  0.00    -0.353 N 
HETATM   28  N4  UNL     1      12.162 -12.667  22.717  1.00  0.00    -0.326 N 
HETATM   29  N7  UNL     1      13.786 -13.685  21.387  1.00  0.00    -0.332 N 
HETATM   30  C14 UNL     1      11.589 -11.569  23.185  1.00  0.00     0.116 A 
ATOM     31  H4  UNL     1      11.812 -13.583  22.996  1.00  0.00     0.169 HD
HETATM   32  C15 UNL     1      12.079 -10.325  22.791  1.00  0.00     0.139 A 
HETATM   33  C17 UNL     1      13.342 -15.016  21.738  1.00  0.00     0.158 C 
HETATM   34  C18 UNL     1      14.840 -13.551  20.524  1.00  0.00     0.186 A 
HETATM   35  C16 UNL     1      13.635  -8.954  21.524  1.00  0.00     0.156 C 
BRANCH  30  36
HETATM   36  N5  UNL     1      10.605 -11.582  23.987  1.00  0.00    -0.384 N 
ATOM     37  H52 UNL     1       9.746 -12.031  23.667  1.00  0.00     0.157 HD
ATOM     38  H51 UNL     1      10.634 -11.170  24.919  1.00  0.00     0.157 HD
ENDBRANCH  30  36
ENDBRANCH  22  23
ENDBRANCH  21  22
ENDBRANCH   1  20
TORSDOF 10
ENDMDL
MODEL 4
REMARK VINA RESULT: -8.678906119      2.301      3.431
REMARK  10 active torsions:
REMARK  status: ('A' for Active; 'I' for Inactive)
REMARK    1  A    between atoms: C2_2  and  C3_3 
REMARK    2  A    between atoms: C3_3  and  C4_4 
REMARK    3  A    between atoms: C4_4  and  C5_5 
REMARK    4  A    between atoms: N2_9  and  C7_10 
REMARK    5  A    between atoms: C7_10  and  C8_11 
REMARK    6  A    between atoms: C9_12  and  C10_13 
REMARK    7  A    between atoms: C10_13  and  N3_14 
REMARK    8  A    between atoms: C14_20  and  N5_21 
REMARK    9  A    between atoms: C19_30  and  C20_31 
REMARK   10  A    between atoms: N8_32  and  N9_34 
REMARK       I    between atoms: N9_34  and  C21_36 
ROOT
HETATM    1  C7  UNL     1      17.803 -13.238  20.722  1.00  0.00     0.157 C 
ENDROOT
BRANCH   1   2
HETATM    2  N2  UNL     1      18.947 -13.349  21.568  1.00  0.00    -0.337 N 
HETATM    3  C6  UNL     1      20.187 -12.938  21.199  1.00  0.00     0.184 A 
HETATM    4  N1  UNL     1      21.026 -13.145  22.196  1.00  0.00    -0.354 N 
HETATM    5  C5  UNL     1      20.329 -13.698  23.234  1.00  0.00     0.038 A 
ATOM      6  H1  UNL     1      22.022 -12.929  22.193  1.00  0.00     0.166 HD
HETATM    7  C19 UNL     1      19.053 -13.814  22.823  1.00  0.00     0.075 A 
BRANCH   5   8
HETATM    8  C4  UNL     1      20.937 -14.056  24.523  1.00  0.00     0.059 C 
BRANCH   8   9
HETATM    9  C3  UNL     1      21.299 -12.833  25.341  1.00  0.00     0.006 C 
BRANCH   9  10
HETATM   10  C2  UNL     1      20.778 -13.068  26.768  1.00  0.00    -0.004 C 
HETATM   11  C1  UNL     1      20.066 -14.413  26.809  1.00  0.00     0.005 C 
ENDBRANCH   9  10
ENDBRANCH   8   9
ENDBRANCH   5   8
BRANCH   7  12
HETATM   12  C20 UNL     1      17.919 -14.375  23.608  1.00  0.00     0.139 C 
HETATM   13  N8  UNL     1      17.557 -15.520  23.540  1.00  0.00    -0.306 N 
ATOM     14  H8  UNL     1      18.177 -15.960  22.861  1.00  0.00     0.186 HD
BRANCH  13  15
HETATM   15  N9  UNL     1      16.717 -16.490  23.940  1.00  0.00    -0.254 N 
HETATM   16  C21 UNL     1      15.794 -17.087  23.033  1.00  0.00     0.347 C 
HETATM   17  N10 UNL     1      14.919 -18.108  23.474  1.00  0.00    -0.038 NA
HETATM   18  O1  UNL     1      15.767 -16.702  21.848  1.00  0.00    -0.249 OA
ATOM     19  H9  UNL     1      16.742 -16.804  24.909  1.00  0.00     0.191 HD
ENDBRANCH  13  15
ENDBRANCH   7  12
ENDBRANCH   1   2
BRANCH   1  20
HETATM   20  C8  UNL     1      17.749 -11.947  20.016  1.00  0.00    -0.009 C 
HETATM   21  C9  UNL     1      16.845 -11.608  19.136  1.00  0.00    -0.009 C 
BRANCH  21  22
HETATM   22  C10 UNL     1      15.713 -12.428  18.678  1.00  0.00     0.156 C 
BRANCH  22  23
HETATM   23  N3  UNL     1      14.714 -12.457  19.766  1.00  0.00    -0.347 N 
HETATM   24  C11 UNL     1      14.337 -11.292  20.315  1.00  0.00     0.125 A 
HETATM   25  C12 UNL     1      13.404 -11.366  21.322  1.00  0.00     0.094 A 
HETATM   26  C13 UNL     1      12.865 -12.565  21.767  1.00  0.00     0.138 A 
HETATM   27  N6  UNL     1      12.974 -10.229  21.911  1.00  0.00    -0.353 N 
HETATM   28  N4  UNL     1      11.947 -12.603  22.752  1.00  0.00    -0.326 N 
HETATM   29  N7  UNL     1      13.278 -13.701  21.183  1.00  0.00    -0.332 N 
HETATM   30  C14 UNL     1      11.538 -11.480  23.320  1.00  0.00     0.116 A 
ATOM     31  H4  UNL     1      11.566 -13.498  23.059  1.00  0.00     0.169 HD
HETATM   32  C15 UNL     1      12.067 -10.265  22.886  1.00  0.00     0.139 A 
HETATM   33  C17 UNL     1      12.781 -15.004  21.566  1.00  0.00     0.158 C 
HETATM   34  C18 UNL     1      14.207 -13.622  20.181  1.00  0.00     0.186 A 
HETATM   35  C16 UNL     1      13.536  -8.979  21.438  1.00  0.00     0.156 C 
BRANCH  30  36
HETATM   36  N5  UNL     1      10.678 -11.442  24.254  1.00  0.00    -0.384 N 
ATOM     37  H52 UNL     1       9.698 -11.353  23.985  1.00  0.00     0.157 HD
ATOM     38  H51 UNL     1      10.921 -11.496  25.243  1.00  0.00     0.157 HD
ENDBRANCH  30  36
ENDBRANCH  22  23
ENDBRANCH  21  22
ENDBRANCH   1  20
TORSDOF 10
ENDMDL
MODEL 5
REMARK VINA RESULT: -8.496067894      1.995      3.021
REMARK  10 active torsions:
REMARK  status: ('A' for Active; 'I' for Inactive)
REMARK    1  A    between atoms: C2_2  and  C3_3 
REMARK    2  A    between atoms: C3_3  and  C4_4 
REMARK    3  A    between atoms: C4_4  and  C5_5 
REMARK    4  A    between atoms: N2_9  and  C7_10 
REMARK    5  A    between atoms: C7_10  and  C8_11 
REMARK    6  A    between atoms: C9_12  and  C10_13 
REMARK    7  A    between atoms: C10_13  and  N3_14 
REMARK    8  A    between atoms: C14_20  and  N5_21 
REMARK    9  A    between atoms: C19_30  and  C20_31 
REMARK   10  A    between atoms: N8_32  and  N9_34 
REMARK       I    between atoms: N9_34  and  C21_36 
ROOT
HETATM    1  C7  UNL     1      18.306 -13.638  20.844  1.00  0.00     0.157 C 
ENDROOT
BRANCH   1   2
HETATM    2  N2  UNL     1      19.253 -13.937  21.868  1.00  0.00    -0.337 N 
HETATM    3  C6  UNL     1      20.337 -13.161  22.127  1.00  0.00     0.184 A 
HETATM    4  N1  UNL     1      21.006 -13.677  23.141  1.00  0.00    -0.354 N 
HETATM    5  C5  UNL     1      20.354 -14.805  23.555  1.00  0.00     0.038 A 
ATOM      6  H1  UNL     1      21.862 -13.299  23.546  1.00  0.00     0.166 HD
HETATM    7  C19 UNL     1      19.280 -14.943  22.756  1.00  0.00     0.075 A 
BRANCH   5   8
HETATM    8  C4  UNL     1      20.805 -15.641  24.676  1.00  0.00     0.059 C 
BRANCH   8   9
HETATM    9  C3  UNL     1      20.200 -15.201  25.993  1.00  0.00     0.006 C 
BRANCH   9  10
HETATM   10  C2  UNL     1      21.257 -14.355  26.721  1.00  0.00    -0.004 C 
HETATM   11  C1  UNL     1      20.790 -12.907  26.740  1.00  0.00     0.005 C 
ENDBRANCH   9  10
ENDBRANCH   8   9
ENDBRANCH   5   8
BRANCH   7  12
HETATM   12  C20 UNL     1      18.268 -16.035  22.816  1.00  0.00     0.139 C 
HETATM   13  N8  UNL     1      17.586 -16.266  23.780  1.00  0.00    -0.306 N 
ATOM     14  H8  UNL     1      17.863 -15.577  24.479  1.00  0.00     0.186 HD
BRANCH  13  15
HETATM   15  N9  UNL     1      16.630 -17.007  24.365  1.00  0.00    -0.254 N 
HETATM   16  C21 UNL     1      16.952 -18.196  25.080  1.00  0.00     0.347 C 
HETATM   17  N10 UNL     1      15.930 -18.961  25.691  1.00  0.00    -0.038 NA
HETATM   18  O1  UNL     1      18.143 -18.554  25.164  1.00  0.00    -0.249 OA
ATOM     19  H9  UNL     1      15.656 -16.711  24.296  1.00  0.00     0.191 HD
ENDBRANCH  13  15
ENDBRANCH   7  12
ENDBRANCH   1   2
BRANCH   1  20
HETATM   20  C8  UNL     1      18.288 -12.208  20.493  1.00  0.00    -0.009 C 
HETATM   21  C9  UNL     1      17.407 -11.634  19.718  1.00  0.00    -0.009 C 
BRANCH  21  22
HETATM   22  C10 UNL     1      16.270 -12.283  19.049  1.00  0.00     0.156 C 
BRANCH  22  23
HETATM   23  N3  UNL     1      15.166 -12.368  20.028  1.00  0.00    -0.347 N 
HETATM   24  C11 UNL     1      14.659 -11.224  20.515  1.00  0.00     0.125 A 
HETATM   25  C12 UNL     1      13.632 -11.350  21.421  1.00  0.00     0.094 A 
HETATM   26  C13 UNL     1      13.128 -12.578  21.827  1.00  0.00     0.138 A 
HETATM   27  N6  UNL     1      13.071 -10.238  21.943  1.00  0.00    -0.353 N 
HETATM   28  N4  UNL     1      12.116 -12.667  22.712  1.00  0.00    -0.326 N 
HETATM   29  N7  UNL     1      13.673 -13.690  21.309  1.00  0.00    -0.332 N 
HETATM   30  C14 UNL     1      11.578 -11.567  23.216  1.00  0.00     0.116 A 
ATOM     31  H4  UNL     1      11.764 -13.582  22.993  1.00  0.00     0.169 HD
HETATM   32  C15 UNL     1      12.070 -10.325  22.819  1.00  0.00     0.139 A 
HETATM   33  C17 UNL     1      13.224 -15.019  21.659  1.00  0.00     0.158 C 
HETATM   34  C18 UNL     1      14.695 -13.559  20.407  1.00  0.00     0.186 A 
HETATM   35  C16 UNL     1      13.597  -8.959  21.511  1.00  0.00     0.156 C 
BRANCH  30  36
HETATM   36  N5  UNL     1      10.625 -11.577  24.054  1.00  0.00    -0.384 N 
ATOM     37  H52 UNL     1      10.123 -12.456  24.183  1.00  0.00     0.157 HD
ATOM     38  H51 UNL     1      10.344 -10.759  24.595  1.00  0.00     0.157 HD
ENDBRANCH  30  36
ENDBRANCH  22  23
ENDBRANCH  21  22
ENDBRANCH   1  20
TORSDOF 10
ENDMDL
