MODEL 1
REMARK VINA RESULT: -7.767499295      0.000      0.000
REMARK  5 active torsions:
REMARK  status: ('A' for Active; 'I' for Inactive)
REMARK       I    between atoms: C1_2  and  N1_3 
REMARK       I    between atoms: C1_2  and  N2_11 
REMARK    1  A    between atoms: N1_3  and  C2_5 
REMARK    2  A    between atoms: N2_11  and  C8_13 
REMARK    3  A    between atoms: C8_13  and  O2_14 
REMARK    4  A    between atoms: C8_13  and  N3_16 
REMARK    5  A    between atoms: N3_16  and  C9_19 
ROOT
HETATM    1  C8  UNL     1      13.527  14.580  18.114  1.00  0.00     0.430 C 
ENDROOT
BRANCH   1   2
HETATM    2  N2  UNL     1      13.460  15.492  19.226  1.00  0.00    -0.294 N 
HETATM    3  C1  UNL     1      14.693  15.803  19.912  1.00  0.00     0.324 C 
HETATM    4  O1  UNL     1      15.740  15.277  19.515  1.00  0.00    -0.247 OA
HETATM    5  N1  UNL     1      14.611  16.690  20.990  1.00  0.00    -0.309 N 
ATOM      6  H1  UNL     1      13.702  17.084  21.231  1.00  0.00     0.170 HD
ATOM      7  H2  UNL     1      12.574  15.904  19.519  1.00  0.00     0.168 HD
BRANCH   5   8
HETATM    8  C2  UNL     1      15.750  17.071  21.771  1.00  0.00     0.036 A 
HETATM    9  C3  UNL     1      15.644  16.931  23.161  1.00  0.00     0.029 A 
HETATM   10  C4  UNL     1      16.703  17.253  23.951  1.00  0.00     0.002 A 
HETATM   11  C5  UNL     1      17.870  17.713  23.388  1.00  0.00     0.000 A 
HETATM   12  C6  UNL     1      18.001  17.859  22.030  1.00  0.00     0.002 A 
HETATM   13  C7  UNL     1      16.919  17.529  21.227  1.00  0.00     0.029 A 
ENDBRANCH   5   8
ENDBRANCH   1   2
BRANCH   1  14
HETATM   14  O2  UNL     1      14.076  13.388  18.541  1.00  0.00    -0.354 OA
ATOM     15  H2  UNL     1      14.334  12.877  17.784  1.00  0.00     0.214 HD
ENDBRANCH   1  14
BRANCH   1  16
HETATM   16  N3  UNL     1      14.364  15.212  17.082  1.00  0.00    -0.024 N 
ATOM     17  H32 UNL     1      14.956  15.963  17.436  1.00  0.00     0.282 HD
ATOM     18  H31 UNL     1      15.119  14.616  16.743  1.00  0.00     0.282 HD
BRANCH  16  19
HETATM   19  C9  UNL     1      13.438  15.637  16.040  1.00  0.00     0.223 C 
HETATM   20  C10 UNL     1      12.177  14.811  16.049  1.00  0.00     0.204 C 
HETATM   21  O3  UNL     1      11.259  15.664  15.450  1.00  0.00    -0.359 OA
HETATM   22  C11 UNL     1      11.507  16.946  15.870  1.00  0.00     0.265 C 
HETATM   23  O4  UNL     1      11.531  17.828  14.778  1.00  0.00    -0.361 OA
HETATM   24  C14 UNL     1      12.899  16.993  16.454  1.00  0.00     0.076 C 
HETATM   25  C12 UNL     1      12.392  18.868  15.141  1.00  0.00     0.171 C 
HETATM   26  C13 UNL     1      13.589  18.075  15.677  1.00  0.00     0.038 C 
ENDBRANCH  16  19
ENDBRANCH   1  16
TORSDOF 5
ENDMDL
MODEL 2
REMARK VINA RESULT: -7.695932948      0.129      1.051
REMARK  5 active torsions:
REMARK  status: ('A' for Active; 'I' for Inactive)
REMARK       I    between atoms: C1_2  and  N1_3 
REMARK       I    between atoms: C1_2  and  N2_11 
REMARK    1  A    between atoms: N1_3  and  C2_5 
REMARK    2  A    between atoms: N2_11  and  C8_13 
REMARK    3  A    between atoms: C8_13  and  O2_14 
REMARK    4  A    between atoms: C8_13  and  N3_16 
REMARK    5  A    between atoms: N3_16  and  C9_19 
ROOT
HETATM    1  C8  UNL     1      13.454  14.574  18.063  1.00  0.00     0.430 C 
ENDROOT
BRANCH   1   2
HETATM    2  N2  UNL     1      13.353  15.460  19.195  1.00  0.00    -0.294 N 
HETATM    3  C1  UNL     1      14.567  15.761  19.918  1.00  0.00     0.324 C 
HETATM    4  O1  UNL     1      15.627  15.251  19.535  1.00  0.00    -0.247 OA
HETATM    5  N1  UNL     1      14.454  16.623  21.015  1.00  0.00    -0.309 N 
ATOM      6  H1  UNL     1      13.536  17.005  21.242  1.00  0.00     0.170 HD
ATOM      7  H2  UNL     1      12.458  15.860  19.476  1.00  0.00     0.168 HD
BRANCH   5   8
HETATM    8  C2  UNL     1      15.570  16.991  21.832  1.00  0.00     0.036 A 
HETATM    9  C3  UNL     1      16.691  17.518  21.178  1.00  0.00     0.029 A 
HETATM   10  C4  UNL     1      17.772  17.909  21.905  1.00  0.00     0.002 A 
HETATM   11  C5  UNL     1      17.764  17.786  23.275  1.00  0.00     0.000 A 
HETATM   12  C6  UNL     1      16.678  17.273  23.941  1.00  0.00     0.002 A 
HETATM   13  C7  UNL     1      15.578  16.876  23.195  1.00  0.00     0.029 A 
ENDBRANCH   5   8
ENDBRANCH   1   2
BRANCH   1  14
HETATM   14  O2  UNL     1      14.004  13.378  18.476  1.00  0.00    -0.354 OA
ATOM     15  H2  UNL     1      14.734  13.161  17.908  1.00  0.00     0.214 HD
ENDBRANCH   1  14
BRANCH   1  16
HETATM   16  N3  UNL     1      14.308  15.238  17.066  1.00  0.00    -0.024 N 
ATOM     17  H32 UNL     1      14.873  15.996  17.447  1.00  0.00     0.282 HD
ATOM     18  H31 UNL     1      15.084  14.662  16.741  1.00  0.00     0.282 HD
BRANCH  16  19
HETATM   19  C9  UNL     1      13.404  15.659  16.002  1.00  0.00     0.223 C 
HETATM   20  C10 UNL     1      12.150  14.822  15.977  1.00  0.00     0.204 C 
HETATM   21  O3  UNL     1      11.240  15.669  15.358  1.00  0.00    -0.359 OA
HETATM   22  C11 UNL     1      11.467  16.952  15.788  1.00  0.00     0.265 C 
HETATM   23  O4  UNL     1      11.511  17.838  14.700  1.00  0.00    -0.361 OA
HETATM   24  C14 UNL     1      12.844  17.008  16.406  1.00  0.00     0.076 C 
HETATM   25  C12 UNL     1      12.354  18.883  15.087  1.00  0.00     0.171 C 
HETATM   26  C13 UNL     1      13.544  18.099  15.650  1.00  0.00     0.038 C 
ENDBRANCH  16  19
ENDBRANCH   1  16
TORSDOF 5
ENDMDL
MODEL 3
REMARK VINA RESULT: -7.417858084      0.823      1.527
REMARK  5 active torsions:
REMARK  status: ('A' for Active; 'I' for Inactive)
REMARK       I    between atoms: C1_2  and  N1_3 
REMARK       I    between atoms: C1_2  and  N2_11 
REMARK    1  A    between atoms: N1_3  and  C2_5 
REMARK    2  A    between atoms: N2_11  and  C8_13 
REMARK    3  A    between atoms: C8_13  and  O2_14 
REMARK    4  A    between atoms: C8_13  and  N3_16 
REMARK    5  A    between atoms: N3_16  and  C9_19 
ROOT
HETATM    1  C8  UNL     1      13.535  14.543  18.170  1.00  0.00     0.430 C 
ENDROOT
BRANCH   1   2
HETATM    2  N2  UNL     1      13.464  15.420  19.311  1.00  0.00    -0.294 N 
HETATM    3  C1  UNL     1      14.705  15.768  19.964  1.00  0.00     0.324 C 
HETATM    4  O1  UNL     1      15.760  15.303  19.517  1.00  0.00    -0.247 OA
HETATM    5  N1  UNL     1      14.620  16.620  21.071  1.00  0.00    -0.309 N 
ATOM      6  H1  UNL     1      13.702  16.963  21.353  1.00  0.00     0.170 HD
ATOM      7  H2  UNL     1      12.571  15.781  19.646  1.00  0.00     0.168 HD
BRANCH   5   8
HETATM    8  C2  UNL     1      15.766  17.031  21.825  1.00  0.00     0.036 A 
HETATM    9  C3  UNL     1      15.690  16.907  23.218  1.00  0.00     0.029 A 
HETATM   10  C4  UNL     1      16.757  17.258  23.983  1.00  0.00     0.002 A 
HETATM   11  C5  UNL     1      17.905  17.732  23.392  1.00  0.00     0.000 A 
HETATM   12  C6  UNL     1      18.007  17.863  22.030  1.00  0.00     0.002 A 
HETATM   13  C7  UNL     1      16.916  17.504  21.253  1.00  0.00     0.029 A 
ENDBRANCH   5   8
ENDBRANCH   1   2
BRANCH   1  14
HETATM   14  O2  UNL     1      14.186  13.382  18.534  1.00  0.00    -0.354 OA
ATOM     15  H2  UNL     1      14.753  13.109  17.822  1.00  0.00     0.214 HD
ENDBRANCH   1  14
BRANCH   1  16
HETATM   16  N3  UNL     1      14.272  15.259  17.116  1.00  0.00    -0.024 N 
ATOM     17  H32 UNL     1      15.248  15.441  17.348  1.00  0.00     0.282 HD
ATOM     18  H31 UNL     1      14.450  14.696  16.284  1.00  0.00     0.282 HD
BRANCH  16  19
HETATM   19  C9  UNL     1      13.497  16.465  16.855  1.00  0.00     0.223 C 
HETATM   20  C10 UNL     1      14.385  17.674  16.703  1.00  0.00     0.204 C 
HETATM   21  O3  UNL     1      13.600  18.526  15.938  1.00  0.00    -0.359 OA
HETATM   22  C11 UNL     1      12.913  17.782  15.011  1.00  0.00     0.265 C 
HETATM   23  O4  UNL     1      11.557  18.141  14.995  1.00  0.00    -0.361 OA
HETATM   24  C14 UNL     1      12.940  16.337  15.450  1.00  0.00     0.076 C 
HETATM   25  C12 UNL     1      10.860  16.998  14.596  1.00  0.00     0.171 C 
HETATM   26  C13 UNL     1      11.494  15.942  15.508  1.00  0.00     0.038 C 
ENDBRANCH  16  19
ENDBRANCH   1  16
TORSDOF 5
ENDMDL
MODEL 4
REMARK VINA RESULT: -7.078521938      2.918      7.344
REMARK  5 active torsions:
REMARK  status: ('A' for Active; 'I' for Inactive)
REMARK       I    between atoms: C1_2  and  N1_3 
REMARK       I    between atoms: C1_2  and  N2_11 
REMARK    1  A    between atoms: N1_3  and  C2_5 
REMARK    2  A    between atoms: N2_11  and  C8_13 
REMARK    3  A    between atoms: C8_13  and  O2_14 
REMARK    4  A    between atoms: C8_13  and  N3_16 
REMARK    5  A    between atoms: N3_16  and  C9_19 
ROOT
HETATM    1  C8  UNL     1      18.835  17.539  19.728  1.00  0.00     0.430 C 
ENDROOT
BRANCH   1   2
HETATM    2  N2  UNL     1      17.772  16.635  19.367  1.00  0.00    -0.294 N 
HETATM    3  C1  UNL     1      16.731  17.139  18.502  1.00  0.00     0.324 C 
HETATM    4  O1  UNL     1      16.799  18.311  18.114  1.00  0.00    -0.247 OA
HETATM    5  N1  UNL     1      15.706  16.249  18.160  1.00  0.00    -0.309 N 
ATOM      6  H1  UNL     1      15.748  15.295  18.520  1.00  0.00     0.170 HD
ATOM      7  H2  UNL     1      17.757  15.674  19.710  1.00  0.00     0.168 HD
BRANCH   5   8
HETATM    8  C2  UNL     1      14.602  16.619  17.328  1.00  0.00     0.036 A 
HETATM    9  C3  UNL     1      13.497  17.203  17.960  1.00  0.00     0.029 A 
HETATM   10  C4  UNL     1      12.429  17.598  17.217  1.00  0.00     0.002 A 
HETATM   11  C5  UNL     1      12.434  17.424  15.852  1.00  0.00     0.000 A 
HETATM   12  C6  UNL     1      13.504  16.854  15.208  1.00  0.00     0.002 A 
HETATM   13  C7  UNL     1      14.591  16.453  15.970  1.00  0.00     0.029 A 
ENDBRANCH   5   8
ENDBRANCH   1   2
BRANCH   1  14
HETATM   14  O2  UNL     1      19.928  16.806  20.144  1.00  0.00    -0.354 OA
ATOM     15  H2  UNL     1      20.721  17.271  19.904  1.00  0.00     0.214 HD
ENDBRANCH   1  14
BRANCH   1  16
HETATM   16  N3  UNL     1      18.326  18.398  20.810  1.00  0.00    -0.024 N 
ATOM     17  H32 UNL     1      18.979  19.126  21.098  1.00  0.00     0.282 HD
ATOM     18  H31 UNL     1      17.573  19.021  20.519  1.00  0.00     0.282 HD
BRANCH  16  19
HETATM   19  C9  UNL     1      17.953  17.486  21.883  1.00  0.00     0.223 C 
HETATM   20  C10 UNL     1      18.834  17.664  23.094  1.00  0.00     0.204 C 
HETATM   21  O3  UNL     1      18.028  17.188  24.120  1.00  0.00    -0.359 OA
HETATM   22  C11 UNL     1      16.732  17.566  23.876  1.00  0.00     0.265 C 
HETATM   23  O4  UNL     1      15.861  16.478  24.036  1.00  0.00    -0.361 OA
HETATM   24  C14 UNL     1      16.618  17.961  22.423  1.00  0.00     0.076 C 
HETATM   25  C12 UNL     1      14.781  16.720  23.182  1.00  0.00     0.171 C 
HETATM   26  C13 UNL     1      15.515  17.095  21.891  1.00  0.00     0.038 C 
ENDBRANCH  16  19
ENDBRANCH   1  16
TORSDOF 5
ENDMDL
MODEL 5
REMARK VINA RESULT: -7.048549668      1.155      1.548
REMARK  5 active torsions:
REMARK  status: ('A' for Active; 'I' for Inactive)
REMARK       I    between atoms: C1_2  and  N1_3 
REMARK       I    between atoms: C1_2  and  N2_11 
REMARK    1  A    between atoms: N1_3  and  C2_5 
REMARK    2  A    between atoms: N2_11  and  C8_13 
REMARK    3  A    between atoms: C8_13  and  O2_14 
REMARK    4  A    between atoms: C8_13  and  N3_16 
REMARK    5  A    between atoms: N3_16  and  C9_19 
ROOT
HETATM    1  C8  UNL     1      14.714  15.479  17.316  1.00  0.00     0.430 C 
ENDROOT
BRANCH   1   2
HETATM    2  N2  UNL     1      15.505  16.486  17.978  1.00  0.00    -0.294 N 
HETATM    3  C1  UNL     1      15.701  16.352  19.403  1.00  0.00     0.324 C 
HETATM    4  O1  UNL     1      15.188  15.389  19.983  1.00  0.00    -0.247 OA
HETATM    5  N1  UNL     1      16.472  17.338  20.031  1.00  0.00    -0.309 N 
ATOM      6  H1  UNL     1      16.866  18.086  19.461  1.00  0.00     0.170 HD
ATOM      7  H2  UNL     1      15.911  17.264  17.459  1.00  0.00     0.168 HD
BRANCH   5   8
HETATM    8  C2  UNL     1      16.730  17.341  21.439  1.00  0.00     0.036 A 
HETATM    9  C3  UNL     1      18.066  17.471  21.840  1.00  0.00     0.029 A 
HETATM   10  C4  UNL     1      18.369  17.506  23.165  1.00  0.00     0.002 A 
HETATM   11  C5  UNL     1      17.370  17.413  24.105  1.00  0.00     0.000 A 
HETATM   12  C6  UNL     1      16.053  17.284  23.739  1.00  0.00     0.002 A 
HETATM   13  C7  UNL     1      15.748  17.250  22.387  1.00  0.00     0.029 A 
ENDBRANCH   5   8
ENDBRANCH   1   2
BRANCH   1  14
HETATM   14  O2  UNL     1      15.184  14.232  17.674  1.00  0.00    -0.354 OA
ATOM     15  H2  UNL     1      16.134  14.253  17.696  1.00  0.00     0.214 HD
ENDBRANCH   1  14
BRANCH   1  16
HETATM   16  N3  UNL     1      14.846  15.704  15.868  1.00  0.00    -0.024 N 
ATOM     17  H32 UNL     1      15.440  16.497  15.628  1.00  0.00     0.282 HD
ATOM     18  H31 UNL     1      15.399  14.992  15.391  1.00  0.00     0.282 HD
BRANCH  16  19
HETATM   19  C9  UNL     1      13.482  15.820  15.370  1.00  0.00     0.223 C 
HETATM   20  C10 UNL     1      12.500  15.114  16.270  1.00  0.00     0.204 C 
HETATM   21  O3  UNL     1      11.312  15.776  15.993  1.00  0.00    -0.359 OA
HETATM   22  C11 UNL     1      11.582  17.110  15.812  1.00  0.00     0.265 C 
HETATM   23  O4  UNL     1      10.955  17.588  14.650  1.00  0.00    -0.361 OA
HETATM   24  C14 UNL     1      13.063  17.264  15.560  1.00  0.00     0.076 C 
HETATM   25  C12 UNL     1      11.752  18.638  14.187  1.00  0.00     0.171 C 
HETATM   26  C13 UNL     1      13.141  17.996  14.253  1.00  0.00     0.038 C 
ENDBRANCH  16  19
ENDBRANCH   1  16
TORSDOF 5
ENDMDL
