MODEL 1
REMARK VINA RESULT: -7.812232235      0.000      0.000
REMARK  12 active torsions:
REMARK  status: ('A' for Active; 'I' for Inactive)
REMARK    1  A    between atoms: C2_2  and  C3_3 
REMARK    2  A    between atoms: C4_4  and  C5_5 
REMARK    3  A    between atoms: C5_5  and  N1_6 
REMARK    4  A    between atoms: N1_6  and  C6_7 
REMARK    5  A    between atoms: C7_8  and  N2_9 
REMARK       I    between atoms: N2_9  and  C8_11 
REMARK    6  A    between atoms: C8_11  and  C9_13 
REMARK    7  A    between atoms: C10_14  and  C11_15 
REMARK    8  A    between atoms: C12_16  and  C13_17 
REMARK    9  A    between atoms: C17_24  and  C18_25 
REMARK   10  A    between atoms: C18_25  and  C19_26 
REMARK   11  A    between atoms: N5_29  and  C20_30 
REMARK   12  A    between atoms: C20_30  and  C21_31 
ROOT
HETATM    1  C9  UNL     1       6.148  -6.489  16.559  1.00  0.00     0.144 C 
HETATM    2  C10 UNL     1       5.868  -7.556  17.550  1.00  0.00     0.057 C 
HETATM    3  N5  UNL     1       5.120  -6.954  18.614  1.00  0.00    -0.287 N 
HETATM    4  N7  UNL     1       5.738  -5.759  19.041  1.00  0.00    -0.312 N 
ATOM      5  H7  UNL     1       5.245  -5.093  19.635  1.00  0.00     0.185 HD
HETATM    6  C22 UNL     1       7.056  -5.518  18.619  1.00  0.00     0.091 C 
HETATM    7  C23 UNL     1       7.374  -5.770  17.163  1.00  0.00     0.011 C 
HETATM    8  C24 UNL     1       8.472  -6.877  17.176  1.00  0.00     0.016 C 
HETATM    9  C25 UNL     1       9.706  -6.519  16.421  1.00  0.00     0.001 C 
HETATM   10  C26 UNL     1       9.471  -5.944  15.064  1.00  0.00     0.000 C 
HETATM   11  C27 UNL     1       8.388  -4.889  15.060  1.00  0.00     0.001 C 
HETATM   12  C28 UNL     1       7.996  -4.655  16.497  1.00  0.00     0.016 C 
ENDROOT
BRANCH   1  13
HETATM   13  C8  UNL     1       5.093  -5.688  16.021  1.00  0.00     0.232 C 
HETATM   14  N2  UNL     1       4.794  -4.329  15.983  1.00  0.00    -0.335 N 
ATOM     15  H2  UNL     1       5.461  -3.699  16.429  1.00  0.00     0.168 HD
HETATM   16  O1  UNL     1       4.136  -6.304  15.394  1.00  0.00    -0.272 OA
BRANCH  14  17
HETATM   17  C7  UNL     1       3.632  -3.718  15.371  1.00  0.00     0.116 C 
HETATM   18  C6  UNL     1       3.832  -3.001  14.131  1.00  0.00     0.220 C 
BRANCH  18  19
HETATM   19  N1  UNL     1       4.645  -1.874  13.943  1.00  0.00    -0.032 N 
HETATM   20  C29 UNL     1       4.741  -1.377  12.579  1.00  0.00     0.270 C 
HETATM   21  C30 UNL     1       5.359   0.006  12.536  1.00  0.00     0.196 C 
HETATM   22  O5  UNL     1       6.554   0.062  13.210  1.00  0.00    -0.388 OA
HETATM   23  C31 UNL     1       6.996  -1.105  13.764  1.00  0.00     0.196 C 
HETATM   24  C32 UNL     1       6.000  -1.993  14.411  1.00  0.00     0.270 C 
BRANCH  19  25
HETATM   25  C5  UNL     1       3.931  -0.785  14.666  1.00  0.00     0.336 C 
BRANCH  25  26
HETATM   26  C4  UNL     1       2.545  -0.654  14.246  1.00  0.00    -0.078 C 
HETATM   27  C3  UNL     1       1.387  -0.515  13.913  1.00  0.00    -0.105 C 
BRANCH  27  28
HETATM   28  C2  UNL     1      -0.003  -0.329  13.535  1.00  0.00     0.089 C 
HETATM   29  C1  UNL     1      -0.160   0.190  12.116  1.00  0.00     0.018 C 
ENDBRANCH  27  28
ENDBRANCH  25  26
ENDBRANCH  19  25
ENDBRANCH  18  19
ENDBRANCH  14  17
ENDBRANCH   1  13
BRANCH   2  30
HETATM   30  C11 UNL     1       5.750  -8.957  17.307  1.00  0.00     0.038 A 
HETATM   31  C12 UNL     1       6.875  -9.782  17.428  1.00  0.00     0.043 A 
HETATM   32  N3  UNL     1       6.495 -11.019  17.070  1.00  0.00    -0.302 N 
HETATM   33  N4  UNL     1       5.226 -11.087  16.730  1.00  0.00    -0.299 N 
ATOM     34  H3  UNL     1       7.124 -11.822  17.063  1.00  0.00     0.187 HD
HETATM   35  C16 UNL     1       4.589 -12.341  16.294  1.00  0.00     0.177 C 
HETATM   36  C17 UNL     1       4.747  -9.845  16.868  1.00  0.00     0.052 A 
BRANCH  31  37
HETATM   37  C13 UNL     1       8.272  -9.513  17.921  1.00  0.00     0.030 C 
HETATM   38  C14 UNL     1       9.249 -10.513  17.301  1.00  0.00     0.016 C 
HETATM   39  C15 UNL     1       8.295  -9.900  19.424  1.00  0.00     0.016 C 
ENDBRANCH  31  37
BRANCH  36  40
HETATM   40  C18 UNL     1       3.361  -9.475  16.647  1.00  0.00     0.173 C 
BRANCH  40  41
HETATM   41  C19 UNL     1       2.384  -9.707  17.709  1.00  0.00     0.178 C 
HETATM   42  O2  UNL     1       1.158  -9.484  17.588  1.00  0.00    -0.648 OA
HETATM   43  O3  UNL     1       2.747 -10.204  18.982  1.00  0.00    -0.648 OA
ENDBRANCH  40  41
ENDBRANCH  36  40
ENDBRANCH   2  30
BRANCH   3  44
HETATM   44  C20 UNL     1       3.740  -6.911  18.724  1.00  0.00     0.248 C 
BRANCH  44  45
HETATM   45  C21 UNL     1       3.284  -5.564  19.345  1.00  0.00     0.250 C 
HETATM   46  N6  UNL     1       3.294  -5.415  20.728  1.00  0.00    -0.061 NA
HETATM   47  O4  UNL     1       2.920  -4.651  18.570  1.00  0.00    -0.275 OA
ENDBRANCH  44  45
ENDBRANCH   3  44
TORSDOF 12
ENDMDL
MODEL 2
REMARK VINA RESULT: -7.672403307      1.134      1.262
REMARK  12 active torsions:
REMARK  status: ('A' for Active; 'I' for Inactive)
REMARK    1  A    between atoms: C2_2  and  C3_3 
REMARK    2  A    between atoms: C4_4  and  C5_5 
REMARK    3  A    between atoms: C5_5  and  N1_6 
REMARK    4  A    between atoms: N1_6  and  C6_7 
REMARK    5  A    between atoms: C7_8  and  N2_9 
REMARK       I    between atoms: N2_9  and  C8_11 
REMARK    6  A    between atoms: C8_11  and  C9_13 
REMARK    7  A    between atoms: C10_14  and  C11_15 
REMARK    8  A    between atoms: C12_16  and  C13_17 
REMARK    9  A    between atoms: C17_24  and  C18_25 
REMARK   10  A    between atoms: C18_25  and  C19_26 
REMARK   11  A    between atoms: N5_29  and  C20_30 
REMARK   12  A    between atoms: C20_30  and  C21_31 
ROOT
HETATM    1  C9  UNL     1       6.224  -6.596  16.543  1.00  0.00     0.144 C 
HETATM    2  C10 UNL     1       5.959  -7.646  17.556  1.00  0.00     0.057 C 
HETATM    3  N5  UNL     1       5.157  -7.047  18.581  1.00  0.00    -0.287 N 
HETATM    4  N7  UNL     1       5.713  -5.816  18.991  1.00  0.00    -0.312 N 
ATOM      5  H7  UNL     1       5.176  -5.155  19.552  1.00  0.00     0.185 HD
HETATM    6  C22 UNL     1       7.031  -5.532  18.598  1.00  0.00     0.091 C 
HETATM    7  C23 UNL     1       7.402  -5.810  17.159  1.00  0.00     0.011 C 
HETATM    8  C24 UNL     1       8.543  -6.869  17.234  1.00  0.00     0.016 C 
HETATM    9  C25 UNL     1       9.783  -6.481  16.504  1.00  0.00     0.001 C 
HETATM   10  C26 UNL     1       9.563  -5.953  15.125  1.00  0.00     0.000 C 
HETATM   11  C27 UNL     1       8.439  -4.945  15.062  1.00  0.00     0.001 C 
HETATM   12  C28 UNL     1       7.996  -4.689  16.480  1.00  0.00     0.016 C 
ENDROOT
BRANCH   1  13
HETATM   13  C8  UNL     1       5.152  -5.854  15.954  1.00  0.00     0.232 C 
HETATM   14  N2  UNL     1       4.813  -4.508  15.847  1.00  0.00    -0.335 N 
ATOM     15  H2  UNL     1       5.453  -3.838  16.271  1.00  0.00     0.168 HD
HETATM   16  O1  UNL     1       4.224  -6.529  15.343  1.00  0.00    -0.272 OA
BRANCH  14  17
HETATM   17  C7  UNL     1       3.641  -3.964  15.192  1.00  0.00     0.116 C 
HETATM   18  C6  UNL     1       3.855  -3.149  14.015  1.00  0.00     0.220 C 
BRANCH  18  19
HETATM   19  N1  UNL     1       4.569  -1.944  13.957  1.00  0.00    -0.032 N 
HETATM   20  C29 UNL     1       4.577  -1.269  12.668  1.00  0.00     0.270 C 
HETATM   21  C30 UNL     1       5.081   0.155  12.791  1.00  0.00     0.196 C 
HETATM   22  O5  UNL     1       6.291   0.222  13.436  1.00  0.00    -0.388 OA
HETATM   23  C31 UNL     1       6.844  -0.965  13.820  1.00  0.00     0.196 C 
HETATM   24  C32 UNL     1       5.945  -2.009  14.370  1.00  0.00     0.270 C 
BRANCH  19  25
HETATM   25  C5  UNL     1       3.798  -1.020  14.834  1.00  0.00     0.336 C 
BRANCH  25  26
HETATM   26  C4  UNL     1       2.443  -0.796  14.353  1.00  0.00    -0.078 C 
HETATM   27  C3  UNL     1       1.307  -0.594  13.981  1.00  0.00    -0.105 C 
BRANCH  27  28
HETATM   28  C2  UNL     1      -0.062  -0.346  13.564  1.00  0.00     0.089 C 
HETATM   29  C1  UNL     1      -0.159   0.117  12.120  1.00  0.00     0.018 C 
ENDBRANCH  27  28
ENDBRANCH  25  26
ENDBRANCH  19  25
ENDBRANCH  18  19
ENDBRANCH  14  17
ENDBRANCH   1  13
BRANCH   2  30
HETATM   30  C11 UNL     1       5.906  -9.057  17.350  1.00  0.00     0.038 A 
HETATM   31  C12 UNL     1       6.949  -9.869  17.813  1.00  0.00     0.043 A 
HETATM   32  N3  UNL     1       6.677 -11.122  17.417  1.00  0.00    -0.302 N 
HETATM   33  N4  UNL     1       5.551 -11.212  16.741  1.00  0.00    -0.299 N 
ATOM     34  H3  UNL     1       7.279 -11.920  17.619  1.00  0.00     0.187 HD
HETATM   35  C16 UNL     1       5.054 -12.488  16.199  1.00  0.00     0.177 C 
HETATM   36  C17 UNL     1       5.060  -9.969  16.688  1.00  0.00     0.052 A 
BRANCH  31  37
HETATM   37  C13 UNL     1       8.156  -9.569  18.663  1.00  0.00     0.030 C 
HETATM   38  C14 UNL     1       9.407 -10.176  18.028  1.00  0.00     0.016 C 
HETATM   39  C15 UNL     1       7.998 -10.397  19.966  1.00  0.00     0.016 C 
ENDBRANCH  31  37
BRANCH  36  40
HETATM   40  C18 UNL     1       3.792  -9.619  16.075  1.00  0.00     0.173 C 
BRANCH  40  41
HETATM   41  C19 UNL     1       3.504 -10.077  14.717  1.00  0.00     0.178 C 
HETATM   42  O2  UNL     1       3.941  -9.518  13.686  1.00  0.00    -0.648 OA
HETATM   43  O3  UNL     1       2.693 -11.204  14.451  1.00  0.00    -0.648 OA
ENDBRANCH  40  41
ENDBRANCH  36  40
ENDBRANCH   2  30
BRANCH   3  44
HETATM   44  C20 UNL     1       3.774  -7.059  18.652  1.00  0.00     0.248 C 
BRANCH  44  45
HETATM   45  C21 UNL     1       3.247  -5.722  19.238  1.00  0.00     0.250 C 
HETATM   46  N6  UNL     1       2.842  -4.713  18.370  1.00  0.00    -0.061 NA
HETATM   47  O4  UNL     1       3.205  -5.599  20.483  1.00  0.00    -0.275 OA
ENDBRANCH  44  45
ENDBRANCH   3  44
TORSDOF 12
ENDMDL
MODEL 3
REMARK VINA RESULT: -7.274047829      1.617      2.740
REMARK  12 active torsions:
REMARK  status: ('A' for Active; 'I' for Inactive)
REMARK    1  A    between atoms: C2_2  and  C3_3 
REMARK    2  A    between atoms: C4_4  and  C5_5 
REMARK    3  A    between atoms: C5_5  and  N1_6 
REMARK    4  A    between atoms: N1_6  and  C6_7 
REMARK    5  A    between atoms: C7_8  and  N2_9 
REMARK       I    between atoms: N2_9  and  C8_11 
REMARK    6  A    between atoms: C8_11  and  C9_13 
REMARK    7  A    between atoms: C10_14  and  C11_15 
REMARK    8  A    between atoms: C12_16  and  C13_17 
REMARK    9  A    between atoms: C17_24  and  C18_25 
REMARK   10  A    between atoms: C18_25  and  C19_26 
REMARK   11  A    between atoms: N5_29  and  C20_30 
REMARK   12  A    between atoms: C20_30  and  C21_31 
ROOT
HETATM    1  C9  UNL     1       6.187  -6.593  16.646  1.00  0.00     0.144 C 
HETATM    2  C10 UNL     1       5.885  -7.616  17.675  1.00  0.00     0.057 C 
HETATM    3  N5  UNL     1       5.066  -6.984  18.667  1.00  0.00    -0.287 N 
HETATM    4  N7  UNL     1       5.629  -5.750  19.062  1.00  0.00    -0.312 N 
ATOM      5  H7  UNL     1       5.087  -5.070  19.595  1.00  0.00     0.185 HD
HETATM    6  C22 UNL     1       6.959  -5.492  18.695  1.00  0.00     0.091 C 
HETATM    7  C23 UNL     1       7.360  -5.808  17.272  1.00  0.00     0.011 C 
HETATM    8  C24 UNL     1       8.485  -6.879  17.398  1.00  0.00     0.016 C 
HETATM    9  C25 UNL     1       9.747  -6.523  16.689  1.00  0.00     0.001 C 
HETATM   10  C26 UNL     1       9.568  -6.025  15.294  1.00  0.00     0.000 C 
HETATM   11  C27 UNL     1       8.458  -5.004  15.181  1.00  0.00     0.001 C 
HETATM   12  C28 UNL     1       7.986  -4.710  16.582  1.00  0.00     0.016 C 
ENDROOT
BRANCH   1  13
HETATM   13  C8  UNL     1       5.140  -5.851  16.014  1.00  0.00     0.232 C 
HETATM   14  N2  UNL     1       4.757  -4.514  15.963  1.00  0.00    -0.335 N 
ATOM     15  H2  UNL     1       5.332  -3.851  16.482  1.00  0.00     0.168 HD
HETATM   16  O1  UNL     1       4.294  -6.517  15.284  1.00  0.00    -0.272 OA
BRANCH  14  17
HETATM   17  C7  UNL     1       3.623  -3.969  15.245  1.00  0.00     0.116 C 
HETATM   18  C6  UNL     1       3.900  -3.197  14.052  1.00  0.00     0.220 C 
BRANCH  18  19
HETATM   19  N1  UNL     1       4.640  -2.008  13.984  1.00  0.00    -0.032 N 
HETATM   20  C29 UNL     1       4.668  -1.348  12.687  1.00  0.00     0.270 C 
HETATM   21  C30 UNL     1       5.203   0.065  12.797  1.00  0.00     0.196 C 
HETATM   22  O5  UNL     1       6.412   0.113  13.447  1.00  0.00    -0.388 OA
HETATM   23  C31 UNL     1       6.937  -1.081  13.847  1.00  0.00     0.196 C 
HETATM   24  C32 UNL     1       6.013  -2.099  14.404  1.00  0.00     0.270 C 
BRANCH  19  25
HETATM   25  C5  UNL     1       3.885  -1.058  14.847  1.00  0.00     0.336 C 
BRANCH  25  26
HETATM   26  C4  UNL     1       2.526  -0.839  14.378  1.00  0.00    -0.078 C 
HETATM   27  C3  UNL     1       1.385  -0.646  14.017  1.00  0.00    -0.105 C 
BRANCH  27  28
HETATM   28  C2  UNL     1       0.008  -0.416  13.614  1.00  0.00     0.089 C 
HETATM   29  C1  UNL     1      -0.103   0.171  12.217  1.00  0.00     0.018 C 
ENDBRANCH  27  28
ENDBRANCH  25  26
ENDBRANCH  19  25
ENDBRANCH  18  19
ENDBRANCH  14  17
ENDBRANCH   1  13
BRANCH   2  30
HETATM   30  C11 UNL     1       5.818  -9.031  17.500  1.00  0.00     0.038 A 
HETATM   31  C12 UNL     1       4.776  -9.592  16.751  1.00  0.00     0.043 A 
HETATM   32  N3  UNL     1       4.917 -10.925  16.819  1.00  0.00    -0.302 N 
HETATM   33  N4  UNL     1       5.956 -11.294  17.538  1.00  0.00    -0.299 N 
ATOM     34  H3  UNL     1       4.286 -11.583  16.362  1.00  0.00     0.187 HD
HETATM   35  C16 UNL     1       6.303 -12.707  17.759  1.00  0.00     0.177 C 
HETATM   36  C17 UNL     1       6.524 -10.159  17.963  1.00  0.00     0.052 A 
BRANCH  31  37
HETATM   37  C13 UNL     1       3.690  -8.969  15.914  1.00  0.00     0.030 C 
HETATM   38  C14 UNL     1       2.322  -9.251  16.537  1.00  0.00     0.016 C 
HETATM   39  C15 UNL     1       3.634  -9.774  14.588  1.00  0.00     0.016 C 
ENDBRANCH  31  37
BRANCH  36  40
HETATM   40  C18 UNL     1       7.741 -10.101  18.750  1.00  0.00     0.173 C 
BRANCH  40  41
HETATM   41  C19 UNL     1       9.014 -10.453  18.123  1.00  0.00     0.178 C 
HETATM   42  O2  UNL     1       9.245 -10.330  16.899  1.00  0.00    -0.648 OA
HETATM   43  O3  UNL     1      10.105 -10.976  18.857  1.00  0.00    -0.648 OA
ENDBRANCH  40  41
ENDBRANCH  36  40
ENDBRANCH   2  30
BRANCH   3  44
HETATM   44  C20 UNL     1       3.682  -6.977  18.705  1.00  0.00     0.248 C 
BRANCH  44  45
HETATM   45  C21 UNL     1       3.159  -5.627  19.265  1.00  0.00     0.250 C 
HETATM   46  N6  UNL     1       3.058  -5.458  20.643  1.00  0.00    -0.061 NA
HETATM   47  O4  UNL     1       2.843  -4.732  18.450  1.00  0.00    -0.275 OA
ENDBRANCH  44  45
ENDBRANCH   3  44
TORSDOF 12
ENDMDL
MODEL 4
REMARK VINA RESULT: -7.120207425      5.219     13.030
REMARK  12 active torsions:
REMARK  status: ('A' for Active; 'I' for Inactive)
REMARK    1  A    between atoms: C2_2  and  C3_3 
REMARK    2  A    between atoms: C4_4  and  C5_5 
REMARK    3  A    between atoms: C5_5  and  N1_6 
REMARK    4  A    between atoms: N1_6  and  C6_7 
REMARK    5  A    between atoms: C7_8  and  N2_9 
REMARK       I    between atoms: N2_9  and  C8_11 
REMARK    6  A    between atoms: C8_11  and  C9_13 
REMARK    7  A    between atoms: C10_14  and  C11_15 
REMARK    8  A    between atoms: C12_16  and  C13_17 
REMARK    9  A    between atoms: C17_24  and  C18_25 
REMARK   10  A    between atoms: C18_25  and  C19_26 
REMARK   11  A    between atoms: N5_29  and  C20_30 
REMARK   12  A    between atoms: C20_30  and  C21_31 
ROOT
HETATM    1  C9  UNL     1       4.497   2.294  10.113  1.00  0.00     0.144 C 
HETATM    2  C10 UNL     1       4.832   3.545   9.391  1.00  0.00     0.057 C 
HETATM    3  N5  UNL     1       5.492   4.406  10.327  1.00  0.00    -0.287 N 
HETATM    4  N7  UNL     1       4.763   4.478  11.535  1.00  0.00    -0.312 N 
ATOM      5  H7  UNL     1       5.180   4.867  12.380  1.00  0.00     0.185 HD
HETATM    6  C22 UNL     1       3.445   3.994  11.532  1.00  0.00     0.091 C 
HETATM    7  C23 UNL     1       3.197   2.663  10.860  1.00  0.00     0.011 C 
HETATM    8  C24 UNL     1       2.194   2.974   9.708  1.00  0.00     0.016 C 
HETATM    9  C25 UNL     1       0.960   2.139   9.732  1.00  0.00     0.001 C 
HETATM   10  C26 UNL     1       1.191   0.677   9.927  1.00  0.00     0.000 C 
HETATM   11  C27 UNL     1       2.183   0.390  11.032  1.00  0.00     0.001 C 
HETATM   12  C28 UNL     1       2.507   1.708  11.688  1.00  0.00     0.016 C 
ENDROOT
BRANCH   1  13
HETATM   13  C8  UNL     1       5.500   1.563  10.824  1.00  0.00     0.232 C 
HETATM   14  N2  UNL     1       5.671   1.123  12.134  1.00  0.00    -0.335 N 
ATOM     15  H2  UNL     1       4.926   1.344  12.794  1.00  0.00     0.168 HD
HETATM   16  O1  UNL     1       6.542   1.173  10.153  1.00  0.00    -0.272 OA
BRANCH  14  17
HETATM   17  C7  UNL     1       6.803   0.383  12.653  1.00  0.00     0.116 C 
HETATM   18  C6  UNL     1       6.595  -1.014  12.969  1.00  0.00     0.220 C 
BRANCH  18  19
HETATM   19  N1  UNL     1       5.698  -1.529  13.915  1.00  0.00    -0.032 N 
HETATM   20  C29 UNL     1       5.404  -2.950  13.809  1.00  0.00     0.270 C 
HETATM   21  C30 UNL     1       4.702  -3.464  15.049  1.00  0.00     0.196 C 
HETATM   22  O5  UNL     1       3.598  -2.714  15.369  1.00  0.00    -0.388 OA
HETATM   23  C31 UNL     1       3.299  -1.680  14.529  1.00  0.00     0.196 C 
HETATM   24  C32 UNL     1       4.420  -0.872  13.990  1.00  0.00     0.270 C 
BRANCH  19  25
HETATM   25  C5  UNL     1       6.426  -1.415  15.208  1.00  0.00     0.336 C 
BRANCH  25  26
HETATM   26  C4  UNL     1       7.768  -1.973  15.143  1.00  0.00    -0.078 C 
HETATM   27  C3  UNL     1       8.881  -2.453  15.118  1.00  0.00    -0.105 C 
BRANCH  27  28
HETATM   28  C2  UNL     1      10.212  -3.034  15.117  1.00  0.00     0.089 C 
HETATM   29  C1  UNL     1      10.208  -4.506  14.737  1.00  0.00     0.018 C 
ENDBRANCH  27  28
ENDBRANCH  25  26
ENDBRANCH  19  25
ENDBRANCH  18  19
ENDBRANCH  14  17
ENDBRANCH   1  13
BRANCH   2  30
HETATM   30  C11 UNL     1       5.072   3.703   7.993  1.00  0.00     0.038 A 
HETATM   31  C12 UNL     1       4.025   4.082   7.144  1.00  0.00     0.043 A 
HETATM   32  N3  UNL     1       4.512   4.076   5.894  1.00  0.00    -0.302 N 
HETATM   33  N4  UNL     1       5.781   3.733   5.840  1.00  0.00    -0.299 N 
ATOM     34  H3  UNL     1       3.957   4.313   5.071  1.00  0.00     0.187 HD
HETATM   35  C16 UNL     1       6.525   3.650   4.572  1.00  0.00     0.177 C 
HETATM   36  C17 UNL     1       6.148   3.503   7.105  1.00  0.00     0.052 A 
BRANCH  31  37
HETATM   37  C13 UNL     1       2.611   4.519   7.423  1.00  0.00     0.030 C 
HETATM   38  C14 UNL     1       1.681   4.025   6.315  1.00  0.00     0.016 C 
HETATM   39  C15 UNL     1       2.577   6.060   7.237  1.00  0.00     0.016 C 
ENDBRANCH  31  37
BRANCH  36  40
HETATM   40  C18 UNL     1       7.495   3.148   7.513  1.00  0.00     0.173 C 
BRANCH  40  41
HETATM   41  C19 UNL     1       8.464   4.211   7.776  1.00  0.00     0.178 C 
HETATM   42  O2  UNL     1       9.596   4.014   8.272  1.00  0.00    -0.648 OA
HETATM   43  O3  UNL     1       8.196   5.571   7.493  1.00  0.00    -0.648 OA
ENDBRANCH  40  41
ENDBRANCH  36  40
ENDBRANCH   2  30
BRANCH   3  44
HETATM   44  C20 UNL     1       6.859   4.512  10.520  1.00  0.00     0.248 C 
BRANCH  44  45
HETATM   45  C21 UNL     1       7.188   4.642  12.032  1.00  0.00     0.250 C 
HETATM   46  N6  UNL     1       7.058   5.881  12.650  1.00  0.00    -0.061 NA
HETATM   47  O4  UNL     1       7.562   3.617  12.645  1.00  0.00    -0.275 OA
ENDBRANCH  44  45
ENDBRANCH   3  44
TORSDOF 12
ENDMDL
MODEL 5
REMARK VINA RESULT: -6.882692472      1.071      2.643
REMARK  12 active torsions:
REMARK  status: ('A' for Active; 'I' for Inactive)
REMARK    1  A    between atoms: C2_2  and  C3_3 
REMARK    2  A    between atoms: C4_4  and  C5_5 
REMARK    3  A    between atoms: C5_5  and  N1_6 
REMARK    4  A    between atoms: N1_6  and  C6_7 
REMARK    5  A    between atoms: C7_8  and  N2_9 
REMARK       I    between atoms: N2_9  and  C8_11 
REMARK    6  A    between atoms: C8_11  and  C9_13 
REMARK    7  A    between atoms: C10_14  and  C11_15 
REMARK    8  A    between atoms: C12_16  and  C13_17 
REMARK    9  A    between atoms: C17_24  and  C18_25 
REMARK   10  A    between atoms: C18_25  and  C19_26 
REMARK   11  A    between atoms: N5_29  and  C20_30 
REMARK   12  A    between atoms: C20_30  and  C21_31 
ROOT
HETATM    1  C9  UNL     1       6.072  -6.612  16.482  1.00  0.00     0.144 C 
HETATM    2  C10 UNL     1       5.780  -7.642  17.508  1.00  0.00     0.057 C 
HETATM    3  N5  UNL     1       5.046  -6.995  18.555  1.00  0.00    -0.287 N 
HETATM    4  N7  UNL     1       5.684  -5.796  18.941  1.00  0.00    -0.312 N 
ATOM      5  H7  UNL     1       5.203  -5.104  19.516  1.00  0.00     0.185 HD
HETATM    6  C22 UNL     1       7.003  -5.589  18.506  1.00  0.00     0.091 C 
HETATM    7  C23 UNL     1       7.311  -5.892  17.057  1.00  0.00     0.011 C 
HETATM    8  C24 UNL     1       8.392  -7.014  17.101  1.00  0.00     0.016 C 
HETATM    9  C25 UNL     1       9.628  -6.699  16.331  1.00  0.00     0.001 C 
HETATM   10  C26 UNL     1       9.395  -6.165  14.956  1.00  0.00     0.000 C 
HETATM   11  C27 UNL     1       8.329  -5.094  14.924  1.00  0.00     0.001 C 
HETATM   12  C28 UNL     1       7.947  -4.809  16.354  1.00  0.00     0.016 C 
ENDROOT
BRANCH   1  13
HETATM   13  C8  UNL     1       5.026  -5.812  15.923  1.00  0.00     0.232 C 
HETATM   14  N2  UNL     1       4.768  -4.449  15.805  1.00  0.00    -0.335 N 
ATOM     15  H2  UNL     1       5.468  -3.814  16.190  1.00  0.00     0.168 HD
HETATM   16  O1  UNL     1       4.032  -6.436  15.364  1.00  0.00    -0.272 OA
BRANCH  14  17
HETATM   17  C7  UNL     1       3.607  -3.842  15.188  1.00  0.00     0.116 C 
HETATM   18  C6  UNL     1       3.838  -2.945  14.075  1.00  0.00     0.220 C 
BRANCH  18  19
HETATM   19  N1  UNL     1       4.569  -1.750  14.107  1.00  0.00    -0.032 N 
HETATM   20  C29 UNL     1       3.797  -0.535  14.323  1.00  0.00     0.270 C 
HETATM   21  C30 UNL     1       4.693   0.637  14.666  1.00  0.00     0.196 C 
HETATM   22  O5  UNL     1       5.703   0.803  13.750  1.00  0.00    -0.388 OA
HETATM   23  C31 UNL     1       5.719  -0.064  12.696  1.00  0.00     0.196 C 
HETATM   24  C32 UNL     1       5.394  -1.487  12.957  1.00  0.00     0.270 C 
BRANCH  19  25
HETATM   25  C5  UNL     1       5.400  -1.863  15.337  1.00  0.00     0.336 C 
BRANCH  25  26
HETATM   26  C4  UNL     1       6.822  -1.726  15.064  1.00  0.00    -0.078 C 
HETATM   27  C3  UNL     1       8.012  -1.603  14.867  1.00  0.00    -0.105 C 
BRANCH  27  28
HETATM   28  C2  UNL     1       9.440  -1.438  14.656  1.00  0.00     0.089 C 
HETATM   29  C1  UNL     1      10.265  -2.471  15.404  1.00  0.00     0.018 C 
ENDBRANCH  27  28
ENDBRANCH  25  26
ENDBRANCH  19  25
ENDBRANCH  18  19
ENDBRANCH  14  17
ENDBRANCH   1  13
BRANCH   2  30
HETATM   30  C11 UNL     1       5.640  -9.048  17.311  1.00  0.00     0.038 A 
HETATM   31  C12 UNL     1       6.752  -9.887  17.460  1.00  0.00     0.043 A 
HETATM   32  N3  UNL     1       6.353 -11.128  17.142  1.00  0.00    -0.302 N 
HETATM   33  N4  UNL     1       5.083 -11.187  16.802  1.00  0.00    -0.299 N 
ATOM     34  H3  UNL     1       6.969 -11.941  17.163  1.00  0.00     0.187 HD
HETATM   35  C16 UNL     1       4.427 -12.444  16.407  1.00  0.00     0.177 C 
HETATM   36  C17 UNL     1       4.624  -9.934  16.899  1.00  0.00     0.052 A 
BRANCH  31  37
HETATM   37  C13 UNL     1       8.153  -9.624  17.947  1.00  0.00     0.030 C 
HETATM   38  C14 UNL     1       9.124 -10.618  17.310  1.00  0.00     0.016 C 
HETATM   39  C15 UNL     1       8.185 -10.026  19.446  1.00  0.00     0.016 C 
ENDBRANCH  31  37
BRANCH  36  40
HETATM   40  C18 UNL     1       3.244  -9.549  16.664  1.00  0.00     0.173 C 
BRANCH  40  41
HETATM   41  C19 UNL     1       2.252  -9.775  17.714  1.00  0.00     0.178 C 
HETATM   42  O2  UNL     1       1.022  -9.610  17.556  1.00  0.00    -0.648 OA
HETATM   43  O3  UNL     1       2.606 -10.200  19.016  1.00  0.00    -0.648 OA
ENDBRANCH  40  41
ENDBRANCH  36  40
ENDBRANCH   2  30
BRANCH   3  44
HETATM   44  C20 UNL     1       3.667  -6.928  18.670  1.00  0.00     0.248 C 
BRANCH  44  45
HETATM   45  C21 UNL     1       3.236  -5.566  19.276  1.00  0.00     0.250 C 
HETATM   46  N6  UNL     1       3.184  -5.424  20.659  1.00  0.00    -0.061 NA
HETATM   47  O4  UNL     1       2.947  -4.635  18.490  1.00  0.00    -0.275 OA
ENDBRANCH  44  45
ENDBRANCH   3  44
TORSDOF 12
ENDMDL
