MODEL 1
REMARK VINA RESULT: -7.808425111      0.000      0.000
REMARK  2 active torsions:
REMARK  status: ('A' for Active; 'I' for Inactive)
REMARK    1  A    between atoms: O1_1  and  N1_3 
REMARK    2  A    between atoms: C2_5  and  C18_25 
ROOT
HETATM    1  N1  UNL     1      20.923  13.761  33.703  1.00  0.00    -0.174 N 
HETATM    2  C1  UNL     1      20.211  12.756  34.237  1.00  0.00     0.158 A 
HETATM    3  C2  UNL     1      20.935  11.624  34.029  1.00  0.00     0.025 A 
HETATM    4  C3  UNL     1      22.102  11.958  33.358  1.00  0.00     0.076 A 
HETATM    5  N2  UNL     1      22.045  13.297  33.180  1.00  0.00    -0.273 N 
ATOM      6  H2  UNL     1      22.756  13.861  32.714  1.00  0.00     0.189 HD
HETATM    7  C4  UNL     1      23.000  10.989  33.032  1.00  0.00     0.033 A 
HETATM    8  C5  UNL     1      24.210  11.019  32.385  1.00  0.00     0.005 A 
HETATM    9  C6  UNL     1      24.953  12.018  31.834  1.00  0.00     0.014 A 
HETATM   10  C7  UNL     1      26.185  11.727  31.226  1.00  0.00     0.001 A 
HETATM   11  C8  UNL     1      26.670  10.439  31.169  1.00  0.00     0.002 A 
HETATM   12  C9  UNL     1      25.881   9.445  31.743  1.00  0.00     0.030 A 
HETATM   13  C10 UNL     1      24.680   9.724  32.337  1.00  0.00     0.043 A 
HETATM   14  N3  UNL     1      23.772   8.925  32.944  1.00  0.00    -0.354 N 
ATOM     15  H3  UNL     1      23.858   7.915  33.056  1.00  0.00     0.166 HD
HETATM   16  C11 UNL     1      22.741   9.667  33.376  1.00  0.00     0.058 A 
HETATM   17  C12 UNL     1      21.573   9.325  34.050  1.00  0.00     0.015 A 
HETATM   18  C13 UNL     1      20.739   8.404  34.636  1.00  0.00    -0.012 A 
HETATM   19  C14 UNL     1      20.188   7.241  35.109  1.00  0.00     0.013 A 
HETATM   20  C15 UNL     1      18.958   7.522  35.719  1.00  0.00     0.002 A 
HETATM   21  C16 UNL     1      18.708   8.864  35.642  1.00  0.00     0.013 A 
HETATM   22  C17 UNL     1      19.778   9.441  34.985  1.00  0.00    -0.013 A 
HETATM   23  C18 UNL     1      20.669  10.308  34.376  1.00  0.00     0.002 A 
ENDROOT
BRANCH   1  24
HETATM   24  O1  UNL     1      20.554  15.103  33.690  1.00  0.00    -0.268 OA
ATOM     25  H1  UNL     1      21.148  15.843  33.733  1.00  0.00     0.247 HD
ENDBRANCH   1  24
TORSDOF 2
ENDMDL
MODEL 2
REMARK VINA RESULT: -7.669726081      1.399      1.600
REMARK  2 active torsions:
REMARK  status: ('A' for Active; 'I' for Inactive)
REMARK    1  A    between atoms: O1_1  and  N1_3 
REMARK    2  A    between atoms: C2_5  and  C18_25 
ROOT
HETATM    1  N1  UNL     1      19.343  12.903  33.882  1.00  0.00    -0.174 N 
HETATM    2  C1  UNL     1      19.010  11.643  34.205  1.00  0.00     0.158 A 
HETATM    3  C2  UNL     1      20.167  10.929  34.193  1.00  0.00     0.025 A 
HETATM    4  C3  UNL     1      21.212  11.778  33.858  1.00  0.00     0.076 A 
HETATM    5  N2  UNL     1      20.645  12.992  33.675  1.00  0.00    -0.273 N 
ATOM      6  H2  UNL     1      21.145  13.843  33.417  1.00  0.00     0.189 HD
HETATM    7  C4  UNL     1      22.482  11.295  33.780  1.00  0.00     0.033 A 
HETATM    8  C5  UNL     1      23.685  11.883  33.478  1.00  0.00     0.005 A 
HETATM    9  C6  UNL     1      24.052  13.152  33.149  1.00  0.00     0.014 A 
HETATM   10  C7  UNL     1      25.399  13.451  32.890  1.00  0.00     0.001 A 
HETATM   11  C8  UNL     1      26.376  12.482  32.960  1.00  0.00     0.002 A 
HETATM   12  C9  UNL     1      25.961  11.197  33.300  1.00  0.00     0.030 A 
HETATM   13  C10 UNL     1      24.649  10.900  33.554  1.00  0.00     0.043 A 
HETATM   14  N3  UNL     1      24.041   9.740  33.894  1.00  0.00    -0.354 N 
ATOM     15  H3  UNL     1      24.512   8.844  34.021  1.00  0.00     0.166 HD
HETATM   16  C11 UNL     1      22.724   9.951  34.038  1.00  0.00     0.058 A 
HETATM   17  C12 UNL     1      21.682   9.094  34.375  1.00  0.00     0.015 A 
HETATM   18  C13 UNL     1      21.195   7.856  34.716  1.00  0.00    -0.012 A 
HETATM   19  C14 UNL     1      21.084   6.523  35.022  1.00  0.00     0.013 A 
HETATM   20  C15 UNL     1      19.742   6.215  35.282  1.00  0.00     0.002 A 
HETATM   21  C16 UNL     1      18.981   7.343  35.146  1.00  0.00     0.013 A 
HETATM   22  C17 UNL     1      19.835   8.371  34.799  1.00  0.00    -0.013 A 
HETATM   23  C18 UNL     1      20.401   9.587  34.452  1.00  0.00     0.002 A 
ENDROOT
BRANCH   1  24
HETATM   24  O1  UNL     1      18.462  13.976  33.776  1.00  0.00    -0.268 OA
ATOM     25  H1  UNL     1      18.379  14.554  33.027  1.00  0.00     0.247 HD
ENDBRANCH   1  24
TORSDOF 2
ENDMDL
MODEL 3
REMARK VINA RESULT: -6.875590945      0.862      5.387
REMARK  2 active torsions:
REMARK  status: ('A' for Active; 'I' for Inactive)
REMARK    1  A    between atoms: O1_1  and  N1_3 
REMARK    2  A    between atoms: C2_5  and  C18_25 
ROOT
HETATM    1  N1  UNL     1      21.250  14.049  33.568  1.00  0.00    -0.174 N 
HETATM    2  C1  UNL     1      22.401  13.665  32.993  1.00  0.00     0.158 A 
HETATM    3  C2  UNL     1      22.478  12.318  33.157  1.00  0.00     0.025 A 
HETATM    4  C3  UNL     1      21.351  11.887  33.843  1.00  0.00     0.076 A 
HETATM    5  N2  UNL     1      20.622  13.002  34.075  1.00  0.00    -0.273 N 
ATOM      6  H2  UNL     1      19.728  13.031  34.564  1.00  0.00     0.189 HD
HETATM    7  C4  UNL     1      21.195  10.566  34.132  1.00  0.00     0.033 A 
HETATM    8  C5  UNL     1      20.210   9.866  34.782  1.00  0.00     0.005 A 
HETATM    9  C6  UNL     1      19.038  10.225  35.373  1.00  0.00     0.014 A 
HETATM   10  C7  UNL     1      18.222   9.252  35.972  1.00  0.00     0.001 A 
HETATM   11  C8  UNL     1      18.579   7.922  35.978  1.00  0.00     0.002 A 
HETATM   12  C9  UNL     1      19.785   7.593  35.364  1.00  0.00     0.030 A 
HETATM   13  C10 UNL     1      20.584   8.539  34.779  1.00  0.00     0.043 A 
HETATM   14  N3  UNL     1      21.772   8.438  34.140  1.00  0.00    -0.354 N 
ATOM     15  H3  UNL     1      22.288   7.571  33.988  1.00  0.00     0.166 HD
HETATM   16  C11 UNL     1      22.166   9.655  33.736  1.00  0.00     0.058 A 
HETATM   17  C12 UNL     1      23.298  10.080  33.047  1.00  0.00     0.015 A 
HETATM   18  C13 UNL     1      24.497   9.837  32.423  1.00  0.00    -0.012 A 
HETATM   19  C14 UNL     1      25.612   9.228  31.903  1.00  0.00     0.013 A 
HETATM   20  C15 UNL     1      26.432  10.193  31.303  1.00  0.00     0.002 A 
HETATM   21  C16 UNL     1      25.855  11.426  31.432  1.00  0.00     0.013 A 
HETATM   22  C17 UNL     1      24.666  11.250  32.114  1.00  0.00    -0.013 A 
HETATM   23  C18 UNL     1      23.451  11.415  32.758  1.00  0.00     0.002 A 
ENDROOT
BRANCH   1  24
HETATM   24  O1  UNL     1      20.768  15.353  33.634  1.00  0.00    -0.268 OA
ATOM     25  H1  UNL     1      20.532  15.896  32.891  1.00  0.00     0.247 HD
ENDBRANCH   1  24
TORSDOF 2
ENDMDL
MODEL 4
REMARK VINA RESULT: -6.333995435      1.548      5.316
REMARK  2 active torsions:
REMARK  status: ('A' for Active; 'I' for Inactive)
REMARK    1  A    between atoms: O1_1  and  N1_3 
REMARK    2  A    between atoms: C2_5  and  C18_25 
ROOT
HETATM    1  N1  UNL     1      19.554  13.183  33.786  1.00  0.00    -0.174 N 
HETATM    2  C1  UNL     1      20.836  13.510  33.557  1.00  0.00     0.158 A 
HETATM    3  C2  UNL     1      21.555  12.368  33.716  1.00  0.00     0.025 A 
HETATM    4  C3  UNL     1      20.688  11.337  34.048  1.00  0.00     0.076 A 
HETATM    5  N2  UNL     1      19.458  11.897  34.078  1.00  0.00    -0.273 N 
ATOM      6  H2  UNL     1      18.591  11.405  34.293  1.00  0.00     0.189 HD
HETATM    7  C4  UNL     1      21.173  10.083  34.260  1.00  0.00     0.033 A 
HETATM    8  C5  UNL     1      20.570   8.896  34.594  1.00  0.00     0.005 A 
HETATM    9  C6  UNL     1      19.279   8.535  34.832  1.00  0.00     0.014 A 
HETATM   10  C7  UNL     1      18.969   7.205  35.159  1.00  0.00     0.001 A 
HETATM   11  C8  UNL     1      19.948   6.241  35.248  1.00  0.00     0.002 A 
HETATM   12  C9  UNL     1      21.255   6.649  34.998  1.00  0.00     0.030 A 
HETATM   13  C10 UNL     1      21.564   7.944  34.678  1.00  0.00     0.043 A 
HETATM   14  N3  UNL     1      22.744   8.543  34.401  1.00  0.00    -0.354 N 
ATOM     15  H3  UNL     1      23.652   8.078  34.390  1.00  0.00     0.166 HD
HETATM   16  C11 UNL     1      22.536   9.843  34.144  1.00  0.00     0.058 A 
HETATM   17  C12 UNL     1      23.412  10.872  33.811  1.00  0.00     0.015 A 
HETATM   18  C13 UNL     1      24.672  11.352  33.551  1.00  0.00    -0.012 A 
HETATM   19  C14 UNL     1      26.026  11.461  33.360  1.00  0.00     0.013 A 
HETATM   20  C15 UNL     1      26.346  12.785  33.033  1.00  0.00     0.002 A 
HETATM   21  C16 UNL     1      25.204  13.537  33.010  1.00  0.00     0.013 A 
HETATM   22  C17 UNL     1      24.155  12.695  33.323  1.00  0.00    -0.013 A 
HETATM   23  C18 UNL     1      22.917  12.137  33.598  1.00  0.00     0.002 A 
ENDROOT
BRANCH   1  24
HETATM   24  O1  UNL     1      18.469  14.053  33.731  1.00  0.00    -0.268 OA
ATOM     25  H1  UNL     1      18.343  14.819  34.278  1.00  0.00     0.247 HD
ENDBRANCH   1  24
TORSDOF 2
ENDMDL
MODEL 5
REMARK VINA RESULT: -5.786229151      1.891      2.451
REMARK  2 active torsions:
REMARK  status: ('A' for Active; 'I' for Inactive)
REMARK    1  A    between atoms: O1_1  and  N1_3 
REMARK    2  A    between atoms: C2_5  and  C18_25 
ROOT
HETATM    1  N1  UNL     1      18.160  12.132  34.042  1.00  0.00    -0.174 N 
HETATM    2  C1  UNL     1      18.099  10.825  34.344  1.00  0.00     0.158 A 
HETATM    3  C2  UNL     1      19.380  10.369  34.324  1.00  0.00     0.025 A 
HETATM    4  C3  UNL     1      20.224  11.423  34.004  1.00  0.00     0.076 A 
HETATM    5  N2  UNL     1      19.415  12.494  33.838  1.00  0.00    -0.273 N 
ATOM      6  H2  UNL     1      19.725  13.435  33.595  1.00  0.00     0.189 HD
HETATM    7  C4  UNL     1      21.566  11.217  33.920  1.00  0.00     0.033 A 
HETATM    8  C5  UNL     1      22.619  12.048  33.630  1.00  0.00     0.005 A 
HETATM    9  C6  UNL     1      22.712  13.371  33.321  1.00  0.00     0.014 A 
HETATM   10  C7  UNL     1      23.966  13.949  33.069  1.00  0.00     0.001 A 
HETATM   11  C8  UNL     1      25.124  13.205  33.125  1.00  0.00     0.002 A 
HETATM   12  C9  UNL     1      24.989  11.857  33.444  1.00  0.00     0.030 A 
HETATM   13  C10 UNL     1      23.768  11.288  33.691  1.00  0.00     0.043 A 
HETATM   14  N3  UNL     1      23.417  10.022  34.013  1.00  0.00    -0.354 N 
ATOM     15  H3  UNL     1      24.064   9.242  34.127  1.00  0.00     0.166 HD
HETATM   16  C11 UNL     1      22.085   9.950  34.158  1.00  0.00     0.058 A 
HETATM   17  C12 UNL     1      21.245   8.889  34.480  1.00  0.00     0.015 A 
HETATM   18  C13 UNL     1      21.028   7.571  34.800  1.00  0.00    -0.012 A 
HETATM   19  C14 UNL     1      21.199   6.240  35.085  1.00  0.00     0.013 A 
HETATM   20  C15 UNL     1      19.951   5.654  35.339  1.00  0.00     0.002 A 
HETATM   21  C16 UNL     1      18.971   6.600  35.219  1.00  0.00     0.013 A 
HETATM   22  C17 UNL     1      19.591   7.789  34.889  1.00  0.00    -0.013 A 
HETATM   23  C18 UNL     1      19.889   9.102  34.562  1.00  0.00     0.002 A 
ENDROOT
BRANCH   1  24
HETATM   24  O1  UNL     1      17.075  12.998  33.951  1.00  0.00    -0.268 OA
ATOM     25  H1  UNL     1      17.029  13.872  34.320  1.00  0.00     0.247 HD
ENDBRANCH   1  24
TORSDOF 2
ENDMDL
