MODEL 1
REMARK VINA RESULT: -7.263932938      0.000      0.000
REMARK  0 active torsions:
REMARK  status: ('A' for Active; 'I' for Inactive)
REMARK       I    between atoms: C1_2  and  N2_4 
ROOT
HETATM    1  N1  UNL     1      17.881  10.221  31.397  1.00  0.00    -0.039 NA
HETATM    2  C1  UNL     1      18.587   9.294  32.242  1.00  0.00     0.340 C 
HETATM    3  O1  UNL     1      18.310   8.082  31.932  1.00  0.00    -0.250 OA
HETATM    4  N2  UNL     1      19.451   9.646  33.242  1.00  0.00    -0.265 N 
HETATM    5  C2  UNL     1      19.686  11.037  33.540  1.00  0.00     0.055 A 
HETATM    6  C3  UNL     1      18.533  11.770  33.479  1.00  0.00     0.031 A 
HETATM    7  C4  UNL     1      18.537  13.116  33.764  1.00  0.00     0.002 A 
HETATM    8  C5  UNL     1      19.733  13.704  34.115  1.00  0.00     0.001 A 
HETATM    9  C6  UNL     1      20.941  12.993  34.192  1.00  0.00     0.014 A 
HETATM   10  C7  UNL     1      20.883  11.666  33.897  1.00  0.00     0.002 A 
HETATM   11  C8  UNL     1      22.175  11.023  33.970  1.00  0.00    -0.013 A 
HETATM   12  C9  UNL     1      23.188  11.899  33.738  1.00  0.00     0.013 A 
HETATM   13  C10 UNL     1      24.484  11.371  33.754  1.00  0.00     0.001 A 
HETATM   14  C11 UNL     1      24.722  10.040  33.987  1.00  0.00     0.001 A 
HETATM   15  C12 UNL     1      23.679   9.151  34.221  1.00  0.00     0.013 A 
HETATM   16  C13 UNL     1      22.414   9.646  34.212  1.00  0.00    -0.013 A 
HETATM   17  C14 UNL     1      21.430   8.588  34.450  1.00  0.00     0.002 A 
HETATM   18  C15 UNL     1      21.941   7.557  35.179  1.00  0.00     0.014 A 
HETATM   19  C16 UNL     1      21.095   6.499  35.439  1.00  0.00     0.001 A 
HETATM   20  C17 UNL     1      19.770   6.487  34.976  1.00  0.00     0.002 A 
HETATM   21  C18 UNL     1      19.296   7.555  34.243  1.00  0.00     0.031 A 
HETATM   22  C19 UNL     1      20.121   8.611  33.976  1.00  0.00     0.055 A 
ENDROOT
TORSDOF 0
ENDMDL
MODEL 2
REMARK VINA RESULT: -6.552998741      2.527      4.506
REMARK  0 active torsions:
REMARK  status: ('A' for Active; 'I' for Inactive)
REMARK       I    between atoms: C1_2  and  N2_4 
ROOT
HETATM    1  N1  UNL     1      22.639  13.986  35.379  1.00  0.00    -0.039 NA
HETATM    2  C1  UNL     1      23.161  12.834  34.692  1.00  0.00     0.340 C 
HETATM    3  O1  UNL     1      24.443  12.825  34.712  1.00  0.00    -0.250 OA
HETATM    4  N2  UNL     1      22.403  11.864  34.100  1.00  0.00    -0.265 N 
HETATM    5  C2  UNL     1      20.964  11.966  34.103  1.00  0.00     0.055 A 
HETATM    6  C3  UNL     1      20.547  13.249  33.882  1.00  0.00     0.031 A 
HETATM    7  C4  UNL     1      19.207  13.553  33.814  1.00  0.00     0.002 A 
HETATM    8  C5  UNL     1      18.298  12.528  33.971  1.00  0.00     0.001 A 
HETATM    9  C6  UNL     1      18.679  11.197  34.197  1.00  0.00     0.014 A 
HETATM   10  C7  UNL     1      20.015  10.950  34.260  1.00  0.00     0.002 A 
HETATM   11  C8  UNL     1      20.313   9.563  34.528  1.00  0.00    -0.013 A 
HETATM   12  C9  UNL     1      19.306   8.953  35.209  1.00  0.00     0.013 A 
HETATM   13  C10 UNL     1      19.507   7.611  35.549  1.00  0.00     0.001 A 
HETATM   14  C11 UNL     1      20.660   6.943  35.218  1.00  0.00     0.001 A 
HETATM   15  C12 UNL     1      21.685   7.576  34.523  1.00  0.00     0.013 A 
HETATM   16  C13 UNL     1      21.506   8.878  34.182  1.00  0.00    -0.013 A 
HETATM   17  C14 UNL     1      22.677   9.407  33.479  1.00  0.00     0.002 A 
HETATM   18  C15 UNL     1      23.369   8.437  32.819  1.00  0.00     0.014 A 
HETATM   19  C16 UNL     1      24.503   8.832  32.142  1.00  0.00     0.001 A 
HETATM   20  C17 UNL     1      24.922  10.172  32.130  1.00  0.00     0.002 A 
HETATM   21  C18 UNL     1      24.188  11.120  32.810  1.00  0.00     0.031 A 
HETATM   22  C19 UNL     1      23.062  10.745  33.488  1.00  0.00     0.055 A 
ENDROOT
TORSDOF 0
ENDMDL
MODEL 3
REMARK VINA RESULT: -6.175954882      2.030      5.285
REMARK  0 active torsions:
REMARK  status: ('A' for Active; 'I' for Inactive)
REMARK       I    between atoms: C1_2  and  N2_4 
ROOT
HETATM    1  N1  UNL     1      22.597   7.550  32.330  1.00  0.00    -0.039 NA
HETATM    2  C1  UNL     1      22.892   8.889  32.769  1.00  0.00     0.340 C 
HETATM    3  O1  UNL     1      23.924   9.357  32.169  1.00  0.00    -0.250 OA
HETATM    4  N2  UNL     1      22.171   9.586  33.698  1.00  0.00    -0.265 N 
HETATM    5  C2  UNL     1      21.037   8.973  34.344  1.00  0.00     0.055 A 
HETATM    6  C3  UNL     1      21.278   7.663  34.655  1.00  0.00     0.031 A 
HETATM    7  C4  UNL     1      20.331   6.908  35.308  1.00  0.00     0.002 A 
HETATM    8  C5  UNL     1      19.137   7.508  35.642  1.00  0.00     0.001 A 
HETATM    9  C6  UNL     1      18.844   8.847  35.345  1.00  0.00     0.014 A 
HETATM   10  C7  UNL     1      19.811   9.550  34.695  1.00  0.00     0.002 A 
HETATM   11  C8  UNL     1      19.412  10.906  34.402  1.00  0.00    -0.013 A 
HETATM   12  C9  UNL     1      18.062  11.022  34.290  1.00  0.00     0.013 A 
HETATM   13  C10 UNL     1      17.569  12.293  33.975  1.00  0.00     0.001 A 
HETATM   14  C11 UNL     1      18.403  13.367  33.784  1.00  0.00     0.001 A 
HETATM   15  C12 UNL     1      19.783  13.238  33.898  1.00  0.00     0.013 A 
HETATM   16  C13 UNL     1      20.278  12.012  34.206  1.00  0.00    -0.013 A 
HETATM   17  C14 UNL     1      21.742  12.033  34.267  1.00  0.00     0.002 A 
HETATM   18  C15 UNL     1      22.231  13.262  34.595  1.00  0.00     0.014 A 
HETATM   19  C16 UNL     1      23.602  13.389  34.658  1.00  0.00     0.001 A 
HETATM   20  C17 UNL     1      24.454  12.304  34.399  1.00  0.00     0.002 A 
HETATM   21  C18 UNL     1      23.913  11.078  34.074  1.00  0.00     0.031 A 
HETATM   22  C19 UNL     1      22.555  10.934  34.006  1.00  0.00     0.055 A 
ENDROOT
TORSDOF 0
ENDMDL
MODEL 4
REMARK VINA RESULT: -5.751189045      2.710      4.643
REMARK  0 active torsions:
REMARK  status: ('A' for Active; 'I' for Inactive)
REMARK       I    between atoms: C1_2  and  N2_4 
ROOT
HETATM    1  N1  UNL     1      22.060  13.605  35.361  1.00  0.00    -0.039 NA
HETATM    2  C1  UNL     1      22.482  12.818  34.232  1.00  0.00     0.340 C 
HETATM    3  O1  UNL     1      23.707  13.053  33.936  1.00  0.00    -0.250 OA
HETATM    4  N2  UNL     1      21.695  11.925  33.561  1.00  0.00    -0.265 N 
HETATM    5  C2  UNL     1      20.318  11.740  33.946  1.00  0.00     0.055 A 
HETATM    6  C3  UNL     1      19.716  12.927  34.262  1.00  0.00     0.031 A 
HETATM    7  C4  UNL     1      18.390  12.971  34.625  1.00  0.00     0.002 A 
HETATM    8  C5  UNL     1      17.684  11.787  34.657  1.00  0.00     0.001 A 
HETATM    9  C6  UNL     1      18.257  10.547  34.340  1.00  0.00     0.014 A 
HETATM   10  C7  UNL     1      19.573  10.557  33.992  1.00  0.00     0.002 A 
HETATM   11  C8  UNL     1      20.085   9.236  33.715  1.00  0.00    -0.013 A 
HETATM   12  C9  UNL     1      19.395   8.276  34.385  1.00  0.00     0.013 A 
HETATM   13  C10 UNL     1      19.832   6.957  34.212  1.00  0.00     0.001 A 
HETATM   14  C11 UNL     1      20.903   6.648  33.412  1.00  0.00     0.001 A 
HETATM   15  C12 UNL     1      21.605   7.637  32.733  1.00  0.00     0.013 A 
HETATM   16  C13 UNL     1      21.193   8.922  32.887  1.00  0.00    -0.013 A 
HETATM   17  C14 UNL     1      22.043   9.844  32.130  1.00  0.00     0.002 A 
HETATM   18  C15 UNL     1      22.615   9.253  31.045  1.00  0.00     0.014 A 
HETATM   19  C16 UNL     1      23.451  10.036  30.277  1.00  0.00     0.001 A 
HETATM   20  C17 UNL     1      23.700  11.379  30.599  1.00  0.00     0.002 A 
HETATM   21  C18 UNL     1      23.096  11.936  31.707  1.00  0.00     0.031 A 
HETATM   22  C19 UNL     1      22.265  11.174  32.479  1.00  0.00     0.055 A 
ENDROOT
TORSDOF 0
ENDMDL
MODEL 5
REMARK VINA RESULT: -5.555101287      2.111      4.104
REMARK  0 active torsions:
REMARK  status: ('A' for Active; 'I' for Inactive)
REMARK       I    between atoms: C1_2  and  N2_4 
ROOT
HETATM    1  N1  UNL     1      20.985   7.391  32.229  1.00  0.00    -0.039 NA
HETATM    2  C1  UNL     1      20.250   8.494  32.788  1.00  0.00     0.340 C 
HETATM    3  O1  UNL     1      19.249   8.083  33.475  1.00  0.00    -0.250 OA
HETATM    4  N2  UNL     1      20.571   9.813  32.626  1.00  0.00    -0.265 N 
HETATM    5  C2  UNL     1      21.702  10.189  31.815  1.00  0.00     0.055 A 
HETATM    6  C3  UNL     1      21.793   9.422  30.686  1.00  0.00     0.031 A 
HETATM    7  C4  UNL     1      22.787   9.644  29.761  1.00  0.00     0.002 A 
HETATM    8  C5  UNL     1      23.685  10.662  30.002  1.00  0.00     0.001 A 
HETATM    9  C6  UNL     1      23.631  11.475  31.144  1.00  0.00     0.014 A 
HETATM   10  C7  UNL     1      22.632  11.212  32.029  1.00  0.00     0.002 A 
HETATM   11  C8  UNL     1      22.674  12.074  33.187  1.00  0.00    -0.013 A 
HETATM   12  C9  UNL     1      23.933  12.520  33.440  1.00  0.00     0.013 A 
HETATM   13  C10 UNL     1      24.090  13.340  34.563  1.00  0.00     0.001 A 
HETATM   14  C11 UNL     1      23.032  13.674  35.371  1.00  0.00     0.001 A 
HETATM   15  C12 UNL     1      21.748  13.211  35.106  1.00  0.00     0.013 A 
HETATM   16  C13 UNL     1      21.576  12.416  34.018  1.00  0.00    -0.013 A 
HETATM   17  C14 UNL     1      20.180  11.993  33.888  1.00  0.00     0.002 A 
HETATM   18  C15 UNL     1      19.312  12.885  34.442  1.00  0.00     0.014 A 
HETATM   19  C16 UNL     1      17.972  12.566  34.389  1.00  0.00     0.001 A 
HETATM   20  C17 UNL     1      17.523  11.379  33.788  1.00  0.00     0.002 A 
HETATM   21  C18 UNL     1      18.438  10.507  33.236  1.00  0.00     0.031 A 
HETATM   22  C19 UNL     1      19.771  10.807  33.282  1.00  0.00     0.055 A 
ENDROOT
TORSDOF 0
ENDMDL
