MODEL 1
REMARK VINA RESULT: -6.311044212      0.000      0.000
REMARK  2 active torsions:
REMARK  status: ('A' for Active; 'I' for Inactive)
REMARK    1  A    between atoms: O1_2  and  N1_3 
REMARK    2  A    between atoms: C6_9  and  C8_11 
ROOT
HETATM    1  N1  UNL     1      25.442 -24.631  71.499  1.00  0.00    -0.255 N 
ATOM      2  H1  UNL     1      26.373 -24.891  71.826  1.00  0.00     0.195 HD
HETATM    3  C2  UNL     1      24.594 -24.136  72.335  1.00  0.00     0.098 C 
HETATM    4  C3  UNL     1      25.045 -23.979  73.744  1.00  0.00     0.078 C 
HETATM    5  C4  UNL     1      23.989 -23.349  74.610  1.00  0.00     0.010 C 
HETATM    6  C5  UNL     1      23.078 -22.429  73.832  1.00  0.00     0.031 C 
HETATM    7  C6  UNL     1      22.326 -23.258  72.824  1.00  0.00     0.030 C 
HETATM    8  C7  UNL     1      21.596 -24.389  73.492  1.00  0.00     0.039 C 
HETATM    9  N2  UNL     1      23.302 -23.777  71.883  1.00  0.00    -0.369 N 
ATOM     10  H2  UNL     1      23.058 -23.881  70.898  1.00  0.00     0.161 HD
ENDROOT
BRANCH   1  11
HETATM   11  O1  UNL     1      25.122 -24.811  70.199  1.00  0.00    -0.284 OA
HETATM   12  C1  UNL     1      25.863 -25.546  69.271  1.00  0.00     0.237 C 
ENDBRANCH   1  11
BRANCH   7  13
HETATM   13  C8  UNL     1      21.322 -22.454  72.045  1.00  0.00     0.005 C 
HETATM   14  C9  UNL     1      19.909 -22.956  72.247  1.00  0.00     0.012 C 
HETATM   15  C10 UNL     1      21.413 -20.975  72.309  1.00  0.00     0.012 C 
ENDBRANCH   7  13
TORSDOF 2
ENDMDL
MODEL 2
REMARK VINA RESULT: -5.955546623      1.308      3.111
REMARK  2 active torsions:
REMARK  status: ('A' for Active; 'I' for Inactive)
REMARK    1  A    between atoms: O1_2  and  N1_3 
REMARK    2  A    between atoms: C6_9  and  C8_11 
ROOT
HETATM    1  N1  UNL     1      24.012 -24.822  70.664  1.00  0.00    -0.255 N 
ATOM      2  H1  UNL     1      23.522 -25.272  69.890  1.00  0.00     0.195 HD
HETATM    3  C2  UNL     1      23.337 -24.385  71.672  1.00  0.00     0.098 C 
HETATM    4  C3  UNL     1      21.862 -24.572  71.630  1.00  0.00     0.078 C 
HETATM    5  C4  UNL     1      21.192 -24.068  72.878  1.00  0.00     0.010 C 
HETATM    6  C5  UNL     1      22.091 -24.148  74.089  1.00  0.00     0.031 C 
HETATM    7  C6  UNL     1      23.262 -23.227  73.864  1.00  0.00     0.030 C 
HETATM    8  C7  UNL     1      22.798 -21.830  73.561  1.00  0.00     0.039 C 
HETATM    9  N2  UNL     1      24.016 -23.759  72.744  1.00  0.00    -0.369 N 
ATOM     10  H2  UNL     1      25.033 -23.684  72.730  1.00  0.00     0.161 HD
ENDROOT
BRANCH   1  11
HETATM   11  O1  UNL     1      25.356 -24.696  70.612  1.00  0.00    -0.284 OA
HETATM   12  C1  UNL     1      26.202 -25.343  69.708  1.00  0.00     0.237 C 
ENDBRANCH   1  11
BRANCH   7  13
HETATM   13  C8  UNL     1      24.185 -23.163  75.049  1.00  0.00     0.005 C 
HETATM   14  C9  UNL     1      23.591 -23.830  76.271  1.00  0.00     0.012 C 
HETATM   15  C10 UNL     1      25.562 -23.696  74.758  1.00  0.00     0.012 C 
ENDBRANCH   7  13
TORSDOF 2
ENDMDL
MODEL 3
REMARK VINA RESULT: -5.851977871      1.393      3.259
REMARK  2 active torsions:
REMARK  status: ('A' for Active; 'I' for Inactive)
REMARK    1  A    between atoms: O1_2  and  N1_3 
REMARK    2  A    between atoms: C6_9  and  C8_11 
ROOT
HETATM    1  N1  UNL     1      23.752 -24.767  70.531  1.00  0.00    -0.255 N 
ATOM      2  H1  UNL     1      23.212 -24.964  69.688  1.00  0.00     0.195 HD
HETATM    3  C2  UNL     1      23.138 -24.406  71.606  1.00  0.00     0.098 C 
HETATM    4  C3  UNL     1      21.656 -24.299  71.535  1.00  0.00     0.078 C 
HETATM    5  C4  UNL     1      21.051 -23.919  72.858  1.00  0.00     0.010 C 
HETATM    6  C5  UNL     1      21.881 -24.392  74.028  1.00  0.00     0.031 C 
HETATM    7  C6  UNL     1      23.209 -23.684  73.978  1.00  0.00     0.030 C 
HETATM    8  C7  UNL     1      23.024 -22.193  73.946  1.00  0.00     0.039 C 
HETATM    9  N2  UNL     1      23.887 -24.131  72.775  1.00  0.00    -0.369 N 
ATOM     10  H2  UNL     1      24.899 -24.248  72.772  1.00  0.00     0.161 HD
ENDROOT
BRANCH   1  11
HETATM   11  O1  UNL     1      25.097 -24.890  70.499  1.00  0.00    -0.284 OA
HETATM   12  C1  UNL     1      25.840 -25.459  69.462  1.00  0.00     0.237 C 
ENDBRANCH   1  11
BRANCH   7  13
HETATM   13  C8  UNL     1      24.089 -24.018  75.150  1.00  0.00     0.005 C 
HETATM   14  C9  UNL     1      25.524 -23.592  74.925  1.00  0.00     0.012 C 
HETATM   15  C10 UNL     1      23.566 -23.486  76.457  1.00  0.00     0.012 C 
ENDBRANCH   7  13
TORSDOF 2
ENDMDL
MODEL 4
REMARK VINA RESULT: -5.766785950      1.017      1.056
REMARK  2 active torsions:
REMARK  status: ('A' for Active; 'I' for Inactive)
REMARK    1  A    between atoms: O1_2  and  N1_3 
REMARK    2  A    between atoms: C6_9  and  C8_11 
ROOT
HETATM    1  N1  UNL     1      25.807 -24.907  72.898  1.00  0.00    -0.255 N 
ATOM      2  H1  UNL     1      26.634 -25.112  73.459  1.00  0.00     0.195 HD
HETATM    3  C2  UNL     1      24.784 -24.357  73.457  1.00  0.00     0.098 C 
HETATM    4  C3  UNL     1      24.887 -24.058  74.911  1.00  0.00     0.078 C 
HETATM    5  C4  UNL     1      23.655 -23.375  75.437  1.00  0.00     0.010 C 
HETATM    6  C5  UNL     1      22.954 -22.555  74.381  1.00  0.00     0.031 C 
HETATM    7  C6  UNL     1      22.464 -23.493  73.309  1.00  0.00     0.030 C 
HETATM    8  C7  UNL     1      21.598 -24.573  73.892  1.00  0.00     0.039 C 
HETATM    9  N2  UNL     1      23.636 -24.073  72.680  1.00  0.00    -0.369 N 
ATOM     10  H2  UNL     1      23.633 -24.275  71.681  1.00  0.00     0.161 HD
ENDROOT
BRANCH   1  11
HETATM   11  O1  UNL     1      25.805 -25.216  71.583  1.00  0.00    -0.284 OA
HETATM   12  C1  UNL     1      26.499 -26.276  70.993  1.00  0.00     0.237 C 
ENDBRANCH   1  11
BRANCH   7  13
HETATM   13  C8  UNL     1      21.673 -22.789  72.241  1.00  0.00     0.005 C 
HETATM   14  C9  UNL     1      20.217 -23.202  72.245  1.00  0.00     0.012 C 
HETATM   15  C10 UNL     1      21.810 -21.291  72.289  1.00  0.00     0.012 C 
ENDBRANCH   7  13
TORSDOF 2
ENDMDL
MODEL 5
REMARK VINA RESULT: -5.709670959      1.043      1.462
REMARK  2 active torsions:
REMARK  status: ('A' for Active; 'I' for Inactive)
REMARK    1  A    between atoms: O1_2  and  N1_3 
REMARK    2  A    between atoms: C6_9  and  C8_11 
ROOT
HETATM    1  N1  UNL     1      24.468 -24.990  70.485  1.00  0.00    -0.255 N 
ATOM      2  H1  UNL     1      25.401 -25.392  70.386  1.00  0.00     0.195 HD
HETATM    3  C2  UNL     1      24.108 -24.502  71.623  1.00  0.00     0.098 C 
HETATM    4  C3  UNL     1      25.100 -24.563  72.730  1.00  0.00     0.078 C 
HETATM    5  C4  UNL     1      24.584 -23.921  73.988  1.00  0.00     0.010 C 
HETATM    6  C5  UNL     1      23.592 -22.818  73.708  1.00  0.00     0.031 C 
HETATM    7  C6  UNL     1      22.384 -23.431  73.049  1.00  0.00     0.030 C 
HETATM    8  C7  UNL     1      21.817 -24.541  73.888  1.00  0.00     0.039 C 
HETATM    9  N2  UNL     1      22.814 -23.946  71.762  1.00  0.00    -0.369 N 
ATOM     10  H2  UNL     1      22.186 -23.906  70.959  1.00  0.00     0.161 HD
ENDROOT
BRANCH   1  11
HETATM   11  O1  UNL     1      23.635 -24.980  69.422  1.00  0.00    -0.284 OA
HETATM   12  C1  UNL     1      23.799 -25.721  68.249  1.00  0.00     0.237 C 
ENDBRANCH   1  11
BRANCH   7  13
HETATM   13  C8  UNL     1      21.290 -22.431  72.799  1.00  0.00     0.005 C 
HETATM   14  C9  UNL     1      21.782 -21.230  72.021  1.00  0.00     0.012 C 
HETATM   15  C10 UNL     1      20.071 -23.033  72.151  1.00  0.00     0.012 C 
ENDBRANCH   7  13
TORSDOF 2
ENDMDL
