MODEL 1
REMARK VINA RESULT: -6.773077853      0.000      0.000
REMARK  9 active torsions:
REMARK  status: ('A' for Active; 'I' for Inactive)
REMARK    1  A    between atoms: N1_1  and  C1_5 
REMARK    2  A    between atoms: C1_5  and  C2_6 
REMARK    3  A    between atoms: C2_6  and  N2_7 
REMARK    4  A    between atoms: C3_12  and  C4_13 
REMARK    5  A    between atoms: C4_13  and  S1_14 
REMARK    6  A    between atoms: S1_14  and  C5_15 
REMARK    7  A    between atoms: C6_19  and  N6_20 
REMARK    8  A    between atoms: C7_27  and  C8_28 
REMARK    9  A    between atoms: C8_28  and  O1_29 
ROOT
HETATM    1  C5  UNL     1      19.558   8.987  29.972  1.00  0.00     0.284 C 
HETATM    2  N5  UNL     1      20.501   7.896  29.826  1.00  0.00    -0.006 N 
ATOM      3  H51 UNL     1      21.369   8.166  29.365  1.00  0.00     0.283 HD
ATOM      4  H52 UNL     1      20.212   7.196  29.143  1.00  0.00     0.283 HD
HETATM    5  C6  UNL     1      20.696   7.358  31.162  1.00  0.00     0.579 C 
HETATM    6  N7  UNL     1      19.417   7.492  31.790  1.00  0.00    -0.013 N 
ATOM      7  H71 UNL     1      19.426   7.377  32.804  1.00  0.00     0.282 HD
ATOM      8  H72 UNL     1      18.769   6.726  31.606  1.00  0.00     0.282 HD
HETATM    9  C7  UNL     1      18.965   8.793  31.332  1.00  0.00     0.254 C 
ENDROOT
BRANCH   1  10
HETATM   10  S1  UNL     1      20.390  10.564  29.756  1.00  0.00    -0.126 SA
BRANCH  10  11
HETATM   11  C4  UNL     1      19.647  11.546  28.427  1.00  0.00     0.155 C 
BRANCH  11  12
HETATM   12  C3  UNL     1      18.174  11.509  28.596  1.00  0.00     0.122 A 
HETATM   13  N4  UNL     1      17.516  12.195  29.538  1.00  0.00    -0.271 N 
HETATM   14  N3  UNL     1      16.249  11.927  29.391  1.00  0.00    -0.225 N 
ATOM     15  H4  UNL     1      17.929  12.813  30.238  1.00  0.00     0.190 HD
HETATM   16  N2  UNL     1      16.068  11.089  28.383  1.00  0.00    -0.217 N 
ATOM     17  H3  UNL     1      15.502  12.309  29.972  1.00  0.00     0.210 HD
HETATM   18  N8  UNL     1      17.258  10.834  27.894  1.00  0.00    -0.269 N 
ATOM     19  H8  UNL     1      17.453  10.219  27.105  1.00  0.00     0.190 HD
BRANCH  16  20
HETATM   20  C2  UNL     1      14.772  10.567  27.926  1.00  0.00     0.198 C 
BRANCH  20  21
HETATM   21  C1  UNL     1      14.695   9.134  28.385  1.00  0.00     0.253 C 
BRANCH  21  22
HETATM   22  N1  UNL     1      14.254   9.137  29.769  1.00  0.00    -0.078 N 
ATOM     23  H13 UNL     1      14.439   8.254  30.246  1.00  0.00     0.274 HD
ATOM     24  H12 UNL     1      14.825   9.735  30.366  1.00  0.00     0.274 HD
ATOM     25  H11 UNL     1      13.268   9.393  29.779  1.00  0.00     0.274 HD
ENDBRANCH  21  22
ENDBRANCH  20  21
ENDBRANCH  16  20
ENDBRANCH  11  12
ENDBRANCH  10  11
ENDBRANCH   1  10
BRANCH   9  26
HETATM   26  C8  UNL     1      17.452   8.755  31.284  1.00  0.00     0.200 C 
BRANCH  26  27
HETATM   27  O1  UNL     1      16.889   9.997  31.564  1.00  0.00    -0.399 OA
ATOM     28  H1  UNL     1      16.020   9.919  31.940  1.00  0.00     0.209 HD
ENDBRANCH  26  27
ENDBRANCH   9  26
BRANCH   5  29
HETATM   29  N6  UNL     1      21.155   5.994  31.080  1.00  0.00    -0.026 N 
ATOM     30  H63 UNL     1      20.657   5.464  30.366  1.00  0.00     0.278 HD
ATOM     31  H62 UNL     1      22.094   5.929  30.686  1.00  0.00     0.278 HD
ATOM     32  H61 UNL     1      21.094   5.551  31.997  1.00  0.00     0.278 HD
ENDBRANCH   5  29
TORSDOF 9
ENDMDL
MODEL 2
REMARK VINA RESULT: -6.658110866      2.721      5.907
REMARK  9 active torsions:
REMARK  status: ('A' for Active; 'I' for Inactive)
REMARK    1  A    between atoms: N1_1  and  C1_5 
REMARK    2  A    between atoms: C1_5  and  C2_6 
REMARK    3  A    between atoms: C2_6  and  N2_7 
REMARK    4  A    between atoms: C3_12  and  C4_13 
REMARK    5  A    between atoms: C4_13  and  S1_14 
REMARK    6  A    between atoms: S1_14  and  C5_15 
REMARK    7  A    between atoms: C6_19  and  N6_20 
REMARK    8  A    between atoms: C7_27  and  C8_28 
REMARK    9  A    between atoms: C8_28  and  O1_29 
ROOT
HETATM    1  C5  UNL     1      15.042  11.127  28.322  1.00  0.00     0.284 C 
HETATM    2  N5  UNL     1      15.098  11.706  29.649  1.00  0.00    -0.006 N 
ATOM      3  H51 UNL     1      14.815  11.062  30.388  1.00  0.00     0.283 HD
ATOM      4  H52 UNL     1      14.379  12.409  29.818  1.00  0.00     0.283 HD
HETATM    5  C6  UNL     1      16.452  12.211  29.806  1.00  0.00     0.579 C 
HETATM    6  N7  UNL     1      16.812  12.674  28.501  1.00  0.00    -0.013 N 
ATOM      7  H71 UNL     1      17.809  12.851  28.371  1.00  0.00     0.282 HD
ATOM      8  H72 UNL     1      16.511  13.626  28.288  1.00  0.00     0.282 HD
HETATM    9  C7  UNL     1      16.259  11.654  27.629  1.00  0.00     0.254 C 
ENDROOT
BRANCH   1  10
HETATM   10  S1  UNL     1      14.978   9.335  28.425  1.00  0.00    -0.126 SA
BRANCH  10  11
HETATM   11  C4  UNL     1      15.231   8.744  30.119  1.00  0.00     0.155 C 
BRANCH  11  12
HETATM   12  C3  UNL     1      16.680   8.502  30.311  1.00  0.00     0.122 A 
HETATM   13  N4  UNL     1      17.203   7.947  31.411  1.00  0.00    -0.271 N 
HETATM   14  N3  UNL     1      18.493   7.888  31.234  1.00  0.00    -0.225 N 
ATOM     15  H4  UNL     1      16.688   7.629  32.233  1.00  0.00     0.190 HD
HETATM   16  N2  UNL     1      18.820   8.388  30.053  1.00  0.00    -0.217 N 
ATOM     17  H3  UNL     1      19.156   7.511  31.911  1.00  0.00     0.210 HD
HETATM   18  N8  UNL     1      17.699   8.764  29.486  1.00  0.00    -0.269 N 
ATOM     19  H8  UNL     1      17.618   9.190  28.563  1.00  0.00     0.190 HD
BRANCH  16  20
HETATM   20  C2  UNL     1      20.184   8.485  29.513  1.00  0.00     0.198 C 
BRANCH  20  21
HETATM   21  C1  UNL     1      20.736   9.813  29.964  1.00  0.00     0.253 C 
BRANCH  21  22
HETATM   22  N1  UNL     1      21.957   9.554  30.706  1.00  0.00    -0.078 N 
ATOM     23  H13 UNL     1      22.069  10.169  31.512  1.00  0.00     0.274 HD
ATOM     24  H12 UNL     1      21.934   8.669  31.213  1.00  0.00     0.274 HD
ATOM     25  H11 UNL     1      22.736   9.615  30.051  1.00  0.00     0.274 HD
ENDBRANCH  21  22
ENDBRANCH  20  21
ENDBRANCH  16  20
ENDBRANCH  11  12
ENDBRANCH  10  11
ENDBRANCH   1  10
BRANCH   9  26
HETATM   26  C8  UNL     1      15.912  12.320  26.315  1.00  0.00     0.200 C 
BRANCH  26  27
HETATM   27  O1  UNL     1      14.618  12.018  25.901  1.00  0.00    -0.399 OA
ATOM     28  H1  UNL     1      14.475  11.082  25.826  1.00  0.00     0.209 HD
ENDBRANCH  26  27
ENDBRANCH   9  26
BRANCH   5  29
HETATM   29  N6  UNL     1      16.478  13.245  30.810  1.00  0.00    -0.026 N 
ATOM     30  H63 UNL     1      16.940  14.091  30.476  1.00  0.00     0.278 HD
ATOM     31  H62 UNL     1      15.552  13.640  30.978  1.00  0.00     0.278 HD
ATOM     32  H61 UNL     1      16.903  12.889  31.666  1.00  0.00     0.278 HD
ENDBRANCH   5  29
TORSDOF 9
ENDMDL
MODEL 3
REMARK VINA RESULT: -6.622767225      1.841      3.183
REMARK  9 active torsions:
REMARK  status: ('A' for Active; 'I' for Inactive)
REMARK    1  A    between atoms: N1_1  and  C1_5 
REMARK    2  A    between atoms: C1_5  and  C2_6 
REMARK    3  A    between atoms: C2_6  and  N2_7 
REMARK    4  A    between atoms: C3_12  and  C4_13 
REMARK    5  A    between atoms: C4_13  and  S1_14 
REMARK    6  A    between atoms: S1_14  and  C5_15 
REMARK    7  A    between atoms: C6_19  and  N6_20 
REMARK    8  A    between atoms: C7_27  and  C8_28 
REMARK    9  A    between atoms: C8_28  and  O1_29 
ROOT
HETATM    1  C5  UNL     1      18.733   8.756  31.158  1.00  0.00     0.284 C 
HETATM    2  N5  UNL     1      19.607   7.921  31.958  1.00  0.00    -0.006 N 
ATOM      3  H51 UNL     1      19.113   7.362  32.653  1.00  0.00     0.283 HD
ATOM      4  H52 UNL     1      20.186   8.447  32.613  1.00  0.00     0.283 HD
HETATM    5  C6  UNL     1      20.373   7.128  31.013  1.00  0.00     0.579 C 
HETATM    6  N7  UNL     1      20.577   8.000  29.897  1.00  0.00    -0.013 N 
ATOM      7  H71 UNL     1      20.898   7.537  29.047  1.00  0.00     0.282 HD
ATOM      8  H72 UNL     1      21.380   8.624  29.984  1.00  0.00     0.282 HD
HETATM    9  C7  UNL     1      19.298   8.675  29.775  1.00  0.00     0.254 C 
ENDROOT
BRANCH   1  10
HETATM   10  S1  UNL     1      17.035   8.187  31.289  1.00  0.00    -0.126 SA
BRANCH  10  11
HETATM   11  C4  UNL     1      15.867   9.565  31.427  1.00  0.00     0.155 C 
BRANCH  11  12
HETATM   12  C3  UNL     1      15.347   9.866  30.072  1.00  0.00     0.122 A 
HETATM   13  N4  UNL     1      14.369   9.172  29.479  1.00  0.00    -0.271 N 
HETATM   14  N3  UNL     1      14.173   9.710  28.309  1.00  0.00    -0.225 N 
ATOM     15  H4  UNL     1      13.871   8.372  29.870  1.00  0.00     0.190 HD
HETATM   16  N2  UNL     1      14.994  10.733  28.127  1.00  0.00    -0.217 N 
ATOM     17  H3  UNL     1      13.484   9.389  27.628  1.00  0.00     0.210 HD
HETATM   18  N8  UNL     1      15.717  10.826  29.217  1.00  0.00    -0.269 N 
ATOM     19  H8  UNL     1      16.445  11.520  29.386  1.00  0.00     0.190 HD
BRANCH  16  20
HETATM   20  C2  UNL     1      15.057  11.577  26.925  1.00  0.00     0.198 C 
BRANCH  20  21
HETATM   21  C1  UNL     1      16.410  12.241  26.932  1.00  0.00     0.253 C 
BRANCH  21  22
HETATM   22  N1  UNL     1      16.483  13.104  25.766  1.00  0.00    -0.078 N 
ATOM     23  H13 UNL     1      16.154  12.650  24.915  1.00  0.00     0.274 HD
ATOM     24  H12 UNL     1      15.798  13.861  25.789  1.00  0.00     0.274 HD
ATOM     25  H11 UNL     1      17.442  13.441  25.689  1.00  0.00     0.274 HD
ENDBRANCH  21  22
ENDBRANCH  20  21
ENDBRANCH  16  20
ENDBRANCH  11  12
ENDBRANCH  10  11
ENDBRANCH   1  10
BRANCH   9  26
HETATM   26  C8  UNL     1      19.562  10.048  29.195  1.00  0.00     0.200 C 
BRANCH  26  27
HETATM   27  O1  UNL     1      18.705  11.011  29.719  1.00  0.00    -0.399 OA
ATOM     28  H1  UNL     1      19.119  11.521  30.406  1.00  0.00     0.209 HD
ENDBRANCH  26  27
ENDBRANCH   9  26
BRANCH   5  29
HETATM   29  N6  UNL     1      21.601   6.683  31.625  1.00  0.00    -0.026 N 
ATOM     30  H63 UNL     1      21.502   5.766  32.059  1.00  0.00     0.278 HD
ATOM     31  H62 UNL     1      22.310   6.443  30.932  1.00  0.00     0.278 HD
ATOM     32  H61 UNL     1      21.934   7.385  32.286  1.00  0.00     0.278 HD
ENDBRANCH   5  29
TORSDOF 9
ENDMDL
MODEL 4
REMARK VINA RESULT: -6.575950342      2.689      6.030
REMARK  9 active torsions:
REMARK  status: ('A' for Active; 'I' for Inactive)
REMARK    1  A    between atoms: N1_1  and  C1_5 
REMARK    2  A    between atoms: C1_5  and  C2_6 
REMARK    3  A    between atoms: C2_6  and  N2_7 
REMARK    4  A    between atoms: C3_12  and  C4_13 
REMARK    5  A    between atoms: C4_13  and  S1_14 
REMARK    6  A    between atoms: S1_14  and  C5_15 
REMARK    7  A    between atoms: C6_19  and  N6_20 
REMARK    8  A    between atoms: C7_27  and  C8_28 
REMARK    9  A    between atoms: C8_28  and  O1_29 
ROOT
HETATM    1  C5  UNL     1      15.001  11.123  28.327  1.00  0.00     0.284 C 
HETATM    2  N5  UNL     1      15.094  11.694  29.656  1.00  0.00    -0.006 N 
ATOM      3  H51 UNL     1      14.810  11.053  30.396  1.00  0.00     0.283 HD
ATOM      4  H52 UNL     1      14.394  12.412  29.841  1.00  0.00     0.283 HD
HETATM    5  C6  UNL     1      16.461  12.167  29.791  1.00  0.00     0.579 C 
HETATM    6  N7  UNL     1      16.809  12.629  28.482  1.00  0.00    -0.013 N 
ATOM      7  H71 UNL     1      17.807  12.783  28.336  1.00  0.00     0.282 HD
ATOM      8  H72 UNL     1      16.526  13.588  28.279  1.00  0.00     0.282 HD
HETATM    9  C7  UNL     1      16.218  11.626  27.616  1.00  0.00     0.254 C 
ENDROOT
BRANCH   1  10
HETATM   10  S1  UNL     1      14.899   9.333  28.423  1.00  0.00    -0.126 SA
BRANCH  10  11
HETATM   11  C4  UNL     1      15.643   8.691  29.945  1.00  0.00     0.155 C 
BRANCH  11  12
HETATM   12  C3  UNL     1      17.071   8.403  29.673  1.00  0.00     0.122 A 
HETATM   13  N4  UNL     1      17.564   8.173  28.450  1.00  0.00    -0.271 N 
HETATM   14  N3  UNL     1      18.842   7.959  28.587  1.00  0.00    -0.225 N 
ATOM     15  H4  UNL     1      17.038   8.168  27.575  1.00  0.00     0.190 HD
HETATM   16  N2  UNL     1      19.191   8.044  29.861  1.00  0.00    -0.217 N 
ATOM     17  H3  UNL     1      19.484   7.754  27.820  1.00  0.00     0.210 HD
HETATM   18  N8  UNL     1      18.096   8.319  30.528  1.00  0.00    -0.269 N 
ATOM     19  H8  UNL     1      18.035   8.447  31.537  1.00  0.00     0.190 HD
BRANCH  16  20
HETATM   20  C2  UNL     1      20.550   7.861  30.391  1.00  0.00     0.198 C 
BRANCH  20  21
HETATM   21  C1  UNL     1      20.473   6.755  31.411  1.00  0.00     0.253 C 
BRANCH  21  22
HETATM   22  N1  UNL     1      21.831   6.337  31.712  1.00  0.00    -0.078 N 
ATOM     23  H13 UNL     1      21.931   5.964  32.656  1.00  0.00     0.274 HD
ATOM     24  H12 UNL     1      22.110   5.498  31.204  1.00  0.00     0.274 HD
ATOM     25  H11 UNL     1      22.446   7.131  31.534  1.00  0.00     0.274 HD
ENDBRANCH  21  22
ENDBRANCH  20  21
ENDBRANCH  16  20
ENDBRANCH  11  12
ENDBRANCH  10  11
ENDBRANCH   1  10
BRANCH   9  26
HETATM   26  C8  UNL     1      15.863  12.306  26.311  1.00  0.00     0.200 C 
BRANCH  26  27
HETATM   27  O1  UNL     1      14.571  11.999  25.894  1.00  0.00    -0.399 OA
ATOM     28  H1  UNL     1      14.210  12.669  25.326  1.00  0.00     0.209 HD
ENDBRANCH  26  27
ENDBRANCH   9  26
BRANCH   5  29
HETATM   29  N6  UNL     1      16.529  13.195  30.800  1.00  0.00    -0.026 N 
ATOM     30  H63 UNL     1      15.822  13.916  30.658  1.00  0.00     0.278 HD
ATOM     31  H62 UNL     1      16.217  12.859  31.711  1.00  0.00     0.278 HD
ATOM     32  H61 UNL     1      17.471  13.584  30.837  1.00  0.00     0.278 HD
ENDBRANCH   5  29
TORSDOF 9
ENDMDL
MODEL 5
REMARK VINA RESULT: -6.505841005      1.373      1.421
REMARK  9 active torsions:
REMARK  status: ('A' for Active; 'I' for Inactive)
REMARK    1  A    between atoms: N1_1  and  C1_5 
REMARK    2  A    between atoms: C1_5  and  C2_6 
REMARK    3  A    between atoms: C2_6  and  N2_7 
REMARK    4  A    between atoms: C3_12  and  C4_13 
REMARK    5  A    between atoms: C4_13  and  S1_14 
REMARK    6  A    between atoms: S1_14  and  C5_15 
REMARK    7  A    between atoms: C6_19  and  N6_20 
REMARK    8  A    between atoms: C7_27  and  C8_28 
REMARK    9  A    between atoms: C8_28  and  O1_29 
ROOT
HETATM    1  C5  UNL     1      20.073   8.838  29.377  1.00  0.00     0.284 C 
HETATM    2  N5  UNL     1      21.162   8.061  29.934  1.00  0.00    -0.006 N 
ATOM      3  H51 UNL     1      21.974   8.622  30.191  1.00  0.00     0.283 HD
ATOM      4  H52 UNL     1      21.634   7.470  29.249  1.00  0.00     0.283 HD
HETATM    5  C6  UNL     1      20.594   7.319  31.046  1.00  0.00     0.579 C 
HETATM    6  N7  UNL     1      19.263   7.007  30.623  1.00  0.00    -0.013 N 
ATOM      7  H71 UNL     1      18.643   6.688  31.368  1.00  0.00     0.282 HD
ATOM      8  H72 UNL     1      19.183   6.163  30.055  1.00  0.00     0.282 HD
HETATM    9  C7  UNL     1      18.838   8.227  29.961  1.00  0.00     0.254 C 
ENDROOT
BRANCH   1  10
HETATM   10  S1  UNL     1      20.283  10.577  29.770  1.00  0.00    -0.126 SA
BRANCH  10  11
HETATM   11  C4  UNL     1      19.595  11.650  28.482  1.00  0.00     0.155 C 
BRANCH  11  12
HETATM   12  C3  UNL     1      18.120  11.661  28.632  1.00  0.00     0.122 A 
HETATM   13  N4  UNL     1      17.476  12.316  29.605  1.00  0.00    -0.271 N 
HETATM   14  N3  UNL     1      16.202  12.106  29.428  1.00  0.00    -0.225 N 
ATOM     15  H4  UNL     1      17.902  12.874  30.345  1.00  0.00     0.190 HD
HETATM   16  N2  UNL     1      16.003  11.337  28.369  1.00  0.00    -0.217 N 
ATOM     17  H3  UNL     1      15.462  12.482  30.022  1.00  0.00     0.210 HD
HETATM   18  N8  UNL     1      17.189  11.065  27.880  1.00  0.00    -0.269 N 
ATOM     19  H8  UNL     1      17.371  10.490  27.059  1.00  0.00     0.190 HD
BRANCH  16  20
HETATM   20  C2  UNL     1      14.694  10.893  27.868  1.00  0.00     0.198 C 
BRANCH  20  21
HETATM   21  C1  UNL     1      14.610   9.411  28.127  1.00  0.00     0.253 C 
BRANCH  21  22
HETATM   22  N1  UNL     1      14.248   9.227  29.521  1.00  0.00    -0.078 N 
ATOM     23  H13 UNL     1      14.201  10.105  30.038  1.00  0.00     0.274 HD
ATOM     24  H12 UNL     1      13.275   8.946  29.645  1.00  0.00     0.274 HD
ATOM     25  H11 UNL     1      14.906   8.563  29.927  1.00  0.00     0.274 HD
ENDBRANCH  21  22
ENDBRANCH  20  21
ENDBRANCH  16  20
ENDBRANCH  11  12
ENDBRANCH  10  11
ENDBRANCH   1  10
BRANCH   9  26
HETATM   26  C8  UNL     1      17.844   7.838  28.889  1.00  0.00     0.200 C 
BRANCH  26  27
HETATM   27  O1  UNL     1      18.472   7.434  27.714  1.00  0.00    -0.399 OA
ATOM     28  H1  UNL     1      17.925   7.574  26.950  1.00  0.00     0.209 HD
ENDBRANCH  26  27
ENDBRANCH   9  26
BRANCH   5  29
HETATM   29  N6  UNL     1      21.397   6.153  31.322  1.00  0.00    -0.026 N 
ATOM     30  H63 UNL     1      21.453   5.955  32.320  1.00  0.00     0.278 HD
ATOM     31  H62 UNL     1      20.936   5.292  31.026  1.00  0.00     0.278 HD
ATOM     32  H61 UNL     1      22.319   6.258  30.900  1.00  0.00     0.278 HD
ENDBRANCH   5  29
TORSDOF 9
ENDMDL
