MODEL 1
REMARK VINA RESULT: -8.085807094      0.000      0.000
REMARK  9 active torsions:
REMARK  status: ('A' for Active; 'I' for Inactive)
REMARK    1  A    between atoms: C2_2  and  C3_3 
REMARK    2  A    between atoms: C9_9  and  S1_10 
REMARK    3  A    between atoms: C9_9  and  N1_17 
REMARK    4  A    between atoms: S1_10  and  C10_11 
REMARK    5  A    between atoms: C10_11  and  C13_14 
REMARK    6  A    between atoms: C13_14  and  C14_15 
REMARK    7  A    between atoms: N1_17  and  C16_18 
REMARK    8  A    between atoms: N1_17  and  C23_25 
REMARK    9  A    between atoms: C16_18  and  C17_19 
ROOT
HETATM    1  C3  UNL     1      15.186  23.155  46.058  1.00  0.00     0.039 C 
HETATM    2  C4  UNL     1      14.037  23.160  47.111  1.00  0.00     0.013 C 
HETATM    3  C5  UNL     1      12.734  23.588  46.500  1.00  0.00     0.001 C 
HETATM    4  C6  UNL     1      12.453  22.705  45.299  1.00  0.00     0.004 C 
HETATM    5  C7  UNL     1      13.610  22.697  44.348  1.00  0.00     0.038 C 
HETATM    6  C8  UNL     1      14.920  22.175  45.040  1.00  0.00    -0.038 C 
HETATM    7  C9  UNL     1      15.755  21.537  44.062  1.00  0.00     0.075 C 
ENDROOT
BRANCH   7   8
HETATM    8  S1  UNL     1      14.757  20.329  43.075  1.00  0.00    -0.102 SA
BRANCH   8   9
HETATM    9  C10 UNL     1      13.543  21.000  41.984  1.00  0.00     0.007 C 
HETATM   10  C11 UNL     1      12.177  20.504  42.518  1.00  0.00     0.027 C 
HETATM   11  C12 UNL     1      13.381  22.472  41.894  1.00  0.00     0.027 C 
BRANCH   9  12
HETATM   12  C13 UNL     1      13.746  20.349  40.648  1.00  0.00     0.019 C 
BRANCH  12  13
HETATM   13  C14 UNL     1      12.608  19.791  39.923  1.00  0.00    -0.003 C 
HETATM   14  C15 UNL     1      12.840  19.199  38.575  1.00  0.00     0.005 C 
ENDBRANCH  12  13
ENDBRANCH   9  12
ENDBRANCH   8   9
ENDBRANCH   7   8
BRANCH   7  15
HETATM   15  N1  UNL     1      16.755  21.992  43.204  1.00  0.00    -0.350 N 
BRANCH  15  16
HETATM   16  C16 UNL     1      18.111  21.801  43.474  1.00  0.00     0.069 C 
BRANCH  16  17
HETATM   17  C17 UNL     1      18.614  22.077  44.880  1.00  0.00     0.024 C 
HETATM   18  C18 UNL     1      18.742  20.816  45.650  1.00  0.00     0.010 C 
HETATM   19  C19 UNL     1      19.408  20.965  46.988  1.00  0.00     0.001 C 
HETATM   20  C20 UNL     1      20.845  21.369  46.654  1.00  0.00     0.000 C 
HETATM   21  C21 UNL     1      20.724  22.747  46.108  1.00  0.00     0.001 C 
HETATM   22  C22 UNL     1      19.876  22.910  44.899  1.00  0.00     0.010 C 
ENDBRANCH  16  17
ENDBRANCH  15  16
BRANCH  15  23
HETATM   23  C23 UNL     1      16.376  22.839  42.120  1.00  0.00     0.093 C 
HETATM   24  C24 UNL     1      17.037  22.608  40.798  1.00  0.00     0.053 C 
HETATM   25  C25 UNL     1      16.380  23.386  39.679  1.00  0.00     0.234 C 
HETATM   26  N2  UNL     1      15.705  24.574  40.156  1.00  0.00    -0.075 N 
HETATM   27  C26 UNL     1      16.655  25.131  41.103  1.00  0.00     0.234 C 
ATOM     28  H22 UNL     1      15.407  25.218  39.424  1.00  0.00     0.277 HD
ATOM     29  H21 UNL     1      14.773  24.411  40.535  1.00  0.00     0.277 HD
HETATM   30  C27 UNL     1      16.406  24.323  42.395  1.00  0.00     0.053 C 
ENDBRANCH  15  23
ENDBRANCH   7  15
BRANCH   1  31
HETATM   31  C2  UNL     1      16.359  23.233  46.881  1.00  0.00    -0.028 C 
HETATM   32  C1  UNL     1      16.350  23.165  48.203  1.00  0.00     0.007 C 
ENDBRANCH   1  31
TORSDOF 9
ENDMDL
MODEL 2
REMARK VINA RESULT: -7.478721223      1.380      4.487
REMARK  9 active torsions:
REMARK  status: ('A' for Active; 'I' for Inactive)
REMARK    1  A    between atoms: C2_2  and  C3_3 
REMARK    2  A    between atoms: C9_9  and  S1_10 
REMARK    3  A    between atoms: C9_9  and  N1_17 
REMARK    4  A    between atoms: S1_10  and  C10_11 
REMARK    5  A    between atoms: C10_11  and  C13_14 
REMARK    6  A    between atoms: C13_14  and  C14_15 
REMARK    7  A    between atoms: N1_17  and  C16_18 
REMARK    8  A    between atoms: N1_17  and  C23_25 
REMARK    9  A    between atoms: C16_18  and  C17_19 
ROOT
HETATM    1  C3  UNL     1      16.761  24.265  40.834  1.00  0.00     0.039 C 
HETATM    2  C4  UNL     1      16.304  24.754  39.426  1.00  0.00     0.013 C 
HETATM    3  C5  UNL     1      16.556  23.710  38.375  1.00  0.00     0.001 C 
HETATM    4  C6  UNL     1      15.895  22.417  38.814  1.00  0.00     0.004 C 
HETATM    5  C7  UNL     1      16.331  22.025  40.192  1.00  0.00     0.038 C 
HETATM    6  C8  UNL     1      15.974  23.135  41.246  1.00  0.00    -0.038 C 
HETATM    7  C9  UNL     1      15.744  22.523  42.524  1.00  0.00     0.075 C 
ENDROOT
BRANCH   7   8
HETATM    8  S1  UNL     1      14.575  21.099  42.337  1.00  0.00    -0.102 SA
BRANCH   8   9
HETATM    9  C10 UNL     1      12.850  21.471  42.383  1.00  0.00     0.007 C 
HETATM   10  C11 UNL     1      12.443  21.396  43.875  1.00  0.00     0.027 C 
HETATM   11  C12 UNL     1      12.384  22.810  41.949  1.00  0.00     0.027 C 
BRANCH   9  12
HETATM   12  C13 UNL     1      12.140  20.348  41.687  1.00  0.00     0.019 C 
BRANCH  12  13
HETATM   13  C14 UNL     1      12.605  19.881  40.384  1.00  0.00    -0.003 C 
HETATM   14  C15 UNL     1      11.592  19.495  39.360  1.00  0.00     0.005 C 
ENDBRANCH  12  13
ENDBRANCH   9  12
ENDBRANCH   8   9
ENDBRANCH   7   8
BRANCH   7  15
HETATM   15  N1  UNL     1      16.568  22.197  43.600  1.00  0.00    -0.350 N 
BRANCH  15  16
HETATM   16  C16 UNL     1      17.524  21.183  43.525  1.00  0.00     0.069 C 
BRANCH  16  17
HETATM   17  C17 UNL     1      18.887  21.427  44.146  1.00  0.00     0.024 C 
HETATM   18  C18 UNL     1      19.226  22.871  44.124  1.00  0.00     0.010 C 
HETATM   19  C19 UNL     1      20.470  23.234  44.882  1.00  0.00     0.001 C 
HETATM   20  C20 UNL     1      20.126  22.934  46.342  1.00  0.00     0.000 C 
HETATM   21  C21 UNL     1      20.034  21.451  46.404  1.00  0.00     0.001 C 
HETATM   22  C22 UNL     1      19.024  20.811  45.521  1.00  0.00     0.010 C 
ENDBRANCH  16  17
ENDBRANCH  15  16
BRANCH  15  23
HETATM   23  C23 UNL     1      16.288  22.795  44.865  1.00  0.00     0.093 C 
HETATM   24  C24 UNL     1      16.030  21.879  46.020  1.00  0.00     0.053 C 
HETATM   25  C25 UNL     1      15.998  22.613  47.344  1.00  0.00     0.234 C 
HETATM   26  N2  UNL     1      15.629  24.005  47.194  1.00  0.00    -0.075 N 
HETATM   27  C26 UNL     1      14.526  23.950  46.252  1.00  0.00     0.234 C 
ATOM     28  H22 UNL     1      15.420  24.487  48.068  1.00  0.00     0.277 HD
ATOM     29  H21 UNL     1      16.394  24.620  46.917  1.00  0.00     0.277 HD
HETATM   30  C27 UNL     1      15.218  23.860  44.875  1.00  0.00     0.053 C 
ENDBRANCH  15  23
ENDBRANCH   7  15
BRANCH   1  31
HETATM   31  C2  UNL     1      16.922  25.498  41.551  1.00  0.00    -0.028 C 
HETATM   32  C1  UNL     1      16.861  26.698  40.995  1.00  0.00     0.007 C 
ENDBRANCH   1  31
TORSDOF 9
ENDMDL
MODEL 3
REMARK VINA RESULT: -7.462404581      8.056     12.864
REMARK  9 active torsions:
REMARK  status: ('A' for Active; 'I' for Inactive)
REMARK    1  A    between atoms: C2_2  and  C3_3 
REMARK    2  A    between atoms: C9_9  and  S1_10 
REMARK    3  A    between atoms: C9_9  and  N1_17 
REMARK    4  A    between atoms: S1_10  and  C10_11 
REMARK    5  A    between atoms: C10_11  and  C13_14 
REMARK    6  A    between atoms: C13_14  and  C14_15 
REMARK    7  A    between atoms: N1_17  and  C16_18 
REMARK    8  A    between atoms: N1_17  and  C23_25 
REMARK    9  A    between atoms: C16_18  and  C17_19 
ROOT
HETATM    1  C3  UNL     1       7.985  15.975  34.583  1.00  0.00     0.039 C 
HETATM    2  C4  UNL     1       7.493  15.708  33.129  1.00  0.00     0.013 C 
HETATM    3  C5  UNL     1       5.994  15.756  33.040  1.00  0.00     0.001 C 
HETATM    4  C6  UNL     1       5.520  17.079  33.609  1.00  0.00     0.004 C 
HETATM    5  C7  UNL     1       6.066  17.305  34.985  1.00  0.00     0.038 C 
HETATM    6  C8  UNL     1       7.637  17.310  34.987  1.00  0.00    -0.038 C 
HETATM    7  C9  UNL     1       8.111  18.162  36.041  1.00  0.00     0.075 C 
ENDROOT
BRANCH   7   8
HETATM    8  S1  UNL     1       7.241  19.795  35.967  1.00  0.00    -0.102 SA
BRANCH   8   9
HETATM    9  C10 UNL     1       7.940  21.025  34.912  1.00  0.00     0.007 C 
HETATM   10  C11 UNL     1       8.185  20.324  33.553  1.00  0.00     0.027 C 
HETATM   11  C12 UNL     1       7.137  22.221  34.560  1.00  0.00     0.027 C 
BRANCH   9  12
HETATM   12  C13 UNL     1       9.290  21.366  35.470  1.00  0.00     0.019 C 
BRANCH  12  13
HETATM   13  C14 UNL     1      10.479  21.264  34.629  1.00  0.00    -0.003 C 
HETATM   14  C15 UNL     1      11.165  22.518  34.205  1.00  0.00     0.005 C 
ENDBRANCH  12  13
ENDBRANCH   9  12
ENDBRANCH   8   9
ENDBRANCH   7   8
BRANCH   7  15
HETATM   15  N1  UNL     1       8.414  17.955  37.386  1.00  0.00    -0.350 N 
BRANCH  15  16
HETATM   16  C16 UNL     1       7.430  17.683  38.337  1.00  0.00     0.069 C 
BRANCH  16  17
HETATM   17  C17 UNL     1       7.049  16.235  38.589  1.00  0.00     0.024 C 
HETATM   18  C18 UNL     1       5.691  15.949  38.067  1.00  0.00     0.010 C 
HETATM   19  C19 UNL     1       5.299  14.500  38.101  1.00  0.00     0.001 C 
HETATM   20  C20 UNL     1       6.250  13.825  37.112  1.00  0.00     0.000 C 
HETATM   21  C21 UNL     1       7.581  13.899  37.770  1.00  0.00     0.001 C 
HETATM   22  C22 UNL     1       8.090  15.259  38.089  1.00  0.00     0.010 C 
ENDBRANCH  16  17
ENDBRANCH  15  16
BRANCH  15  23
HETATM   23  C23 UNL     1       9.747  18.220  37.822  1.00  0.00     0.093 C 
HETATM   24  C24 UNL     1       9.976  19.455  38.634  1.00  0.00     0.053 C 
HETATM   25  C25 UNL     1      11.360  19.497  39.246  1.00  0.00     0.234 C 
HETATM   26  N2  UNL     1      12.320  18.720  38.491  1.00  0.00    -0.075 N 
HETATM   27  C26 UNL     1      12.014  19.071  37.116  1.00  0.00     0.234 C 
ATOM     28  H22 UNL     1      13.292  18.866  38.762  1.00  0.00     0.277 HD
ATOM     29  H21 UNL     1      12.307  17.719  38.688  1.00  0.00     0.277 HD
HETATM   30  C27 UNL     1      10.817  18.162  36.760  1.00  0.00     0.053 C 
ENDBRANCH  15  23
ENDBRANCH   7  15
BRANCH   1  31
HETATM   31  C2  UNL     1       9.302  15.403  34.573  1.00  0.00    -0.028 C 
HETATM   32  C1  UNL     1      10.308  15.858  33.841  1.00  0.00     0.007 C 
ENDBRANCH   1  31
TORSDOF 9
ENDMDL
MODEL 4
REMARK VINA RESULT: -7.414989872      8.200     13.050
REMARK  9 active torsions:
REMARK  status: ('A' for Active; 'I' for Inactive)
REMARK    1  A    between atoms: C2_2  and  C3_3 
REMARK    2  A    between atoms: C9_9  and  S1_10 
REMARK    3  A    between atoms: C9_9  and  N1_17 
REMARK    4  A    between atoms: S1_10  and  C10_11 
REMARK    5  A    between atoms: C10_11  and  C13_14 
REMARK    6  A    between atoms: C13_14  and  C14_15 
REMARK    7  A    between atoms: N1_17  and  C16_18 
REMARK    8  A    between atoms: N1_17  and  C23_25 
REMARK    9  A    between atoms: C16_18  and  C17_19 
ROOT
HETATM    1  C3  UNL     1       7.722  15.836  34.563  1.00  0.00     0.039 C 
HETATM    2  C4  UNL     1       7.191  15.560  33.125  1.00  0.00     0.013 C 
HETATM    3  C5  UNL     1       5.694  15.668  33.062  1.00  0.00     0.001 C 
HETATM    4  C6  UNL     1       5.286  17.022  33.610  1.00  0.00     0.004 C 
HETATM    5  C7  UNL     1       5.868  17.254  34.971  1.00  0.00     0.038 C 
HETATM    6  C8  UNL     1       7.437  17.193  34.945  1.00  0.00    -0.038 C 
HETATM    7  C9  UNL     1       7.965  18.047  35.971  1.00  0.00     0.075 C 
ENDROOT
BRANCH   7   8
HETATM    8  S1  UNL     1       7.163  19.713  35.876  1.00  0.00    -0.102 SA
BRANCH   8   9
HETATM    9  C10 UNL     1       7.919  20.905  34.817  1.00  0.00     0.007 C 
HETATM   10  C11 UNL     1       6.949  22.110  34.780  1.00  0.00     0.027 C 
HETATM   11  C12 UNL     1       9.220  21.501  35.207  1.00  0.00     0.027 C 
BRANCH   9  12
HETATM   12  C13 UNL     1       7.931  20.320  33.436  1.00  0.00     0.019 C 
BRANCH  12  13
HETATM   13  C14 UNL     1       9.151  19.723  32.902  1.00  0.00    -0.003 C 
HETATM   14  C15 UNL     1       9.032  18.614  31.912  1.00  0.00     0.005 C 
ENDBRANCH  12  13
ENDBRANCH   9  12
ENDBRANCH   8   9
ENDBRANCH   7   8
BRANCH   7  15
HETATM   15  N1  UNL     1       8.285  17.856  37.314  1.00  0.00    -0.350 N 
BRANCH  15  16
HETATM   16  C16 UNL     1       7.316  17.568  38.276  1.00  0.00     0.069 C 
BRANCH  16  17
HETATM   17  C17 UNL     1       6.976  16.114  38.547  1.00  0.00     0.024 C 
HETATM   18  C18 UNL     1       5.632  15.780  38.016  1.00  0.00     0.010 C 
HETATM   19  C19 UNL     1       5.284  14.320  38.070  1.00  0.00     0.001 C 
HETATM   20  C20 UNL     1       6.264  13.659  37.100  1.00  0.00     0.000 C 
HETATM   21  C21 UNL     1       7.586  13.782  37.770  1.00  0.00     0.001 C 
HETATM   22  C22 UNL     1       8.051  15.162  38.072  1.00  0.00     0.010 C 
ENDBRANCH  16  17
ENDBRANCH  15  16
BRANCH  15  23
HETATM   23  C23 UNL     1       9.615  18.154  37.736  1.00  0.00     0.093 C 
HETATM   24  C24 UNL     1       9.816  19.370  38.584  1.00  0.00     0.053 C 
HETATM   25  C25 UNL     1      11.208  19.441  39.174  1.00  0.00     0.234 C 
HETATM   26  N2  UNL     1      12.181  18.723  38.378  1.00  0.00    -0.075 N 
HETATM   27  C26 UNL     1      11.839  19.107  37.021  1.00  0.00     0.234 C 
ATOM     28  H22 UNL     1      13.153  18.894  38.637  1.00  0.00     0.277 HD
ATOM     29  H21 UNL     1      12.207  17.717  38.542  1.00  0.00     0.277 HD
HETATM   30  C27 UNL     1      10.668  18.168  36.655  1.00  0.00     0.053 C 
ENDBRANCH  15  23
ENDBRANCH   7  15
BRANCH   1  31
HETATM   31  C2  UNL     1       9.013  15.210  34.542  1.00  0.00    -0.028 C 
HETATM   32  C1  UNL     1      10.072  15.704  33.919  1.00  0.00     0.007 C 
ENDBRANCH   1  31
TORSDOF 9
ENDMDL
MODEL 5
REMARK VINA RESULT: -7.366435986      9.161     12.029
REMARK  9 active torsions:
REMARK  status: ('A' for Active; 'I' for Inactive)
REMARK    1  A    between atoms: C2_2  and  C3_3 
REMARK    2  A    between atoms: C9_9  and  S1_10 
REMARK    3  A    between atoms: C9_9  and  N1_17 
REMARK    4  A    between atoms: S1_10  and  C10_11 
REMARK    5  A    between atoms: C10_11  and  C13_14 
REMARK    6  A    between atoms: C13_14  and  C14_15 
REMARK    7  A    between atoms: N1_17  and  C16_18 
REMARK    8  A    between atoms: N1_17  and  C23_25 
REMARK    9  A    between atoms: C16_18  and  C17_19 
ROOT
HETATM    1  C3  UNL     1       7.332  18.570  34.860  1.00  0.00     0.039 C 
HETATM    2  C4  UNL     1       6.228  19.019  33.856  1.00  0.00     0.013 C 
HETATM    3  C5  UNL     1       5.493  20.230  34.355  1.00  0.00     0.001 C 
HETATM    4  C6  UNL     1       6.506  21.314  34.668  1.00  0.00     0.004 C 
HETATM    5  C7  UNL     1       7.571  20.811  35.594  1.00  0.00     0.038 C 
HETATM    6  C8  UNL     1       8.341  19.588  34.975  1.00  0.00    -0.038 C 
HETATM    7  C9  UNL     1       9.688  19.572  35.472  1.00  0.00     0.075 C 
ENDROOT
BRANCH   7   8
HETATM    8  S1  UNL     1      10.444  21.252  35.290  1.00  0.00    -0.102 SA
BRANCH   8   9
HETATM    9  C10 UNL     1      11.602  21.469  33.975  1.00  0.00     0.007 C 
HETATM   10  C11 UNL     1      11.755  23.000  33.798  1.00  0.00     0.027 C 
HETATM   11  C12 UNL     1      12.993  20.985  34.146  1.00  0.00     0.027 C 
BRANCH   9  12
HETATM   12  C13 UNL     1      10.949  20.955  32.727  1.00  0.00     0.019 C 
BRANCH  12  13
HETATM   13  C14 UNL     1       9.758  21.610  32.198  1.00  0.00    -0.003 C 
HETATM   14  C15 UNL     1       8.701  20.770  31.564  1.00  0.00     0.005 C 
ENDBRANCH  12  13
ENDBRANCH   9  12
ENDBRANCH   8   9
ENDBRANCH   7   8
BRANCH   7  15
HETATM   15  N1  UNL     1      10.298  19.000  36.587  1.00  0.00    -0.350 N 
BRANCH  15  16
HETATM   16  C16 UNL     1      10.019  19.425  37.887  1.00  0.00     0.069 C 
BRANCH  16  17
HETATM   17  C17 UNL     1       8.893  18.745  38.644  1.00  0.00     0.024 C 
HETATM   18  C18 UNL     1       7.677  19.594  38.655  1.00  0.00     0.010 C 
HETATM   19  C19 UNL     1       6.454  18.929  39.217  1.00  0.00     0.001 C 
HETATM   20  C20 UNL     1       6.141  17.808  38.226  1.00  0.00     0.000 C 
HETATM   21  C21 UNL     1       7.249  16.833  38.407  1.00  0.00     0.001 C 
HETATM   22  C22 UNL     1       8.625  17.338  38.157  1.00  0.00     0.010 C 
ENDBRANCH  16  17
ENDBRANCH  15  16
BRANCH  15  23
HETATM   23  C23 UNL     1      11.374  18.089  36.370  1.00  0.00     0.093 C 
HETATM   24  C24 UNL     1      12.729  18.491  36.862  1.00  0.00     0.053 C 
HETATM   25  C25 UNL     1      13.726  17.353  36.805  1.00  0.00     0.234 C 
HETATM   26  N2  UNL     1      13.384  16.370  35.799  1.00  0.00    -0.075 N 
HETATM   27  C26 UNL     1      12.998  17.188  34.663  1.00  0.00     0.234 C 
ATOM     28  H22 UNL     1      14.116  15.688  35.603  1.00  0.00     0.277 HD
ATOM     29  H21 UNL     1      12.683  15.688  36.089  1.00  0.00     0.277 HD
HETATM   30  C27 UNL     1      11.532  17.569  34.962  1.00  0.00     0.053 C 
ENDBRANCH  15  23
ENDBRANCH   7  15
BRANCH   1  31
HETATM   31  C2  UNL     1       7.544  17.198  34.493  1.00  0.00    -0.028 C 
HETATM   32  C1  UNL     1       6.716  16.210  34.793  1.00  0.00     0.007 C 
ENDBRANCH   1  31
TORSDOF 9
ENDMDL
