MODEL 1
REMARK VINA RESULT: -5.156833587      0.000      0.000
REMARK  1 active torsions:
REMARK  status: ('A' for Active; 'I' for Inactive)
REMARK    1  A    between atoms: C2_2  and  C3_3 
ROOT
HETATM    1  C3  UNL     1       6.388  -6.514  29.847  1.00  0.00     0.152 C 
HETATM    2  C4  UNL     1       5.528  -6.599  28.578  1.00  0.00     0.035 C 
HETATM    3  C5  UNL     1       5.161  -5.139  28.287  1.00  0.00     0.008 C 
HETATM    4  C6  UNL     1       6.400  -4.305  28.313  1.00  0.00     0.046 C 
HETATM    5  C7  UNL     1       6.822  -3.807  29.630  1.00  0.00     0.087 C 
HETATM    6  N1  UNL     1       6.322  -4.440  30.781  1.00  0.00    -0.281 N 
ATOM      7  H1  UNL     1       6.403  -3.996  31.696  1.00  0.00     0.193 HD
HETATM    8  O1  UNL     1       5.750  -5.612  30.656  1.00  0.00    -0.276 OA
ENDROOT
BRANCH   1   9
HETATM    9  C2  UNL     1       6.379  -7.856  30.503  1.00  0.00     0.030 C 
HETATM   10  C1  UNL     1       7.403  -8.811  29.968  1.00  0.00     0.007 C 
ENDBRANCH   1   9
TORSDOF 1
ENDMDL
MODEL 2
REMARK VINA RESULT: -4.980467581      1.697      3.573
REMARK  1 active torsions:
REMARK  status: ('A' for Active; 'I' for Inactive)
REMARK    1  A    between atoms: C2_2  and  C3_3 
ROOT
HETATM    1  C3  UNL     1       6.383  -4.011  28.972  1.00  0.00     0.152 C 
HETATM    2  C4  UNL     1       5.946  -4.369  27.544  1.00  0.00     0.035 C 
HETATM    3  C5  UNL     1       5.576  -5.855  27.635  1.00  0.00     0.008 C 
HETATM    4  C6  UNL     1       4.651  -6.060  28.789  1.00  0.00     0.046 C 
HETATM    5  C7  UNL     1       5.280  -6.264  30.102  1.00  0.00     0.087 C 
HETATM    6  N1  UNL     1       6.616  -5.861  30.277  1.00  0.00    -0.281 N 
ATOM      7  H1  UNL     1       7.154  -6.183  31.081  1.00  0.00     0.193 HD
HETATM    8  O1  UNL     1       7.154  -5.065  29.387  1.00  0.00    -0.276 OA
ENDROOT
BRANCH   1   9
HETATM    9  C2  UNL     1       7.226  -2.781  28.903  1.00  0.00     0.030 C 
HETATM   10  C1  UNL     1       7.289  -2.151  27.544  1.00  0.00     0.007 C 
ENDBRANCH   1   9
TORSDOF 1
ENDMDL
MODEL 3
REMARK VINA RESULT: -4.696080279      1.862      2.644
REMARK  1 active torsions:
REMARK  status: ('A' for Active; 'I' for Inactive)
REMARK    1  A    between atoms: C2_2  and  C3_3 
ROOT
HETATM    1  C3  UNL     1       5.919  -4.751  28.771  1.00  0.00     0.152 C 
HETATM    2  C4  UNL     1       5.729  -4.689  30.293  1.00  0.00     0.035 C 
HETATM    3  C5  UNL     1       6.433  -3.388  30.697  1.00  0.00     0.008 C 
HETATM    4  C6  UNL     1       5.951  -2.276  29.823  1.00  0.00     0.046 C 
HETATM    5  C7  UNL     1       6.647  -2.108  28.540  1.00  0.00     0.087 C 
HETATM    6  N1  UNL     1       7.397  -3.185  28.035  1.00  0.00    -0.281 N 
ATOM      7  H1  UNL     1       8.068  -3.042  27.280  1.00  0.00     0.193 HD
HETATM    8  O1  UNL     1       7.219  -4.374  28.554  1.00  0.00    -0.276 OA
ENDROOT
BRANCH   1   9
HETATM    9  C2  UNL     1       5.740  -6.169  28.340  1.00  0.00     0.030 C 
HETATM   10  C1  UNL     1       6.333  -7.178  29.277  1.00  0.00     0.007 C 
ENDBRANCH   1   9
TORSDOF 1
ENDMDL
MODEL 4
REMARK VINA RESULT: -4.688780725      1.302      1.622
REMARK  1 active torsions:
REMARK  status: ('A' for Active; 'I' for Inactive)
REMARK    1  A    between atoms: C2_2  and  C3_3 
ROOT
HETATM    1  C3  UNL     1       5.648  -5.530  29.182  1.00  0.00     0.152 C 
HETATM    2  C4  UNL     1       4.191  -5.332  28.739  1.00  0.00     0.035 C 
HETATM    3  C5  UNL     1       3.717  -4.130  29.567  1.00  0.00     0.008 C 
HETATM    4  C6  UNL     1       4.711  -3.022  29.437  1.00  0.00     0.046 C 
HETATM    5  C7  UNL     1       5.849  -3.056  30.366  1.00  0.00     0.087 C 
HETATM    6  N1  UNL     1       6.161  -4.269  31.005  1.00  0.00    -0.281 N 
ATOM      7  H1  UNL     1       6.784  -4.286  31.813  1.00  0.00     0.193 HD
HETATM    8  O1  UNL     1       5.635  -5.376  30.544  1.00  0.00    -0.276 OA
ENDROOT
BRANCH   1   9
HETATM    9  C2  UNL     1       6.045  -6.930  28.850  1.00  0.00     0.030 C 
HETATM   10  C1  UNL     1       6.630  -7.695  29.999  1.00  0.00     0.007 C 
ENDBRANCH   1   9
TORSDOF 1
ENDMDL
MODEL 5
REMARK VINA RESULT: -4.672216911      1.657      3.332
REMARK  1 active torsions:
REMARK  status: ('A' for Active; 'I' for Inactive)
REMARK    1  A    between atoms: C2_2  and  C3_3 
ROOT
HETATM    1  C3  UNL     1       6.395  -4.053  29.446  1.00  0.00     0.152 C 
HETATM    2  C4  UNL     1       6.047  -3.982  27.951  1.00  0.00     0.035 C 
HETATM    3  C5  UNL     1       5.654  -5.422  27.599  1.00  0.00     0.008 C 
HETATM    4  C6  UNL     1       4.653  -5.916  28.592  1.00  0.00     0.046 C 
HETATM    5  C7  UNL     1       5.194  -6.498  29.828  1.00  0.00     0.087 C 
HETATM    6  N1  UNL     1       6.520  -6.201  30.188  1.00  0.00    -0.281 N 
ATOM      7  H1  UNL     1       7.001  -6.751  30.899  1.00  0.00     0.193 HD
HETATM    8  O1  UNL     1       7.125  -5.203  29.592  1.00  0.00    -0.276 OA
ENDROOT
BRANCH   1   9
HETATM    9  C2  UNL     1       7.255  -2.879  29.776  1.00  0.00     0.030 C 
HETATM   10  C1  UNL     1       7.760  -2.862  31.188  1.00  0.00     0.007 C 
ENDBRANCH   1   9
TORSDOF 1
ENDMDL
