MODEL 1
REMARK VINA RESULT: -9.808550209      0.000      0.000
REMARK  13 active torsions:
REMARK  status: ('A' for Active; 'I' for Inactive)
REMARK    1  A    between atoms: C4_5  and  C5_6 
REMARK    2  A    between atoms: C5_6  and  C6_8 
REMARK    3  A    between atoms: C6_8  and  O2_9 
REMARK    4  A    between atoms: C6_8  and  N2_11 
REMARK    5  A    between atoms: N2_11  and  C7_14 
REMARK    6  A    between atoms: C7_14  and  C8_15 
REMARK    7  A    between atoms: C7_14  and  C14_21 
REMARK    8  A    between atoms: C8_15  and  C9_16 
REMARK    9  A    between atoms: C14_21  and  C15_23 
REMARK   10  A    between atoms: C20_28  and  C21_29 
REMARK       I    between atoms: C21_29  and  N3_31 
REMARK   11  A    between atoms: N3_31  and  C22_33 
REMARK   12  A    between atoms: C26_40  and  C27_41 
REMARK   13  A    between atoms: C27_41  and  C28_42 
ROOT
HETATM    1  N2  UNL     1      20.139  -5.454  13.823  1.00  0.00    -0.031 N 
ATOM      2  H21 UNL     1      20.606  -5.983  13.087  1.00  0.00     0.281 HD
ATOM      3  H22 UNL     1      20.104  -4.546  13.359  1.00  0.00     0.281 HD
ENDROOT
BRANCH   1   4
HETATM    4  C6  UNL     1      20.927  -5.408  15.036  1.00  0.00     0.392 C 
BRANCH   4   5
HETATM    5  C5  UNL     1      21.637  -4.088  15.065  1.00  0.00     0.213 C 
HETATM    6  O1  UNL     1      22.496  -3.905  14.231  1.00  0.00    -0.291 OA
BRANCH   5   7
HETATM    7  C4  UNL     1      21.292  -3.048  16.082  1.00  0.00     0.262 C 
HETATM    8  C3  UNL     1      20.576  -3.614  17.258  1.00  0.00     0.061 C 
HETATM    9  C2  UNL     1      19.415  -2.722  17.637  1.00  0.00     0.128 C 
HETATM   10  N1  UNL     1      19.733  -1.324  17.310  1.00  0.00    -0.355 N 
HETATM   11  C1  UNL     1      18.677  -0.359  17.219  1.00  0.00     0.152 C 
HETATM   12  C32 UNL     1      21.047  -0.788  17.046  1.00  0.00     0.250 C 
HETATM   13  C26 UNL     1      22.274  -1.452  17.582  1.00  0.00     0.278 C 
HETATM   14  O5  UNL     1      21.122   0.233  16.358  1.00  0.00    -0.271 OA
HETATM   15  N4  UNL     1      22.557  -2.460  16.534  1.00  0.00    -0.051 N 
ATOM     16  H42 UNL     1      23.224  -3.167  16.845  1.00  0.00     0.279 HD
ATOM     17  H41 UNL     1      23.104  -2.077  15.764  1.00  0.00     0.279 HD
BRANCH  13  18
HETATM   18  C27 UNL     1      23.462  -0.566  17.683  1.00  0.00     0.051 C 
BRANCH  18  19
HETATM   19  C28 UNL     1      23.730   0.111  18.970  1.00  0.00    -0.049 C 
HETATM   20  C29 UNL     1      22.937  -0.515  20.119  1.00  0.00     0.014 C 
HETATM   21  C30 UNL     1      23.634   1.591  19.058  1.00  0.00     0.014 C 
HETATM   22  C31 UNL     1      25.215  -0.206  19.315  1.00  0.00     0.014 C 
ENDBRANCH  18  19
ENDBRANCH  13  18
ENDBRANCH   5   7
ENDBRANCH   4   5
BRANCH   4  23
HETATM   23  O2  UNL     1      21.851  -6.457  15.085  1.00  0.00    -0.364 OA
ATOM     24  H2  UNL     1      21.875  -6.913  14.252  1.00  0.00     0.212 HD
ENDBRANCH   4  23
ENDBRANCH   1   4
BRANCH   1  25
HETATM   25  C7  UNL     1      18.762  -5.989  14.111  1.00  0.00     0.259 C 
BRANCH  25  26
HETATM   26  C8  UNL     1      17.974  -4.729  14.305  1.00  0.00     0.045 C 
BRANCH  26  27
HETATM   27  C9  UNL     1      17.311  -4.513  15.610  1.00  0.00    -0.012 C 
HETATM   28  C10 UNL     1      16.226  -5.599  15.804  1.00  0.00     0.005 C 
HETATM   29  C11 UNL     1      14.917  -4.968  15.479  1.00  0.00     0.000 C 
HETATM   30  C12 UNL     1      15.176  -3.614  14.909  1.00  0.00     0.000 C 
HETATM   31  C13 UNL     1      16.464  -3.233  15.622  1.00  0.00     0.005 C 
ENDBRANCH  26  27
ENDBRANCH  25  26
BRANCH  25  32
HETATM   32  C14 UNL     1      18.430  -6.735  12.873  1.00  0.00     0.162 C 
HETATM   33  O3  UNL     1      19.231  -6.507  11.939  1.00  0.00    -0.295 OA
BRANCH  32  34
HETATM   34  C15 UNL     1      17.341  -7.670  12.623  1.00  0.00     0.070 C 
HETATM   35  C16 UNL     1      16.013  -7.031  12.515  1.00  0.00     0.013 C 
HETATM   36  C17 UNL     1      14.882  -7.998  12.263  1.00  0.00     0.001 C 
HETATM   37  C18 UNL     1      15.414  -9.429  12.136  1.00  0.00     0.001 C 
HETATM   38  C19 UNL     1      16.132  -9.730  13.405  1.00  0.00     0.015 C 
HETATM   39  C20 UNL     1      17.367  -8.907  13.496  1.00  0.00     0.089 C 
BRANCH  39  40
HETATM   40  C21 UNL     1      18.603  -9.700  13.269  1.00  0.00     0.223 C 
HETATM   41  O4  UNL     1      19.013 -10.026  12.126  1.00  0.00    -0.273 OA
HETATM   42  N3  UNL     1      19.401 -10.138  14.382  1.00  0.00    -0.353 N 
ATOM     43  H3  UNL     1      19.099  -9.896  15.326  1.00  0.00     0.163 HD
BRANCH  42  44
HETATM   44  C22 UNL     1      20.608 -10.906  14.217  1.00  0.00     0.022 C 
HETATM   45  C23 UNL     1      21.759  -9.914  14.060  1.00  0.00     0.037 C 
HETATM   46  C24 UNL     1      20.804 -11.779  15.427  1.00  0.00     0.037 C 
HETATM   47  C25 UNL     1      20.543 -11.786  12.979  1.00  0.00     0.037 C 
ENDBRANCH  42  44
ENDBRANCH  39  40
ENDBRANCH  32  34
ENDBRANCH  25  32
ENDBRANCH   1  25
TORSDOF 13
ENDMDL
MODEL 2
REMARK VINA RESULT: -9.259840132      2.188      4.822
REMARK  13 active torsions:
REMARK  status: ('A' for Active; 'I' for Inactive)
REMARK    1  A    between atoms: C4_5  and  C5_6 
REMARK    2  A    between atoms: C5_6  and  C6_8 
REMARK    3  A    between atoms: C6_8  and  O2_9 
REMARK    4  A    between atoms: C6_8  and  N2_11 
REMARK    5  A    between atoms: N2_11  and  C7_14 
REMARK    6  A    between atoms: C7_14  and  C8_15 
REMARK    7  A    between atoms: C7_14  and  C14_21 
REMARK    8  A    between atoms: C8_15  and  C9_16 
REMARK    9  A    between atoms: C14_21  and  C15_23 
REMARK   10  A    between atoms: C20_28  and  C21_29 
REMARK       I    between atoms: C21_29  and  N3_31 
REMARK   11  A    between atoms: N3_31  and  C22_33 
REMARK   12  A    between atoms: C26_40  and  C27_41 
REMARK   13  A    between atoms: C27_41  and  C28_42 
ROOT
HETATM    1  N2  UNL     1      20.143  -2.230  16.472  1.00  0.00    -0.031 N 
ATOM      2  H21 UNL     1      19.176  -2.222  16.796  1.00  0.00     0.281 HD
ATOM      3  H22 UNL     1      20.600  -2.438  17.360  1.00  0.00     0.281 HD
ENDROOT
BRANCH   1   4
HETATM    4  C6  UNL     1      20.546  -0.943  15.948  1.00  0.00     0.392 C 
BRANCH   4   5
HETATM    5  C5  UNL     1      19.692   0.100  16.604  1.00  0.00     0.213 C 
HETATM    6  O1  UNL     1      18.745   0.516  15.972  1.00  0.00    -0.291 OA
BRANCH   5   7
HETATM    7  C4  UNL     1      20.002   0.599  17.978  1.00  0.00     0.262 C 
HETATM    8  C3  UNL     1      19.500  -0.312  19.043  1.00  0.00     0.061 C 
HETATM    9  C2  UNL     1      18.847   0.490  20.146  1.00  0.00     0.128 C 
HETATM   10  N1  UNL     1      19.497   1.804  20.259  1.00  0.00    -0.355 N 
HETATM   11  C1  UNL     1      18.830   2.869  20.951  1.00  0.00     0.152 C 
HETATM   12  C32 UNL     1      20.784   2.169  19.717  1.00  0.00     0.250 C 
HETATM   13  C26 UNL     1      21.827   1.133  19.443  1.00  0.00     0.278 C 
HETATM   14  O5  UNL     1      20.991   3.362  19.482  1.00  0.00    -0.271 OA
HETATM   15  N4  UNL     1      21.463   0.687  18.078  1.00  0.00    -0.051 N 
ATOM     16  H42 UNL     1      21.923  -0.185  17.820  1.00  0.00     0.279 HD
ATOM     17  H41 UNL     1      21.866   1.282  17.355  1.00  0.00     0.279 HD
BRANCH  13  18
HETATM   18  C27 UNL     1      23.217   1.657  19.387  1.00  0.00     0.051 C 
BRANCH  18  19
HETATM   19  C28 UNL     1      24.315   0.796  19.873  1.00  0.00    -0.049 C 
HETATM   20  C29 UNL     1      24.912  -0.055  18.751  1.00  0.00     0.014 C 
HETATM   21  C30 UNL     1      24.108  -0.054  21.075  1.00  0.00     0.014 C 
HETATM   22  C31 UNL     1      25.468   1.764  20.272  1.00  0.00     0.014 C 
ENDBRANCH  18  19
ENDBRANCH  13  18
ENDBRANCH   5   7
ENDBRANCH   4   5
BRANCH   4  23
HETATM   23  O2  UNL     1      20.398  -0.888  14.558  1.00  0.00    -0.364 OA
ATOM     24  H2  UNL     1      21.240  -0.990  14.133  1.00  0.00     0.212 HD
ENDBRANCH   4  23
ENDBRANCH   1   4
BRANCH   1  25
HETATM   25  C7  UNL     1      20.383  -3.311  15.453  1.00  0.00     0.259 C 
BRANCH  25  26
HETATM   26  C8  UNL     1      21.689  -3.887  15.914  1.00  0.00     0.045 C 
BRANCH  26  27
HETATM   27  C9  UNL     1      22.824  -3.893  14.964  1.00  0.00    -0.012 C 
HETATM   28  C10 UNL     1      22.269  -4.023  13.525  1.00  0.00     0.005 C 
HETATM   29  C11 UNL     1      22.435  -5.448  13.123  1.00  0.00     0.000 C 
HETATM   30  C12 UNL     1      22.881  -6.225  14.317  1.00  0.00     0.000 C 
HETATM   31  C13 UNL     1      23.666  -5.171  15.081  1.00  0.00     0.005 C 
ENDBRANCH  26  27
ENDBRANCH  25  26
BRANCH  25  32
HETATM   32  C14 UNL     1      19.219  -4.210  15.640  1.00  0.00     0.162 C 
HETATM   33  O3  UNL     1      19.549  -5.368  15.979  1.00  0.00    -0.295 OA
BRANCH  32  34
HETATM   34  C15 UNL     1      17.798  -3.922  15.495  1.00  0.00     0.070 C 
HETATM   35  C16 UNL     1      17.326  -2.793  16.323  1.00  0.00     0.013 C 
HETATM   36  C17 UNL     1      15.853  -2.496  16.180  1.00  0.00     0.001 C 
HETATM   37  C18 UNL     1      15.211  -3.435  15.155  1.00  0.00     0.001 C 
HETATM   38  C19 UNL     1      15.457  -4.823  15.637  1.00  0.00     0.015 C 
HETATM   39  C20 UNL     1      16.905  -5.143  15.542  1.00  0.00     0.089 C 
BRANCH  39  40
HETATM   40  C21 UNL     1      17.215  -6.079  14.430  1.00  0.00     0.223 C 
HETATM   41  O4  UNL     1      17.468  -5.700  13.260  1.00  0.00    -0.273 OA
HETATM   42  N3  UNL     1      17.235  -7.499  14.660  1.00  0.00    -0.353 N 
ATOM     43  H3  UNL     1      17.032  -7.847  15.597  1.00  0.00     0.163 HD
BRANCH  42  44
HETATM   44  C22 UNL     1      17.532  -8.449  13.617  1.00  0.00     0.022 C 
HETATM   45  C23 UNL     1      18.993  -8.244  13.220  1.00  0.00     0.037 C 
HETATM   46  C24 UNL     1      17.301  -9.841  14.142  1.00  0.00     0.037 C 
HETATM   47  C25 UNL     1      16.653  -8.228  12.397  1.00  0.00     0.037 C 
ENDBRANCH  42  44
ENDBRANCH  39  40
ENDBRANCH  32  34
ENDBRANCH  25  32
ENDBRANCH   1  25
TORSDOF 13
ENDMDL
MODEL 3
REMARK VINA RESULT: -9.256926179      2.126      8.874
REMARK  13 active torsions:
REMARK  status: ('A' for Active; 'I' for Inactive)
REMARK    1  A    between atoms: C4_5  and  C5_6 
REMARK    2  A    between atoms: C5_6  and  C6_8 
REMARK    3  A    between atoms: C6_8  and  O2_9 
REMARK    4  A    between atoms: C6_8  and  N2_11 
REMARK    5  A    between atoms: N2_11  and  C7_14 
REMARK    6  A    between atoms: C7_14  and  C8_15 
REMARK    7  A    between atoms: C7_14  and  C14_21 
REMARK    8  A    between atoms: C8_15  and  C9_16 
REMARK    9  A    between atoms: C14_21  and  C15_23 
REMARK   10  A    between atoms: C20_28  and  C21_29 
REMARK       I    between atoms: C21_29  and  N3_31 
REMARK   11  A    between atoms: N3_31  and  C22_33 
REMARK   12  A    between atoms: C26_40  and  C27_41 
REMARK   13  A    between atoms: C27_41  and  C28_42 
ROOT
HETATM    1  N2  UNL     1      19.792  -0.945  15.814  1.00  0.00    -0.031 N 
ATOM      2  H21 UNL     1      19.891  -0.006  15.427  1.00  0.00     0.281 HD
ATOM      3  H22 UNL     1      20.587  -0.930  16.453  1.00  0.00     0.281 HD
ENDROOT
BRANCH   1   4
HETATM    4  C6  UNL     1      19.938  -1.964  14.797  1.00  0.00     0.392 C 
BRANCH   4   5
HETATM    5  C5  UNL     1      21.069  -2.858  15.212  1.00  0.00     0.213 C 
HETATM    6  O1  UNL     1      21.985  -2.345  15.815  1.00  0.00    -0.291 OA
BRANCH   5   7
HETATM    7  C4  UNL     1      21.056  -4.318  14.891  1.00  0.00     0.262 C 
HETATM    8  C3  UNL     1      21.259  -5.169  16.096  1.00  0.00     0.061 C 
HETATM    9  C2  UNL     1      22.233  -6.283  15.785  1.00  0.00     0.128 C 
HETATM   10  N1  UNL     1      22.119  -6.665  14.370  1.00  0.00    -0.355 N 
HETATM   11  C1  UNL     1      23.174  -7.412  13.749  1.00  0.00     0.152 C 
HETATM   12  C32 UNL     1      21.022  -6.349  13.487  1.00  0.00     0.250 C 
HETATM   13  C26 UNL     1      19.656  -6.065  14.024  1.00  0.00     0.278 C 
HETATM   14  O5  UNL     1      21.251  -6.316  12.275  1.00  0.00    -0.271 OA
HETATM   15  N4  UNL     1      19.739  -4.615  14.317  1.00  0.00    -0.051 N 
ATOM     16  H42 UNL     1      18.975  -4.294  14.911  1.00  0.00     0.279 HD
ATOM     17  H41 UNL     1      19.535  -4.041  13.499  1.00  0.00     0.279 HD
BRANCH  13  18
HETATM   18  C27 UNL     1      18.555  -6.261  13.046  1.00  0.00     0.051 C 
BRANCH  18  19
HETATM   19  C28 UNL     1      17.601  -7.368  13.271  1.00  0.00    -0.049 C 
HETATM   20  C29 UNL     1      16.338  -7.214  12.422  1.00  0.00     0.014 C 
HETATM   21  C30 UNL     1      17.217  -7.739  14.658  1.00  0.00     0.014 C 
HETATM   22  C31 UNL     1      18.290  -8.644  12.702  1.00  0.00     0.014 C 
ENDBRANCH  18  19
ENDBRANCH  13  18
ENDBRANCH   5   7
ENDBRANCH   4   5
BRANCH   4  23
HETATM   23  O2  UNL     1      20.199  -1.403  13.543  1.00  0.00    -0.364 OA
ATOM     24  H2  UNL     1      20.042  -2.041  12.858  1.00  0.00     0.212 HD
ENDBRANCH   4  23
ENDBRANCH   1   4
BRANCH   1  25
HETATM   25  C7  UNL     1      18.488  -1.114  16.545  1.00  0.00     0.259 C 
BRANCH  25  26
HETATM   26  C8  UNL     1      17.943  -2.364  15.920  1.00  0.00     0.045 C 
BRANCH  26  27
HETATM   27  C9  UNL     1      16.812  -3.045  16.590  1.00  0.00    -0.012 C 
HETATM   28  C10 UNL     1      16.820  -4.538  16.184  1.00  0.00     0.005 C 
HETATM   29  C11 UNL     1      15.783  -4.706  15.128  1.00  0.00     0.000 C 
HETATM   30  C12 UNL     1      15.287  -3.354  14.737  1.00  0.00     0.000 C 
HETATM   31  C13 UNL     1      15.456  -2.587  16.038  1.00  0.00     0.005 C 
ENDBRANCH  26  27
ENDBRANCH  25  26
BRANCH  25  32
HETATM   32  C14 UNL     1      18.915  -1.272  17.956  1.00  0.00     0.162 C 
HETATM   33  O3  UNL     1      19.463  -2.375  18.177  1.00  0.00    -0.295 OA
BRANCH  32  34
HETATM   34  C15 UNL     1      18.791  -0.338  19.067  1.00  0.00     0.070 C 
HETATM   35  C16 UNL     1      17.416  -0.206  19.591  1.00  0.00     0.013 C 
HETATM   36  C17 UNL     1      17.284   0.766  20.739  1.00  0.00     0.001 C 
HETATM   37  C18 UNL     1      18.650   1.352  21.109  1.00  0.00     0.001 C 
HETATM   38  C19 UNL     1      19.179   2.008  19.880  1.00  0.00     0.015 C 
HETATM   39  C20 UNL     1      19.507   0.979  18.859  1.00  0.00     0.089 C 
BRANCH  39  40
HETATM   40  C21 UNL     1      20.970   0.777  18.698  1.00  0.00     0.223 C 
HETATM   41  O4  UNL     1      21.530   0.647  17.580  1.00  0.00    -0.273 OA
HETATM   42  N3  UNL     1      21.828   0.720  19.851  1.00  0.00    -0.353 N 
ATOM     43  H3  UNL     1      21.410   0.819  20.777  1.00  0.00     0.163 HD
BRANCH  42  44
HETATM   44  C22 UNL     1      23.252   0.529  19.750  1.00  0.00     0.022 C 
HETATM   45  C23 UNL     1      23.880   1.905  19.538  1.00  0.00     0.037 C 
HETATM   46  C24 UNL     1      23.753  -0.109  21.018  1.00  0.00     0.037 C 
HETATM   47  C25 UNL     1      23.611  -0.365  18.574  1.00  0.00     0.037 C 
ENDBRANCH  42  44
ENDBRANCH  39  40
ENDBRANCH  32  34
ENDBRANCH  25  32
ENDBRANCH   1  25
TORSDOF 13
ENDMDL
MODEL 4
REMARK VINA RESULT: -9.104258940      1.972      3.885
REMARK  13 active torsions:
REMARK  status: ('A' for Active; 'I' for Inactive)
REMARK    1  A    between atoms: C4_5  and  C5_6 
REMARK    2  A    between atoms: C5_6  and  C6_8 
REMARK    3  A    between atoms: C6_8  and  O2_9 
REMARK    4  A    between atoms: C6_8  and  N2_11 
REMARK    5  A    between atoms: N2_11  and  C7_14 
REMARK    6  A    between atoms: C7_14  and  C8_15 
REMARK    7  A    between atoms: C7_14  and  C14_21 
REMARK    8  A    between atoms: C8_15  and  C9_16 
REMARK    9  A    between atoms: C14_21  and  C15_23 
REMARK   10  A    between atoms: C20_28  and  C21_29 
REMARK       I    between atoms: C21_29  and  N3_31 
REMARK   11  A    between atoms: N3_31  and  C22_33 
REMARK   12  A    between atoms: C26_40  and  C27_41 
REMARK   13  A    between atoms: C27_41  and  C28_42 
ROOT
HETATM    1  N2  UNL     1      19.563  -3.346  15.088  1.00  0.00    -0.031 N 
ATOM      2  H21 UNL     1      18.777  -2.698  15.147  1.00  0.00     0.281 HD
ATOM      3  H22 UNL     1      19.687  -3.526  16.084  1.00  0.00     0.281 HD
ENDROOT
BRANCH   1   4
HETATM    4  C6  UNL     1      20.732  -2.724  14.503  1.00  0.00     0.392 C 
BRANCH   4   5
HETATM    5  C5  UNL     1      21.750  -2.562  15.592  1.00  0.00     0.213 C 
HETATM    6  O1  UNL     1      22.860  -2.996  15.379  1.00  0.00    -0.291 OA
BRANCH   5   7
HETATM    7  C4  UNL     1      21.401  -1.890  16.881  1.00  0.00     0.262 C 
HETATM    8  C3  UNL     1      21.125  -2.861  17.975  1.00  0.00     0.061 C 
HETATM    9  C2  UNL     1      19.898  -2.434  18.750  1.00  0.00     0.128 C 
HETATM   10  N1  UNL     1      19.788  -0.968  18.741  1.00  0.00    -0.355 N 
HETATM   11  C1  UNL     1      18.537  -0.348  19.069  1.00  0.00     0.152 C 
HETATM   12  C32 UNL     1      20.840  -0.035  18.412  1.00  0.00     0.250 C 
HETATM   13  C26 UNL     1      22.279  -0.414  18.557  1.00  0.00     0.278 C 
HETATM   14  O5  UNL     1      20.511   1.081  18.003  1.00  0.00    -0.271 OA
HETATM   15  N4  UNL     1      22.555  -1.067  17.257  1.00  0.00    -0.051 N 
ATOM     16  H42 UNL     1      23.424  -1.599  17.267  1.00  0.00     0.279 HD
ATOM     17  H41 UNL     1      22.806  -0.396  16.530  1.00  0.00     0.279 HD
BRANCH  13  18
HETATM   18  C27 UNL     1      23.210   0.738  18.686  1.00  0.00     0.051 C 
BRANCH  18  19
HETATM   19  C28 UNL     1      24.459   0.552  19.453  1.00  0.00    -0.049 C 
HETATM   20  C29 UNL     1      25.114   1.888  19.809  1.00  0.00     0.014 C 
HETATM   21  C30 UNL     1      25.499  -0.385  18.952  1.00  0.00     0.014 C 
HETATM   22  C31 UNL     1      24.029  -0.039  20.828  1.00  0.00     0.014 C 
ENDBRANCH  18  19
ENDBRANCH  13  18
ENDBRANCH   5   7
ENDBRANCH   4   5
BRANCH   4  23
HETATM   23  O2  UNL     1      20.422  -1.481  13.941  1.00  0.00    -0.364 OA
ATOM     24  H2  UNL     1      20.159  -1.587  13.034  1.00  0.00     0.212 HD
ENDBRANCH   4  23
ENDBRANCH   1   4
BRANCH   1  25
HETATM   25  C7  UNL     1      19.201  -4.597  14.333  1.00  0.00     0.259 C 
BRANCH  25  26
HETATM   26  C8  UNL     1      20.378  -5.482  14.619  1.00  0.00     0.045 C 
BRANCH  26  27
HETATM   27  C9  UNL     1      20.854  -6.380  13.543  1.00  0.00    -0.012 C 
HETATM   28  C10 UNL     1      21.589  -7.581  14.186  1.00  0.00     0.005 C 
HETATM   29  C11 UNL     1      23.049  -7.310  14.067  1.00  0.00     0.000 C 
HETATM   30  C12 UNL     1      23.230  -5.917  13.563  1.00  0.00     0.000 C 
HETATM   31  C13 UNL     1      21.979  -5.743  12.717  1.00  0.00     0.005 C 
ENDBRANCH  26  27
ENDBRANCH  25  26
BRANCH  25  32
HETATM   32  C14 UNL     1      17.940  -5.026  14.985  1.00  0.00     0.162 C 
HETATM   33  O3  UNL     1      18.135  -5.685  16.031  1.00  0.00    -0.295 OA
BRANCH  32  34
HETATM   34  C15 UNL     1      16.563  -4.777  14.583  1.00  0.00     0.070 C 
HETATM   35  C16 UNL     1      15.960  -3.582  15.208  1.00  0.00     0.013 C 
HETATM   36  C17 UNL     1      14.530  -3.326  14.798  1.00  0.00     0.001 C 
HETATM   37  C18 UNL     1      14.066  -4.370  13.779  1.00  0.00     0.001 C 
HETATM   38  C19 UNL     1      14.230  -5.701  14.428  1.00  0.00     0.015 C 
HETATM   39  C20 UNL     1      15.675  -6.004  14.603  1.00  0.00     0.089 C 
BRANCH  39  40
HETATM   40  C21 UNL     1      16.163  -7.037  13.654  1.00  0.00     0.223 C 
HETATM   41  O4  UNL     1      16.400  -6.804  12.442  1.00  0.00    -0.273 OA
HETATM   42  N3  UNL     1      16.389  -8.386  14.100  1.00  0.00    -0.353 N 
ATOM     43  H3  UNL     1      16.206  -8.616  15.077  1.00  0.00     0.163 HD
BRANCH  42  44
HETATM   44  C22 UNL     1      16.864  -9.424  13.221  1.00  0.00     0.022 C 
HETATM   45  C23 UNL     1      18.315  -9.095  12.874  1.00  0.00     0.037 C 
HETATM   46  C24 UNL     1      16.762 -10.750  13.928  1.00  0.00     0.037 C 
HETATM   47  C25 UNL     1      16.050  -9.484  11.939  1.00  0.00     0.037 C 
ENDBRANCH  42  44
ENDBRANCH  39  40
ENDBRANCH  32  34
ENDBRANCH  25  32
ENDBRANCH   1  25
TORSDOF 13
ENDMDL
MODEL 5
REMARK VINA RESULT: -9.063186624      2.352      4.695
REMARK  13 active torsions:
REMARK  status: ('A' for Active; 'I' for Inactive)
REMARK    1  A    between atoms: C4_5  and  C5_6 
REMARK    2  A    between atoms: C5_6  and  C6_8 
REMARK    3  A    between atoms: C6_8  and  O2_9 
REMARK    4  A    between atoms: C6_8  and  N2_11 
REMARK    5  A    between atoms: N2_11  and  C7_14 
REMARK    6  A    between atoms: C7_14  and  C8_15 
REMARK    7  A    between atoms: C7_14  and  C14_21 
REMARK    8  A    between atoms: C8_15  and  C9_16 
REMARK    9  A    between atoms: C14_21  and  C15_23 
REMARK   10  A    between atoms: C20_28  and  C21_29 
REMARK       I    between atoms: C21_29  and  N3_31 
REMARK   11  A    between atoms: N3_31  and  C22_33 
REMARK   12  A    between atoms: C26_40  and  C27_41 
REMARK   13  A    between atoms: C27_41  and  C28_42 
ROOT
HETATM    1  N2  UNL     1      19.345  -4.405  16.814  1.00  0.00    -0.031 N 
ATOM      2  H21 UNL     1      18.662  -4.804  17.457  1.00  0.00     0.281 HD
ATOM      3  H22 UNL     1      20.169  -4.916  17.130  1.00  0.00     0.281 HD
ENDROOT
BRANCH   1   4
HETATM    4  C6  UNL     1      19.493  -2.977  17.002  1.00  0.00     0.392 C 
BRANCH   4   5
HETATM    5  C5  UNL     1      20.512  -2.767  18.081  1.00  0.00     0.213 C 
HETATM    6  O1  UNL     1      20.678  -3.672  18.869  1.00  0.00    -0.291 OA
BRANCH   5   7
HETATM    7  C4  UNL     1      21.287  -1.492  18.173  1.00  0.00     0.262 C 
HETATM    8  C3  UNL     1      21.831  -1.059  16.857  1.00  0.00     0.061 C 
HETATM    9  C2  UNL     1      23.262  -0.595  17.014  1.00  0.00     0.128 C 
HETATM   10  N1  UNL     1      23.454  -0.014  18.351  1.00  0.00    -0.355 N 
HETATM   11  C1  UNL     1      24.780   0.144  18.873  1.00  0.00     0.152 C 
HETATM   12  C32 UNL     1      22.411   0.427  19.247  1.00  0.00     0.250 C 
HETATM   13  C26 UNL     1      21.069   0.834  18.727  1.00  0.00     0.278 C 
HETATM   14  O5  UNL     1      22.664   0.452  20.454  1.00  0.00    -0.271 OA
HETATM   15  N4  UNL     1      20.361  -0.466  18.664  1.00  0.00    -0.051 N 
ATOM     16  H42 UNL     1      19.507  -0.416  18.109  1.00  0.00     0.279 HD
ATOM     17  H41 UNL     1      19.937  -0.722  19.556  1.00  0.00     0.279 HD
BRANCH  13  18
HETATM   18  C27 UNL     1      20.298   1.720  19.638  1.00  0.00     0.051 C 
BRANCH  18  19
HETATM   19  C28 UNL     1      18.831   1.794  19.474  1.00  0.00    -0.049 C 
HETATM   20  C29 UNL     1      18.094   1.061  20.597  1.00  0.00     0.014 C 
HETATM   21  C30 UNL     1      18.216   1.435  18.169  1.00  0.00     0.014 C 
HETATM   22  C31 UNL     1      18.456   3.291  19.684  1.00  0.00     0.014 C 
ENDBRANCH  18  19
ENDBRANCH  13  18
ENDBRANCH   5   7
ENDBRANCH   4   5
BRANCH   4  23
HETATM   23  O2  UNL     1      18.279  -2.381  17.359  1.00  0.00    -0.364 OA
ATOM     24  H2  UNL     1      17.551  -2.925  17.083  1.00  0.00     0.212 HD
ENDBRANCH   4  23
ENDBRANCH   1   4
BRANCH   1  25
HETATM   25  C7  UNL     1      19.011  -4.713  15.379  1.00  0.00     0.259 C 
BRANCH  25  26
HETATM   26  C8  UNL     1      20.097  -5.678  15.009  1.00  0.00     0.045 C 
BRANCH  26  27
HETATM   27  C9  UNL     1      21.044  -5.288  13.940  1.00  0.00    -0.012 C 
HETATM   28  C10 UNL     1      22.288  -6.206  14.018  1.00  0.00     0.005 C 
HETATM   29  C11 UNL     1      23.357  -5.429  14.705  1.00  0.00     0.000 C 
HETATM   30  C12 UNL     1      22.761  -4.163  15.221  1.00  0.00     0.000 C 
HETATM   31  C13 UNL     1      21.667  -3.910  14.197  1.00  0.00     0.005 C 
ENDBRANCH  26  27
ENDBRANCH  25  26
BRANCH  25  32
HETATM   32  C14 UNL     1      17.661  -5.319  15.475  1.00  0.00     0.162 C 
HETATM   33  O3  UNL     1      17.635  -6.333  16.208  1.00  0.00    -0.295 OA
BRANCH  32  34
HETATM   34  C15 UNL     1      16.412  -4.893  14.857  1.00  0.00     0.070 C 
HETATM   35  C16 UNL     1      15.814  -3.693  15.476  1.00  0.00     0.013 C 
HETATM   36  C17 UNL     1      14.517  -3.253  14.842  1.00  0.00     0.001 C 
HETATM   37  C18 UNL     1      14.161  -4.158  13.659  1.00  0.00     0.001 C 
HETATM   38  C19 UNL     1      14.077  -5.545  14.196  1.00  0.00     0.015 C 
HETATM   39  C20 UNL     1      15.429  -6.015  14.598  1.00  0.00     0.089 C 
BRANCH  39  40
HETATM   40  C21 UNL     1      15.992  -7.017  13.656  1.00  0.00     0.223 C 
HETATM   41  O4  UNL     1      16.201  -6.780  12.440  1.00  0.00    -0.273 OA
HETATM   42  N3  UNL     1      16.328  -8.338  14.116  1.00  0.00    -0.353 N 
ATOM     43  H3  UNL     1      16.170  -8.570  15.097  1.00  0.00     0.163 HD
BRANCH  42  44
HETATM   44  C22 UNL     1      16.879  -9.345  13.246  1.00  0.00     0.022 C 
HETATM   45  C23 UNL     1      18.302  -8.915  12.898  1.00  0.00     0.037 C 
HETATM   46  C24 UNL     1      16.870 -10.670  13.961  1.00  0.00     0.037 C 
HETATM   47  C25 UNL     1      16.074  -9.472  11.962  1.00  0.00     0.037 C 
ENDBRANCH  42  44
ENDBRANCH  39  40
ENDBRANCH  32  34
ENDBRANCH  25  32
ENDBRANCH   1  25
TORSDOF 13
ENDMDL
