MODEL 1
REMARK VINA RESULT: -9.016966616      0.000      0.000
REMARK  13 active torsions:
REMARK  status: ('A' for Active; 'I' for Inactive)
REMARK    1  A    between atoms: C3_4  and  C4_5 
REMARK    2  A    between atoms: C5_6  and  C6_7 
REMARK    3  A    between atoms: C6_7  and  C7_12 
REMARK    4  A    between atoms: N2_8  and  O1_10 
REMARK    5  A    between atoms: C8_15  and  C9_16 
REMARK    6  A    between atoms: C11_20  and  N5_21 
REMARK    7  A    between atoms: C16_33  and  N8_34 
REMARK    8  A    between atoms: C17_39  and  N10_40 
REMARK    9  A    between atoms: N10_40  and  C18_42 
REMARK   10  A    between atoms: C18_42  and  C19_43 
REMARK   11  A    between atoms: C19_43  and  O5_44 
REMARK   12  A    between atoms: C19_43  and  C20_46 
REMARK   13  A    between atoms: C20_46  and  O6_47 
ROOT
HETATM    1  C4  UNL     1      34.317   4.698  39.777  1.00  0.00     0.068 A 
HETATM    2  C5  UNL     1      35.603   4.280  39.713  1.00  0.00     0.098 A 
HETATM    3  N7  UNL     1      36.415   4.974  38.825  1.00  0.00    -0.189 N 
ATOM      4  H7  UNL     1      37.394   4.696  38.750  1.00  0.00     0.184 HD
HETATM    5  C16 UNL     1      35.989   5.981  38.065  1.00  0.00     0.678 A 
HETATM    6  N9  UNL     1      34.712   6.385  38.123  1.00  0.00    -0.176 N 
ATOM      7  H9  UNL     1      34.383   7.154  37.539  1.00  0.00     0.186 HD
HETATM    8  C17 UNL     1      33.876   5.763  38.963  1.00  0.00     0.132 A 
ENDROOT
BRANCH   2   9
HETATM    9  C6  UNL     1      36.085   3.024  40.233  1.00  0.00     0.135 C 
HETATM   10  N2  UNL     1      36.421   2.053  39.480  1.00  0.00    -0.263 N 
ATOM     11  H2  UNL     1      36.745   1.211  39.954  1.00  0.00     0.194 HD
BRANCH  10  12
HETATM   12  O1  UNL     1      36.400   2.002  38.156  1.00  0.00    -0.289 OA
ATOM     13  H1  UNL     1      37.011   1.559  37.578  1.00  0.00     0.244 HD
ENDBRANCH  10  12
BRANCH   9  14
HETATM   14  C7  UNL     1      36.057   2.642  41.661  1.00  0.00     0.203 A 
HETATM   15  N3  UNL     1      35.312   1.672  42.246  1.00  0.00    -0.316 N 
HETATM   16  C8  UNL     1      35.554   1.640  43.566  1.00  0.00     0.163 A 
ATOM     17  H3  UNL     1      34.663   1.057  41.755  1.00  0.00     0.169 HD
HETATM   18  N6  UNL     1      36.461   2.610  43.773  1.00  0.00    -0.240 N 
HETATM   19  O4  UNL     1      36.735   3.184  42.615  1.00  0.00    -0.215 OA
ATOM     20  H6  UNL     1      36.870   2.861  44.673  1.00  0.00     0.196 HD
BRANCH  16  21
HETATM   21  C9  UNL     1      34.971   0.754  44.570  1.00  0.00     0.140 A 
HETATM   22  C10 UNL     1      33.648   0.468  44.804  1.00  0.00     0.133 A 
HETATM   23  N4  UNL     1      33.604  -0.387  45.816  1.00  0.00    -0.329 N 
HETATM   24  C11 UNL     1      34.867  -0.638  46.214  1.00  0.00     0.227 A 
ATOM     25  H4  UNL     1      32.759  -0.787  46.223  1.00  0.00     0.168 HD
HETATM   26  O3  UNL     1      35.670   0.065  45.445  1.00  0.00    -0.274 OA
BRANCH  24  27
HETATM   27  N5  UNL     1      35.195  -1.510  47.277  1.00  0.00    -0.343 N 
HETATM   28  C12 UNL     1      36.567  -1.817  47.559  1.00  0.00     0.152 C 
HETATM   29  C13 UNL     1      36.684  -2.243  49.008  1.00  0.00     0.187 C 
HETATM   30  O2  UNL     1      35.877  -3.370  49.144  1.00  0.00    -0.388 OA
HETATM   31  C14 UNL     1      34.552  -3.015  49.133  1.00  0.00     0.187 C 
HETATM   32  C15 UNL     1      34.134  -2.074  48.060  1.00  0.00     0.152 C 
ENDBRANCH  24  27
ENDBRANCH  16  21
ENDBRANCH   9  14
ENDBRANCH   2   9
BRANCH   1  33
HETATM   33  C3  UNL     1      33.425   4.285  40.881  1.00  0.00     0.081 A 
HETATM   34  C2  UNL     1      33.152   4.726  42.159  1.00  0.00     0.141 A 
HETATM   35  N1  UNL     1      32.227   3.748  42.348  1.00  0.00    -0.305 N 
HETATM   36  C1  UNL     1      31.374   3.414  43.471  1.00  0.00     0.177 C 
HETATM   37  N11 UNL     1      32.502   3.343  41.122  1.00  0.00    -0.297 N 
ATOM     38  H11 UNL     1      32.139   2.577  40.555  1.00  0.00     0.187 HD
ENDBRANCH   1  33
BRANCH   8  39
HETATM   39  N10 UNL     1      32.643   6.058  39.103  1.00  0.00    -0.372 N 
ATOM     40  H10 UNL     1      31.953   5.310  39.048  1.00  0.00     0.161 HD
BRANCH  39  41
HETATM   41  C18 UNL     1      32.188   7.388  39.333  1.00  0.00     0.155 C 
BRANCH  41  42
HETATM   42  C19 UNL     1      32.910   7.983  40.537  1.00  0.00     0.159 C 
BRANCH  42  43
HETATM   43  O5  UNL     1      31.959   8.186  41.531  1.00  0.00    -0.392 OA
ATOM     44  H5  UNL     1      32.347   7.913  42.354  1.00  0.00     0.210 HD
ENDBRANCH  42  43
BRANCH  42  45
HETATM   45  C20 UNL     1      33.510   9.318  40.142  1.00  0.00     0.197 C 
BRANCH  45  46
HETATM   46  O6  UNL     1      34.795   9.114  39.621  1.00  0.00    -0.398 OA
ATOM     47  H6  UNL     1      34.735   8.966  38.684  1.00  0.00     0.209 HD
ENDBRANCH  45  46
ENDBRANCH  42  45
ENDBRANCH  41  42
ENDBRANCH  39  41
ENDBRANCH   8  39
BRANCH   5  48
HETATM   48  N8  UNL     1      36.774   6.611  37.244  1.00  0.00    -0.234 N 
ATOM     49  H82 UNL     1      36.340   7.065  36.440  1.00  0.00     0.174 HD
ATOM     50  H81 UNL     1      37.783   6.661  37.383  1.00  0.00     0.174 HD
ENDBRANCH   5  48
TORSDOF 13
ENDMDL
MODEL 2
REMARK VINA RESULT: -8.915855150      3.917      8.743
REMARK  13 active torsions:
REMARK  status: ('A' for Active; 'I' for Inactive)
REMARK    1  A    between atoms: C3_4  and  C4_5 
REMARK    2  A    between atoms: C5_6  and  C6_7 
REMARK    3  A    between atoms: C6_7  and  C7_12 
REMARK    4  A    between atoms: N2_8  and  O1_10 
REMARK    5  A    between atoms: C8_15  and  C9_16 
REMARK    6  A    between atoms: C11_20  and  N5_21 
REMARK    7  A    between atoms: C16_33  and  N8_34 
REMARK    8  A    between atoms: C17_39  and  N10_40 
REMARK    9  A    between atoms: N10_40  and  C18_42 
REMARK   10  A    between atoms: C18_42  and  C19_43 
REMARK   11  A    between atoms: C19_43  and  O5_44 
REMARK   12  A    between atoms: C19_43  and  C20_46 
REMARK   13  A    between atoms: C20_46  and  O6_47 
ROOT
HETATM    1  C4  UNL     1      34.973   1.001  43.870  1.00  0.00     0.068 A 
HETATM    2  C5  UNL     1      36.070   0.316  44.271  1.00  0.00     0.098 A 
HETATM    3  N7  UNL     1      35.854  -0.636  45.259  1.00  0.00    -0.189 N 
ATOM      4  H7  UNL     1      36.653  -1.180  45.585  1.00  0.00     0.184 HD
HETATM    5  C16 UNL     1      34.665  -0.880  45.805  1.00  0.00     0.678 A 
HETATM    6  N9  UNL     1      33.582  -0.192  45.412  1.00  0.00    -0.176 N 
ATOM      7  H9  UNL     1      32.670  -0.374  45.832  1.00  0.00     0.186 HD
HETATM    8  C17 UNL     1      33.718   0.738  44.460  1.00  0.00     0.132 A 
ENDROOT
BRANCH   2   9
HETATM    9  C6  UNL     1      37.430   0.709  43.993  1.00  0.00     0.135 C 
HETATM   10  N2  UNL     1      38.092   1.480  44.760  1.00  0.00    -0.263 N 
ATOM     11  H2  UNL     1      39.044   1.693  44.465  1.00  0.00     0.194 HD
BRANCH  10  12
HETATM   12  O1  UNL     1      37.696   2.039  45.895  1.00  0.00    -0.289 OA
ATOM     13  H1  UNL     1      37.372   1.609  46.677  1.00  0.00     0.244 HD
ENDBRANCH  10  12
BRANCH   9  14
HETATM   14  C7  UNL     1      38.135   0.443  42.721  1.00  0.00     0.203 A 
HETATM   15  N3  UNL     1      37.969   1.073  41.532  1.00  0.00    -0.316 N 
HETATM   16  C8  UNL     1      38.783   0.535  40.609  1.00  0.00     0.163 A 
ATOM     17  H3  UNL     1      37.321   1.842  41.363  1.00  0.00     0.169 HD
HETATM   18  N6  UNL     1      39.447  -0.435  41.260  1.00  0.00    -0.240 N 
HETATM   19  O4  UNL     1      39.034  -0.459  42.515  1.00  0.00    -0.215 OA
ATOM     20  H6  UNL     1      40.153  -1.049  40.854  1.00  0.00     0.196 HD
BRANCH  16  21
HETATM   21  C9  UNL     1      38.928   0.909  39.205  1.00  0.00     0.140 A 
HETATM   22  C10 UNL     1      38.080   1.650  38.417  1.00  0.00     0.133 A 
HETATM   23  N4  UNL     1      38.629   1.727  37.214  1.00  0.00    -0.329 N 
HETATM   24  C11 UNL     1      39.796   1.053  37.236  1.00  0.00     0.227 A 
ATOM     25  H4  UNL     1      38.236   2.213  36.408  1.00  0.00     0.168 HD
HETATM   26  O3  UNL     1      39.949   0.570  38.450  1.00  0.00    -0.274 OA
BRANCH  24  27
HETATM   27  N5  UNL     1      40.650   0.928  36.117  1.00  0.00    -0.343 N 
HETATM   28  C12 UNL     1      41.003   2.085  35.347  1.00  0.00     0.152 C 
HETATM   29  C13 UNL     1      42.313   1.816  34.634  1.00  0.00     0.187 C 
HETATM   30  O2  UNL     1      42.084   0.714  33.813  1.00  0.00    -0.388 OA
HETATM   31  C14 UNL     1      42.008  -0.434  34.560  1.00  0.00     0.187 C 
HETATM   32  C15 UNL     1      41.150  -0.371  35.774  1.00  0.00     0.152 C 
ENDBRANCH  24  27
ENDBRANCH  16  21
ENDBRANCH   9  14
ENDBRANCH   2   9
BRANCH   1  33
HETATM   33  C3  UNL     1      34.974   1.804  42.629  1.00  0.00     0.081 A 
HETATM   34  C2  UNL     1      35.396   3.064  42.258  1.00  0.00     0.141 A 
HETATM   35  N1  UNL     1      34.992   2.871  40.974  1.00  0.00    -0.305 N 
HETATM   36  C1  UNL     1      35.041   3.715  39.798  1.00  0.00     0.177 C 
HETATM   37  N11 UNL     1      34.596   1.669  41.350  1.00  0.00    -0.297 N 
ATOM     38  H11 UNL     1      34.155   0.902  40.842  1.00  0.00     0.187 HD
ENDBRANCH   1  33
BRANCH   8  39
HETATM   39  N10 UNL     1      32.763   1.453  44.009  1.00  0.00    -0.372 N 
ATOM     40  H10 UNL     1      32.168   1.066  43.276  1.00  0.00     0.161 HD
BRANCH  39  41
HETATM   41  C18 UNL     1      32.491   2.768  44.483  1.00  0.00     0.155 C 
BRANCH  41  42
HETATM   42  C19 UNL     1      31.455   3.439  43.587  1.00  0.00     0.159 C 
BRANCH  42  43
HETATM   43  O5  UNL     1      31.893   3.305  42.275  1.00  0.00    -0.392 OA
ATOM     44  H5  UNL     1      32.288   4.132  42.022  1.00  0.00     0.210 HD
ENDBRANCH  42  43
BRANCH  42  45
HETATM   45  C20 UNL     1      31.379   4.912  43.939  1.00  0.00     0.197 C 
BRANCH  45  46
HETATM   46  O6  UNL     1      30.092   5.213  44.403  1.00  0.00    -0.398 OA
ATOM     47  H6  UNL     1      29.964   6.154  44.389  1.00  0.00     0.209 HD
ENDBRANCH  45  46
ENDBRANCH  42  45
ENDBRANCH  41  42
ENDBRANCH  39  41
ENDBRANCH   8  39
BRANCH   5  48
HETATM   48  N8  UNL     1      34.494  -1.778  46.727  1.00  0.00    -0.234 N 
ATOM     49  H82 UNL     1      35.015  -2.650  46.631  1.00  0.00     0.174 HD
ATOM     50  H81 UNL     1      33.870  -1.634  47.521  1.00  0.00     0.174 HD
ENDBRANCH   5  48
TORSDOF 13
ENDMDL
MODEL 3
REMARK VINA RESULT: -8.888165522      2.991      9.582
REMARK  13 active torsions:
REMARK  status: ('A' for Active; 'I' for Inactive)
REMARK    1  A    between atoms: C3_4  and  C4_5 
REMARK    2  A    between atoms: C5_6  and  C6_7 
REMARK    3  A    between atoms: C6_7  and  C7_12 
REMARK    4  A    between atoms: N2_8  and  O1_10 
REMARK    5  A    between atoms: C8_15  and  C9_16 
REMARK    6  A    between atoms: C11_20  and  N5_21 
REMARK    7  A    between atoms: C16_33  and  N8_34 
REMARK    8  A    between atoms: C17_39  and  N10_40 
REMARK    9  A    between atoms: N10_40  and  C18_42 
REMARK   10  A    between atoms: C18_42  and  C19_43 
REMARK   11  A    between atoms: C19_43  and  O5_44 
REMARK   12  A    between atoms: C19_43  and  C20_46 
REMARK   13  A    between atoms: C20_46  and  O6_47 
ROOT
HETATM    1  C4  UNL     1      35.743   2.288  40.741  1.00  0.00     0.068 A 
HETATM    2  C5  UNL     1      35.129   2.569  39.567  1.00  0.00     0.098 A 
HETATM    3  N7  UNL     1      35.906   2.397  38.428  1.00  0.00    -0.189 N 
ATOM      4  H7  UNL     1      35.480   2.592  37.522  1.00  0.00     0.184 HD
HETATM    5  C16 UNL     1      37.174   1.993  38.452  1.00  0.00     0.678 A 
HETATM    6  N9  UNL     1      37.782   1.725  39.617  1.00  0.00    -0.176 N 
ATOM      7  H9  UNL     1      38.755   1.419  39.637  1.00  0.00     0.186 HD
HETATM    8  C17 UNL     1      37.089   1.865  40.753  1.00  0.00     0.132 A 
ENDROOT
BRANCH   2   9
HETATM    9  C6  UNL     1      33.896   3.307  39.442  1.00  0.00     0.135 C 
HETATM   10  N2  UNL     1      32.861   2.824  38.880  1.00  0.00    -0.263 N 
ATOM     11  H2  UNL     1      32.045   3.434  38.845  1.00  0.00     0.194 HD
BRANCH  10  12
HETATM   12  O1  UNL     1      32.712   1.625  38.334  1.00  0.00    -0.289 OA
ATOM     13  H1  UNL     1      33.056   1.313  37.506  1.00  0.00     0.244 HD
ENDBRANCH  10  12
BRANCH   9  14
HETATM   14  C7  UNL     1      33.744   4.744  39.756  1.00  0.00     0.203 A 
HETATM   15  N3  UNL     1      34.308   5.798  39.114  1.00  0.00    -0.316 N 
HETATM   16  C8  UNL     1      33.942   6.946  39.706  1.00  0.00     0.163 A 
ATOM     17  H3  UNL     1      34.920   5.728  38.301  1.00  0.00     0.169 HD
HETATM   18  N6  UNL     1      33.144   6.570  40.721  1.00  0.00    -0.240 N 
HETATM   19  O4  UNL     1      33.052   5.252  40.718  1.00  0.00    -0.215 OA
ATOM     20  H6  UNL     1      32.687   7.197  41.383  1.00  0.00     0.196 HD
BRANCH  16  21
HETATM   21  C9  UNL     1      34.316   8.309  39.342  1.00  0.00     0.140 A 
HETATM   22  C10 UNL     1      35.087   8.741  38.291  1.00  0.00     0.133 A 
HETATM   23  N4  UNL     1      35.152  10.062  38.366  1.00  0.00    -0.329 N 
HETATM   24  C11 UNL     1      34.439  10.461  39.438  1.00  0.00     0.227 A 
ATOM     25  H4  UNL     1      35.655  10.674  37.723  1.00  0.00     0.168 HD
HETATM   26  O3  UNL     1      33.947   9.381  40.008  1.00  0.00    -0.274 OA
BRANCH  24  27
HETATM   27  N5  UNL     1      34.291  11.812  39.823  1.00  0.00    -0.343 N 
HETATM   28  C12 UNL     1      35.422  12.695  39.802  1.00  0.00     0.152 C 
HETATM   29  C13 UNL     1      34.926  14.121  39.671  1.00  0.00     0.187 C 
HETATM   30  O2  UNL     1      34.125  14.353  40.787  1.00  0.00    -0.388 OA
HETATM   31  C14 UNL     1      32.927  13.698  40.662  1.00  0.00     0.187 C 
HETATM   32  C15 UNL     1      32.998  12.277  40.230  1.00  0.00     0.152 C 
ENDBRANCH  24  27
ENDBRANCH  16  21
ENDBRANCH   9  14
ENDBRANCH   2   9
BRANCH   1  33
HETATM   33  C3  UNL     1      34.975   2.114  41.992  1.00  0.00     0.081 A 
HETATM   34  C2  UNL     1      34.573   2.924  43.034  1.00  0.00     0.141 A 
HETATM   35  N1  UNL     1      33.939   1.891  43.652  1.00  0.00    -0.305 N 
HETATM   36  C1  UNL     1      33.188   1.804  44.887  1.00  0.00     0.177 C 
HETATM   37  N11 UNL     1      34.334   1.134  42.644  1.00  0.00    -0.297 N 
ATOM     38  H11 UNL     1      34.198   0.145  42.435  1.00  0.00     0.187 HD
ENDBRANCH   1  33
BRANCH   8  39
HETATM   39  N10 UNL     1      37.561   1.641  41.917  1.00  0.00    -0.372 N 
ATOM     40  H10 UNL     1      37.579   2.405  42.591  1.00  0.00     0.161 HD
BRANCH  39  41
HETATM   41  C18 UNL     1      38.064   0.369  42.316  1.00  0.00     0.155 C 
BRANCH  41  42
HETATM   42  C19 UNL     1      37.753   0.127  43.789  1.00  0.00     0.159 C 
BRANCH  42  43
HETATM   43  O5  UNL     1      36.556  -0.578  43.849  1.00  0.00    -0.392 OA
ATOM     44  H5  UNL     1      35.888  -0.037  43.443  1.00  0.00     0.210 HD
ENDBRANCH  42  43
BRANCH  42  45
HETATM   45  C20 UNL     1      37.579   1.464  44.482  1.00  0.00     0.197 C 
BRANCH  45  46
HETATM   46  O6  UNL     1      38.814   2.125  44.532  1.00  0.00    -0.398 OA
ATOM     47  H6  UNL     1      39.037   2.308  45.437  1.00  0.00     0.209 HD
ENDBRANCH  45  46
ENDBRANCH  42  45
ENDBRANCH  41  42
ENDBRANCH  39  41
ENDBRANCH   8  39
BRANCH   5  48
HETATM   48  N8  UNL     1      37.874   1.840  37.368  1.00  0.00    -0.234 N 
ATOM     49  H82 UNL     1      37.384   1.935  36.479  1.00  0.00     0.174 HD
ATOM     50  H81 UNL     1      38.873   1.635  37.389  1.00  0.00     0.174 HD
ENDBRANCH   5  48
TORSDOF 13
ENDMDL
MODEL 4
REMARK VINA RESULT: -8.875912133      3.222      8.607
REMARK  13 active torsions:
REMARK  status: ('A' for Active; 'I' for Inactive)
REMARK    1  A    between atoms: C3_4  and  C4_5 
REMARK    2  A    between atoms: C5_6  and  C6_7 
REMARK    3  A    between atoms: C6_7  and  C7_12 
REMARK    4  A    between atoms: N2_8  and  O1_10 
REMARK    5  A    between atoms: C8_15  and  C9_16 
REMARK    6  A    between atoms: C11_20  and  N5_21 
REMARK    7  A    between atoms: C16_33  and  N8_34 
REMARK    8  A    between atoms: C17_39  and  N10_40 
REMARK    9  A    between atoms: N10_40  and  C18_42 
REMARK   10  A    between atoms: C18_42  and  C19_43 
REMARK   11  A    between atoms: C19_43  and  O5_44 
REMARK   12  A    between atoms: C19_43  and  C20_46 
REMARK   13  A    between atoms: C20_46  and  O6_47 
ROOT
HETATM    1  C4  UNL     1      35.079   1.155  43.636  1.00  0.00     0.068 A 
HETATM    2  C5  UNL     1      36.236   0.507  43.911  1.00  0.00     0.098 A 
HETATM    3  N7  UNL     1      36.165  -0.447  44.918  1.00  0.00    -0.189 N 
ATOM      4  H7  UNL     1      37.013  -0.963  45.152  1.00  0.00     0.184 HD
HETATM    5  C16 UNL     1      35.053  -0.728  45.594  1.00  0.00     0.678 A 
HETATM    6  N9  UNL     1      33.911  -0.078  45.326  1.00  0.00    -0.176 N 
ATOM      7  H9  UNL     1      33.059  -0.289  45.846  1.00  0.00     0.186 HD
HETATM    8  C17 UNL     1      33.908   0.852  44.364  1.00  0.00     0.132 A 
ENDROOT
BRANCH   2   9
HETATM    9  C6  UNL     1      37.542   0.944  43.482  1.00  0.00     0.135 C 
HETATM   10  N2  UNL     1      38.298   1.667  44.209  1.00  0.00    -0.263 N 
ATOM     11  H2  UNL     1      39.199   1.919  43.805  1.00  0.00     0.194 HD
BRANCH  10  12
HETATM   12  O1  UNL     1      38.058   2.132  45.427  1.00  0.00    -0.289 OA
ATOM     13  H1  UNL     1      38.641   2.626  45.990  1.00  0.00     0.244 HD
ENDBRANCH  10  12
BRANCH   9  14
HETATM   14  C7  UNL     1      38.069   0.787  42.110  1.00  0.00     0.203 A 
HETATM   15  N3  UNL     1      37.632   1.393  40.978  1.00  0.00    -0.316 N 
HETATM   16  C8  UNL     1      38.356   0.981  39.926  1.00  0.00     0.163 A 
ATOM     17  H3  UNL     1      36.864   2.064  40.933  1.00  0.00     0.169 HD
HETATM   18  N6  UNL     1      39.244   0.112  40.440  1.00  0.00    -0.240 N 
HETATM   19  O4  UNL     1      39.041   0.023  41.742  1.00  0.00    -0.215 OA
ATOM     20  H6  UNL     1      39.955  -0.394  39.912  1.00  0.00     0.196 HD
BRANCH  16  21
HETATM   21  C9  UNL     1      38.225   1.378  38.527  1.00  0.00     0.140 A 
HETATM   22  C10 UNL     1      39.196   1.459  37.558  1.00  0.00     0.133 A 
HETATM   23  N4  UNL     1      38.605   1.865  36.443  1.00  0.00    -0.329 N 
HETATM   24  C11 UNL     1      37.293   2.037  36.696  1.00  0.00     0.227 A 
ATOM     25  H4  UNL     1      39.065   2.021  35.546  1.00  0.00     0.168 HD
HETATM   26  O3  UNL     1      37.093   1.736  37.962  1.00  0.00    -0.274 OA
BRANCH  24  27
HETATM   27  N5  UNL     1      36.358   2.467  35.729  1.00  0.00    -0.343 N 
HETATM   28  C12 UNL     1      35.446   1.529  35.140  1.00  0.00     0.152 C 
HETATM   29  C13 UNL     1      34.232   2.280  34.633  1.00  0.00     0.187 C 
HETATM   30  O2  UNL     1      34.707   3.184  33.686  1.00  0.00    -0.388 OA
HETATM   31  C14 UNL     1      35.359   4.222  34.299  1.00  0.00     0.187 C 
HETATM   32  C15 UNL     1      36.340   3.851  35.354  1.00  0.00     0.152 C 
ENDBRANCH  24  27
ENDBRANCH  16  21
ENDBRANCH   9  14
ENDBRANCH   2   9
BRANCH   1  33
HETATM   33  C3  UNL     1      34.914   1.952  42.403  1.00  0.00     0.081 A 
HETATM   34  C2  UNL     1      35.223   3.234  41.997  1.00  0.00     0.141 A 
HETATM   35  N1  UNL     1      34.710   3.013  40.757  1.00  0.00    -0.305 N 
HETATM   36  C1  UNL     1      34.596   3.855  39.583  1.00  0.00     0.177 C 
HETATM   37  N11 UNL     1      34.424   1.791  41.166  1.00  0.00    -0.297 N 
ATOM     38  H11 UNL     1      33.982   0.998  40.701  1.00  0.00     0.187 HD
ENDBRANCH   1  33
BRANCH   8  39
HETATM   39  N10 UNL     1      32.885   1.533  44.023  1.00  0.00    -0.372 N 
ATOM     40  H10 UNL     1      32.246   1.141  43.332  1.00  0.00     0.161 HD
BRANCH  39  41
HETATM   41  C18 UNL     1      32.596   2.818  44.565  1.00  0.00     0.155 C 
BRANCH  41  42
HETATM   42  C19 UNL     1      31.453   3.464  43.789  1.00  0.00     0.159 C 
BRANCH  42  43
HETATM   43  O5  UNL     1      31.749   3.341  42.437  1.00  0.00    -0.392 OA
ATOM     44  H5  UNL     1      31.214   2.635  42.093  1.00  0.00     0.210 HD
ENDBRANCH  42  43
BRANCH  42  45
HETATM   45  C20 UNL     1      31.381   4.935  44.151  1.00  0.00     0.197 C 
BRANCH  45  46
HETATM   46  O6  UNL     1      30.053   5.278  44.437  1.00  0.00    -0.398 OA
ATOM     47  H6  UNL     1      29.994   6.216  44.581  1.00  0.00     0.209 HD
ENDBRANCH  45  46
ENDBRANCH  42  45
ENDBRANCH  41  42
ENDBRANCH  39  41
ENDBRANCH   8  39
BRANCH   5  48
HETATM   48  N8  UNL     1      35.018  -1.628  46.530  1.00  0.00    -0.234 N 
ATOM     49  H82 UNL     1      35.897  -2.088  46.768  1.00  0.00     0.174 HD
ATOM     50  H81 UNL     1      34.156  -1.876  47.016  1.00  0.00     0.174 HD
ENDBRANCH   5  48
TORSDOF 13
ENDMDL
MODEL 5
REMARK VINA RESULT: -8.830907553      4.066      8.472
REMARK  13 active torsions:
REMARK  status: ('A' for Active; 'I' for Inactive)
REMARK    1  A    between atoms: C3_4  and  C4_5 
REMARK    2  A    between atoms: C5_6  and  C6_7 
REMARK    3  A    between atoms: C6_7  and  C7_12 
REMARK    4  A    between atoms: N2_8  and  O1_10 
REMARK    5  A    between atoms: C8_15  and  C9_16 
REMARK    6  A    between atoms: C11_20  and  N5_21 
REMARK    7  A    between atoms: C16_33  and  N8_34 
REMARK    8  A    between atoms: C17_39  and  N10_40 
REMARK    9  A    between atoms: N10_40  and  C18_42 
REMARK   10  A    between atoms: C18_42  and  C19_43 
REMARK   11  A    between atoms: C19_43  and  O5_44 
REMARK   12  A    between atoms: C19_43  and  C20_46 
REMARK   13  A    between atoms: C20_46  and  O6_47 
ROOT
HETATM    1  C4  UNL     1      33.842   3.095  42.602  1.00  0.00     0.068 A 
HETATM    2  C5  UNL     1      34.802   2.140  42.582  1.00  0.00     0.098 A 
HETATM    3  N7  UNL     1      34.688   1.155  43.555  1.00  0.00    -0.189 N 
ATOM      4  H7  UNL     1      35.387   0.412  43.571  1.00  0.00     0.184 HD
HETATM    5  C16 UNL     1      33.720   1.126  44.468  1.00  0.00     0.678 A 
HETATM    6  N9  UNL     1      32.777   2.079  44.492  1.00  0.00    -0.176 N 
ATOM      7  H9  UNL     1      32.037   2.060  45.193  1.00  0.00     0.186 HD
HETATM    8  C17 UNL     1      32.824   3.056  43.579  1.00  0.00     0.132 A 
ENDROOT
BRANCH   2   9
HETATM    9  C6  UNL     1      36.050   2.246  41.866  1.00  0.00     0.135 C 
HETATM   10  N2  UNL     1      37.133   2.613  42.426  1.00  0.00    -0.263 N 
ATOM     11  H2  UNL     1      37.955   2.655  41.824  1.00  0.00     0.194 HD
BRANCH  10  12
HETATM   12  O1  UNL     1      37.324   2.948  43.694  1.00  0.00    -0.289 OA
ATOM     13  H1  UNL     1      38.031   2.681  44.269  1.00  0.00     0.244 HD
ENDBRANCH  10  12
BRANCH   9  14
HETATM   14  C7  UNL     1      36.184   2.144  40.397  1.00  0.00     0.203 A 
HETATM   15  N3  UNL     1      37.324   2.013  39.675  1.00  0.00    -0.316 N 
HETATM   16  C8  UNL     1      37.036   1.970  38.365  1.00  0.00     0.163 A 
ATOM     17  H3  UNL     1      38.263   1.956  40.069  1.00  0.00     0.169 HD
HETATM   18  N6  UNL     1      35.697   2.077  38.303  1.00  0.00    -0.240 N 
HETATM   19  O4  UNL     1      35.226   2.179  39.534  1.00  0.00    -0.215 OA
ATOM     20  H6  UNL     1      35.139   2.079  37.450  1.00  0.00     0.196 HD
BRANCH  16  21
HETATM   21  C9  UNL     1      37.959   1.835  37.241  1.00  0.00     0.140 A 
HETATM   22  C10 UNL     1      37.740   2.094  35.909  1.00  0.00     0.133 A 
HETATM   23  N4  UNL     1      38.867   1.825  35.266  1.00  0.00    -0.329 N 
HETATM   24  C11 UNL     1      39.779   1.407  36.166  1.00  0.00     0.227 A 
ATOM     25  H4  UNL     1      39.019   1.919  34.262  1.00  0.00     0.168 HD
HETATM   26  O3  UNL     1      39.202   1.422  37.348  1.00  0.00    -0.274 OA
BRANCH  24  27
HETATM   27  N5  UNL     1      41.099   1.032  35.828  1.00  0.00    -0.343 N 
HETATM   28  C12 UNL     1      41.572  -0.288  36.128  1.00  0.00     0.152 C 
HETATM   29  C13 UNL     1      42.715  -0.622  35.190  1.00  0.00     0.187 C 
HETATM   30  O2  UNL     1      43.700   0.333  35.429  1.00  0.00    -0.388 OA
HETATM   31  C14 UNL     1      43.334   1.543  34.896  1.00  0.00     0.187 C 
HETATM   32  C15 UNL     1      41.945   1.993  35.183  1.00  0.00     0.152 C 
ENDBRANCH  24  27
ENDBRANCH  16  21
ENDBRANCH   9  14
ENDBRANCH   2   9
BRANCH   1  33
HETATM   33  C3  UNL     1      33.640   4.012  41.460  1.00  0.00     0.081 A 
HETATM   34  C2  UNL     1      34.102   5.258  41.090  1.00  0.00     0.141 A 
HETATM   35  N1  UNL     1      33.387   5.230  39.934  1.00  0.00    -0.305 N 
HETATM   36  C1  UNL     1      33.250   6.177  38.846  1.00  0.00     0.177 C 
HETATM   37  N11 UNL     1      32.957   4.038  40.307  1.00  0.00    -0.297 N 
ATOM     38  H11 UNL     1      32.324   3.369  39.869  1.00  0.00     0.187 HD
ENDBRANCH   1  33
BRANCH   8  39
HETATM   39  N10 UNL     1      31.984   4.014  43.504  1.00  0.00    -0.372 N 
ATOM     40  H10 UNL     1      32.172   4.777  42.854  1.00  0.00     0.161 HD
BRANCH  39  41
HETATM   41  C18 UNL     1      30.797   4.064  44.289  1.00  0.00     0.155 C 
BRANCH  41  42
HETATM   42  C19 UNL     1      31.062   4.827  45.582  1.00  0.00     0.159 C 
BRANCH  42  43
HETATM   43  O5  UNL     1      30.341   4.197  46.590  1.00  0.00    -0.392 OA
ATOM     44  H5  UNL     1      29.729   4.833  46.941  1.00  0.00     0.210 HD
ENDBRANCH  42  43
BRANCH  42  45
HETATM   45  C20 UNL     1      30.561   6.250  45.427  1.00  0.00     0.197 C 
BRANCH  45  46
HETATM   46  O6  UNL     1      29.403   6.251  44.638  1.00  0.00    -0.398 OA
ATOM     47  H6  UNL     1      29.430   6.988  44.039  1.00  0.00     0.209 HD
ENDBRANCH  45  46
ENDBRANCH  42  45
ENDBRANCH  41  42
ENDBRANCH  39  41
ENDBRANCH   8  39
BRANCH   5  48
HETATM   48  N8  UNL     1      33.640   0.190  45.366  1.00  0.00    -0.234 N 
ATOM     49  H82 UNL     1      34.517  -0.188  45.724  1.00  0.00     0.174 HD
ATOM     50  H81 UNL     1      32.747  -0.162  45.708  1.00  0.00     0.174 HD
ENDBRANCH   5  48
TORSDOF 13
ENDMDL
