MODEL 1
REMARK VINA RESULT: -4.695554102      0.000      0.000
REMARK  0 active torsions:
REMARK  status: ('A' for Active; 'I' for Inactive)
ROOT
HETATM    1  C1  UNL     1      27.356   7.305   5.485  1.00  0.00     0.015 C 
HETATM    2  C2  UNL     1      26.560   6.247   5.504  1.00  0.00    -0.080 A 
HETATM    3  C3  UNL     1      25.766   5.172   6.141  1.00  0.00     0.047 A 
HETATM    4  C4  UNL     1      25.772   5.218   4.688  1.00  0.00    -0.021 A 
HETATM    5  C5  UNL     1      26.665   4.276   3.923  1.00  0.00     0.020 C 
HETATM    6  C6  UNL     1      24.652   5.851   3.894  1.00  0.00     0.020 C 
ENDROOT
TORSDOF 0
ENDMDL
MODEL 2
REMARK VINA RESULT: -4.613117990      0.810      2.672
REMARK  0 active torsions:
REMARK  status: ('A' for Active; 'I' for Inactive)
ROOT
HETATM    1  C1  UNL     1      27.275   4.652   2.891  1.00  0.00     0.015 C 
HETATM    2  C2  UNL     1      26.408   5.268   3.680  1.00  0.00    -0.080 A 
HETATM    3  C3  UNL     1      25.106   5.879   4.030  1.00  0.00     0.047 A 
HETATM    4  C4  UNL     1      26.137   5.886   5.055  1.00  0.00    -0.021 A 
HETATM    5  C5  UNL     1      26.932   7.143   5.293  1.00  0.00     0.020 C 
HETATM    6  C6  UNL     1      26.181   4.861   6.165  1.00  0.00     0.020 C 
ENDROOT
TORSDOF 0
ENDMDL
MODEL 3
REMARK VINA RESULT: -4.410538420      1.088      1.693
REMARK  0 active torsions:
REMARK  status: ('A' for Active; 'I' for Inactive)
ROOT
HETATM    1  C1  UNL     1      26.701   6.614   6.152  1.00  0.00     0.015 C 
HETATM    2  C2  UNL     1      26.199   6.093   5.042  1.00  0.00    -0.080 A 
HETATM    3  C3  UNL     1      25.135   5.797   4.057  1.00  0.00     0.047 A 
HETATM    4  C4  UNL     1      26.462   5.273   3.776  1.00  0.00    -0.021 A 
HETATM    5  C5  UNL     1      26.762   3.827   4.072  1.00  0.00     0.020 C 
HETATM    6  C6  UNL     1      27.421   5.963   2.833  1.00  0.00     0.020 C 
ENDROOT
TORSDOF 0
ENDMDL
MODEL 4
REMARK VINA RESULT: -4.380901853      1.128      2.140
REMARK  0 active torsions:
REMARK  status: ('A' for Active; 'I' for Inactive)
ROOT
HETATM    1  C1  UNL     1      26.143   5.136   6.232  1.00  0.00     0.015 C 
HETATM    2  C2  UNL     1      25.970   5.484   4.966  1.00  0.00    -0.080 A 
HETATM    3  C3  UNL     1      25.187   5.896   3.779  1.00  0.00     0.047 A 
HETATM    4  C4  UNL     1      26.622   5.739   3.605  1.00  0.00    -0.021 A 
HETATM    5  C5  UNL     1      27.156   4.481   2.971  1.00  0.00     0.020 C 
HETATM    6  C6  UNL     1      27.573   6.913   3.633  1.00  0.00     0.020 C 
ENDROOT
TORSDOF 0
ENDMDL
MODEL 5
REMARK VINA RESULT: -4.337557093      1.288      2.308
REMARK  0 active torsions:
REMARK  status: ('A' for Active; 'I' for Inactive)
ROOT
HETATM    1  C1  UNL     1      27.885   6.513   2.970  1.00  0.00     0.015 C 
HETATM    2  C2  UNL     1      27.104   5.611   3.544  1.00  0.00    -0.080 A 
HETATM    3  C3  UNL     1      26.618   4.244   3.838  1.00  0.00     0.047 A 
HETATM    4  C4  UNL     1      25.931   5.345   4.492  1.00  0.00    -0.021 A 
HETATM    5  C5  UNL     1      24.616   5.829   3.938  1.00  0.00     0.020 C 
HETATM    6  C6  UNL     1      26.236   5.759   5.914  1.00  0.00     0.020 C 
ENDROOT
TORSDOF 0
ENDMDL
