MODEL 1
REMARK VINA RESULT: -4.122295923      0.000      0.000
REMARK  3 active torsions:
REMARK  status: ('A' for Active; 'I' for Inactive)
REMARK    1  A    between atoms: C4_5  and  N2_6 
REMARK    2  A    between atoms: N2_6  and  C5_8 
REMARK    3  A    between atoms: C5_8  and  N3_9 
ROOT
HETATM    1  N2  UNL     1      34.518  28.850  69.025  1.00  0.00    -0.356 N 
ATOM      2  H2  UNL     1      34.204  29.099  69.963  1.00  0.00     0.162 HD
ENDROOT
BRANCH   1   3
HETATM    3  C4  UNL     1      33.685  28.821  67.873  1.00  0.00     0.315 A 
HETATM    4  N1  UNL     1      32.271  28.454  68.054  1.00  0.00    -0.049 N 
HETATM    5  C1  UNL     1      31.307  29.161  67.227  1.00  0.00     0.274 C 
HETATM    6  C2  UNL     1      31.823  28.068  69.400  1.00  0.00     0.274 C 
HETATM    7  C3  UNL     1      33.136  27.521  67.380  1.00  0.00     0.293 A 
ENDBRANCH   1   3
BRANCH   1   8
HETATM    8  C5  UNL     1      35.872  28.477  68.679  1.00  0.00     0.193 C 
BRANCH   8   9
HETATM    9  N3  UNL     1      36.777  28.426  69.767  1.00  0.00    -0.303 N 
HETATM   10  N4  UNL     1      37.650  29.253  69.942  1.00  0.00    -0.344 N 
ATOM     11  H42 UNL     1      37.721  30.012  69.265  1.00  0.00     0.176 HD
ATOM     12  H41 UNL     1      38.302  29.215  70.726  1.00  0.00     0.176 HD
ATOM     13  H3  UNL     1      36.692  27.659  70.435  1.00  0.00     0.187 HD
ENDBRANCH   8   9
ENDBRANCH   1   8
TORSDOF 3
ENDMDL
MODEL 2
REMARK VINA RESULT: -4.040994566      2.774      4.009
REMARK  3 active torsions:
REMARK  status: ('A' for Active; 'I' for Inactive)
REMARK    1  A    between atoms: C4_5  and  N2_6 
REMARK    2  A    between atoms: N2_6  and  C5_8 
REMARK    3  A    between atoms: C5_8  and  N3_9 
ROOT
HETATM    1  N2  UNL     1      33.792  27.835  66.116  1.00  0.00    -0.356 N 
ATOM      2  H2  UNL     1      33.519  28.669  65.595  1.00  0.00     0.162 HD
ENDROOT
BRANCH   1   3
HETATM    3  C4  UNL     1      33.504  27.606  67.489  1.00  0.00     0.315 A 
HETATM    4  N1  UNL     1      32.325  28.273  68.066  1.00  0.00    -0.049 N 
HETATM    5  C1  UNL     1      31.564  27.512  69.043  1.00  0.00     0.274 C 
HETATM    6  C2  UNL     1      31.562  29.192  67.211  1.00  0.00     0.274 C 
HETATM    7  C3  UNL     1      33.631  28.722  68.475  1.00  0.00     0.293 A 
ENDBRANCH   1   3
BRANCH   1   8
HETATM    8  C5  UNL     1      34.528  26.720  65.561  1.00  0.00     0.193 C 
BRANCH   8   9
HETATM    9  N3  UNL     1      34.765  26.792  64.167  1.00  0.00    -0.303 N 
HETATM   10  N4  UNL     1      34.238  26.045  63.365  1.00  0.00    -0.344 N 
ATOM     11  H42 UNL     1      33.598  25.340  63.730  1.00  0.00     0.176 HD
ATOM     12  H41 UNL     1      34.410  26.097  62.361  1.00  0.00     0.176 HD
ATOM     13  H3  UNL     1      35.409  27.503  63.819  1.00  0.00     0.187 HD
ENDBRANCH   8   9
ENDBRANCH   1   8
TORSDOF 3
ENDMDL
MODEL 3
REMARK VINA RESULT: -3.763869893      1.837      4.663
REMARK  3 active torsions:
REMARK  status: ('A' for Active; 'I' for Inactive)
REMARK    1  A    between atoms: C4_5  and  N2_6 
REMARK    2  A    between atoms: N2_6  and  C5_8 
REMARK    3  A    between atoms: C5_8  and  N3_9 
ROOT
HETATM    1  N2  UNL     1      32.983  28.926  66.716  1.00  0.00    -0.356 N 
ATOM      2  H2  UNL     1      33.299  28.932  65.746  1.00  0.00     0.162 HD
ENDROOT
BRANCH   1   3
HETATM    3  C4  UNL     1      33.826  29.110  67.845  1.00  0.00     0.315 A 
HETATM    4  N1  UNL     1      34.688  27.988  68.251  1.00  0.00    -0.049 N 
HETATM    5  C1  UNL     1      36.012  28.332  68.742  1.00  0.00     0.274 C 
HETATM    6  C2  UNL     1      34.570  26.722  67.514  1.00  0.00     0.274 C 
HETATM    7  C3  UNL     1      33.577  28.335  69.099  1.00  0.00     0.293 A 
ENDBRANCH   1   3
BRANCH   1   8
HETATM    8  C5  UNL     1      31.612  28.730  67.136  1.00  0.00     0.193 C 
BRANCH   8   9
HETATM    9  N3  UNL     1      30.799  29.888  67.093  1.00  0.00    -0.303 N 
HETATM   10  N4  UNL     1      29.860  30.011  66.332  1.00  0.00    -0.344 N 
ATOM     11  H42 UNL     1      29.661  29.234  65.701  1.00  0.00     0.176 HD
ATOM     12  H41 UNL     1      29.275  30.846  66.301  1.00  0.00     0.176 HD
ATOM     13  H3  UNL     1      31.012  30.656  67.731  1.00  0.00     0.187 HD
ENDBRANCH   8   9
ENDBRANCH   1   8
TORSDOF 3
ENDMDL
MODEL 4
REMARK VINA RESULT: -3.713674293      2.442      5.352
REMARK  3 active torsions:
REMARK  status: ('A' for Active; 'I' for Inactive)
REMARK    1  A    between atoms: C4_5  and  N2_6 
REMARK    2  A    between atoms: N2_6  and  C5_8 
REMARK    3  A    between atoms: C5_8  and  N3_9 
ROOT
HETATM    1  N2  UNL     1      31.200  29.023  66.760  1.00  0.00    -0.356 N 
ATOM      2  H2  UNL     1      31.267  28.420  65.941  1.00  0.00     0.162 HD
ENDROOT
BRANCH   1   3
HETATM    3  C4  UNL     1      31.969  28.869  67.946  1.00  0.00     0.315 A 
HETATM    4  N1  UNL     1      33.277  28.201  67.837  1.00  0.00    -0.049 N 
HETATM    5  C1  UNL     1      34.342  28.723  68.677  1.00  0.00     0.274 C 
HETATM    6  C2  UNL     1      33.675  27.669  66.526  1.00  0.00     0.274 C 
HETATM    7  C3  UNL     1      32.210  27.505  68.508  1.00  0.00     0.293 A 
ENDBRANCH   1   3
BRANCH   1   8
HETATM    8  C5  UNL     1      30.310  30.158  66.879  1.00  0.00     0.193 C 
BRANCH   8   9
HETATM    9  N3  UNL     1      29.294  30.229  65.896  1.00  0.00    -0.303 N 
HETATM   10  N4  UNL     1      28.931  31.274  65.393  1.00  0.00    -0.344 N 
ATOM     11  H42 UNL     1      29.390  32.130  65.704  1.00  0.00     0.176 HD
ATOM     12  H41 UNL     1      28.198  31.326  64.685  1.00  0.00     0.176 HD
ATOM     13  H3  UNL     1      28.845  29.363  65.596  1.00  0.00     0.187 HD
ENDBRANCH   8   9
ENDBRANCH   1   8
TORSDOF 3
ENDMDL
MODEL 5
REMARK VINA RESULT: -3.618780877      1.857      4.452
REMARK  3 active torsions:
REMARK  status: ('A' for Active; 'I' for Inactive)
REMARK    1  A    between atoms: C4_5  and  N2_6 
REMARK    2  A    between atoms: N2_6  and  C5_8 
REMARK    3  A    between atoms: C5_8  and  N3_9 
ROOT
HETATM    1  N2  UNL     1      32.400  28.213  68.937  1.00  0.00    -0.356 N 
ATOM      2  H2  UNL     1      32.534  28.940  69.641  1.00  0.00     0.162 HD
ENDROOT
BRANCH   1   3
HETATM    3  C4  UNL     1      33.450  27.493  68.306  1.00  0.00     0.315 A 
HETATM    4  N1  UNL     1      34.742  28.175  68.124  1.00  0.00    -0.049 N 
HETATM    5  C1  UNL     1      35.934  27.360  68.289  1.00  0.00     0.274 C 
HETATM    6  C2  UNL     1      34.846  29.581  68.537  1.00  0.00     0.274 C 
HETATM    7  C3  UNL     1      33.939  27.913  66.957  1.00  0.00     0.293 A 
ENDBRANCH   1   3
BRANCH   1   8
HETATM    8  C5  UNL     1      31.114  27.771  68.442  1.00  0.00     0.193 C 
BRANCH   8   9
HETATM    9  N3  UNL     1      30.320  28.782  67.849  1.00  0.00    -0.303 N 
HETATM   10  N4  UNL     1      30.694  29.450  66.904  1.00  0.00    -0.344 N 
ATOM     11  H42 UNL     1      31.625  29.260  66.534  1.00  0.00     0.176 HD
ATOM     12  H41 UNL     1      30.121  30.178  66.477  1.00  0.00     0.176 HD
ATOM     13  H3  UNL     1      29.391  28.958  68.232  1.00  0.00     0.187 HD
ENDBRANCH   8   9
ENDBRANCH   1   8
TORSDOF 3
ENDMDL
