MODEL 1
REMARK VINA RESULT: -8.320508398      0.000      0.000
REMARK  15 active torsions:
REMARK  status: ('A' for Active; 'I' for Inactive)
REMARK    1  A    between atoms: C2_2  and  C3_3 
REMARK    2  A    between atoms: C3_3  and  C4_4 
REMARK    3  A    between atoms: C4_4  and  O1_5 
REMARK    4  A    between atoms: C8_13  and  C9_14 
REMARK    5  A    between atoms: C9_14  and  S1_15 
REMARK    6  A    between atoms: S1_15  and  C10_16 
REMARK    7  A    between atoms: C10_16  and  C11_17 
REMARK    8  A    between atoms: C11_17  and  N2_18 
REMARK       I    between atoms: N2_18  and  C12_20 
REMARK    9  A    between atoms: C12_20  and  C13_22 
REMARK   10  A    between atoms: C13_22  and  C14_23 
REMARK   11  A    between atoms: C13_22  and  N3_30 
REMARK   12  A    between atoms: C14_23  and  C15_24 
REMARK       I    between atoms: N3_30  and  C21_32 
REMARK   13  A    between atoms: C21_32  and  C22_34 
REMARK   14  A    between atoms: C22_34  and  C24_36 
REMARK   15  A    between atoms: C24_36  and  C25_37 
ROOT
HETATM    1  N2  UNL     1      31.965  36.587  12.851  1.00  0.00    -0.359 N 
ATOM      2  H2  UNL     1      32.608  36.284  12.120  1.00  0.00     0.162 HD
HETATM    3  C12 UNL     1      31.323  35.645  13.705  1.00  0.00     0.240 C 
HETATM    4  O2  UNL     1      30.532  36.034  14.582  1.00  0.00    -0.271 OA
ENDROOT
BRANCH   3   5
HETATM    5  C13 UNL     1      31.631  34.171  13.513  1.00  0.00     0.177 C 
BRANCH   5   6
HETATM    6  C14 UNL     1      32.859  34.081  12.689  1.00  0.00     0.039 C 
BRANCH   6   7
HETATM    7  C15 UNL     1      34.133  33.987  13.477  1.00  0.00    -0.012 C 
HETATM    8  C16 UNL     1      35.089  35.021  12.916  1.00  0.00     0.005 C 
HETATM    9  C17 UNL     1      36.437  35.013  13.600  1.00  0.00     0.000 C 
HETATM   10  C18 UNL     1      36.209  35.285  15.072  1.00  0.00     0.000 C 
HETATM   11  C19 UNL     1      35.321  34.174  15.599  1.00  0.00     0.000 C 
HETATM   12  C20 UNL     1      33.955  34.205  14.948  1.00  0.00     0.005 C 
ENDBRANCH   6   7
ENDBRANCH   5   6
BRANCH   5  13
HETATM   13  N3  UNL     1      30.475  33.621  12.844  1.00  0.00    -0.347 N 
HETATM   14  C21 UNL     1      30.131  32.258  12.820  1.00  0.00     0.222 C 
HETATM   15  O3  UNL     1      30.851  31.431  13.413  1.00  0.00    -0.273 OA
ATOM     16  H3  UNL     1      29.861  34.270  12.352  1.00  0.00     0.163 HD
BRANCH  14  17
HETATM   17  C22 UNL     1      28.902  31.778  12.087  1.00  0.00     0.074 C 
HETATM   18  C23 UNL     1      28.891  32.427  10.732  1.00  0.00     0.020 C 
BRANCH  17  19
HETATM   19  C24 UNL     1      28.817  30.300  12.108  1.00  0.00     0.018 C 
BRANCH  19  20
HETATM   20  C25 UNL     1      28.489  29.594  10.847  1.00  0.00    -0.014 C 
HETATM   21  C26 UNL     1      27.088  29.628  10.372  1.00  0.00     0.005 C 
HETATM   22  C27 UNL     1      27.116  29.332   8.870  1.00  0.00     0.000 C 
HETATM   23  C28 UNL     1      28.271  28.449   8.480  1.00  0.00     0.000 C 
HETATM   24  C29 UNL     1      28.622  27.480   9.586  1.00  0.00     0.000 C 
HETATM   25  C30 UNL     1      28.952  28.142  10.876  1.00  0.00     0.005 C 
ENDBRANCH  19  20
ENDBRANCH  17  19
ENDBRANCH  14  17
ENDBRANCH   5  13
ENDBRANCH   3   5
BRANCH   1  26
HETATM   26  C11 UNL     1      31.669  38.000  13.058  1.00  0.00     0.132 C 
BRANCH  26  27
HETATM   27  C10 UNL     1      32.973  38.680  13.430  1.00  0.00     0.093 C 
BRANCH  27  28
HETATM   28  S1  UNL     1      32.519  40.348  14.052  1.00  0.00    -0.167 SA
BRANCH  28  29
HETATM   29  C9  UNL     1      30.733  40.413  14.087  1.00  0.00     0.081 C 
BRANCH  29  30
HETATM   30  C8  UNL     1      30.107  40.670  15.413  1.00  0.00     0.031 C 
HETATM   31  C3  UNL     1      28.654  40.969  15.387  1.00  0.00    -0.012 C 
HETATM   32  C5  UNL     1      27.836  39.692  15.395  1.00  0.00     0.039 C 
HETATM   33  C6  UNL     1      28.274  38.773  16.481  1.00  0.00     0.233 C 
HETATM   34  N1  UNL     1      29.681  38.466  16.301  1.00  0.00    -0.075 N 
HETATM   35  C7  UNL     1      30.502  39.628  16.402  1.00  0.00     0.238 C 
ATOM     36  H12 UNL     1      29.986  37.740  16.949  1.00  0.00     0.277 HD
ATOM     37  H11 UNL     1      29.842  37.976  15.421  1.00  0.00     0.277 HD
BRANCH  31  38
HETATM   38  C2  UNL     1      28.294  41.724  16.663  1.00  0.00     0.007 C 
HETATM   39  C1  UNL     1      28.678  43.167  16.576  1.00  0.00     0.006 C 
ENDBRANCH  31  38
BRANCH  31  40
HETATM   40  C4  UNL     1      28.270  41.798  14.197  1.00  0.00     0.174 C 
BRANCH  40  41
HETATM   41  O1  UNL     1      27.323  41.172  13.405  1.00  0.00    -0.400 OA
ATOM     42  H1  UNL     1      26.866  41.783  12.840  1.00  0.00     0.209 HD
ENDBRANCH  40  41
ENDBRANCH  31  40
ENDBRANCH  29  30
ENDBRANCH  28  29
ENDBRANCH  27  28
ENDBRANCH  26  27
ENDBRANCH   1  26
TORSDOF 15
ENDMDL
MODEL 2
REMARK VINA RESULT: -8.133475375      4.303      6.707
REMARK  15 active torsions:
REMARK  status: ('A' for Active; 'I' for Inactive)
REMARK    1  A    between atoms: C2_2  and  C3_3 
REMARK    2  A    between atoms: C3_3  and  C4_4 
REMARK    3  A    between atoms: C4_4  and  O1_5 
REMARK    4  A    between atoms: C8_13  and  C9_14 
REMARK    5  A    between atoms: C9_14  and  S1_15 
REMARK    6  A    between atoms: S1_15  and  C10_16 
REMARK    7  A    between atoms: C10_16  and  C11_17 
REMARK    8  A    between atoms: C11_17  and  N2_18 
REMARK       I    between atoms: N2_18  and  C12_20 
REMARK    9  A    between atoms: C12_20  and  C13_22 
REMARK   10  A    between atoms: C13_22  and  C14_23 
REMARK   11  A    between atoms: C13_22  and  N3_30 
REMARK   12  A    between atoms: C14_23  and  C15_24 
REMARK       I    between atoms: N3_30  and  C21_32 
REMARK   13  A    between atoms: C21_32  and  C22_34 
REMARK   14  A    between atoms: C22_34  and  C24_36 
REMARK   15  A    between atoms: C24_36  and  C25_37 
ROOT
HETATM    1  N2  UNL     1      31.575  31.626  10.676  1.00  0.00    -0.359 N 
ATOM      2  H2  UNL     1      30.887  31.363   9.970  1.00  0.00     0.162 HD
HETATM    3  C12 UNL     1      32.786  30.894  10.835  1.00  0.00     0.240 C 
HETATM    4  O2  UNL     1      33.605  31.223  11.711  1.00  0.00    -0.271 OA
ENDROOT
BRANCH   3   5
HETATM    5  C13 UNL     1      33.041  29.714   9.915  1.00  0.00     0.177 C 
BRANCH   5   6
HETATM    6  C14 UNL     1      33.482  30.261   8.610  1.00  0.00     0.039 C 
BRANCH   6   7
HETATM    7  C15 UNL     1      34.970  30.313   8.427  1.00  0.00    -0.012 C 
HETATM    8  C16 UNL     1      35.391  31.764   8.549  1.00  0.00     0.005 C 
HETATM    9  C17 UNL     1      36.875  31.968   8.350  1.00  0.00     0.000 C 
HETATM   10  C18 UNL     1      37.600  31.145   9.393  1.00  0.00     0.000 C 
HETATM   11  C19 UNL     1      37.212  29.696   9.167  1.00  0.00     0.000 C 
HETATM   12  C20 UNL     1      35.734  29.477   9.408  1.00  0.00     0.005 C 
ENDBRANCH   6   7
ENDBRANCH   5   6
BRANCH   5  13
HETATM   13  N3  UNL     1      31.779  29.017   9.825  1.00  0.00    -0.347 N 
HETATM   14  C21 UNL     1      31.636  27.635   9.614  1.00  0.00     0.222 C 
HETATM   15  O3  UNL     1      32.652  26.922   9.495  1.00  0.00    -0.273 OA
ATOM     16  H3  UNL     1      30.927  29.570   9.922  1.00  0.00     0.163 HD
BRANCH  14  17
HETATM   17  C22 UNL     1      30.271  26.997   9.528  1.00  0.00     0.074 C 
HETATM   18  C23 UNL     1      30.460  25.508   9.480  1.00  0.00     0.020 C 
BRANCH  17  19
HETATM   19  C24 UNL     1      29.378  27.513  10.591  1.00  0.00     0.018 C 
BRANCH  19  20
HETATM   20  C25 UNL     1      28.659  28.785  10.352  1.00  0.00    -0.014 C 
HETATM   21  C26 UNL     1      28.237  29.580  11.526  1.00  0.00     0.005 C 
HETATM   22  C27 UNL     1      28.034  31.020  11.045  1.00  0.00     0.000 C 
HETATM   23  C28 UNL     1      27.612  31.089   9.602  1.00  0.00     0.000 C 
HETATM   24  C29 UNL     1      26.772  29.893   9.216  1.00  0.00     0.000 C 
HETATM   25  C30 UNL     1      27.449  28.589   9.444  1.00  0.00     0.005 C 
ENDBRANCH  19  20
ENDBRANCH  17  19
ENDBRANCH  14  17
ENDBRANCH   5  13
ENDBRANCH   3   5
BRANCH   1  26
HETATM   26  C11 UNL     1      31.351  32.766  11.560  1.00  0.00     0.132 C 
BRANCH  26  27
HETATM   27  C10 UNL     1      30.715  32.230  12.827  1.00  0.00     0.093 C 
BRANCH  27  28
HETATM   28  S1  UNL     1      31.641  32.987  14.222  1.00  0.00    -0.167 SA
BRANCH  28  29
HETATM   29  C9  UNL     1      32.664  34.273  13.519  1.00  0.00     0.081 C 
BRANCH  29  30
HETATM   30  C8  UNL     1      33.632  34.926  14.442  1.00  0.00     0.031 C 
HETATM   31  C3  UNL     1      35.063  34.776  14.082  1.00  0.00    -0.012 C 
HETATM   32  C5  UNL     1      35.489  35.841  13.091  1.00  0.00     0.039 C 
HETATM   33  C6  UNL     1      35.092  37.200  13.550  1.00  0.00     0.233 C 
HETATM   34  N1  UNL     1      33.653  37.234  13.735  1.00  0.00    -0.075 N 
HETATM   35  C7  UNL     1      33.219  36.326  14.746  1.00  0.00     0.238 C 
ATOM     36  H12 UNL     1      33.328  38.182  13.925  1.00  0.00     0.277 HD
ATOM     37  H11 UNL     1      33.164  37.069  12.856  1.00  0.00     0.277 HD
BRANCH  31  38
HETATM   38  C2  UNL     1      35.902  34.989  15.338  1.00  0.00     0.007 C 
HETATM   39  C1  UNL     1      36.093  33.714  16.096  1.00  0.00     0.006 C 
ENDBRANCH  31  38
BRANCH  31  40
HETATM   40  C4  UNL     1      35.361  33.420  13.512  1.00  0.00     0.174 C 
BRANCH  40  41
HETATM   41  O1  UNL     1      35.638  33.469  12.158  1.00  0.00    -0.400 OA
ATOM     42  H1  UNL     1      35.376  34.293  11.766  1.00  0.00     0.209 HD
ENDBRANCH  40  41
ENDBRANCH  31  40
ENDBRANCH  29  30
ENDBRANCH  28  29
ENDBRANCH  27  28
ENDBRANCH  26  27
ENDBRANCH   1  26
TORSDOF 15
ENDMDL
MODEL 3
REMARK VINA RESULT: -8.112484261      3.057      3.922
REMARK  15 active torsions:
REMARK  status: ('A' for Active; 'I' for Inactive)
REMARK    1  A    between atoms: C2_2  and  C3_3 
REMARK    2  A    between atoms: C3_3  and  C4_4 
REMARK    3  A    between atoms: C4_4  and  O1_5 
REMARK    4  A    between atoms: C8_13  and  C9_14 
REMARK    5  A    between atoms: C9_14  and  S1_15 
REMARK    6  A    between atoms: S1_15  and  C10_16 
REMARK    7  A    between atoms: C10_16  and  C11_17 
REMARK    8  A    between atoms: C11_17  and  N2_18 
REMARK       I    between atoms: N2_18  and  C12_20 
REMARK    9  A    between atoms: C12_20  and  C13_22 
REMARK   10  A    between atoms: C13_22  and  C14_23 
REMARK   11  A    between atoms: C13_22  and  N3_30 
REMARK   12  A    between atoms: C14_23  and  C15_24 
REMARK       I    between atoms: N3_30  and  C21_32 
REMARK   13  A    between atoms: C21_32  and  C22_34 
REMARK   14  A    between atoms: C22_34  and  C24_36 
REMARK   15  A    between atoms: C24_36  and  C25_37 
ROOT
HETATM    1  N2  UNL     1      32.393  33.573  12.196  1.00  0.00    -0.359 N 
ATOM      2  H2  UNL     1      31.527  33.601  11.657  1.00  0.00     0.162 HD
HETATM    3  C12 UNL     1      33.209  32.406  12.220  1.00  0.00     0.240 C 
HETATM    4  O2  UNL     1      34.254  32.389  12.893  1.00  0.00    -0.271 OA
ENDROOT
BRANCH   3   5
HETATM    5  C13 UNL     1      32.768  31.201  11.410  1.00  0.00     0.177 C 
BRANCH   5   6
HETATM    6  C14 UNL     1      33.506  31.239  10.125  1.00  0.00     0.039 C 
BRANCH   6   7
HETATM    7  C15 UNL     1      34.715  30.352  10.075  1.00  0.00    -0.012 C 
HETATM    8  C16 UNL     1      34.323  29.094   9.327  1.00  0.00     0.005 C 
HETATM    9  C17 UNL     1      35.447  28.088   9.231  1.00  0.00     0.000 C 
HETATM   10  C18 UNL     1      36.605  28.755   8.520  1.00  0.00     0.000 C 
HETATM   11  C19 UNL     1      37.013  29.952   9.358  1.00  0.00     0.000 C 
HETATM   12  C20 UNL     1      35.906  30.983   9.420  1.00  0.00     0.005 C 
ENDBRANCH   6   7
ENDBRANCH   5   6
BRANCH   5  13
HETATM   13  N3  UNL     1      31.343  31.357  11.234  1.00  0.00    -0.347 N 
HETATM   14  C21 UNL     1      30.397  31.342  12.273  1.00  0.00     0.222 C 
HETATM   15  O3  UNL     1      30.778  31.189  13.450  1.00  0.00    -0.273 OA
ATOM     16  H3  UNL     1      30.997  31.488  10.283  1.00  0.00     0.163 HD
BRANCH  14  17
HETATM   17  C22 UNL     1      28.924  31.508  11.988  1.00  0.00     0.074 C 
HETATM   18  C23 UNL     1      28.784  32.421  10.803  1.00  0.00     0.020 C 
BRANCH  17  19
HETATM   19  C24 UNL     1      28.252  30.193  11.888  1.00  0.00     0.018 C 
BRANCH  19  20
HETATM   20  C25 UNL     1      28.202  29.525  10.567  1.00  0.00    -0.014 C 
HETATM   21  C26 UNL     1      26.906  29.481   9.855  1.00  0.00     0.005 C 
HETATM   22  C27 UNL     1      27.214  29.259   8.372  1.00  0.00     0.000 C 
HETATM   23  C28 UNL     1      28.485  28.479   8.160  1.00  0.00     0.000 C 
HETATM   24  C29 UNL     1      28.715  27.487   9.277  1.00  0.00     0.000 C 
HETATM   25  C30 UNL     1      28.766  28.110  10.627  1.00  0.00     0.005 C 
ENDBRANCH  19  20
ENDBRANCH  17  19
ENDBRANCH  14  17
ENDBRANCH   5  13
ENDBRANCH   3   5
BRANCH   1  26
HETATM   26  C11 UNL     1      32.838  34.728  12.969  1.00  0.00     0.132 C 
BRANCH  26  27
HETATM   27  C10 UNL     1      31.678  35.152  13.848  1.00  0.00     0.093 C 
BRANCH  27  28
HETATM   28  S1  UNL     1      31.259  36.869  13.346  1.00  0.00    -0.167 SA
BRANCH  28  29
HETATM   29  C9  UNL     1      30.121  37.497  14.572  1.00  0.00     0.081 C 
BRANCH  29  30
HETATM   30  C8  UNL     1      29.951  38.975  14.620  1.00  0.00     0.031 C 
HETATM   31  C3  UNL     1      29.196  39.496  15.786  1.00  0.00    -0.012 C 
HETATM   32  C5  UNL     1      30.108  39.694  16.980  1.00  0.00     0.039 C 
HETATM   33  C6  UNL     1      31.322  40.474  16.614  1.00  0.00     0.233 C 
HETATM   34  N1  UNL     1      32.027  39.779  15.553  1.00  0.00    -0.075 N 
HETATM   35  C7  UNL     1      31.244  39.672  14.366  1.00  0.00     0.238 C 
ATOM     36  H12 UNL     1      32.929  40.214  15.363  1.00  0.00     0.277 HD
ATOM     37  H11 UNL     1      32.352  38.863  15.864  1.00  0.00     0.277 HD
BRANCH  31  38
HETATM   38  C2  UNL     1      28.643  40.872  15.428  1.00  0.00     0.007 C 
HETATM   39  C1  UNL     1      27.619  40.788  14.340  1.00  0.00     0.006 C 
ENDBRANCH  31  38
BRANCH  31  40
HETATM   40  C4  UNL     1      28.062  38.592  16.172  1.00  0.00     0.174 C 
BRANCH  40  41
HETATM   41  O1  UNL     1      27.809  38.618  17.532  1.00  0.00    -0.400 OA
ATOM     42  H1  UNL     1      27.249  37.903  17.808  1.00  0.00     0.209 HD
ENDBRANCH  40  41
ENDBRANCH  31  40
ENDBRANCH  29  30
ENDBRANCH  28  29
ENDBRANCH  27  28
ENDBRANCH  26  27
ENDBRANCH   1  26
TORSDOF 15
ENDMDL
MODEL 4
REMARK VINA RESULT: -8.106216343      1.567      2.162
REMARK  15 active torsions:
REMARK  status: ('A' for Active; 'I' for Inactive)
REMARK    1  A    between atoms: C2_2  and  C3_3 
REMARK    2  A    between atoms: C3_3  and  C4_4 
REMARK    3  A    between atoms: C4_4  and  O1_5 
REMARK    4  A    between atoms: C8_13  and  C9_14 
REMARK    5  A    between atoms: C9_14  and  S1_15 
REMARK    6  A    between atoms: S1_15  and  C10_16 
REMARK    7  A    between atoms: C10_16  and  C11_17 
REMARK    8  A    between atoms: C11_17  and  N2_18 
REMARK       I    between atoms: N2_18  and  C12_20 
REMARK    9  A    between atoms: C12_20  and  C13_22 
REMARK   10  A    between atoms: C13_22  and  C14_23 
REMARK   11  A    between atoms: C13_22  and  N3_30 
REMARK   12  A    between atoms: C14_23  and  C15_24 
REMARK       I    between atoms: N3_30  and  C21_32 
REMARK   13  A    between atoms: C21_32  and  C22_34 
REMARK   14  A    between atoms: C22_34  and  C24_36 
REMARK   15  A    between atoms: C24_36  and  C25_37 
ROOT
HETATM    1  N2  UNL     1      31.350  36.090  14.273  1.00  0.00    -0.359 N 
ATOM      2  H2  UNL     1      31.341  35.651  15.194  1.00  0.00     0.162 HD
HETATM    3  C12 UNL     1      31.667  35.341  13.103  1.00  0.00     0.240 C 
HETATM    4  O2  UNL     1      31.685  35.897  11.991  1.00  0.00    -0.271 OA
ENDROOT
BRANCH   3   5
HETATM    5  C13 UNL     1      31.978  33.863  13.255  1.00  0.00     0.177 C 
BRANCH   5   6
HETATM    6  C14 UNL     1      33.237  33.599  12.519  1.00  0.00     0.039 C 
BRANCH   6   7
HETATM    7  C15 UNL     1      34.484  33.788  13.330  1.00  0.00    -0.012 C 
HETATM    8  C16 UNL     1      35.199  35.009  12.786  1.00  0.00     0.005 C 
HETATM    9  C17 UNL     1      36.502  35.297  13.495  1.00  0.00     0.000 C 
HETATM   10  C18 UNL     1      36.193  35.509  14.962  1.00  0.00     0.000 C 
HETATM   11  C19 UNL     1      35.563  34.227  15.474  1.00  0.00     0.000 C 
HETATM   12  C20 UNL     1      34.236  33.956  14.798  1.00  0.00     0.005 C 
ENDBRANCH   6   7
ENDBRANCH   5   6
BRANCH   5  13
HETATM   13  N3  UNL     1      30.847  33.172  12.682  1.00  0.00    -0.347 N 
HETATM   14  C21 UNL     1      30.533  31.820  12.902  1.00  0.00     0.222 C 
HETATM   15  O3  UNL     1      31.260  31.133  13.647  1.00  0.00    -0.273 OA
ATOM     16  H3  UNL     1      30.229  33.706  12.070  1.00  0.00     0.163 HD
BRANCH  14  17
HETATM   17  C22 UNL     1      29.329  31.183  12.252  1.00  0.00     0.074 C 
HETATM   18  C23 UNL     1      28.099  31.808  12.848  1.00  0.00     0.020 C 
BRANCH  17  19
HETATM   19  C24 UNL     1      29.439  31.227  10.776  1.00  0.00     0.018 C 
BRANCH  19  20
HETATM   20  C25 UNL     1      28.819  30.135   9.990  1.00  0.00    -0.014 C 
HETATM   21  C26 UNL     1      27.404  30.283   9.585  1.00  0.00     0.005 C 
HETATM   22  C27 UNL     1      27.179  29.355   8.388  1.00  0.00     0.000 C 
HETATM   23  C28 UNL     1      28.076  28.147   8.422  1.00  0.00     0.000 C 
HETATM   24  C29 UNL     1      28.366  27.716   9.842  1.00  0.00     0.000 C 
HETATM   25  C30 UNL     1      28.984  28.782  10.674  1.00  0.00     0.005 C 
ENDBRANCH  19  20
ENDBRANCH  17  19
ENDBRANCH  14  17
ENDBRANCH   5  13
ENDBRANCH   3   5
BRANCH   1  26
HETATM   26  C11 UNL     1      31.040  37.506  14.107  1.00  0.00     0.132 C 
BRANCH  26  27
HETATM   27  C10 UNL     1      29.893  37.824  15.047  1.00  0.00     0.093 C 
BRANCH  27  28
HETATM   28  S1  UNL     1      30.652  38.140  16.690  1.00  0.00    -0.167 SA
BRANCH  28  29
HETATM   29  C9  UNL     1      30.313  39.848  17.090  1.00  0.00     0.081 C 
BRANCH  29  30
HETATM   30  C8  UNL     1      29.922  40.729  15.955  1.00  0.00     0.031 C 
HETATM   31  C3  UNL     1      28.517  41.206  15.970  1.00  0.00    -0.012 C 
HETATM   32  C5  UNL     1      28.376  42.456  16.817  1.00  0.00     0.039 C 
HETATM   33  C6  UNL     1      29.389  43.481  16.445  1.00  0.00     0.233 C 
HETATM   34  N1  UNL     1      30.715  42.914  16.604  1.00  0.00    -0.075 N 
HETATM   35  C7  UNL     1      30.933  41.802  15.738  1.00  0.00     0.238 C 
ATOM     36  H12 UNL     1      31.437  43.624  16.483  1.00  0.00     0.277 HD
ATOM     37  H11 UNL     1      30.896  42.665  17.577  1.00  0.00     0.277 HD
BRANCH  31  38
HETATM   38  C2  UNL     1      28.126  41.598  14.548  1.00  0.00     0.007 C 
HETATM   39  C1  UNL     1      27.324  40.525  13.882  1.00  0.00     0.006 C 
ENDBRANCH  31  38
BRANCH  31  40
HETATM   40  C4  UNL     1      27.570  40.156  16.472  1.00  0.00     0.174 C 
BRANCH  40  41
HETATM   41  O1  UNL     1      26.877  40.570  17.596  1.00  0.00    -0.400 OA
ATOM     42  H1  UNL     1      26.070  40.084  17.720  1.00  0.00     0.209 HD
ENDBRANCH  40  41
ENDBRANCH  31  40
ENDBRANCH  29  30
ENDBRANCH  28  29
ENDBRANCH  27  28
ENDBRANCH  26  27
ENDBRANCH   1  26
TORSDOF 15
ENDMDL
MODEL 5
REMARK VINA RESULT: -8.095054178      2.638      9.957
REMARK  15 active torsions:
REMARK  status: ('A' for Active; 'I' for Inactive)
REMARK    1  A    between atoms: C2_2  and  C3_3 
REMARK    2  A    between atoms: C3_3  and  C4_4 
REMARK    3  A    between atoms: C4_4  and  O1_5 
REMARK    4  A    between atoms: C8_13  and  C9_14 
REMARK    5  A    between atoms: C9_14  and  S1_15 
REMARK    6  A    between atoms: S1_15  and  C10_16 
REMARK    7  A    between atoms: C10_16  and  C11_17 
REMARK    8  A    between atoms: C11_17  and  N2_18 
REMARK       I    between atoms: N2_18  and  C12_20 
REMARK    9  A    between atoms: C12_20  and  C13_22 
REMARK   10  A    between atoms: C13_22  and  C14_23 
REMARK   11  A    between atoms: C13_22  and  N3_30 
REMARK   12  A    between atoms: C14_23  and  C15_24 
REMARK       I    between atoms: N3_30  and  C21_32 
REMARK   13  A    between atoms: C21_32  and  C22_34 
REMARK   14  A    between atoms: C22_34  and  C24_36 
REMARK   15  A    between atoms: C24_36  and  C25_37 
ROOT
HETATM    1  N2  UNL     1      30.756  32.582  12.389  1.00  0.00    -0.359 N 
ATOM      2  H2  UNL     1      30.690  32.940  11.436  1.00  0.00     0.162 HD
HETATM    3  C12 UNL     1      31.527  33.256  13.379  1.00  0.00     0.240 C 
HETATM    4  O2  UNL     1      31.604  32.796  14.531  1.00  0.00    -0.271 OA
ENDROOT
BRANCH   3   5
HETATM    5  C13 UNL     1      32.241  34.537  12.987  1.00  0.00     0.177 C 
BRANCH   5   6
HETATM    6  C14 UNL     1      33.693  34.241  12.958  1.00  0.00     0.039 C 
BRANCH   6   7
HETATM    7  C15 UNL     1      34.464  34.789  14.123  1.00  0.00    -0.012 C 
HETATM    8  C16 UNL     1      35.177  33.625  14.782  1.00  0.00     0.005 C 
HETATM    9  C17 UNL     1      35.971  34.032  16.002  1.00  0.00     0.000 C 
HETATM   10  C18 UNL     1      36.990  35.065  15.568  1.00  0.00     0.000 C 
HETATM   11  C19 UNL     1      36.218  36.240  15.000  1.00  0.00     0.000 C 
HETATM   12  C20 UNL     1      35.456  35.849  13.752  1.00  0.00     0.005 C 
ENDBRANCH   6   7
ENDBRANCH   5   6
BRANCH   5  13
HETATM   13  N3  UNL     1      31.893  35.498  14.007  1.00  0.00    -0.347 N 
HETATM   14  C21 UNL     1      31.640  36.861  13.776  1.00  0.00     0.222 C 
HETATM   15  O3  UNL     1      31.708  37.312  12.615  1.00  0.00    -0.273 OA
ATOM     16  H3  UNL     1      31.826  35.163  14.968  1.00  0.00     0.163 HD
BRANCH  14  17
HETATM   17  C22 UNL     1      31.289  37.792  14.911  1.00  0.00     0.074 C 
HETATM   18  C23 UNL     1      31.900  39.132  14.615  1.00  0.00     0.020 C 
BRANCH  17  19
HETATM   19  C24 UNL     1      29.832  37.778  15.176  1.00  0.00     0.018 C 
BRANCH  19  20
HETATM   20  C25 UNL     1      29.079  39.046  15.042  1.00  0.00    -0.014 C 
HETATM   21  C26 UNL     1      28.587  39.699  16.275  1.00  0.00     0.005 C 
HETATM   22  C27 UNL     1      28.352  41.174  15.939  1.00  0.00     0.000 C 
HETATM   23  C28 UNL     1      27.982  41.384  14.495  1.00  0.00     0.000 C 
HETATM   24  C29 UNL     1      27.198  40.210  13.952  1.00  0.00     0.000 C 
HETATM   25  C30 UNL     1      27.911  38.910  14.071  1.00  0.00     0.005 C 
ENDBRANCH  19  20
ENDBRANCH  17  19
ENDBRANCH  14  17
ENDBRANCH   5  13
ENDBRANCH   3   5
BRANCH   1  26
HETATM   26  C11 UNL     1      30.064  31.360  12.786  1.00  0.00     0.132 C 
BRANCH  26  27
HETATM   27  C10 UNL     1      28.581  31.599  12.576  1.00  0.00     0.093 C 
BRANCH  27  28
HETATM   28  S1  UNL     1      28.355  31.852  10.771  1.00  0.00    -0.167 SA
BRANCH  28  29
HETATM   29  C9  UNL     1      29.210  30.512   9.955  1.00  0.00     0.081 C 
BRANCH  29  30
HETATM   30  C8  UNL     1      28.428  29.264   9.737  1.00  0.00     0.031 C 
HETATM   31  C3  UNL     1      28.531  28.672   8.381  1.00  0.00    -0.012 C 
HETATM   32  C5  UNL     1      29.747  27.773   8.271  1.00  0.00     0.039 C 
HETATM   33  C6  UNL     1      29.805  26.797   9.394  1.00  0.00     0.233 C 
HETATM   34  N1  UNL     1      29.830  27.524  10.650  1.00  0.00    -0.075 N 
HETATM   35  C7  UNL     1      28.647  28.295  10.849  1.00  0.00     0.238 C 
ATOM     36  H12 UNL     1      29.998  26.896  11.436  1.00  0.00     0.277 HD
ATOM     37  H11 UNL     1      30.665  28.104  10.725  1.00  0.00     0.277 HD
BRANCH  31  38
HETATM   38  C2  UNL     1      27.312  27.784   8.148  1.00  0.00     0.007 C 
HETATM   39  C1  UNL     1      27.201  27.367   6.716  1.00  0.00     0.006 C 
ENDBRANCH  31  38
BRANCH  31  40
HETATM   40  C4  UNL     1      28.591  29.722   7.311  1.00  0.00     0.174 C 
BRANCH  40  41
HETATM   41  O1  UNL     1      29.776  29.678   6.598  1.00  0.00    -0.400 OA
ATOM     42  H1  UNL     1      30.095  30.544   6.376  1.00  0.00     0.209 HD
ENDBRANCH  40  41
ENDBRANCH  31  40
ENDBRANCH  29  30
ENDBRANCH  28  29
ENDBRANCH  27  28
ENDBRANCH  26  27
ENDBRANCH   1  26
TORSDOF 15
ENDMDL
