MODEL 1
REMARK VINA RESULT: -5.282435539      0.000      0.000
REMARK  0 active torsions:
REMARK  status: ('A' for Active; 'I' for Inactive)
ROOT
HETATM    1  C1  UNL     1      26.274   6.828   6.198  1.00  0.00     0.002 C 
HETATM    2  C2  UNL     1      26.948   6.974   4.846  1.00  0.00     0.008 C 
HETATM    3  C3  UNL     1      25.964   6.345   3.911  1.00  0.00     0.042 C 
HETATM    4  C4  UNL     1      26.659   5.342   3.012  1.00  0.00     0.239 C 
HETATM    5  N1  UNL     1      26.391   4.338   4.009  1.00  0.00    -0.070 N 
ATOM      6  H11 UNL     1      27.167   3.969   4.559  1.00  0.00     0.277 HD
ATOM      7  H12 UNL     1      26.130   3.399   3.707  1.00  0.00     0.277 HD
HETATM    8  C5  UNL     1      25.390   5.171   4.671  1.00  0.00     0.191 C 
HETATM    9  C6  UNL     1      25.664   5.455   6.122  1.00  0.00     0.033 C 
ENDROOT
TORSDOF 0
ENDMDL
MODEL 2
REMARK VINA RESULT: -5.107418196      0.980      1.444
REMARK  0 active torsions:
REMARK  status: ('A' for Active; 'I' for Inactive)
ROOT
HETATM    1  C1  UNL     1      25.706   5.710   6.197  1.00  0.00     0.002 C 
HETATM    2  C2  UNL     1      26.750   6.751   5.840  1.00  0.00     0.008 C 
HETATM    3  C3  UNL     1      26.345   7.174   4.462  1.00  0.00     0.042 C 
HETATM    4  C4  UNL     1      27.536   7.134   3.527  1.00  0.00     0.239 C 
HETATM    5  N1  UNL     1      27.197   5.764   3.234  1.00  0.00    -0.070 N 
ATOM      6  H11 UNL     1      27.799   5.021   3.588  1.00  0.00     0.277 HD
ATOM      7  H12 UNL     1      27.301   5.423   2.278  1.00  0.00     0.277 HD
HETATM    8  C5  UNL     1      25.854   5.911   3.790  1.00  0.00     0.191 C 
HETATM    9  C6  UNL     1      25.525   4.959   4.906  1.00  0.00     0.033 C 
ENDROOT
TORSDOF 0
ENDMDL
MODEL 3
REMARK VINA RESULT: -5.066060249      1.352      2.826
REMARK  0 active torsions:
REMARK  status: ('A' for Active; 'I' for Inactive)
ROOT
HETATM    1  C1  UNL     1      26.925   5.321   2.838  1.00  0.00     0.002 C 
HETATM    2  C2  UNL     1      26.249   4.526   3.940  1.00  0.00     0.008 C 
HETATM    3  C3  UNL     1      25.357   5.539   4.586  1.00  0.00     0.042 C 
HETATM    4  C4  UNL     1      25.547   5.526   6.090  1.00  0.00     0.239 C 
HETATM    5  N1  UNL     1      26.583   6.512   5.916  1.00  0.00    -0.070 N 
ATOM      6  H11 UNL     1      27.554   6.238   6.067  1.00  0.00     0.277 HD
ATOM      7  H12 UNL     1      26.666   7.266   6.599  1.00  0.00     0.277 HD
HETATM    8  C5  UNL     1      26.141   6.831   4.560  1.00  0.00     0.191 C 
HETATM    9  C6  UNL     1      27.188   6.648   3.496  1.00  0.00     0.033 C 
ENDROOT
TORSDOF 0
ENDMDL
MODEL 4
REMARK VINA RESULT: -4.677658624      1.482      2.869
REMARK  0 active torsions:
REMARK  status: ('A' for Active; 'I' for Inactive)
ROOT
HETATM    1  C1  UNL     1      26.287   4.523   3.667  1.00  0.00     0.002 C 
HETATM    2  C2  UNL     1      26.009   4.823   5.128  1.00  0.00     0.008 C 
HETATM    3  C3  UNL     1      25.626   6.270   5.106  1.00  0.00     0.042 C 
HETATM    4  C4  UNL     1      26.412   7.039   6.150  1.00  0.00     0.239 C 
HETATM    5  N1  UNL     1      27.423   7.265   5.149  1.00  0.00    -0.070 N 
ATOM      6  H11 UNL     1      28.317   6.780   5.231  1.00  0.00     0.277 HD
ATOM      7  H12 UNL     1      27.893   8.170   5.117  1.00  0.00     0.277 HD
HETATM    8  C5  UNL     1      26.519   6.900   4.061  1.00  0.00     0.191 C 
HETATM    9  C6  UNL     1      26.996   5.765   3.198  1.00  0.00     0.033 C 
ENDROOT
TORSDOF 0
ENDMDL
MODEL 5
REMARK VINA RESULT: -4.470299341      1.096      2.330
REMARK  0 active torsions:
REMARK  status: ('A' for Active; 'I' for Inactive)
ROOT
HETATM    1  C1  UNL     1      27.361   6.762   3.464  1.00  0.00     0.002 C 
HETATM    2  C2  UNL     1      26.801   7.129   4.826  1.00  0.00     0.008 C 
HETATM    3  C3  UNL     1      26.666   5.801   5.502  1.00  0.00     0.042 C 
HETATM    4  C4  UNL     1      25.282   5.652   6.102  1.00  0.00     0.239 C 
HETATM    5  N1  UNL     1      24.854   5.086   4.848  1.00  0.00    -0.070 N 
ATOM      6  H11 UNL     1      24.235   5.630   4.247  1.00  0.00     0.277 HD
ATOM      7  H12 UNL     1      24.196   4.306   4.858  1.00  0.00     0.277 HD
HETATM    8  C5  UNL     1      26.229   4.846   4.414  1.00  0.00     0.191 C 
HETATM    9  C6  UNL     1      26.607   5.507   3.118  1.00  0.00     0.033 C 
ENDROOT
TORSDOF 0
ENDMDL
