MODEL 1
REMARK VINA RESULT: -5.048714473      0.000      0.000
REMARK  0 active torsions:
REMARK  status: ('A' for Active; 'I' for Inactive)
ROOT
HETATM    1  C1  UNL     1      26.488   6.725   6.098  1.00  0.00     0.011 C 
HETATM    2  C2  UNL     1      26.276   6.703   4.582  1.00  0.00    -0.001 C 
HETATM    3  C3  UNL     1      27.623   6.958   3.956  1.00  0.00     0.007 C 
HETATM    4  C4  UNL     1      27.621   6.367   2.563  1.00  0.00     0.020 C 
HETATM    5  C5  UNL     1      27.511   4.872   2.707  1.00  0.00     0.113 C 
HETATM    6  N1  UNL     1      26.574   4.439   3.674  1.00  0.00    -0.421 N 
ATOM      7  H1  UNL     1      26.559   3.481   4.023  1.00  0.00     0.153 HD
HETATM    8  C6  UNL     1      25.650   5.430   4.131  1.00  0.00     0.118 C 
ENDROOT
TORSDOF 0
ENDMDL
MODEL 2
REMARK VINA RESULT: -4.928116581      1.459      3.167
REMARK  0 active torsions:
REMARK  status: ('A' for Active; 'I' for Inactive)
ROOT
HETATM    1  C1  UNL     1      27.710   4.876   2.617  1.00  0.00     0.011 C 
HETATM    2  C2  UNL     1      26.561   5.577   3.346  1.00  0.00    -0.001 C 
HETATM    3  C3  UNL     1      26.192   4.697   4.512  1.00  0.00     0.007 C 
HETATM    4  C4  UNL     1      25.542   5.558   5.573  1.00  0.00     0.020 C 
HETATM    5  C5  UNL     1      26.591   6.506   6.090  1.00  0.00     0.113 C 
HETATM    6  N1  UNL     1      27.406   7.087   5.091  1.00  0.00    -0.421 N 
ATOM      7  H1  UNL     1      28.280   7.565   5.314  1.00  0.00     0.153 HD
HETATM    8  C6  UNL     1      26.929   6.963   3.749  1.00  0.00     0.118 C 
ENDROOT
TORSDOF 0
ENDMDL
MODEL 3
REMARK VINA RESULT: -4.584423538      1.554      3.001
REMARK  0 active torsions:
REMARK  status: ('A' for Active; 'I' for Inactive)
ROOT
HETATM    1  C1  UNL     1      28.083   6.314   2.825  1.00  0.00     0.011 C 
HETATM    2  C2  UNL     1      26.732   6.435   3.534  1.00  0.00    -0.001 C 
HETATM    3  C3  UNL     1      26.270   5.030   3.821  1.00  0.00     0.007 C 
HETATM    4  C4  UNL     1      25.318   5.072   4.997  1.00  0.00     0.020 C 
HETATM    5  C5  UNL     1      26.109   5.498   6.204  1.00  0.00     0.113 C 
HETATM    6  N1  UNL     1      27.014   6.561   5.972  1.00  0.00    -0.421 N 
ATOM      7  H1  UNL     1      27.755   6.796   6.632  1.00  0.00     0.153 HD
HETATM    8  C6  UNL     1      26.823   7.285   4.753  1.00  0.00     0.118 C 
ENDROOT
TORSDOF 0
ENDMDL
MODEL 4
REMARK VINA RESULT: -4.480932928      1.573      3.000
REMARK  0 active torsions:
REMARK  status: ('A' for Active; 'I' for Inactive)
ROOT
HETATM    1  C1  UNL     1      26.577   4.202   3.694  1.00  0.00     0.011 C 
HETATM    2  C2  UNL     1      26.108   5.591   4.135  1.00  0.00    -0.001 C 
HETATM    3  C3  UNL     1      26.233   5.629   5.636  1.00  0.00     0.007 C 
HETATM    4  C4  UNL     1      26.382   7.073   6.065  1.00  0.00     0.020 C 
HETATM    5  C5  UNL     1      27.699   7.570   5.531  1.00  0.00     0.113 C 
HETATM    6  N1  UNL     1      27.980   7.182   4.199  1.00  0.00    -0.421 N 
ATOM      7  H1  UNL     1      28.914   7.261   3.798  1.00  0.00     0.153 HD
HETATM    8  C6  UNL     1      26.872   6.672   3.453  1.00  0.00     0.118 C 
ENDROOT
TORSDOF 0
ENDMDL
MODEL 5
REMARK VINA RESULT: -4.291667745      1.034      1.327
REMARK  0 active torsions:
REMARK  status: ('A' for Active; 'I' for Inactive)
ROOT
HETATM    1  C1  UNL     1      27.826   7.661   5.119  1.00  0.00     0.011 C 
HETATM    2  C2  UNL     1      26.908   6.998   4.089  1.00  0.00    -0.001 C 
HETATM    3  C3  UNL     1      27.800   6.221   3.156  1.00  0.00     0.007 C 
HETATM    4  C4  UNL     1      26.986   5.105   2.537  1.00  0.00     0.020 C 
HETATM    5  C5  UNL     1      26.616   4.150   3.640  1.00  0.00     0.113 C 
HETATM    6  N1  UNL     1      26.193   4.769   4.840  1.00  0.00    -0.421 N 
ATOM      7  H1  UNL     1      26.127   4.258   5.720  1.00  0.00     0.153 HD
HETATM    8  C6  UNL     1      25.865   6.158   4.741  1.00  0.00     0.118 C 
ENDROOT
TORSDOF 0
ENDMDL
