MODEL 1
REMARK VINA RESULT: -7.424005847      0.000      0.000
REMARK  3 active torsions:
REMARK  status: ('A' for Active; 'I' for Inactive)
REMARK    1  A    between atoms: C6_6  and  N1_7 
REMARK    2  A    between atoms: C7_10  and  C8_11 
REMARK       I    between atoms: N3_17  and  C14_19 
REMARK       I    between atoms: C14_19  and  N5_23 
REMARK    3  A    between atoms: N5_23  and  C15_25 
ROOT
HETATM    1  N1  UNL     1       4.524 -28.705  37.595  1.00  0.00    -0.239 N 
HETATM    2  N2  UNL     1       5.078 -29.785  38.117  1.00  0.00    -0.295 N 
ATOM      3  H2  UNL     1       6.020 -29.819  38.507  1.00  0.00     0.187 HD
HETATM    4  C7  UNL     1       4.239 -30.834  38.067  1.00  0.00     0.037 A 
HETATM    5  C12 UNL     1       3.085 -30.375  37.473  1.00  0.00     0.078 A 
HETATM    6  C13 UNL     1       3.282 -29.032  37.183  1.00  0.00     0.144 A 
HETATM    7  N3  UNL     1       2.431 -28.254  36.627  1.00  0.00    -0.175 N 
ATOM      8  H3  UNL     1       2.676 -27.278  36.461  1.00  0.00     0.186 HD
HETATM    9  C14 UNL     1       1.130 -28.738  36.233  1.00  0.00     0.692 C 
HETATM   10  N4  UNL     1       0.932 -29.147  35.023  1.00  0.00    -0.234 N 
ATOM     11  H41 UNL     1       0.012 -29.489  34.745  1.00  0.00     0.174 HD
ATOM     12  H42 UNL     1       1.718 -29.113  34.374  1.00  0.00     0.174 HD
HETATM   13  N5  UNL     1       0.035 -28.786  37.138  1.00  0.00    -0.022 N 
ATOM     14  H5  UNL     1      -0.224 -29.653  37.607  1.00  0.00     0.203 HD
ENDROOT
BRANCH   1  15
HETATM   15  C6  UNL     1       5.107 -27.397  37.466  1.00  0.00     0.059 A 
HETATM   16  C5  UNL     1       5.776 -27.024  36.310  1.00  0.00     0.031 A 
HETATM   17  C4  UNL     1       6.347 -25.785  36.152  1.00  0.00     0.003 A 
HETATM   18  C3  UNL     1       6.256 -24.880  37.162  1.00  0.00     0.007 A 
HETATM   19  C2  UNL     1       5.595 -25.209  38.338  1.00  0.00    -0.060 A 
HETATM   20  C1  UNL     1       5.520 -24.181  39.424  1.00  0.00     0.048 C 
HETATM   21  C20 UNL     1       5.031 -26.459  38.472  1.00  0.00     0.038 A 
ENDBRANCH   1  15
BRANCH  13  22
HETATM   22  C15 UNL     1      -0.621 -27.693  37.347  1.00  0.00     0.705 A 
HETATM   23  N6  UNL     1      -1.554 -27.129  36.541  1.00  0.00    -0.197 N 
HETATM   24  C16 UNL     1      -2.009 -26.004  37.107  1.00  0.00     0.157 A 
ATOM     25  H6  UNL     1      -1.862 -27.503  35.644  1.00  0.00     0.183 HD
HETATM   26  C17 UNL     1      -1.344 -25.854  38.305  1.00  0.00     0.162 A 
HETATM   27  N7  UNL     1      -1.250 -25.032  39.381  1.00  0.00    -0.278 N 
HETATM   28  N9  UNL     1      -0.511 -26.886  38.428  1.00  0.00    -0.124 N 
HETATM   29  C18 UNL     1      -1.994 -23.809  39.607  1.00  0.00     0.179 C 
HETATM   30  N8  UNL     1      -0.337 -25.593  40.161  1.00  0.00    -0.292 N 
HETATM   31  C19 UNL     1       0.123 -26.724  39.594  1.00  0.00     0.225 A 
ATOM     32  H8  UNL     1      -0.029 -25.223  41.061  1.00  0.00     0.188 HD
ENDBRANCH  13  22
BRANCH   4  33
HETATM   33  C8  UNL     1       4.421 -32.230  38.525  1.00  0.00    -0.007 C 
HETATM   34  C9  UNL     1       3.125 -32.655  39.179  1.00  0.00     0.021 C 
HETATM   35  C10 UNL     1       4.620 -33.125  37.307  1.00  0.00     0.021 C 
HETATM   36  C11 UNL     1       5.612 -32.394  39.430  1.00  0.00     0.021 C 
ENDBRANCH   4  33
TORSDOF 3
ENDMDL
MODEL 2
REMARK VINA RESULT: -7.409703534      2.127      2.957
REMARK  3 active torsions:
REMARK  status: ('A' for Active; 'I' for Inactive)
REMARK    1  A    between atoms: C6_6  and  N1_7 
REMARK    2  A    between atoms: C7_10  and  C8_11 
REMARK       I    between atoms: N3_17  and  C14_19 
REMARK       I    between atoms: C14_19  and  N5_23 
REMARK    3  A    between atoms: N5_23  and  C15_25 
ROOT
HETATM    1  N1  UNL     1       3.509 -28.172  37.171  1.00  0.00    -0.239 N 
HETATM    2  N2  UNL     1       3.943 -29.381  36.859  1.00  0.00    -0.295 N 
ATOM      3  H2  UNL     1       4.891 -29.591  36.548  1.00  0.00     0.187 HD
HETATM    4  C7  UNL     1       2.972 -30.298  37.006  1.00  0.00     0.037 A 
HETATM    5  C12 UNL     1       1.858 -29.613  37.437  1.00  0.00     0.078 A 
HETATM    6  C13 UNL     1       2.216 -28.275  37.535  1.00  0.00     0.144 A 
HETATM    7  N3  UNL     1       1.448 -27.321  37.909  1.00  0.00    -0.175 N 
ATOM      8  H3  UNL     1       1.812 -26.369  37.951  1.00  0.00     0.186 HD
HETATM    9  C14 UNL     1       0.075 -27.573  38.273  1.00  0.00     0.692 C 
HETATM   10  N4  UNL     1      -0.863 -27.435  37.395  1.00  0.00    -0.234 N 
ATOM     11  H41 UNL     1      -1.834 -27.614  37.653  1.00  0.00     0.174 HD
ATOM     12  H42 UNL     1      -0.596 -27.147  36.454  1.00  0.00     0.174 HD
HETATM   13  N5  UNL     1      -0.298 -27.976  39.585  1.00  0.00    -0.022 N 
ATOM     14  H5  UNL     1      -0.476 -28.955  39.805  1.00  0.00     0.203 HD
ENDROOT
BRANCH   1  15
HETATM   15  C6  UNL     1       4.250 -26.940  37.136  1.00  0.00     0.059 A 
HETATM   16  C5  UNL     1       4.665 -26.390  35.933  1.00  0.00     0.031 A 
HETATM   17  C4  UNL     1       5.377 -25.217  35.860  1.00  0.00     0.003 A 
HETATM   18  C3  UNL     1       5.689 -24.560  37.009  1.00  0.00     0.007 A 
HETATM   19  C2  UNL     1       5.294 -25.073  38.237  1.00  0.00    -0.060 A 
HETATM   20  C1  UNL     1       5.661 -24.316  39.475  1.00  0.00     0.048 C 
HETATM   21  C20 UNL     1       4.582 -26.252  38.282  1.00  0.00     0.038 A 
ENDBRANCH   1  15
BRANCH  13  22
HETATM   22  C15 UNL     1      -0.403 -27.059  40.488  1.00  0.00     0.705 A 
HETATM   23  N6  UNL     1      -0.509 -25.721  40.293  1.00  0.00    -0.197 N 
HETATM   24  C16 UNL     1      -0.603 -25.105  41.478  1.00  0.00     0.157 A 
ATOM     25  H6  UNL     1      -0.517 -25.257  39.385  1.00  0.00     0.183 HD
HETATM   26  C17 UNL     1      -0.556 -26.082  42.450  1.00  0.00     0.162 A 
HETATM   27  N7  UNL     1      -0.590 -26.254  43.795  1.00  0.00    -0.278 N 
HETATM   28  N9  UNL     1      -0.434 -27.253  41.828  1.00  0.00    -0.124 N 
HETATM   29  C18 UNL     1      -0.712 -25.218  44.801  1.00  0.00     0.179 C 
HETATM   30  N8  UNL     1      -0.487 -27.564  43.974  1.00  0.00    -0.292 N 
HETATM   31  C19 UNL     1      -0.391 -28.186  42.784  1.00  0.00     0.225 A 
ATOM     32  H8  UNL     1      -0.482 -28.032  44.881  1.00  0.00     0.188 HD
ENDBRANCH  13  22
BRANCH   4  33
HETATM   33  C8  UNL     1       2.991 -31.760  36.778  1.00  0.00    -0.007 C 
HETATM   34  C9  UNL     1       4.420 -32.142  36.460  1.00  0.00     0.021 C 
HETATM   35  C10 UNL     1       2.618 -32.466  38.077  1.00  0.00     0.021 C 
HETATM   36  C11 UNL     1       2.022 -32.194  35.711  1.00  0.00     0.021 C 
ENDBRANCH   4  33
TORSDOF 3
ENDMDL
MODEL 3
REMARK VINA RESULT: -7.353984335      1.598      2.268
REMARK  3 active torsions:
REMARK  status: ('A' for Active; 'I' for Inactive)
REMARK    1  A    between atoms: C6_6  and  N1_7 
REMARK    2  A    between atoms: C7_10  and  C8_11 
REMARK       I    between atoms: N3_17  and  C14_19 
REMARK       I    between atoms: C14_19  and  N5_23 
REMARK    3  A    between atoms: N5_23  and  C15_25 
ROOT
HETATM    1  N1  UNL     1       3.888 -28.188  37.441  1.00  0.00    -0.239 N 
HETATM    2  N2  UNL     1       4.487 -29.362  37.545  1.00  0.00    -0.295 N 
ATOM      3  H2  UNL     1       5.484 -29.515  37.396  1.00  0.00     0.187 HD
HETATM    4  C7  UNL     1       3.611 -30.327  37.873  1.00  0.00     0.037 A 
HETATM    5  C12 UNL     1       2.383 -29.712  37.979  1.00  0.00     0.078 A 
HETATM    6  C13 UNL     1       2.577 -28.365  37.704  1.00  0.00     0.144 A 
HETATM    7  N3  UNL     1       1.669 -27.463  37.707  1.00  0.00    -0.175 N 
ATOM      8  H3  UNL     1       1.919 -26.498  37.494  1.00  0.00     0.186 HD
HETATM    9  C14 UNL     1       0.297 -27.793  38.006  1.00  0.00     0.692 C 
HETATM   10  N4  UNL     1      -0.532 -28.046  37.048  1.00  0.00    -0.234 N 
ATOM     11  H41 UNL     1      -1.502 -28.279  37.260  1.00  0.00     0.174 HD
ATOM     12  H42 UNL     1      -0.181 -28.002  36.091  1.00  0.00     0.174 HD
HETATM   13  N5  UNL     1      -0.192 -27.854  39.340  1.00  0.00    -0.022 N 
ATOM     14  H5  UNL     1      -0.289 -28.745  39.826  1.00  0.00     0.203 HD
ENDROOT
BRANCH   1  15
HETATM   15  C6  UNL     1       4.488 -26.925  37.106  1.00  0.00     0.059 A 
HETATM   16  C5  UNL     1       4.703 -26.566  35.784  1.00  0.00     0.031 A 
HETATM   17  C4  UNL     1       5.276 -25.370  35.425  1.00  0.00     0.003 A 
HETATM   18  C3  UNL     1       5.648 -24.496  36.397  1.00  0.00     0.007 A 
HETATM   19  C2  UNL     1       5.451 -24.813  37.735  1.00  0.00    -0.060 A 
HETATM   20  C1  UNL     1       5.876 -23.820  38.772  1.00  0.00     0.048 C 
HETATM   21  C20 UNL     1       4.875 -26.019  38.068  1.00  0.00     0.038 A 
ENDBRANCH   1  15
BRANCH  13  22
HETATM   22  C15 UNL     1      -0.510 -26.742  39.915  1.00  0.00     0.705 A 
HETATM   23  N6  UNL     1      -0.882 -25.584  39.316  1.00  0.00    -0.197 N 
HETATM   24  C16 UNL     1      -1.135 -24.661  40.252  1.00  0.00     0.157 A 
ATOM     25  H6  UNL     1      -0.956 -25.439  38.309  1.00  0.00     0.183 HD
HETATM   26  C17 UNL     1      -0.919 -25.253  41.478  1.00  0.00     0.162 A 
HETATM   27  N7  UNL     1      -0.958 -25.000  42.810  1.00  0.00    -0.278 N 
HETATM   28  N9  UNL     1      -0.541 -26.510  41.249  1.00  0.00    -0.124 N 
HETATM   29  C18 UNL     1      -1.321 -23.749  43.445  1.00  0.00     0.179 C 
HETATM   30  N8  UNL     1      -0.595 -26.137  43.385  1.00  0.00    -0.292 N 
HETATM   31  C19 UNL     1      -0.338 -27.067  42.446  1.00  0.00     0.225 A 
ATOM     32  H8  UNL     1      -0.523 -26.287  44.392  1.00  0.00     0.188 HD
ENDBRANCH  13  22
BRANCH   4  33
HETATM   33  C8  UNL     1       3.819 -31.776  38.094  1.00  0.00    -0.007 C 
HETATM   34  C9  UNL     1       5.044 -31.920  38.970  1.00  0.00     0.021 C 
HETATM   35  C10 UNL     1       2.638 -32.327  38.885  1.00  0.00     0.021 C 
HETATM   36  C11 UNL     1       3.927 -32.550  36.809  1.00  0.00     0.021 C 
ENDBRANCH   4  33
TORSDOF 3
ENDMDL
MODEL 4
REMARK VINA RESULT: -7.327256186      1.697      2.078
REMARK  3 active torsions:
REMARK  status: ('A' for Active; 'I' for Inactive)
REMARK    1  A    between atoms: C6_6  and  N1_7 
REMARK    2  A    between atoms: C7_10  and  C8_11 
REMARK       I    between atoms: N3_17  and  C14_19 
REMARK       I    between atoms: C14_19  and  N5_23 
REMARK    3  A    between atoms: N5_23  and  C15_25 
ROOT
HETATM    1  N1  UNL     1       4.911 -29.691  38.134  1.00  0.00    -0.239 N 
HETATM    2  N2  UNL     1       5.297 -30.955  38.089  1.00  0.00    -0.295 N 
ATOM      3  H2  UNL     1       6.209 -31.291  38.401  1.00  0.00     0.187 HD
HETATM    4  C7  UNL     1       4.333 -31.740  37.579  1.00  0.00     0.037 A 
HETATM    5  C12 UNL     1       3.275 -30.907  37.286  1.00  0.00     0.078 A 
HETATM    6  C13 UNL     1       3.658 -29.621  37.642  1.00  0.00     0.144 A 
HETATM    7  N3  UNL     1       2.940 -28.568  37.524  1.00  0.00    -0.175 N 
ATOM      8  H3  UNL     1       3.316 -27.668  37.821  1.00  0.00     0.186 HD
HETATM    9  C14 UNL     1       1.607 -28.636  36.977  1.00  0.00     0.692 C 
HETATM   10  N4  UNL     1       1.411 -28.414  35.720  1.00  0.00    -0.234 N 
ATOM     11  H41 UNL     1       0.469 -28.462  35.333  1.00  0.00     0.174 HD
ATOM     12  H42 UNL     1       2.224 -28.193  35.143  1.00  0.00     0.174 HD
HETATM   13  N5  UNL     1       0.475 -28.944  37.781  1.00  0.00    -0.022 N 
ATOM     14  H5  UNL     1       0.085 -29.886  37.803  1.00  0.00     0.203 HD
ENDROOT
BRANCH   1  15
HETATM   15  C6  UNL     1       5.664 -28.562  38.610  1.00  0.00     0.059 A 
HETATM   16  C5  UNL     1       6.913 -28.730  39.188  1.00  0.00     0.031 A 
HETATM   17  C4  UNL     1       7.660 -27.676  39.656  1.00  0.00     0.003 A 
HETATM   18  C3  UNL     1       7.164 -26.414  39.551  1.00  0.00     0.007 A 
HETATM   19  C2  UNL     1       5.918 -26.199  38.979  1.00  0.00    -0.060 A 
HETATM   20  C1  UNL     1       5.411 -24.793  38.884  1.00  0.00     0.048 C 
HETATM   21  C20 UNL     1       5.189 -27.273  38.518  1.00  0.00     0.038 A 
ENDBRANCH   1  15
BRANCH  13  22
HETATM   22  C15 UNL     1      -0.043 -27.992  38.482  1.00  0.00     0.705 A 
HETATM   23  N6  UNL     1      -0.261 -26.711  38.093  1.00  0.00    -0.197 N 
HETATM   24  C16 UNL     1      -0.819 -26.029  39.101  1.00  0.00     0.157 A 
ATOM     25  H6  UNL     1      -0.036 -26.327  37.175  1.00  0.00     0.183 HD
HETATM   26  C17 UNL     1      -0.958 -26.905  40.157  1.00  0.00     0.162 A 
HETATM   27  N7  UNL     1      -1.405 -26.975  41.436  1.00  0.00    -0.278 N 
HETATM   28  N9  UNL     1      -0.482 -28.083  39.759  1.00  0.00    -0.124 N 
HETATM   29  C18 UNL     1      -1.988 -25.900  42.212  1.00  0.00     0.179 C 
HETATM   30  N8  UNL     1      -1.188 -28.230  41.805  1.00  0.00    -0.292 N 
HETATM   31  C19 UNL     1      -0.625 -28.917  40.794  1.00  0.00     0.225 A 
ATOM     32  H8  UNL     1      -1.415 -28.618  42.721  1.00  0.00     0.188 HD
ENDBRANCH  13  22
BRANCH   4  33
HETATM   33  C8  UNL     1       4.311 -33.200  37.339  1.00  0.00    -0.007 C 
HETATM   34  C9  UNL     1       3.850 -33.854  38.623  1.00  0.00     0.021 C 
HETATM   35  C10 UNL     1       3.261 -33.509  36.278  1.00  0.00     0.021 C 
HETATM   36  C11 UNL     1       5.636 -33.729  36.860  1.00  0.00     0.021 C 
ENDBRANCH   4  33
TORSDOF 3
ENDMDL
MODEL 5
REMARK VINA RESULT: -7.327177035      0.808      1.169
REMARK  3 active torsions:
REMARK  status: ('A' for Active; 'I' for Inactive)
REMARK    1  A    between atoms: C6_6  and  N1_7 
REMARK    2  A    between atoms: C7_10  and  C8_11 
REMARK       I    between atoms: N3_17  and  C14_19 
REMARK       I    between atoms: C14_19  and  N5_23 
REMARK    3  A    between atoms: N5_23  and  C15_25 
ROOT
HETATM    1  N1  UNL     1       4.508 -28.589  37.690  1.00  0.00    -0.239 N 
HETATM    2  N2  UNL     1       5.068 -29.725  38.066  1.00  0.00    -0.295 N 
ATOM      3  H2  UNL     1       6.057 -29.832  38.295  1.00  0.00     0.187 HD
HETATM    4  C7  UNL     1       4.167 -30.721  38.107  1.00  0.00     0.037 A 
HETATM    5  C12 UNL     1       2.964 -30.166  37.730  1.00  0.00     0.078 A 
HETATM    6  C13 UNL     1       3.198 -28.823  37.472  1.00  0.00     0.144 A 
HETATM    7  N3  UNL     1       2.321 -27.969  37.097  1.00  0.00    -0.175 N 
ATOM      8  H3  UNL     1       2.598 -27.001  36.937  1.00  0.00     0.186 HD
HETATM    9  C14 UNL     1       0.946 -28.357  36.899  1.00  0.00     0.692 C 
HETATM   10  N4  UNL     1       0.530 -28.689  35.721  1.00  0.00    -0.234 N 
ATOM     11  H41 UNL     1      -0.442 -28.963  35.581  1.00  0.00     0.174 HD
ATOM     12  H42 UNL     1       1.202 -28.664  34.954  1.00  0.00     0.174 HD
HETATM   13  N5  UNL     1       0.008 -28.393  37.968  1.00  0.00    -0.022 N 
ATOM     14  H5  UNL     1      -0.227 -29.269  38.433  1.00  0.00     0.203 HD
ENDROOT
BRANCH   1  15
HETATM   15  C6  UNL     1       5.145 -27.310  37.526  1.00  0.00     0.059 A 
HETATM   16  C5  UNL     1       5.857 -27.009  36.375  1.00  0.00     0.031 A 
HETATM   17  C4  UNL     1       6.481 -25.800  36.183  1.00  0.00     0.003 A 
HETATM   18  C3  UNL     1       6.401 -24.853  37.155  1.00  0.00     0.007 A 
HETATM   19  C2  UNL     1       5.699 -25.110  38.325  1.00  0.00    -0.060 A 
HETATM   20  C1  UNL     1       5.638 -24.038  39.368  1.00  0.00     0.048 C 
HETATM   21  C20 UNL     1       5.083 -26.330  38.492  1.00  0.00     0.038 A 
ENDBRANCH   1  15
BRANCH  13  22
HETATM   22  C15 UNL     1      -0.534 -27.278  38.329  1.00  0.00     0.705 A 
HETATM   23  N6  UNL     1      -1.073 -26.328  37.525  1.00  0.00    -0.197 N 
HETATM   24  C16 UNL     1      -1.539 -25.323  38.275  1.00  0.00     0.157 A 
ATOM     25  H6  UNL     1      -1.115 -26.373  36.507  1.00  0.00     0.183 HD
HETATM   26  C17 UNL     1      -1.290 -25.647  39.592  1.00  0.00     0.162 A 
HETATM   27  N7  UNL     1      -1.449 -25.183  40.856  1.00  0.00    -0.278 N 
HETATM   28  N9  UNL     1      -0.682 -26.833  39.599  1.00  0.00    -0.124 N 
HETATM   29  C18 UNL     1      -2.064 -23.931  41.251  1.00  0.00     0.179 C 
HETATM   30  N8  UNL     1      -0.922 -26.119  41.633  1.00  0.00    -0.292 N 
HETATM   31  C19 UNL     1      -0.450 -27.130  40.881  1.00  0.00     0.225 A 
ATOM     32  H8  UNL     1      -0.880 -26.079  42.652  1.00  0.00     0.188 HD
ENDBRANCH  13  22
BRANCH   4  33
HETATM   33  C8  UNL     1       4.330 -32.147  38.467  1.00  0.00    -0.007 C 
HETATM   34  C9  UNL     1       5.495 -32.234  39.427  1.00  0.00     0.021 C 
HETATM   35  C10 UNL     1       3.091 -32.608  39.226  1.00  0.00     0.021 C 
HETATM   36  C11 UNL     1       4.501 -33.034  37.263  1.00  0.00     0.021 C 
ENDBRANCH   4  33
TORSDOF 3
ENDMDL
