MODEL 1
REMARK VINA RESULT: -10.330715209      0.000      0.000
REMARK  3 active torsions:
REMARK  status: ('A' for Active; 'I' for Inactive)
REMARK    1  A    between atoms: C3_3  and  C4_4 
REMARK    2  A    between atoms: C10_10  and  C11_11 
REMARK    3  A    between atoms: C20_21  and  N2_22 
ROOT
HETATM    1  C1  UNL     1      12.024 -19.201  39.752  1.00  0.00     0.112 C 
HETATM    2  C2  UNL     1      11.976 -20.570  39.190  1.00  0.00    -0.105 C 
HETATM    3  C3  UNL     1      11.957 -21.674  38.725  1.00  0.00    -0.067 C 
ENDROOT
BRANCH   3   4
HETATM    4  C4  UNL     1      11.954 -23.007  38.146  1.00  0.00     0.028 A 
HETATM    5  C5  UNL     1      13.140 -23.677  37.937  1.00  0.00     0.021 A 
HETATM    6  C6  UNL     1      13.112 -24.942  37.385  1.00  0.00     0.002 A 
HETATM    7  C7  UNL     1      11.909 -25.549  37.037  1.00  0.00     0.012 A 
HETATM    8  C8  UNL     1      10.724 -24.877  37.247  1.00  0.00    -0.024 A 
HETATM    9  C9  UNL     1       9.507 -25.463  36.909  1.00  0.00     0.024 A 
HETATM   10  C25 UNL     1      10.764 -23.622  37.795  1.00  0.00    -0.007 A 
HETATM   11  C10 UNL     1       8.308 -24.799  37.114  1.00  0.00    -0.025 A 
HETATM   12  C23 UNL     1       8.375 -23.551  37.660  1.00  0.00     0.013 A 
HETATM   13  C24 UNL     1       9.567 -22.957  38.001  1.00  0.00     0.014 A 
BRANCH  11  14
HETATM   14  C11 UNL     1       7.071 -25.459  36.740  1.00  0.00    -0.024 A 
HETATM   15  C12 UNL     1       6.223 -24.777  35.870  1.00  0.00     0.013 A 
HETATM   16  C13 UNL     1       5.032 -25.347  35.474  1.00  0.00     0.014 A 
HETATM   17  C14 UNL     1       4.689 -26.612  35.957  1.00  0.00    -0.007 A 
HETATM   18  C15 UNL     1       3.507 -27.193  35.573  1.00  0.00     0.016 A 
HETATM   19  C21 UNL     1       5.511 -27.302  36.818  1.00  0.00     0.068 A 
HETATM   20  C16 UNL     1       3.199 -28.441  36.068  1.00  0.00     0.034 A 
HETATM   21  C17 UNL     1       4.048 -29.116  36.936  1.00  0.00     0.081 A 
HETATM   22  C18 UNL     1       3.944 -30.355  37.547  1.00  0.00     0.118 A 
HETATM   23  N4  UNL     1       5.199 -28.534  37.301  1.00  0.00    -0.253 N 
HETATM   24  C19 UNL     1       2.881 -31.311  37.436  1.00  0.00     0.105 C 
HETATM   25  C20 UNL     1       5.090 -30.492  38.298  1.00  0.00     0.137 A 
HETATM   26  N1  UNL     1       1.997 -32.079  37.348  1.00  0.00    -0.191 NA
HETATM   27  N3  UNL     1       5.811 -29.375  38.118  1.00  0.00    -0.277 N 
ATOM     28  H3  UNL     1       6.715 -29.197  38.556  1.00  0.00     0.189 HD
HETATM   29  C22 UNL     1       6.701 -26.704  37.196  1.00  0.00     0.044 A 
BRANCH  25  30
HETATM   30  N2  UNL     1       5.422 -31.516  39.049  1.00  0.00    -0.383 N 
ATOM     31  H22 UNL     1       5.998 -32.308  38.766  1.00  0.00     0.157 HD
ATOM     32  H21 UNL     1       5.158 -31.673  40.022  1.00  0.00     0.157 HD
ENDBRANCH  25  30
ENDBRANCH  11  14
ENDBRANCH   3   4
TORSDOF 3
ENDMDL
MODEL 2
REMARK VINA RESULT: -10.119787756      0.856      1.148
REMARK  3 active torsions:
REMARK  status: ('A' for Active; 'I' for Inactive)
REMARK    1  A    between atoms: C3_3  and  C4_4 
REMARK    2  A    between atoms: C10_10  and  C11_11 
REMARK    3  A    between atoms: C20_21  and  N2_22 
ROOT
HETATM    1  C1  UNL     1      11.670 -20.106  39.137  1.00  0.00     0.112 C 
HETATM    2  C2  UNL     1      11.562 -21.466  38.561  1.00  0.00    -0.105 C 
HETATM    3  C3  UNL     1      11.497 -22.568  38.096  1.00  0.00    -0.067 C 
ENDROOT
BRANCH   3   4
HETATM    4  C4  UNL     1      11.444 -23.904  37.527  1.00  0.00     0.028 A 
HETATM    5  C5  UNL     1      12.608 -24.569  37.203  1.00  0.00     0.021 A 
HETATM    6  C6  UNL     1      12.533 -25.837  36.664  1.00  0.00     0.002 A 
HETATM    7  C7  UNL     1      11.305 -26.453  36.442  1.00  0.00     0.012 A 
HETATM    8  C8  UNL     1      10.142 -25.787  36.767  1.00  0.00    -0.024 A 
HETATM    9  C9  UNL     1       8.901 -26.382  36.556  1.00  0.00     0.024 A 
HETATM   10  C25 UNL     1      10.229 -24.529  37.301  1.00  0.00    -0.007 A 
HETATM   11  C10 UNL     1       7.724 -25.723  36.877  1.00  0.00    -0.025 A 
HETATM   12  C23 UNL     1       7.838 -24.472  37.407  1.00  0.00     0.013 A 
HETATM   13  C24 UNL     1       9.055 -23.869  37.623  1.00  0.00     0.014 A 
BRANCH  11  14
HETATM   14  C11 UNL     1       6.461 -26.393  36.634  1.00  0.00    -0.024 A 
HETATM   15  C12 UNL     1       5.543 -25.741  35.813  1.00  0.00     0.013 A 
HETATM   16  C13 UNL     1       4.323 -26.322  35.540  1.00  0.00     0.014 A 
HETATM   17  C14 UNL     1       4.021 -27.566  36.097  1.00  0.00    -0.007 A 
HETATM   18  C15 UNL     1       2.811 -28.157  35.835  1.00  0.00     0.016 A 
HETATM   19  C21 UNL     1       4.912 -28.227  36.911  1.00  0.00     0.068 A 
HETATM   20  C16 UNL     1       2.546 -29.385  36.400  1.00  0.00     0.034 A 
HETATM   21  C17 UNL     1       3.464 -30.030  37.219  1.00  0.00     0.081 A 
HETATM   22  C18 UNL     1       3.412 -31.246  37.883  1.00  0.00     0.118 A 
HETATM   23  N4  UNL     1       4.641 -29.439  37.464  1.00  0.00    -0.253 N 
HETATM   24  C19 UNL     1       2.342 -32.201  37.897  1.00  0.00     0.105 C 
HETATM   25  C20 UNL     1       4.617 -31.358  38.540  1.00  0.00     0.137 A 
HETATM   26  N1  UNL     1       1.454 -32.969  37.912  1.00  0.00    -0.191 NA
HETATM   27  N3  UNL     1       5.320 -30.251  38.258  1.00  0.00    -0.277 N 
ATOM     28  H3  UNL     1       6.257 -30.059  38.611  1.00  0.00     0.189 HD
HETATM   29  C22 UNL     1       6.130 -27.619  37.166  1.00  0.00     0.044 A 
BRANCH  25  30
HETATM   30  N2  UNL     1       5.010 -32.354  39.298  1.00  0.00    -0.383 N 
ATOM     31  H22 UNL     1       5.662 -32.294  40.080  1.00  0.00     0.157 HD
ATOM     32  H21 UNL     1       4.727 -33.331  39.221  1.00  0.00     0.157 HD
ENDBRANCH  25  30
ENDBRANCH  11  14
ENDBRANCH   3   4
TORSDOF 3
ENDMDL
MODEL 3
REMARK VINA RESULT: -9.823268327      1.501      2.033
REMARK  3 active torsions:
REMARK  status: ('A' for Active; 'I' for Inactive)
REMARK    1  A    between atoms: C3_3  and  C4_4 
REMARK    2  A    between atoms: C10_10  and  C11_11 
REMARK    3  A    between atoms: C20_21  and  N2_22 
ROOT
HETATM    1  C1  UNL     1      11.853 -20.691  39.125  1.00  0.00     0.112 C 
HETATM    2  C2  UNL     1      11.571 -22.036  38.574  1.00  0.00    -0.105 C 
HETATM    3  C3  UNL     1      11.341 -23.116  38.109  1.00  0.00    -0.067 C 
ENDROOT
BRANCH   3   4
HETATM    4  C4  UNL     1      11.054 -24.413  37.521  1.00  0.00     0.028 A 
HETATM    5  C5  UNL     1      12.056 -25.139  36.914  1.00  0.00     0.021 A 
HETATM    6  C6  UNL     1      11.760 -26.369  36.363  1.00  0.00     0.002 A 
HETATM    7  C7  UNL     1      10.469 -26.887  36.411  1.00  0.00     0.012 A 
HETATM    8  C8  UNL     1       9.468 -26.160  37.019  1.00  0.00    -0.024 A 
HETATM    9  C9  UNL     1       8.168 -26.656  37.080  1.00  0.00     0.024 A 
HETATM   10  C25 UNL     1       9.774 -24.940  37.562  1.00  0.00    -0.007 A 
HETATM   11  C10 UNL     1       7.152 -25.936  37.688  1.00  0.00    -0.025 A 
HETATM   12  C23 UNL     1       7.483 -24.724  38.220  1.00  0.00     0.013 A 
HETATM   13  C24 UNL     1       8.760 -24.218  38.169  1.00  0.00     0.014 A 
BRANCH  11  14
HETATM   14  C11 UNL     1       5.817 -26.503  37.720  1.00  0.00    -0.024 A 
HETATM   15  C12 UNL     1       4.766 -25.639  38.020  1.00  0.00     0.013 A 
HETATM   16  C13 UNL     1       3.472 -26.113  38.067  1.00  0.00     0.014 A 
HETATM   17  C14 UNL     1       3.232 -27.465  37.813  1.00  0.00    -0.007 A 
HETATM   18  C15 UNL     1       1.950 -27.951  37.856  1.00  0.00     0.016 A 
HETATM   19  C21 UNL     1       4.255 -28.335  37.516  1.00  0.00     0.068 A 
HETATM   20  C16 UNL     1       1.748 -29.290  37.600  1.00  0.00     0.034 A 
HETATM   21  C17 UNL     1       2.800 -30.146  37.303  1.00  0.00     0.081 A 
HETATM   22  C18 UNL     1       2.831 -31.502  37.016  1.00  0.00     0.118 A 
HETATM   23  N4  UNL     1       4.046 -29.655  37.264  1.00  0.00    -0.253 N 
HETATM   24  C19 UNL     1       1.730 -32.418  36.950  1.00  0.00     0.105 C 
HETATM   25  C20 UNL     1       4.158 -31.803  36.803  1.00  0.00     0.137 A 
HETATM   26  N1  UNL     1       0.821 -33.161  36.912  1.00  0.00    -0.191 NA
HETATM   27  N3  UNL     1       4.848 -30.663  36.962  1.00  0.00    -0.277 N 
ATOM     28  H3  UNL     1       5.860 -30.584  36.864  1.00  0.00     0.189 HD
HETATM   29  C22 UNL     1       5.544 -27.829  37.475  1.00  0.00     0.044 A 
BRANCH  25  30
HETATM   30  N2  UNL     1       4.661 -32.977  36.501  1.00  0.00    -0.383 N 
ATOM     31  H22 UNL     1       5.093 -33.632  37.152  1.00  0.00     0.157 HD
ATOM     32  H21 UNL     1       4.696 -33.409  35.577  1.00  0.00     0.157 HD
ENDBRANCH  25  30
ENDBRANCH  11  14
ENDBRANCH   3   4
TORSDOF 3
ENDMDL
MODEL 4
REMARK VINA RESULT: -9.771528050      1.942      2.606
REMARK  3 active torsions:
REMARK  status: ('A' for Active; 'I' for Inactive)
REMARK    1  A    between atoms: C3_3  and  C4_4 
REMARK    2  A    between atoms: C10_10  and  C11_11 
REMARK    3  A    between atoms: C20_21  and  N2_22 
ROOT
HETATM    1  C1  UNL     1      11.392 -17.976  39.948  1.00  0.00     0.112 C 
HETATM    2  C2  UNL     1      11.814 -19.312  39.471  1.00  0.00    -0.105 C 
HETATM    3  C3  UNL     1      12.170 -20.384  39.071  1.00  0.00    -0.067 C 
ENDROOT
BRANCH   3   4
HETATM    4  C4  UNL     1      12.614 -21.672  38.566  1.00  0.00     0.028 A 
HETATM    5  C5  UNL     1      13.957 -21.982  38.532  1.00  0.00     0.021 A 
HETATM    6  C6  UNL     1      14.354 -23.211  38.048  1.00  0.00     0.002 A 
HETATM    7  C7  UNL     1      13.423 -24.141  37.594  1.00  0.00     0.012 A 
HETATM    8  C8  UNL     1      12.081 -23.830  37.628  1.00  0.00    -0.024 A 
HETATM    9  C9  UNL     1      11.130 -24.743  37.180  1.00  0.00     0.024 A 
HETATM   10  C25 UNL     1      11.698 -22.607  38.111  1.00  0.00    -0.007 A 
HETATM   11  C10 UNL     1       9.776 -24.443  37.209  1.00  0.00    -0.025 A 
HETATM   12  C23 UNL     1       9.422 -23.219  37.693  1.00  0.00     0.013 A 
HETATM   13  C24 UNL     1      10.347 -22.305  38.140  1.00  0.00     0.014 A 
BRANCH  11  14
HETATM   14  C11 UNL     1       8.832 -25.434  36.728  1.00  0.00    -0.024 A 
HETATM   15  C12 UNL     1       9.271 -26.302  35.731  1.00  0.00     0.013 A 
HETATM   16  C13 UNL     1       8.424 -27.267  35.229  1.00  0.00     0.014 A 
HETATM   17  C14 UNL     1       7.125 -27.361  35.732  1.00  0.00    -0.007 A 
HETATM   18  C15 UNL     1       6.270 -28.316  35.243  1.00  0.00     0.016 A 
HETATM   19  C21 UNL     1       6.670 -26.514  36.716  1.00  0.00     0.068 A 
HETATM   20  C16 UNL     1       4.996 -28.381  35.762  1.00  0.00     0.034 A 
HETATM   21  C17 UNL     1       4.562 -27.513  36.755  1.00  0.00     0.081 A 
HETATM   22  C18 UNL     1       3.347 -27.398  37.412  1.00  0.00     0.118 A 
HETATM   23  N4  UNL     1       5.410 -26.586  37.222  1.00  0.00    -0.253 N 
HETATM   24  C19 UNL     1       2.163 -28.185  37.226  1.00  0.00     0.105 C 
HETATM   25  C20 UNL     1       3.505 -26.355  38.298  1.00  0.00     0.137 A 
HETATM   26  N1  UNL     1       1.195 -28.828  37.056  1.00  0.00    -0.191 NA
HETATM   27  N3  UNL     1       4.758 -25.901  38.147  1.00  0.00    -0.277 N 
ATOM     28  H3  UNL     1       5.157 -25.127  38.677  1.00  0.00     0.189 HD
HETATM   29  C22 UNL     1       7.544 -25.555  37.200  1.00  0.00     0.044 A 
BRANCH  25  30
HETATM   30  N2  UNL     1       2.608 -25.889  39.134  1.00  0.00    -0.383 N 
ATOM     31  H22 UNL     1       1.597 -25.998  39.054  1.00  0.00     0.157 HD
ATOM     32  H21 UNL     1       2.782 -25.352  39.983  1.00  0.00     0.157 HD
ENDBRANCH  25  30
ENDBRANCH  11  14
ENDBRANCH   3   4
TORSDOF 3
ENDMDL
MODEL 5
REMARK VINA RESULT: -9.769257011      2.515      3.734
REMARK  3 active torsions:
REMARK  status: ('A' for Active; 'I' for Inactive)
REMARK    1  A    between atoms: C3_3  and  C4_4 
REMARK    2  A    between atoms: C10_10  and  C11_11 
REMARK    3  A    between atoms: C20_21  and  N2_22 
ROOT
HETATM    1  C1  UNL     1      12.147 -21.612  31.268  1.00  0.00     0.112 C 
HETATM    2  C2  UNL     1      12.275 -21.902  32.714  1.00  0.00    -0.105 C 
HETATM    3  C3  UNL     1      12.370 -22.157  33.881  1.00  0.00    -0.067 C 
ENDROOT
BRANCH   3   4
HETATM    4  C4  UNL     1      12.470 -22.488  35.292  1.00  0.00     0.028 A 
HETATM    5  C5  UNL     1      13.406 -21.863  36.089  1.00  0.00     0.021 A 
HETATM    6  C6  UNL     1      13.483 -22.194  37.426  1.00  0.00     0.002 A 
HETATM    7  C7  UNL     1      12.633 -23.146  37.982  1.00  0.00     0.012 A 
HETATM    8  C8  UNL     1      11.698 -23.770  37.184  1.00  0.00    -0.024 A 
HETATM    9  C9  UNL     1      10.836 -24.725  37.716  1.00  0.00     0.024 A 
HETATM   10  C25 UNL     1      11.631 -23.433  35.858  1.00  0.00    -0.007 A 
HETATM   11  C10 UNL     1       9.891 -25.360  36.926  1.00  0.00    -0.025 A 
HETATM   12  C23 UNL     1       9.845 -25.008  35.609  1.00  0.00     0.013 A 
HETATM   13  C24 UNL     1      10.688 -24.067  35.066  1.00  0.00     0.014 A 
BRANCH  11  14
HETATM   14  C11 UNL     1       9.021 -26.348  37.535  1.00  0.00    -0.024 A 
HETATM   15  C12 UNL     1       9.501 -27.012  38.662  1.00  0.00     0.013 A 
HETATM   16  C13 UNL     1       8.725 -27.962  39.290  1.00  0.00     0.014 A 
HETATM   17  C14 UNL     1       7.456 -28.249  38.783  1.00  0.00    -0.007 A 
HETATM   18  C15 UNL     1       6.672 -29.192  39.397  1.00  0.00     0.016 A 
HETATM   19  C21 UNL     1       6.962 -27.606  37.672  1.00  0.00     0.068 A 
HETATM   20  C16 UNL     1       5.425 -29.450  38.871  1.00  0.00     0.034 A 
HETATM   21  C17 UNL     1       4.951 -28.787  37.747  1.00  0.00     0.081 A 
HETATM   22  C18 UNL     1       3.753 -28.883  37.058  1.00  0.00     0.118 A 
HETATM   23  N4  UNL     1       5.730 -27.868  37.160  1.00  0.00    -0.253 N 
HETATM   24  C19 UNL     1       2.636 -29.737  37.339  1.00  0.00     0.105 C 
HETATM   25  C20 UNL     1       3.848 -27.977  36.025  1.00  0.00     0.137 A 
HETATM   26  N1  UNL     1       1.733 -30.451  37.572  1.00  0.00    -0.191 NA
HETATM   27  N3  UNL     1       5.051 -27.392  36.128  1.00  0.00    -0.277 N 
ATOM     28  H3  UNL     1       5.399 -26.674  35.493  1.00  0.00     0.189 HD
HETATM   29  C22 UNL     1       7.765 -26.656  37.063  1.00  0.00     0.044 A 
BRANCH  25  30
HETATM   30  N2  UNL     1       2.941 -27.726  35.111  1.00  0.00    -0.383 N 
ATOM     31  H22 UNL     1       1.971 -28.039  35.124  1.00  0.00     0.157 HD
ATOM     32  H21 UNL     1       3.067 -27.184  34.256  1.00  0.00     0.157 HD
ENDBRANCH  25  30
ENDBRANCH  11  14
ENDBRANCH   3   4
TORSDOF 3
ENDMDL
