MODEL 1
REMARK VINA RESULT: -6.935293635      0.000      0.000
REMARK  7 active torsions:
REMARK  status: ('A' for Active; 'I' for Inactive)
REMARK    1  A    between atoms: C2_2  and  C3_3 
REMARK    2  A    between atoms: C3_3  and  N1_4 
REMARK    3  A    between atoms: N1_4  and  C4_6 
REMARK    4  A    between atoms: C7_13  and  C8_14 
REMARK    5  A    between atoms: C8_14  and  C9_15 
REMARK    6  A    between atoms: N5_25  and  C15_26 
REMARK    7  A    between atoms: C15_26  and  C16_27 
ROOT
HETATM    1  C4  UNL     1       5.502   5.314  21.517  1.00  0.00     0.126 A 
HETATM    2  N2  UNL     1       5.295   5.399  22.840  1.00  0.00    -0.284 N 
ATOM      3  H2  UNL     1       4.659   4.810  23.379  1.00  0.00     0.188 HD
HETATM    4  N3  UNL     1       6.046   6.368  23.332  1.00  0.00    -0.283 N 
ATOM      5  H3  UNL     1       6.083   6.647  24.313  1.00  0.00     0.188 HD
HETATM    6  C5  UNL     1       6.761   6.933  22.323  1.00  0.00     0.135 A 
HETATM    7  C6  UNL     1       6.424   6.274  21.174  1.00  0.00     0.037 A 
HETATM    8  C7  UNL     1       6.969   6.569  19.816  1.00  0.00     0.039 C 
HETATM    9  C13 UNL     1       7.698   7.865  19.739  1.00  0.00     0.113 C 
HETATM   10  C14 UNL     1       8.266   8.305  21.032  1.00  0.00     0.226 C 
HETATM   11  O1  UNL     1       9.314   8.999  21.007  1.00  0.00    -0.273 OA
HETATM   12  N5  UNL     1       7.720   8.003  22.303  1.00  0.00    -0.301 N 
ENDROOT
BRANCH   8  13
HETATM   13  C8  UNL     1       7.875   5.451  19.372  1.00  0.00     0.051 C 
BRANCH  13  14
HETATM   14  C9  UNL     1       7.478   4.806  18.116  1.00  0.00    -0.023 A 
HETATM   15  C10 UNL     1       6.508   5.173  17.210  1.00  0.00     0.096 A 
HETATM   16  N4  UNL     1       6.483   4.312  16.181  1.00  0.00    -0.373 N 
HETATM   17  C11 UNL     1       7.412   3.370  16.363  1.00  0.00     0.107 A 
ATOM     18  H4  UNL     1       5.852   4.369  15.382  1.00  0.00     0.164 HD
HETATM   19  C12 UNL     1       8.046   3.665  17.573  1.00  0.00     0.034 A 
HETATM   20 BR1  UNL     1       9.448   2.607  18.273  1.00  0.00    -0.049 Br
ENDBRANCH  13  14
ENDBRANCH   8  13
BRANCH   1  21
HETATM   21  N1  UNL     1       4.933   4.479  20.730  1.00  0.00    -0.375 N 
ATOM     22  H1  UNL     1       4.650   4.844  19.821  1.00  0.00     0.161 HD
BRANCH  21  23
HETATM   23  C3  UNL     1       4.648   3.106  20.966  1.00  0.00     0.121 C 
BRANCH  23  24
HETATM   24  C2  UNL     1       5.585   2.300  20.056  1.00  0.00     0.015 C 
HETATM   25  C1  UNL     1       6.765   1.858  20.889  1.00  0.00     0.006 C 
ENDBRANCH  23  24
ENDBRANCH  21  23
ENDBRANCH   1  21
BRANCH  12  26
HETATM   26  C15 UNL     1       8.036   8.660  23.525  1.00  0.00     0.144 C 
BRANCH  26  27
HETATM   27  C16 UNL     1       8.993   7.906  24.412  1.00  0.00     0.105 C 
HETATM   28 BR2  UNL     1      10.539   9.028  24.711  1.00  0.00    -0.095 Br
ENDBRANCH  26  27
ENDBRANCH  12  26
TORSDOF 7
ENDMDL
MODEL 2
REMARK VINA RESULT: -6.659562691      0.957      1.022
REMARK  7 active torsions:
REMARK  status: ('A' for Active; 'I' for Inactive)
REMARK    1  A    between atoms: C2_2  and  C3_3 
REMARK    2  A    between atoms: C3_3  and  N1_4 
REMARK    3  A    between atoms: N1_4  and  C4_6 
REMARK    4  A    between atoms: C7_13  and  C8_14 
REMARK    5  A    between atoms: C8_14  and  C9_15 
REMARK    6  A    between atoms: N5_25  and  C15_26 
REMARK    7  A    between atoms: C15_26  and  C16_27 
ROOT
HETATM    1  C4  UNL     1       5.323   5.759  22.307  1.00  0.00     0.126 A 
HETATM    2  N2  UNL     1       5.159   5.708  23.638  1.00  0.00    -0.284 N 
ATOM      3  H2  UNL     1       4.469   5.139  24.128  1.00  0.00     0.188 HD
HETATM    4  N3  UNL     1       6.035   6.515  24.211  1.00  0.00    -0.283 N 
ATOM      5  H3  UNL     1       6.129   6.668  25.215  1.00  0.00     0.188 HD
HETATM    6  C5  UNL     1       6.790   7.108  23.248  1.00  0.00     0.135 A 
HETATM    7  C6  UNL     1       6.347   6.637  22.044  1.00  0.00     0.037 A 
HETATM    8  C7  UNL     1       6.893   7.026  20.709  1.00  0.00     0.039 C 
HETATM    9  C13 UNL     1       7.773   8.226  20.757  1.00  0.00     0.113 C 
HETATM   10  C14 UNL     1       8.421   8.437  22.069  1.00  0.00     0.226 C 
HETATM   11  O1  UNL     1       9.545   9.000  22.086  1.00  0.00    -0.273 OA
HETATM   12  N5  UNL     1       7.872   8.051  23.316  1.00  0.00    -0.301 N 
ENDROOT
BRANCH   8  13
HETATM   13  C8  UNL     1       7.644   5.870  20.104  1.00  0.00     0.051 C 
BRANCH  13  14
HETATM   14  C9  UNL     1       7.198   5.489  18.760  1.00  0.00    -0.023 A 
HETATM   15  C10 UNL     1       6.285   6.103  17.932  1.00  0.00     0.096 A 
HETATM   16  N4  UNL     1       6.183   5.433  16.773  1.00  0.00    -0.373 N 
HETATM   17  C11 UNL     1       7.005   4.380  16.792  1.00  0.00     0.107 A 
ATOM     18  H4  UNL     1       5.573   5.689  15.998  1.00  0.00     0.164 HD
HETATM   19  C12 UNL     1       7.650   4.400  18.032  1.00  0.00     0.034 A 
HETATM   20 BR1  UNL     1       8.922   3.097  18.540  1.00  0.00    -0.049 Br
ENDBRANCH  13  14
ENDBRANCH   8  13
BRANCH   1  21
HETATM   21  N1  UNL     1       4.638   5.098  21.450  1.00  0.00    -0.375 N 
ATOM     22  H1  UNL     1       4.349   5.611  20.618  1.00  0.00     0.161 HD
BRANCH  21  23
HETATM   23  C3  UNL     1       4.231   3.738  21.515  1.00  0.00     0.121 C 
BRANCH  23  24
HETATM   24  C2  UNL     1       5.038   2.987  20.446  1.00  0.00     0.015 C 
HETATM   25  C1  UNL     1       6.048   2.118  21.159  1.00  0.00     0.006 C 
ENDBRANCH  23  24
ENDBRANCH  21  23
ENDBRANCH   1  21
BRANCH  12  26
HETATM   26  C15 UNL     1       8.294   8.515  24.594  1.00  0.00     0.144 C 
BRANCH  26  27
HETATM   27  C16 UNL     1       9.129   7.530  25.371  1.00  0.00     0.105 C 
HETATM   28 BR2  UNL     1      10.761   8.421  25.903  1.00  0.00    -0.095 Br
ENDBRANCH  26  27
ENDBRANCH  12  26
TORSDOF 7
ENDMDL
MODEL 3
REMARK VINA RESULT: -6.577915047      1.486      1.576
REMARK  7 active torsions:
REMARK  status: ('A' for Active; 'I' for Inactive)
REMARK    1  A    between atoms: C2_2  and  C3_3 
REMARK    2  A    between atoms: C3_3  and  N1_4 
REMARK    3  A    between atoms: N1_4  and  C4_6 
REMARK    4  A    between atoms: C7_13  and  C8_14 
REMARK    5  A    between atoms: C8_14  and  C9_15 
REMARK    6  A    between atoms: N5_25  and  C15_26 
REMARK    7  A    between atoms: C15_26  and  C16_27 
ROOT
HETATM    1  C4  UNL     1       5.327   4.440  20.756  1.00  0.00     0.126 A 
HETATM    2  N2  UNL     1       4.926   4.386  22.035  1.00  0.00    -0.284 N 
ATOM      3  H2  UNL     1       4.247   3.725  22.415  1.00  0.00     0.188 HD
HETATM    4  N3  UNL     1       5.550   5.325  22.723  1.00  0.00    -0.283 N 
ATOM      5  H3  UNL     1       5.431   5.506  23.720  1.00  0.00     0.188 HD
HETATM    6  C5  UNL     1       6.377   6.011  21.890  1.00  0.00     0.135 A 
HETATM    7  C6  UNL     1       6.242   5.459  20.646  1.00  0.00     0.037 A 
HETATM    8  C7  UNL     1       6.965   5.906  19.419  1.00  0.00     0.039 C 
HETATM    9  C13 UNL     1       7.635   7.227  19.574  1.00  0.00     0.113 C 
HETATM   10  C14 UNL     1       7.987   7.554  20.973  1.00  0.00     0.226 C 
HETATM   11  O1  UNL     1       8.993   8.282  21.171  1.00  0.00    -0.273 OA
HETATM   12  N5  UNL     1       7.276   7.109  22.114  1.00  0.00    -0.301 N 
ENDROOT
BRANCH   8  13
HETATM   13  C8  UNL     1       7.978   4.870  19.012  1.00  0.00     0.051 C 
BRANCH  13  14
HETATM   14  C9  UNL     1       7.700   4.215  17.729  1.00  0.00    -0.023 A 
HETATM   15  C10 UNL     1       6.782   4.544  16.757  1.00  0.00     0.096 A 
HETATM   16  N4  UNL     1       6.869   3.690  15.727  1.00  0.00    -0.373 N 
HETATM   17  C11 UNL     1       7.824   2.788  15.972  1.00  0.00     0.107 A 
ATOM     18  H4  UNL     1       6.294   3.723  14.885  1.00  0.00     0.164 HD
HETATM   19  C12 UNL     1       8.356   3.103  17.225  1.00  0.00     0.034 A 
HETATM   20 BR1  UNL     1       9.750   2.105  18.020  1.00  0.00    -0.049 Br
ENDBRANCH  13  14
ENDBRANCH   8  13
BRANCH   1  21
HETATM   21  N1  UNL     1       4.919   3.669  19.817  1.00  0.00    -0.375 N 
ATOM     22  H1  UNL     1       4.805   4.103  18.902  1.00  0.00     0.161 HD
BRANCH  21  23
HETATM   23  C3  UNL     1       4.607   2.285  19.894  1.00  0.00     0.121 C 
BRANCH  23  24
HETATM   24  C2  UNL     1       5.794   1.532  19.276  1.00  0.00     0.015 C 
HETATM   25  C1  UNL     1       6.901   1.499  20.304  1.00  0.00     0.006 C 
ENDBRANCH  23  24
ENDBRANCH  21  23
ENDBRANCH   1  21
BRANCH  12  26
HETATM   26  C15 UNL     1       7.379   7.651  23.425  1.00  0.00     0.144 C 
BRANCH  26  27
HETATM   27  C16 UNL     1       6.469   8.822  23.691  1.00  0.00     0.105 C 
HETATM   28 BR2  UNL     1       5.038   8.217  24.842  1.00  0.00    -0.095 Br
ENDBRANCH  26  27
ENDBRANCH  12  26
TORSDOF 7
ENDMDL
MODEL 4
REMARK VINA RESULT: -6.489254987      4.339      6.751
REMARK  7 active torsions:
REMARK  status: ('A' for Active; 'I' for Inactive)
REMARK    1  A    between atoms: C2_2  and  C3_3 
REMARK    2  A    between atoms: C3_3  and  N1_4 
REMARK    3  A    between atoms: N1_4  and  C4_6 
REMARK    4  A    between atoms: C7_13  and  C8_14 
REMARK    5  A    between atoms: C8_14  and  C9_15 
REMARK    6  A    between atoms: N5_25  and  C15_26 
REMARK    7  A    between atoms: C15_26  and  C16_27 
ROOT
HETATM    1  C4  UNL     1       8.895   8.700  23.805  1.00  0.00     0.126 A 
HETATM    2  N2  UNL     1       9.927   8.725  22.948  1.00  0.00    -0.284 N 
ATOM      3  H2  UNL     1      10.913   8.759  23.209  1.00  0.00     0.188 HD
HETATM    4  N3  UNL     1       9.461   8.699  21.712  1.00  0.00    -0.283 N 
ATOM      5  H3  UNL     1      10.030   8.710  20.865  1.00  0.00     0.188 HD
HETATM    6  C5  UNL     1       8.103   8.657  21.749  1.00  0.00     0.135 A 
HETATM    7  C6  UNL     1       7.737   8.656  23.067  1.00  0.00     0.037 A 
HETATM    8  C7  UNL     1       6.334   8.620  23.575  1.00  0.00     0.039 C 
HETATM    9  C13 UNL     1       5.317   8.899  22.524  1.00  0.00     0.113 C 
HETATM   10  C14 UNL     1       5.768   8.565  21.156  1.00  0.00     0.226 C 
HETATM   11  O1  UNL     1       4.897   8.212  20.320  1.00  0.00    -0.273 OA
HETATM   12  N5  UNL     1       7.112   8.609  20.711  1.00  0.00    -0.301 N 
ENDROOT
BRANCH   8  13
HETATM   13  C8  UNL     1       6.052   7.285  24.211  1.00  0.00     0.051 C 
BRANCH  13  14
HETATM   14  C9  UNL     1       4.644   7.058  24.555  1.00  0.00    -0.023 A 
HETATM   15  C10 UNL     1       3.854   7.697  25.484  1.00  0.00     0.096 A 
HETATM   16  N4  UNL     1       2.612   7.190  25.466  1.00  0.00    -0.373 N 
HETATM   17  C11 UNL     1       2.536   6.223  24.548  1.00  0.00     0.107 A 
ATOM     18  H4  UNL     1       1.843   7.496  26.063  1.00  0.00     0.164 HD
HETATM   19  C12 UNL     1       3.803   6.127  23.966  1.00  0.00     0.034 A 
HETATM   20 BR1  UNL     1       4.204   4.886  22.597  1.00  0.00    -0.049 Br
ENDBRANCH  13  14
ENDBRANCH   8  13
BRANCH   1  21
HETATM   21  N1  UNL     1       8.992   8.713  25.083  1.00  0.00    -0.375 N 
ATOM     22  H1  UNL     1       8.665   9.560  25.546  1.00  0.00     0.161 HD
BRANCH  21  23
HETATM   23  C3  UNL     1       9.498   7.693  25.934  1.00  0.00     0.121 C 
BRANCH  23  24
HETATM   24  C2  UNL     1      10.915   8.124  26.340  1.00  0.00     0.015 C 
HETATM   25  C1  UNL     1      11.459   7.078  27.285  1.00  0.00     0.006 C 
ENDBRANCH  23  24
ENDBRANCH  21  23
ENDBRANCH   1  21
BRANCH  12  26
HETATM   26  C15 UNL     1       7.542   8.615  19.355  1.00  0.00     0.144 C 
BRANCH  26  27
HETATM   27  C16 UNL     1       7.665   9.987  18.743  1.00  0.00     0.105 C 
HETATM   28 BR2  UNL     1       6.179  10.235  17.531  1.00  0.00    -0.095 Br
ENDBRANCH  26  27
ENDBRANCH  12  26
TORSDOF 7
ENDMDL
MODEL 5
REMARK VINA RESULT: -6.370905540      3.299      5.568
REMARK  7 active torsions:
REMARK  status: ('A' for Active; 'I' for Inactive)
REMARK    1  A    between atoms: C2_2  and  C3_3 
REMARK    2  A    between atoms: C3_3  and  N1_4 
REMARK    3  A    between atoms: N1_4  and  C4_6 
REMARK    4  A    between atoms: C7_13  and  C8_14 
REMARK    5  A    between atoms: C8_14  and  C9_15 
REMARK    6  A    between atoms: N5_25  and  C15_26 
REMARK    7  A    between atoms: C15_26  and  C16_27 
ROOT
HETATM    1  C4  UNL     1       7.813   7.831  20.708  1.00  0.00     0.126 A 
HETATM    2  N2  UNL     1       8.893   8.552  20.371  1.00  0.00    -0.284 N 
ATOM      3  H2  UNL     1       9.201   8.749  19.418  1.00  0.00     0.188 HD
HETATM    4  N3  UNL     1       9.495   8.967  21.472  1.00  0.00    -0.283 N 
ATOM      5  H3  UNL     1      10.342   9.535  21.505  1.00  0.00     0.188 HD
HETATM    6  C5  UNL     1       8.805   8.516  22.553  1.00  0.00     0.135 A 
HETATM    7  C6  UNL     1       7.742   7.798  22.080  1.00  0.00     0.037 A 
HETATM    8  C7  UNL     1       6.716   7.115  22.922  1.00  0.00     0.039 C 
HETATM    9  C13 UNL     1       7.105   7.004  24.355  1.00  0.00     0.113 C 
HETATM   10  C14 UNL     1       8.053   8.050  24.796  1.00  0.00     0.226 C 
HETATM   11  O1  UNL     1       8.008   8.414  25.999  1.00  0.00    -0.273 OA
HETATM   12  N5  UNL     1       9.013   8.678  23.965  1.00  0.00    -0.301 N 
ENDROOT
BRANCH   8  13
HETATM   13  C8  UNL     1       5.397   7.831  22.809  1.00  0.00     0.051 C 
BRANCH  13  14
HETATM   14  C9  UNL     1       4.280   7.165  23.488  1.00  0.00    -0.023 A 
HETATM   15  C10 UNL     1       3.722   5.928  23.252  1.00  0.00     0.096 A 
HETATM   16  N4  UNL     1       2.724   5.695  24.117  1.00  0.00    -0.373 N 
HETATM   17  C11 UNL     1       2.589   6.742  24.937  1.00  0.00     0.107 A 
ATOM     18  H4  UNL     1       2.155   4.849  24.146  1.00  0.00     0.164 HD
HETATM   19  C12 UNL     1       3.558   7.673  24.556  1.00  0.00     0.034 A 
HETATM   20 BR1  UNL     1       3.767   9.339  25.425  1.00  0.00    -0.049 Br
ENDBRANCH  13  14
ENDBRANCH   8  13
BRANCH   1  21
HETATM   21  N1  UNL     1       7.003   7.281  19.883  1.00  0.00    -0.375 N 
ATOM     22  H1  UNL     1       6.028   7.571  19.954  1.00  0.00     0.161 HD
BRANCH  21  23
HETATM   23  C3  UNL     1       7.293   6.315  18.881  1.00  0.00     0.121 C 
BRANCH  23  24
HETATM   24  C2  UNL     1       7.671   5.021  19.615  1.00  0.00     0.015 C 
HETATM   25  C1  UNL     1       8.423   4.144  18.641  1.00  0.00     0.006 C 
ENDBRANCH  23  24
ENDBRANCH  21  23
ENDBRANCH   1  21
BRANCH  12  26
HETATM   26  C15 UNL     1      10.135   9.431  24.409  1.00  0.00     0.144 C 
BRANCH  26  27
HETATM   27  C16 UNL     1      11.399   8.627  24.580  1.00  0.00     0.105 C 
HETATM   28 BR2  UNL     1      11.462   8.000  26.408  1.00  0.00    -0.095 Br
ENDBRANCH  26  27
ENDBRANCH  12  26
TORSDOF 7
ENDMDL
