MODEL 1
REMARK VINA RESULT: -8.111415473      0.000      0.000
REMARK  6 active torsions:
REMARK  status: ('A' for Active; 'I' for Inactive)
REMARK    1  A    between atoms: C2_2  and  N1_3 
REMARK       I    between atoms: N1_3  and  C3_5 
REMARK       I    between atoms: C3_5  and  N2_7 
REMARK    2  A    between atoms: N2_7  and  C4_8 
REMARK       I    between atoms: N2_7  and  C13_20 
REMARK    3  A    between atoms: C4_8  and  C5_9 
REMARK       I    between atoms: C5_9  and  N3_11 
REMARK    4  A    between atoms: N3_11  and  C6_13 
REMARK    5  A    between atoms: C6_13  and  C7_14 
REMARK    6  A    between atoms: C13_20  and  C14_22 
ROOT
HETATM    1  N1  UNL     1       6.371   9.193  17.979  1.00  0.00    -0.343 N 
ATOM      2  H1  UNL     1       5.663   8.576  17.582  1.00  0.00     0.164 HD
HETATM    3  C3  UNL     1       7.288   8.732  18.893  1.00  0.00     0.325 C 
HETATM    4  O1  UNL     1       8.142   9.608  19.329  1.00  0.00    -0.247 OA
HETATM    5  N2  UNL     1       7.435   7.440  19.426  1.00  0.00    -0.256 N 
HETATM    6  C13 UNL     1       6.620   6.376  19.098  1.00  0.00     0.279 C 
HETATM    7  O3  UNL     1       5.715   6.639  18.206  1.00  0.00    -0.265 OA
ENDROOT
BRANCH   5   8
HETATM    8  C4  UNL     1       8.544   7.314  20.398  1.00  0.00     0.239 C 
BRANCH   8   9
HETATM    9  C5  UNL     1       8.065   7.397  21.790  1.00  0.00     0.236 C 
HETATM   10  O2  UNL     1       7.768   6.293  22.351  1.00  0.00    -0.272 OA
HETATM   11  N3  UNL     1       7.936   8.628  22.490  1.00  0.00    -0.359 N 
ATOM     12  H3  UNL     1       8.176   9.510  22.038  1.00  0.00     0.162 HD
BRANCH  11  13
HETATM   13  C6  UNL     1       7.463   8.604  23.839  1.00  0.00     0.127 C 
BRANCH  13  14
HETATM   14  C7  UNL     1       8.540   8.697  24.865  1.00  0.00     0.003 C 
HETATM   15  C8  UNL     1       9.876   9.033  24.244  1.00  0.00     0.006 C 
HETATM   16  C9  UNL     1      10.917   9.126  25.321  1.00  0.00     0.000 C 
HETATM   17  C10 UNL     1      10.941   7.937  26.229  1.00  0.00     0.000 C 
HETATM   18  C11 UNL     1       9.588   7.513  26.715  1.00  0.00     0.000 C 
HETATM   19  C12 UNL     1       8.689   7.332  25.516  1.00  0.00     0.006 C 
ENDBRANCH  13  14
ENDBRANCH  11  13
ENDBRANCH   8   9
ENDBRANCH   5   8
BRANCH   6  20
HETATM   20  C14 UNL     1       6.590   5.001  19.576  1.00  0.00     0.109 A 
HETATM   21  N4  UNL     1       5.960   4.393  20.579  1.00  0.00    -0.354 N 
HETATM   22  C15 UNL     1       6.262   3.056  20.639  1.00  0.00     0.024 A 
ATOM     23  H4  UNL     1       5.329   4.865  21.226  1.00  0.00     0.166 HD
HETATM   24  C16 UNL     1       5.755   2.056  21.616  1.00  0.00     0.069 C 
HETATM   25  C17 UNL     1       7.128   2.780  19.628  1.00  0.00     0.041 A 
HETATM   26 BR1  UNL     1       7.900   1.078  19.210  1.00  0.00    -0.048 Br
HETATM   27  C18 UNL     1       7.333   3.972  18.971  1.00  0.00    -0.010 A 
HETATM   28  C19 UNL     1       8.223   4.095  17.798  1.00  0.00     0.052 C 
ENDBRANCH   6  20
BRANCH   1  29
HETATM   29  C2  UNL     1       6.450  10.617  17.593  1.00  0.00     0.120 C 
HETATM   30  C1  UNL     1       5.109  11.078  17.117  1.00  0.00     0.026 C 
ENDBRANCH   1  29
TORSDOF 6
ENDMDL
MODEL 2
REMARK VINA RESULT: -8.093117354      3.106      6.767
REMARK  6 active torsions:
REMARK  status: ('A' for Active; 'I' for Inactive)
REMARK    1  A    between atoms: C2_2  and  N1_3 
REMARK       I    between atoms: N1_3  and  C3_5 
REMARK       I    between atoms: C3_5  and  N2_7 
REMARK    2  A    between atoms: N2_7  and  C4_8 
REMARK       I    between atoms: N2_7  and  C13_20 
REMARK    3  A    between atoms: C4_8  and  C5_9 
REMARK       I    between atoms: C5_9  and  N3_11 
REMARK    4  A    between atoms: N3_11  and  C6_13 
REMARK    5  A    between atoms: C6_13  and  C7_14 
REMARK    6  A    between atoms: C13_20  and  C14_22 
ROOT
HETATM    1  N1  UNL     1       9.402   8.226  24.473  1.00  0.00    -0.343 N 
ATOM      2  H1  UNL     1       8.954   7.783  25.276  1.00  0.00     0.164 HD
HETATM    3  C3  UNL     1       8.765   8.313  23.259  1.00  0.00     0.325 C 
HETATM    4  O1  UNL     1       9.433   8.898  22.311  1.00  0.00    -0.247 OA
HETATM    5  N2  UNL     1       7.488   7.857  22.894  1.00  0.00    -0.256 N 
HETATM    6  C13 UNL     1       6.631   7.200  23.753  1.00  0.00     0.279 C 
HETATM    7  O3  UNL     1       7.072   7.070  24.966  1.00  0.00    -0.265 OA
ENDROOT
BRANCH   5   8
HETATM    8  C4  UNL     1       7.135   8.126  21.481  1.00  0.00     0.239 C 
BRANCH   8   9
HETATM    9  C5  UNL     1       6.638   6.917  20.800  1.00  0.00     0.236 C 
HETATM   10  O2  UNL     1       5.436   6.961  20.378  1.00  0.00    -0.272 OA
HETATM   11  N3  UNL     1       7.434   5.756  20.610  1.00  0.00    -0.359 N 
ATOM     12  H3  UNL     1       8.396   5.724  20.948  1.00  0.00     0.162 HD
BRANCH  11  13
HETATM   13  C6  UNL     1       6.861   4.633  19.935  1.00  0.00     0.127 C 
BRANCH  13  14
HETATM   14  C7  UNL     1       7.824   3.530  19.658  1.00  0.00     0.003 C 
HETATM   15  C8  UNL     1       8.660   3.813  18.431  1.00  0.00     0.006 C 
HETATM   16  C9  UNL     1       9.617   2.679  18.208  1.00  0.00     0.000 C 
HETATM   17  C10 UNL     1       8.958   1.336  18.207  1.00  0.00     0.000 C 
HETATM   18  C11 UNL     1       8.006   1.123  19.345  1.00  0.00     0.000 C 
HETATM   19  C12 UNL     1       7.026   2.271  19.364  1.00  0.00     0.006 C 
ENDBRANCH  13  14
ENDBRANCH  11  13
ENDBRANCH   8   9
ENDBRANCH   5   8
BRANCH   6  20
HETATM   20  C14 UNL     1       5.311   6.621  23.544  1.00  0.00     0.109 A 
HETATM   21  N4  UNL     1       4.886   5.399  23.234  1.00  0.00    -0.354 N 
HETATM   22  C15 UNL     1       3.518   5.341  23.133  1.00  0.00     0.024 A 
ATOM     23  H4  UNL     1       5.502   4.600  23.088  1.00  0.00     0.166 HD
HETATM   24  C16 UNL     1       2.684   4.156  22.804  1.00  0.00     0.069 C 
HETATM   25  C17 UNL     1       3.031   6.584  23.389  1.00  0.00     0.041 A 
HETATM   26 BR1  UNL     1       1.192   7.117  23.394  1.00  0.00    -0.048 Br
HETATM   27  C18 UNL     1       4.128   7.375  23.643  1.00  0.00    -0.010 A 
HETATM   28  C19 UNL     1       4.020   8.812  23.969  1.00  0.00     0.052 C 
ENDBRANCH   6  20
BRANCH   1  29
HETATM   29  C2  UNL     1      10.760   8.799  24.574  1.00  0.00     0.120 C 
HETATM   30  C1  UNL     1      11.303   8.552  25.947  1.00  0.00     0.026 C 
ENDBRANCH   1  29
TORSDOF 6
ENDMDL
MODEL 3
REMARK VINA RESULT: -7.761839282      2.865      6.687
REMARK  6 active torsions:
REMARK  status: ('A' for Active; 'I' for Inactive)
REMARK    1  A    between atoms: C2_2  and  N1_3 
REMARK       I    between atoms: N1_3  and  C3_5 
REMARK       I    between atoms: C3_5  and  N2_7 
REMARK    2  A    between atoms: N2_7  and  C4_8 
REMARK       I    between atoms: N2_7  and  C13_20 
REMARK    3  A    between atoms: C4_8  and  C5_9 
REMARK       I    between atoms: C5_9  and  N3_11 
REMARK    4  A    between atoms: N3_11  and  C6_13 
REMARK    5  A    between atoms: C6_13  and  C7_14 
REMARK    6  A    between atoms: C13_20  and  C14_22 
ROOT
HETATM    1  N1  UNL     1       3.844   8.837  20.949  1.00  0.00    -0.343 N 
ATOM      2  H1  UNL     1       3.757   9.291  21.858  1.00  0.00     0.164 HD
HETATM    3  C3  UNL     1       5.015   8.230  20.565  1.00  0.00     0.325 C 
HETATM    4  O1  UNL     1       5.008   7.684  19.386  1.00  0.00    -0.247 OA
HETATM    5  N2  UNL     1       6.225   8.113  21.268  1.00  0.00    -0.256 N 
HETATM    6  C13 UNL     1       6.436   8.636  22.528  1.00  0.00     0.279 C 
HETATM    7  O3  UNL     1       5.402   9.215  23.055  1.00  0.00    -0.265 OA
ENDROOT
BRANCH   5   8
HETATM    8  C4  UNL     1       7.282   7.386  20.529  1.00  0.00     0.239 C 
BRANCH   8   9
HETATM    9  C5  UNL     1       7.212   5.932  20.760  1.00  0.00     0.236 C 
HETATM   10  O2  UNL     1       7.680   5.514  21.869  1.00  0.00    -0.272 OA
HETATM   11  N3  UNL     1       6.657   5.026  19.817  1.00  0.00    -0.359 N 
ATOM     12  H3  UNL     1       6.282   5.363  18.931  1.00  0.00     0.162 HD
BRANCH  11  13
HETATM   13  C6  UNL     1       6.634   3.632  20.135  1.00  0.00     0.127 C 
BRANCH  13  14
HETATM   14  C7  UNL     1       7.826   2.876  19.657  1.00  0.00     0.003 C 
HETATM   15  C8  UNL     1       8.474   3.548  18.468  1.00  0.00     0.006 C 
HETATM   16  C9  UNL     1       9.672   2.754  18.039  1.00  0.00     0.000 C 
HETATM   17  C10 UNL     1       9.382   1.299  17.842  1.00  0.00     0.000 C 
HETATM   18  C11 UNL     1       8.599   0.677  18.958  1.00  0.00     0.000 C 
HETATM   19  C12 UNL     1       7.360   1.508  19.188  1.00  0.00     0.006 C 
ENDBRANCH  13  14
ENDBRANCH  11  13
ENDBRANCH   8   9
ENDBRANCH   5   8
BRANCH   6  20
HETATM   20  C14 UNL     1       7.617   8.656  23.378  1.00  0.00     0.109 A 
HETATM   21  N4  UNL     1       8.756   9.344  23.348  1.00  0.00    -0.354 N 
HETATM   22  C15 UNL     1       9.590   9.002  24.383  1.00  0.00     0.024 A 
ATOM     23  H4  UNL     1       8.982  10.043  22.641  1.00  0.00     0.166 HD
HETATM   24  C16 UNL     1      10.940   9.551  24.677  1.00  0.00     0.069 C 
HETATM   25  C17 UNL     1       8.966   8.046  25.120  1.00  0.00     0.041 A 
HETATM   26 BR1  UNL     1       9.643   7.181  26.689  1.00  0.00    -0.048 Br
HETATM   27  C18 UNL     1       7.752   7.829  24.508  1.00  0.00    -0.010 A 
HETATM   28  C19 UNL     1       6.766   6.851  25.011  1.00  0.00     0.052 C 
ENDBRANCH   6  20
BRANCH   1  29
HETATM   29  C2  UNL     1       2.715   8.808  19.996  1.00  0.00     0.120 C 
HETATM   30  C1  UNL     1       2.063  10.154  19.956  1.00  0.00     0.026 C 
ENDBRANCH   1  29
TORSDOF 6
ENDMDL
MODEL 4
REMARK VINA RESULT: -7.728611631      3.292      6.938
REMARK  6 active torsions:
REMARK  status: ('A' for Active; 'I' for Inactive)
REMARK    1  A    between atoms: C2_2  and  N1_3 
REMARK       I    between atoms: N1_3  and  C3_5 
REMARK       I    between atoms: C3_5  and  N2_7 
REMARK    2  A    between atoms: N2_7  and  C4_8 
REMARK       I    between atoms: N2_7  and  C13_20 
REMARK    3  A    between atoms: C4_8  and  C5_9 
REMARK       I    between atoms: C5_9  and  N3_11 
REMARK    4  A    between atoms: N3_11  and  C6_13 
REMARK    5  A    between atoms: C6_13  and  C7_14 
REMARK    6  A    between atoms: C13_20  and  C14_22 
ROOT
HETATM    1  N1  UNL     1       9.067   8.738  24.454  1.00  0.00    -0.343 N 
ATOM      2  H1  UNL     1       8.426   8.873  25.236  1.00  0.00     0.164 HD
HETATM    3  C3  UNL     1       8.601   8.565  23.173  1.00  0.00     0.325 C 
HETATM    4  O1  UNL     1       9.509   8.402  22.259  1.00  0.00    -0.247 OA
HETATM    5  N2  UNL     1       7.276   8.540  22.708  1.00  0.00    -0.256 N 
HETATM    6  C13 UNL     1       6.172   8.681  23.523  1.00  0.00     0.279 C 
HETATM    7  O3  UNL     1       6.444   8.894  24.773  1.00  0.00    -0.265 OA
ENDROOT
BRANCH   5   8
HETATM    8  C4  UNL     1       7.156   8.327  21.247  1.00  0.00     0.239 C 
BRANCH   8   9
HETATM    9  C5  UNL     1       6.621   6.990  20.930  1.00  0.00     0.236 C 
HETATM   10  O2  UNL     1       5.529   6.960  20.274  1.00  0.00    -0.272 OA
HETATM   11  N3  UNL     1       7.268   5.787  21.321  1.00  0.00    -0.359 N 
ATOM     12  H3  UNL     1       8.142   5.813  21.845  1.00  0.00     0.162 HD
BRANCH  11  13
HETATM   13  C6  UNL     1       6.670   4.538  20.964  1.00  0.00     0.127 C 
BRANCH  13  14
HETATM   14  C7  UNL     1       7.599   3.584  20.297  1.00  0.00     0.003 C 
HETATM   15  C8  UNL     1       8.156   4.152  19.012  1.00  0.00     0.006 C 
HETATM   16  C9  UNL     1       9.092   3.156  18.392  1.00  0.00     0.000 C 
HETATM   17  C10 UNL     1       8.501   1.789  18.255  1.00  0.00     0.000 C 
HETATM   18  C11 UNL     1       7.811   1.297  19.491  1.00  0.00     0.000 C 
HETATM   19  C12 UNL     1       6.810   2.341  19.922  1.00  0.00     0.006 C 
ENDBRANCH  13  14
ENDBRANCH  11  13
ENDBRANCH   8   9
ENDBRANCH   5   8
BRANCH   6  20
HETATM   20  C14 UNL     1       4.746   8.635  23.233  1.00  0.00     0.109 A 
HETATM   21  N4  UNL     1       3.868   9.541  22.809  1.00  0.00    -0.354 N 
HETATM   22  C15 UNL     1       2.605   9.016  22.691  1.00  0.00     0.024 A 
ATOM     23  H4  UNL     1       4.105  10.510  22.597  1.00  0.00     0.166 HD
HETATM   24  C16 UNL     1       1.371   9.717  22.250  1.00  0.00     0.069 C 
HETATM   25  C17 UNL     1       2.664   7.708  23.055  1.00  0.00     0.041 A 
HETATM   26 BR1  UNL     1       1.212   6.460  23.094  1.00  0.00    -0.048 Br
HETATM   27  C18 UNL     1       3.978   7.468  23.389  1.00  0.00    -0.010 A 
HETATM   28  C19 UNL     1       4.459   6.146  23.843  1.00  0.00     0.052 C 
ENDBRANCH   6  20
BRANCH   1  29
HETATM   29  C2  UNL     1      10.530   8.720  24.656  1.00  0.00     0.120 C 
HETATM   30  C1  UNL     1      10.833   8.310  26.063  1.00  0.00     0.026 C 
ENDBRANCH   1  29
TORSDOF 6
ENDMDL
MODEL 5
REMARK VINA RESULT: -7.720968362      3.743      7.180
REMARK  6 active torsions:
REMARK  status: ('A' for Active; 'I' for Inactive)
REMARK    1  A    between atoms: C2_2  and  N1_3 
REMARK       I    between atoms: N1_3  and  C3_5 
REMARK       I    between atoms: C3_5  and  N2_7 
REMARK    2  A    between atoms: N2_7  and  C4_8 
REMARK       I    between atoms: N2_7  and  C13_20 
REMARK    3  A    between atoms: C4_8  and  C5_9 
REMARK       I    between atoms: C5_9  and  N3_11 
REMARK    4  A    between atoms: N3_11  and  C6_13 
REMARK    5  A    between atoms: C6_13  and  C7_14 
REMARK    6  A    between atoms: C13_20  and  C14_22 
ROOT
HETATM    1  N1  UNL     1       8.723   8.291  24.137  1.00  0.00    -0.343 N 
ATOM      2  H1  UNL     1       8.391   8.182  25.096  1.00  0.00     0.164 HD
HETATM    3  C3  UNL     1       7.882   8.108  23.067  1.00  0.00     0.325 C 
HETATM    4  O1  UNL     1       8.415   8.273  21.894  1.00  0.00    -0.247 OA
HETATM    5  N2  UNL     1       6.519   7.767  23.058  1.00  0.00    -0.256 N 
HETATM    6  C13 UNL     1       5.777   7.538  24.199  1.00  0.00     0.279 C 
HETATM    7  O3  UNL     1       6.422   7.710  25.311  1.00  0.00    -0.265 OA
ENDROOT
BRANCH   5   8
HETATM    8  C4  UNL     1       5.936   7.653  21.702  1.00  0.00     0.239 C 
BRANCH   8   9
HETATM    9  C5  UNL     1       5.712   6.248  21.318  1.00  0.00     0.236 C 
HETATM   10  O2  UNL     1       4.500   5.900  21.132  1.00  0.00    -0.272 OA
HETATM   11  N3  UNL     1       6.770   5.314  21.154  1.00  0.00    -0.359 N 
ATOM     12  H3  UNL     1       7.739   5.595  21.302  1.00  0.00     0.162 HD
BRANCH  11  13
HETATM   13  C6  UNL     1       6.450   3.972  20.778  1.00  0.00     0.127 C 
BRANCH  13  14
HETATM   14  C7  UNL     1       7.572   3.234  20.132  1.00  0.00     0.003 C 
HETATM   15  C8  UNL     1       8.100   3.968  18.921  1.00  0.00     0.006 C 
HETATM   16  C9  UNL     1       9.232   3.189  18.320  1.00  0.00     0.000 C 
HETATM   17  C10 UNL     1       8.900   1.751  18.073  1.00  0.00     0.000 C 
HETATM   18  C11 UNL     1       8.231   1.072  19.230  1.00  0.00     0.000 C 
HETATM   19  C12 UNL     1       7.037   1.901  19.639  1.00  0.00     0.006 C 
ENDBRANCH  13  14
ENDBRANCH  11  13
ENDBRANCH   8   9
ENDBRANCH   5   8
BRANCH   6  20
HETATM   20  C14 UNL     1       4.390   7.135  24.383  1.00  0.00     0.109 A 
HETATM   21  N4  UNL     1       3.717   6.018  24.114  1.00  0.00    -0.354 N 
HETATM   22  C15 UNL     1       2.394   6.118  24.465  1.00  0.00     0.024 A 
ATOM     23  H4  UNL     1       4.135   5.187  23.696  1.00  0.00     0.166 HD
HETATM   24  C16 UNL     1       1.337   5.083  24.317  1.00  0.00     0.069 C 
HETATM   25  C17 UNL     1       2.197   7.357  24.987  1.00  0.00     0.041 A 
HETATM   26 BR1  UNL     1       0.550   8.074  25.650  1.00  0.00    -0.048 Br
HETATM   27  C18 UNL     1       3.420   7.987  24.939  1.00  0.00    -0.010 A 
HETATM   28  C19 UNL     1       3.628   9.368  25.421  1.00  0.00     0.052 C 
ENDBRANCH   6  20
BRANCH   1  29
HETATM   29  C2  UNL     1      10.126   8.650  23.849  1.00  0.00     0.120 C 
HETATM   30  C1  UNL     1      10.913   8.644  25.121  1.00  0.00     0.026 C 
ENDBRANCH   1  29
TORSDOF 6
ENDMDL
