MODEL 1
REMARK VINA RESULT: -9.235212390      0.000      0.000
REMARK  7 active torsions:
REMARK  status: ('A' for Active; 'I' for Inactive)
REMARK    1  A    between atoms: C2_2  and  C3_3 
REMARK    2  A    between atoms: C2_2  and  C7_12 
REMARK    3  A    between atoms: C3_3  and  C4_4 
REMARK       I    between atoms: C4_4  and  N1_6 
REMARK    4  A    between atoms: N1_6  and  C5_8 
REMARK    5  A    between atoms: C5_8  and  C6_9 
REMARK    6  A    between atoms: C6_9  and  O2_10 
REMARK    7  A    between atoms: N2_26  and  N3_28 
ROOT
HETATM    1  C7  UNL     1       6.137   8.297  22.599  1.00  0.00    -0.006 C 
HETATM    2  C8  UNL     1       4.981   8.758  21.732  1.00  0.00     0.005 C 
HETATM    3  C9  UNL     1       4.987   8.241  20.342  1.00  0.00     0.001 C 
HETATM    4  C10 UNL     1       6.254   7.642  19.861  1.00  0.00     0.010 C 
HETATM    5  C11 UNL     1       7.005   6.837  20.858  1.00  0.00    -0.036 C 
HETATM    6  C12 UNL     1       8.403   7.447  20.972  1.00  0.00     0.016 C 
HETATM    7  C13 UNL     1       6.424   6.878  22.249  1.00  0.00    -0.002 C 
HETATM    8  C14 UNL     1       5.249   5.974  22.469  1.00  0.00     0.006 C 
HETATM    9  C15 UNL     1       5.434   4.609  21.885  1.00  0.00     0.006 C 
HETATM   10  C16 UNL     1       5.877   4.676  20.440  1.00  0.00    -0.005 C 
HETATM   11  C17 UNL     1       5.992   3.291  19.862  1.00  0.00     0.004 C 
HETATM   12  C18 UNL     1       6.889   2.384  20.648  1.00  0.00     0.012 C 
HETATM   13  C19 UNL     1       7.711   1.609  19.646  1.00  0.00     0.055 C 
HETATM   14  C20 UNL     1       7.274   2.083  18.296  1.00  0.00     0.014 C 
HETATM   15  N2  UNL     1       7.569   1.481  17.212  1.00  0.00    -0.294 N 
ATOM     16  H2  UNL     1       8.133   0.637  17.312  1.00  0.00     0.188 HD
HETATM   17  C21 UNL     1       6.474   3.321  18.445  1.00  0.00     0.000 C 
HETATM   18  C22 UNL     1       5.273   3.203  17.521  1.00  0.00     0.022 C 
HETATM   19  C23 UNL     1       7.240   4.531  18.063  1.00  0.00     0.016 C 
HETATM   20  C24 UNL     1       7.932   5.272  19.135  1.00  0.00     0.007 C 
HETATM   21  C25 UNL     1       7.202   5.394  20.437  1.00  0.00    -0.002 C 
ENDROOT
BRANCH   1  22
HETATM   22  C2  UNL     1       5.747   8.494  24.046  1.00  0.00    -0.005 C 
HETATM   23  C1  UNL     1       4.271   8.271  24.219  1.00  0.00     0.011 C 
BRANCH  22  24
HETATM   24  C3  UNL     1       6.483   7.469  24.878  1.00  0.00     0.107 C 
BRANCH  24  25
HETATM   25  C4  UNL     1       7.806   7.974  25.325  1.00  0.00     0.217 C 
HETATM   26  O1  UNL     1       8.101   9.169  25.129  1.00  0.00    -0.274 OA
HETATM   27  N1  UNL     1       8.723   7.123  25.962  1.00  0.00    -0.359 N 
ATOM     28  H1  UNL     1       8.456   6.149  26.108  1.00  0.00     0.162 HD
BRANCH  27  29
HETATM   29  C5  UNL     1      10.020   7.551  26.419  1.00  0.00     0.148 C 
BRANCH  29  30
HETATM   30  C6  UNL     1      10.525   6.665  27.532  1.00  0.00     0.183 C 
BRANCH  30  31
HETATM   31  O2  UNL     1       9.524   6.649  28.524  1.00  0.00    -0.399 OA
ATOM     32  H2  UNL     1       9.691   7.392  29.092  1.00  0.00     0.209 HD
ENDBRANCH  30  31
ENDBRANCH  29  30
ENDBRANCH  27  29
ENDBRANCH  24  25
ENDBRANCH  22  24
ENDBRANCH   1  22
BRANCH  15  33
HETATM   33  N3  UNL     1       7.225   1.822  15.928  1.00  0.00    -0.249 N 
HETATM   34  N4  UNL     1       7.921   2.643  15.235  1.00  0.00    -0.331 N 
ATOM     35  H42 UNL     1       8.754   3.046  15.665  1.00  0.00     0.178 HD
ATOM     36  H41 UNL     1       7.665   2.896  14.281  1.00  0.00     0.178 HD
ATOM     37  H3  UNL     1       6.389   1.409  15.513  1.00  0.00     0.207 HD
ENDBRANCH  15  33
TORSDOF 7
ENDMDL
MODEL 2
REMARK VINA RESULT: -8.925812771      1.342      1.777
REMARK  7 active torsions:
REMARK  status: ('A' for Active; 'I' for Inactive)
REMARK    1  A    between atoms: C2_2  and  C3_3 
REMARK    2  A    between atoms: C2_2  and  C7_12 
REMARK    3  A    between atoms: C3_3  and  C4_4 
REMARK       I    between atoms: C4_4  and  N1_6 
REMARK    4  A    between atoms: N1_6  and  C5_8 
REMARK    5  A    between atoms: C5_8  and  C6_9 
REMARK    6  A    between atoms: C6_9  and  O2_10 
REMARK    7  A    between atoms: N2_26  and  N3_28 
ROOT
HETATM    1  C7  UNL     1       6.467   8.338  21.783  1.00  0.00    -0.006 C 
HETATM    2  C8  UNL     1       5.101   7.782  22.141  1.00  0.00     0.005 C 
HETATM    3  C9  UNL     1       4.493   6.893  21.122  1.00  0.00     0.001 C 
HETATM    4  C10 UNL     1       5.096   6.923  19.769  1.00  0.00     0.010 C 
HETATM    5  C11 UNL     1       6.575   7.046  19.725  1.00  0.00    -0.036 C 
HETATM    6  C12 UNL     1       6.902   8.292  18.900  1.00  0.00     0.016 C 
HETATM    7  C13 UNL     1       7.217   7.265  21.072  1.00  0.00    -0.002 C 
HETATM    8  C14 UNL     1       7.387   6.027  21.899  1.00  0.00     0.006 C 
HETATM    9  C15 UNL     1       7.904   4.860  21.117  1.00  0.00     0.006 C 
HETATM   10  C16 UNL     1       7.101   4.634  19.856  1.00  0.00    -0.005 C 
HETATM   11  C17 UNL     1       7.603   3.416  19.126  1.00  0.00     0.004 C 
HETATM   12  C18 UNL     1       9.068   3.463  18.818  1.00  0.00     0.012 C 
HETATM   13  C19 UNL     1       9.233   2.939  17.411  1.00  0.00     0.055 C 
HETATM   14  C20 UNL     1       7.859   2.600  16.930  1.00  0.00     0.014 C 
HETATM   15  N2  UNL     1       7.633   1.905  15.886  1.00  0.00    -0.294 N 
ATOM     16  H2  UNL     1       8.457   1.582  15.379  1.00  0.00     0.188 HD
HETATM   17  C21 UNL     1       6.857   3.192  17.847  1.00  0.00     0.000 C 
HETATM   18  C22 UNL     1       5.783   2.143  18.089  1.00  0.00     0.022 C 
HETATM   19  C23 UNL     1       6.213   4.396  17.270  1.00  0.00     0.016 C 
HETATM   20  C24 UNL     1       6.785   5.712  17.615  1.00  0.00     0.007 C 
HETATM   21  C25 UNL     1       7.252   5.883  19.028  1.00  0.00    -0.002 C 
ENDROOT
BRANCH   1  22
HETATM   22  C2  UNL     1       7.136   8.798  23.059  1.00  0.00    -0.005 C 
HETATM   23  C1  UNL     1       6.385   8.279  24.252  1.00  0.00     0.011 C 
BRANCH  22  24
HETATM   24  C3  UNL     1       8.534   8.225  23.091  1.00  0.00     0.107 C 
BRANCH  24  25
HETATM   25  C4  UNL     1       9.281   8.675  24.294  1.00  0.00     0.217 C 
HETATM   26  O1  UNL     1       9.597   9.875  24.402  1.00  0.00    -0.274 OA
HETATM   27  N1  UNL     1       9.632   7.765  25.304  1.00  0.00    -0.359 N 
ATOM     28  H1  UNL     1       9.361   6.788  25.190  1.00  0.00     0.162 HD
BRANCH  27  29
HETATM   29  C5  UNL     1      10.353   8.137  26.494  1.00  0.00     0.148 C 
BRANCH  29  30
HETATM   30  C6  UNL     1      10.656   6.930  27.348  1.00  0.00     0.183 C 
BRANCH  30  31
HETATM   31  O2  UNL     1       9.617   6.834  28.295  1.00  0.00    -0.399 OA
ATOM     32  H2  UNL     1       9.364   5.918  28.331  1.00  0.00     0.209 HD
ENDBRANCH  30  31
ENDBRANCH  29  30
ENDBRANCH  27  29
ENDBRANCH  24  25
ENDBRANCH  22  24
ENDBRANCH   1  22
BRANCH  15  33
HETATM   33  N3  UNL     1       6.422   1.534  15.355  1.00  0.00    -0.249 N 
HETATM   34  N4  UNL     1       6.157   1.673  14.111  1.00  0.00    -0.331 N 
ATOM     35  H42 UNL     1       6.878   2.072  13.509  1.00  0.00     0.178 HD
ATOM     36  H41 UNL     1       5.257   1.399  13.716  1.00  0.00     0.178 HD
ATOM     37  H3  UNL     1       5.712   1.136  15.971  1.00  0.00     0.207 HD
ENDBRANCH  15  33
TORSDOF 7
ENDMDL
MODEL 3
REMARK VINA RESULT: -8.479867281      1.212      2.441
REMARK  7 active torsions:
REMARK  status: ('A' for Active; 'I' for Inactive)
REMARK    1  A    between atoms: C2_2  and  C3_3 
REMARK    2  A    between atoms: C2_2  and  C7_12 
REMARK    3  A    between atoms: C3_3  and  C4_4 
REMARK       I    between atoms: C4_4  and  N1_6 
REMARK    4  A    between atoms: N1_6  and  C5_8 
REMARK    5  A    between atoms: C5_8  and  C6_9 
REMARK    6  A    between atoms: C6_9  and  O2_10 
REMARK    7  A    between atoms: N2_26  and  N3_28 
ROOT
HETATM    1  C7  UNL     1       4.742   6.904  23.014  1.00  0.00    -0.006 C 
HETATM    2  C8  UNL     1       4.742   5.720  23.963  1.00  0.00     0.005 C 
HETATM    3  C9  UNL     1       4.682   4.388  23.314  1.00  0.00     0.001 C 
HETATM    4  C10 UNL     1       4.286   4.362  21.886  1.00  0.00     0.010 C 
HETATM    5  C11 UNL     1       4.815   5.470  21.051  1.00  0.00    -0.036 C 
HETATM    6  C12 UNL     1       3.613   6.180  20.424  1.00  0.00     0.016 C 
HETATM    7  C13 UNL     1       5.558   6.528  21.827  1.00  0.00    -0.002 C 
HETATM    8  C14 UNL     1       6.972   6.176  22.179  1.00  0.00     0.006 C 
HETATM    9  C15 UNL     1       7.726   5.554  21.047  1.00  0.00     0.006 C 
HETATM   10  C16 UNL     1       6.959   4.406  20.429  1.00  0.00    -0.005 C 
HETATM   11  C17 UNL     1       7.770   3.760  19.337  1.00  0.00     0.004 C 
HETATM   12  C18 UNL     1       8.228   4.718  18.281  1.00  0.00     0.012 C 
HETATM   13  C19 UNL     1       8.042   4.023  16.953  1.00  0.00     0.055 C 
HETATM   14  C20 UNL     1       7.478   2.674  17.266  1.00  0.00     0.014 C 
HETATM   15  N2  UNL     1       7.424   1.723  16.419  1.00  0.00    -0.294 N 
ATOM     16  H2  UNL     1       7.793   1.932  15.491  1.00  0.00     0.188 HD
HETATM   17  C21 UNL     1       7.017   2.649  18.674  1.00  0.00     0.000 C 
HETATM   18  C22 UNL     1       7.469   1.328  19.278  1.00  0.00     0.022 C 
HETATM   19  C23 UNL     1       5.542   2.731  18.781  1.00  0.00     0.016 C 
HETATM   20  C24 UNL     1       4.942   4.064  18.981  1.00  0.00     0.007 C 
HETATM   21  C25 UNL     1       5.677   4.992  19.898  1.00  0.00    -0.002 C 
ENDROOT
BRANCH   1  22
HETATM   22  C2  UNL     1       5.278   8.104  23.760  1.00  0.00    -0.005 C 
HETATM   23  C1  UNL     1       4.157   9.044  24.103  1.00  0.00     0.011 C 
BRANCH  22  24
HETATM   24  C3  UNL     1       5.902   7.620  25.049  1.00  0.00     0.107 C 
BRANCH  24  25
HETATM   25  C4  UNL     1       7.297   8.107  25.198  1.00  0.00     0.217 C 
HETATM   26  O1  UNL     1       7.617   9.202  24.698  1.00  0.00    -0.274 OA
HETATM   27  N1  UNL     1       8.252   7.351  25.895  1.00  0.00    -0.359 N 
ATOM     28  H1  UNL     1       7.963   6.457  26.294  1.00  0.00     0.162 HD
BRANCH  27  29
HETATM   29  C5  UNL     1       9.619   7.768  26.077  1.00  0.00     0.148 C 
BRANCH  29  30
HETATM   30  C6  UNL     1      10.322   6.904  27.096  1.00  0.00     0.183 C 
BRANCH  30  31
HETATM   31  O2  UNL     1       9.539   6.940  28.266  1.00  0.00    -0.399 OA
ATOM     32  H2  UNL     1       8.638   6.807  27.996  1.00  0.00     0.209 HD
ENDBRANCH  30  31
ENDBRANCH  29  30
ENDBRANCH  27  29
ENDBRANCH  24  25
ENDBRANCH  22  24
ENDBRANCH   1  22
BRANCH  15  33
HETATM   33  N3  UNL     1       6.932   0.453  16.595  1.00  0.00    -0.249 N 
HETATM   34  N4  UNL     1       6.489  -0.242  15.616  1.00  0.00    -0.331 N 
ATOM     35  H42 UNL     1       6.509   0.173  14.685  1.00  0.00     0.178 HD
ATOM     36  H41 UNL     1       6.123  -1.186  15.747  1.00  0.00     0.178 HD
ATOM     37  H3  UNL     1       6.919   0.053  17.533  1.00  0.00     0.207 HD
ENDBRANCH  15  33
TORSDOF 7
ENDMDL
MODEL 4
REMARK VINA RESULT: -8.416073541      2.250      3.381
REMARK  7 active torsions:
REMARK  status: ('A' for Active; 'I' for Inactive)
REMARK    1  A    between atoms: C2_2  and  C3_3 
REMARK    2  A    between atoms: C2_2  and  C7_12 
REMARK    3  A    between atoms: C3_3  and  C4_4 
REMARK       I    between atoms: C4_4  and  N1_6 
REMARK    4  A    between atoms: N1_6  and  C5_8 
REMARK    5  A    between atoms: C5_8  and  C6_9 
REMARK    6  A    between atoms: C6_9  and  O2_10 
REMARK    7  A    between atoms: N2_26  and  N3_28 
ROOT
HETATM    1  C7  UNL     1       6.076   8.085  22.747  1.00  0.00    -0.006 C 
HETATM    2  C8  UNL     1       4.891   8.551  21.922  1.00  0.00     0.005 C 
HETATM    3  C9  UNL     1       4.877   8.082  20.515  1.00  0.00     0.001 C 
HETATM    4  C10 UNL     1       6.145   7.526  19.987  1.00  0.00     0.010 C 
HETATM    5  C11 UNL     1       6.934   6.704  20.938  1.00  0.00    -0.036 C 
HETATM    6  C12 UNL     1       8.322   7.339  21.043  1.00  0.00     0.016 C 
HETATM    7  C13 UNL     1       6.384   6.685  22.343  1.00  0.00    -0.002 C 
HETATM    8  C14 UNL     1       5.232   5.749  22.556  1.00  0.00     0.006 C 
HETATM    9  C15 UNL     1       5.432   4.410  21.921  1.00  0.00     0.006 C 
HETATM   10  C16 UNL     1       5.842   4.536  20.470  1.00  0.00    -0.005 C 
HETATM   11  C17 UNL     1       5.972   3.173  19.842  1.00  0.00     0.004 C 
HETATM   12  C18 UNL     1       6.905   2.260  20.576  1.00  0.00     0.012 C 
HETATM   13  C19 UNL     1       7.719   1.537  19.530  1.00  0.00     0.055 C 
HETATM   14  C20 UNL     1       7.243   2.047  18.207  1.00  0.00     0.014 C 
HETATM   15  N2  UNL     1       7.525   1.489  17.097  1.00  0.00    -0.294 N 
ATOM     16  H2  UNL     1       8.109   0.654  17.155  1.00  0.00     0.188 HD
HETATM   17  C21 UNL     1       6.422   3.263  18.417  1.00  0.00     0.000 C 
HETATM   18  C22 UNL     1       5.202   3.151  17.515  1.00  0.00     0.022 C 
HETATM   19  C23 UNL     1       7.154   4.501  18.060  1.00  0.00     0.016 C 
HETATM   20  C24 UNL     1       7.855   5.219  19.143  1.00  0.00     0.007 C 
HETATM   21  C25 UNL     1       7.151   5.281  20.463  1.00  0.00    -0.002 C 
ENDROOT
BRANCH   1  22
HETATM   22  C2  UNL     1       5.714   8.224  24.209  1.00  0.00    -0.005 C 
HETATM   23  C1  UNL     1       6.825   8.908  24.954  1.00  0.00     0.011 C 
BRANCH  22  24
HETATM   24  C3  UNL     1       4.476   9.085  24.308  1.00  0.00     0.107 C 
BRANCH  24  25
HETATM   25  C4  UNL     1       3.448   8.466  25.184  1.00  0.00     0.217 C 
HETATM   26  O1  UNL     1       3.797   7.951  26.264  1.00  0.00    -0.274 OA
HETATM   27  N1  UNL     1       2.095   8.456  24.810  1.00  0.00    -0.359 N 
ATOM     28  H1  UNL     1       1.838   8.884  23.920  1.00  0.00     0.162 HD
BRANCH  27  29
HETATM   29  C5  UNL     1       1.052   7.874  25.613  1.00  0.00     0.148 C 
BRANCH  29  30
HETATM   30  C6  UNL     1       0.765   6.454  25.190  1.00  0.00     0.183 C 
BRANCH  30  31
HETATM   31  O2  UNL     1       1.667   5.632  25.894  1.00  0.00    -0.399 OA
ATOM     32  H2  UNL     1       2.355   5.396  25.283  1.00  0.00     0.209 HD
ENDBRANCH  30  31
ENDBRANCH  29  30
ENDBRANCH  27  29
ENDBRANCH  24  25
ENDBRANCH  22  24
ENDBRANCH   1  22
BRANCH  15  33
HETATM   33  N3  UNL     1       7.146   1.867  15.833  1.00  0.00    -0.249 N 
HETATM   34  N4  UNL     1       7.831   2.696  15.140  1.00  0.00    -0.331 N 
ATOM     35  H42 UNL     1       8.682   3.078  15.553  1.00  0.00     0.178 HD
ATOM     36  H41 UNL     1       7.549   2.977  14.201  1.00  0.00     0.178 HD
ATOM     37  H3  UNL     1       6.292   1.475  15.435  1.00  0.00     0.207 HD
ENDBRANCH  15  33
TORSDOF 7
ENDMDL
MODEL 5
REMARK VINA RESULT: -8.394697982      1.728      2.986
REMARK  7 active torsions:
REMARK  status: ('A' for Active; 'I' for Inactive)
REMARK    1  A    between atoms: C2_2  and  C3_3 
REMARK    2  A    between atoms: C2_2  and  C7_12 
REMARK    3  A    between atoms: C3_3  and  C4_4 
REMARK       I    between atoms: C4_4  and  N1_6 
REMARK    4  A    between atoms: N1_6  and  C5_8 
REMARK    5  A    between atoms: C5_8  and  C6_9 
REMARK    6  A    between atoms: C6_9  and  O2_10 
REMARK    7  A    between atoms: N2_26  and  N3_28 
ROOT
HETATM    1  C7  UNL     1       4.084   6.320  22.715  1.00  0.00    -0.006 C 
HETATM    2  C8  UNL     1       4.312   5.197  23.710  1.00  0.00     0.005 C 
HETATM    3  C9  UNL     1       4.531   3.857  23.113  1.00  0.00     0.001 C 
HETATM    4  C10 UNL     1       4.169   3.699  21.685  1.00  0.00     0.010 C 
HETATM    5  C11 UNL     1       4.474   4.859  20.810  1.00  0.00    -0.036 C 
HETATM    6  C12 UNL     1       3.162   5.286  20.149  1.00  0.00     0.016 C 
HETATM    7  C13 UNL     1       4.977   6.074  21.549  1.00  0.00    -0.002 C 
HETATM    8  C14 UNL     1       6.427   6.030  21.923  1.00  0.00     0.006 C 
HETATM    9  C15 UNL     1       7.308   5.532  20.821  1.00  0.00     0.006 C 
HETATM   10  C16 UNL     1       6.797   4.231  20.243  1.00  0.00    -0.005 C 
HETATM   11  C17 UNL     1       7.738   3.723  19.183  1.00  0.00     0.004 C 
HETATM   12  C18 UNL     1       8.006   4.714  18.093  1.00  0.00     0.012 C 
HETATM   13  C19 UNL     1       7.984   3.947  16.792  1.00  0.00     0.055 C 
HETATM   14  C20 UNL     1       7.701   2.524  17.154  1.00  0.00     0.014 C 
HETATM   15  N2  UNL     1       7.852   1.551  16.345  1.00  0.00    -0.294 N 
ATOM     16  H2  UNL     1       8.184   1.797  15.412  1.00  0.00     0.188 HD
HETATM   17  C21 UNL     1       7.236   2.458  18.559  1.00  0.00     0.000 C 
HETATM   18  C22 UNL     1       7.937   1.280  19.217  1.00  0.00     0.022 C 
HETATM   19  C23 UNL     1       5.773   2.242  18.654  1.00  0.00     0.016 C 
HETATM   20  C24 UNL     1       4.912   3.433  18.798  1.00  0.00     0.007 C 
HETATM   21  C25 UNL     1       5.431   4.524  19.683  1.00  0.00    -0.002 C 
ENDROOT
BRANCH   1  22
HETATM   22  C2  UNL     1       4.356   7.631  23.417  1.00  0.00    -0.005 C 
HETATM   23  C1  UNL     1       3.098   8.450  23.489  1.00  0.00     0.011 C 
BRANCH  22  24
HETATM   24  C3  UNL     1       4.805   7.327  24.828  1.00  0.00     0.107 C 
BRANCH  24  25
HETATM   25  C4  UNL     1       6.145   7.902  25.111  1.00  0.00     0.217 C 
HETATM   26  O1  UNL     1       6.270   9.137  25.214  1.00  0.00    -0.274 OA
HETATM   27  N1  UNL     1       7.266   7.071  25.264  1.00  0.00    -0.359 N 
ATOM     28  H1  UNL     1       7.136   6.063  25.175  1.00  0.00     0.162 HD
BRANCH  27  29
HETATM   29  C5  UNL     1       8.591   7.565  25.541  1.00  0.00     0.148 C 
BRANCH  29  30
HETATM   30  C6  UNL     1       9.218   8.165  24.305  1.00  0.00     0.183 C 
BRANCH  30  31
HETATM   31  O2  UNL     1       9.158   9.564  24.461  1.00  0.00    -0.399 OA
ATOM     32  H2  UNL     1       8.238   9.796  24.496  1.00  0.00     0.209 HD
ENDBRANCH  30  31
ENDBRANCH  29  30
ENDBRANCH  27  29
ENDBRANCH  24  25
ENDBRANCH  22  24
ENDBRANCH   1  22
BRANCH  15  33
HETATM   33  N3  UNL     1       7.626   0.216  16.567  1.00  0.00    -0.249 N 
HETATM   34  N4  UNL     1       6.844  -0.471  15.822  1.00  0.00    -0.331 N 
ATOM     35  H42 UNL     1       6.384   0.002  15.044  1.00  0.00     0.178 HD
ATOM     36  H41 UNL     1       6.676  -1.464  15.987  1.00  0.00     0.178 HD
ATOM     37  H3  UNL     1       8.094  -0.243  17.348  1.00  0.00     0.207 HD
ENDBRANCH  15  33
TORSDOF 7
ENDMDL
