MODEL 1
REMARK VINA RESULT: -3.832818930      0.000      0.000
REMARK  5 active torsions:
REMARK  status: ('A' for Active; 'I' for Inactive)
REMARK    1  A    between atoms: C2_2  and  N1_3 
REMARK    2  A    between atoms: N1_3  and  C3_5 
REMARK    3  A    between atoms: C4_6  and  N2_7 
REMARK    4  A    between atoms: N3_9  and  N4_11 
REMARK    5  A    between atoms: C6_19  and  N7_20 
ROOT
HETATM    1  C3  UNL     1      29.576  68.452  73.756  1.00  0.00     0.107 A 
HETATM    2  C4  UNL     1      29.288  68.335  75.094  1.00  0.00     0.165 A 
HETATM    3  N5  UNL     1      29.831  67.386  75.866  1.00  0.00    -0.283 N 
ATOM      4  H5  UNL     1      29.595  67.328  76.857  1.00  0.00     0.188 HD
HETATM    5  N6  UNL     1      30.674  66.527  75.331  1.00  0.00    -0.308 N 
ATOM      6  H6  UNL     1      31.094  65.798  75.909  1.00  0.00     0.186 HD
HETATM    7  C5  UNL     1      30.982  66.607  74.031  1.00  0.00     0.138 A 
HETATM    8  C6  UNL     1      30.448  67.570  73.191  1.00  0.00     0.073 A 
ENDROOT
BRANCH   2   9
HETATM    9  N2  UNL     1      28.381  69.244  75.709  1.00  0.00    -0.268 N 
HETATM   10  N3  UNL     1      28.845  70.227  76.335  1.00  0.00    -0.248 N 
ATOM     11  H3  UNL     1      29.859  70.324  76.372  1.00  0.00     0.207 HD
ATOM     12  H2  UNL     1      27.373  69.098  75.641  1.00  0.00     0.190 HD
BRANCH  10  13
HETATM   13  N4  UNL     1      28.089  71.188  76.981  1.00  0.00    -0.331 N 
ATOM     14  H42 UNL     1      28.151  72.137  76.609  1.00  0.00     0.178 HD
ATOM     15  H41 UNL     1      27.486  71.019  77.786  1.00  0.00     0.178 HD
ENDBRANCH  10  13
ENDBRANCH   2   9
BRANCH   1  16
HETATM   16  N1  UNL     1      28.961  69.489  72.993  1.00  0.00    -0.362 N 
ATOM     17  H1  UNL     1      29.386  70.416  72.997  1.00  0.00     0.165 HD
BRANCH  16  18
HETATM   18  C2  UNL     1      27.785  69.286  72.231  1.00  0.00     0.078 C 
HETATM   19  C1  UNL     1      27.040  68.222  72.361  1.00  0.00     0.029 C 
ENDBRANCH  16  18
ENDBRANCH   1  16
BRANCH   8  20
HETATM   20  N7  UNL     1      30.745  67.643  71.944  1.00  0.00    -0.396 N 
ATOM     21  H72 UNL     1      30.164  68.138  71.268  1.00  0.00     0.156 HD
ATOM     22  H71 UNL     1      31.589  67.200  71.580  1.00  0.00     0.156 HD
ENDBRANCH   8  20
TORSDOF 5
ENDMDL
MODEL 2
REMARK VINA RESULT: -3.614140156      2.042      3.692
REMARK  5 active torsions:
REMARK  status: ('A' for Active; 'I' for Inactive)
REMARK    1  A    between atoms: C2_2  and  N1_3 
REMARK    2  A    between atoms: N1_3  and  C3_5 
REMARK    3  A    between atoms: C4_6  and  N2_7 
REMARK    4  A    between atoms: N3_9  and  N4_11 
REMARK    5  A    between atoms: C6_19  and  N7_20 
ROOT
HETATM    1  C3  UNL     1      29.055  67.248  74.299  1.00  0.00     0.107 A 
HETATM    2  C4  UNL     1      28.639  67.811  73.116  1.00  0.00     0.165 A 
HETATM    3  N5  UNL     1      29.476  68.047  72.099  1.00  0.00    -0.283 N 
ATOM      4  H5  UNL     1      29.132  68.467  71.234  1.00  0.00     0.188 HD
HETATM    5  N6  UNL     1      30.748  67.731  72.226  1.00  0.00    -0.308 N 
ATOM      6  H6  UNL     1      31.396  67.907  71.458  1.00  0.00     0.186 HD
HETATM    7  C5  UNL     1      31.194  67.180  73.361  1.00  0.00     0.138 A 
HETATM    8  C6  UNL     1      30.369  66.916  74.442  1.00  0.00     0.073 A 
ENDROOT
BRANCH   2   9
HETATM    9  N2  UNL     1      27.272  68.168  72.940  1.00  0.00    -0.268 N 
HETATM   10  N3  UNL     1      26.890  68.551  71.809  1.00  0.00    -0.248 N 
ATOM     11  H3  UNL     1      27.587  68.588  71.065  1.00  0.00     0.207 HD
ATOM     12  H2  UNL     1      26.616  68.112  73.720  1.00  0.00     0.190 HD
BRANCH  10  13
HETATM   13  N4  UNL     1      25.598  68.929  71.490  1.00  0.00    -0.331 N 
ATOM     14  H42 UNL     1      25.496  69.808  70.983  1.00  0.00     0.178 HD
ATOM     15  H41 UNL     1      24.758  68.399  71.722  1.00  0.00     0.178 HD
ENDBRANCH  10  13
ENDBRANCH   2   9
BRANCH   1  16
HETATM   16  N1  UNL     1      28.107  67.025  75.342  1.00  0.00    -0.362 N 
ATOM     17  H1  UNL     1      27.606  66.136  75.364  1.00  0.00     0.165 HD
BRANCH  16  18
HETATM   18  C2  UNL     1      27.832  67.983  76.346  1.00  0.00     0.078 C 
HETATM   19  C1  UNL     1      28.269  69.212  76.281  1.00  0.00     0.029 C 
ENDBRANCH  16  18
ENDBRANCH   1  16
BRANCH   8  20
HETATM   20  N7  UNL     1      30.801  66.388  75.530  1.00  0.00    -0.396 N 
ATOM     21  H72 UNL     1      30.223  65.786  76.116  1.00  0.00     0.156 HD
ATOM     22  H71 UNL     1      31.754  66.554  75.850  1.00  0.00     0.156 HD
ENDBRANCH   8  20
TORSDOF 5
ENDMDL
MODEL 3
REMARK VINA RESULT: -3.120928929      2.118      4.164
REMARK  5 active torsions:
REMARK  status: ('A' for Active; 'I' for Inactive)
REMARK    1  A    between atoms: C2_2  and  N1_3 
REMARK    2  A    between atoms: N1_3  and  C3_5 
REMARK    3  A    between atoms: C4_6  and  N2_7 
REMARK    4  A    between atoms: N3_9  and  N4_11 
REMARK    5  A    between atoms: C6_19  and  N7_20 
ROOT
HETATM    1  C3  UNL     1      29.167  68.091  73.932  1.00  0.00     0.107 A 
HETATM    2  C4  UNL     1      27.960  67.433  73.950  1.00  0.00     0.165 A 
HETATM    3  N5  UNL     1      26.959  67.745  73.119  1.00  0.00    -0.283 N 
ATOM      4  H5  UNL     1      26.076  67.235  73.159  1.00  0.00     0.188 HD
HETATM    5  N6  UNL     1      27.126  68.720  72.249  1.00  0.00    -0.308 N 
ATOM      6  H6  UNL     1      26.370  68.968  71.611  1.00  0.00     0.186 HD
HETATM    7  C5  UNL     1      28.286  69.386  72.199  1.00  0.00     0.138 A 
HETATM    8  C6  UNL     1      29.352  69.100  73.036  1.00  0.00     0.073 A 
ENDROOT
BRANCH   2   9
HETATM    9  N2  UNL     1      27.741  66.374  74.876  1.00  0.00    -0.268 N 
HETATM   10  N3  UNL     1      27.443  65.238  74.434  1.00  0.00    -0.248 N 
ATOM     11  H3  UNL     1      27.372  65.132  73.422  1.00  0.00     0.207 HD
ATOM     12  H2  UNL     1      27.824  66.536  75.880  1.00  0.00     0.190 HD
BRANCH  10  13
HETATM   13  N4  UNL     1      27.201  64.120  75.210  1.00  0.00    -0.331 N 
ATOM     14  H42 UNL     1      27.851  63.955  75.980  1.00  0.00     0.178 HD
ATOM     15  H41 UNL     1      26.435  63.461  75.070  1.00  0.00     0.178 HD
ENDBRANCH  10  13
ENDBRANCH   2   9
BRANCH   1  16
HETATM   16  N1  UNL     1      30.191  67.703  74.848  1.00  0.00    -0.362 N 
ATOM     17  H1  UNL     1      30.242  68.174  75.751  1.00  0.00     0.165 HD
BRANCH  16  18
HETATM   18  C2  UNL     1      31.139  66.694  74.555  1.00  0.00     0.078 C 
HETATM   19  C1  UNL     1      31.730  66.603  73.394  1.00  0.00     0.029 C 
ENDBRANCH  16  18
ENDBRANCH   1  16
BRANCH   8  20
HETATM   20  N7  UNL     1      30.463  69.742  72.986  1.00  0.00    -0.396 N 
ATOM     21  H72 UNL     1      31.331  69.368  73.367  1.00  0.00     0.156 HD
ATOM     22  H71 UNL     1      30.516  70.664  72.554  1.00  0.00     0.156 HD
ENDBRANCH   8  20
TORSDOF 5
ENDMDL
MODEL 4
REMARK VINA RESULT: -3.113504196      2.550      4.407
REMARK  5 active torsions:
REMARK  status: ('A' for Active; 'I' for Inactive)
REMARK    1  A    between atoms: C2_2  and  N1_3 
REMARK    2  A    between atoms: N1_3  and  C3_5 
REMARK    3  A    between atoms: C4_6  and  N2_7 
REMARK    4  A    between atoms: N3_9  and  N4_11 
REMARK    5  A    between atoms: C6_19  and  N7_20 
ROOT
HETATM    1  C3  UNL     1      28.868  67.607  73.147  1.00  0.00     0.107 A 
HETATM    2  C4  UNL     1      30.175  68.001  72.990  1.00  0.00     0.165 A 
HETATM    3  N5  UNL     1      30.511  69.183  72.463  1.00  0.00    -0.283 N 
ATOM      4  H5  UNL     1      31.492  69.444  72.361  1.00  0.00     0.188 HD
HETATM    5  N6  UNL     1      29.559  70.008  72.075  1.00  0.00    -0.308 N 
ATOM      6  H6  UNL     1      29.803  70.912  71.670  1.00  0.00     0.186 HD
HETATM    7  C5  UNL     1      28.274  69.662  72.211  1.00  0.00     0.138 A 
HETATM    8  C6  UNL     1      27.875  68.451  72.751  1.00  0.00     0.073 A 
ENDROOT
BRANCH   2   9
HETATM    9  N2  UNL     1      31.232  67.137  73.396  1.00  0.00    -0.268 N 
HETATM   10  N3  UNL     1      32.329  67.202  72.792  1.00  0.00    -0.248 N 
ATOM     11  H3  UNL     1      32.407  67.878  72.032  1.00  0.00     0.207 HD
ATOM     12  H2  UNL     1      31.099  66.479  74.164  1.00  0.00     0.190 HD
BRANCH  10  13
HETATM   13  N4  UNL     1      33.440  66.428  73.073  1.00  0.00    -0.331 N 
ATOM     14  H42 UNL     1      33.289  65.421  73.123  1.00  0.00     0.178 HD
ATOM     15  H41 UNL     1      34.381  66.789  73.232  1.00  0.00     0.178 HD
ENDBRANCH  10  13
ENDBRANCH   2   9
BRANCH   1  16
HETATM   16  N1  UNL     1      28.583  66.330  73.719  1.00  0.00    -0.362 N 
ATOM     17  H1  UNL     1      28.785  65.494  73.171  1.00  0.00     0.165 HD
BRANCH  16  18
HETATM   18  C2  UNL     1      28.033  66.175  75.014  1.00  0.00     0.078 C 
HETATM   19  C1  UNL     1      27.984  67.154  75.877  1.00  0.00     0.029 C 
ENDBRANCH  16  18
ENDBRANCH   1  16
BRANCH   8  20
HETATM   20  N7  UNL     1      26.640  68.123  72.879  1.00  0.00    -0.396 N 
ATOM     21  H72 UNL     1      25.895  68.571  72.346  1.00  0.00     0.156 HD
ATOM     22  H71 UNL     1      26.357  67.391  73.529  1.00  0.00     0.156 HD
ENDBRANCH   8  20
TORSDOF 5
ENDMDL
MODEL 5
REMARK VINA RESULT: -3.103124186      2.339      3.796
REMARK  5 active torsions:
REMARK  status: ('A' for Active; 'I' for Inactive)
REMARK    1  A    between atoms: C2_2  and  N1_3 
REMARK    2  A    between atoms: N1_3  and  C3_5 
REMARK    3  A    between atoms: C4_6  and  N2_7 
REMARK    4  A    between atoms: N3_9  and  N4_11 
REMARK    5  A    between atoms: C6_19  and  N7_20 
ROOT
HETATM    1  C3  UNL     1      29.043  67.612  73.652  1.00  0.00     0.107 A 
HETATM    2  C4  UNL     1      28.380  68.524  72.865  1.00  0.00     0.165 A 
HETATM    3  N5  UNL     1      29.009  69.529  72.245  1.00  0.00    -0.283 N 
ATOM      4  H5  UNL     1      28.486  70.188  71.668  1.00  0.00     0.188 HD
HETATM    5  N6  UNL     1      30.312  69.658  72.388  1.00  0.00    -0.308 N 
ATOM      6  H6  UNL     1      30.803  70.421  71.921  1.00  0.00     0.186 HD
HETATM    7  C5  UNL     1      30.995  68.791  73.145  1.00  0.00     0.138 A 
HETATM    8  C6  UNL     1      30.391  67.734  73.807  1.00  0.00     0.073 A 
ENDROOT
BRANCH   2   9
HETATM    9  N2  UNL     1      26.972  68.419  72.687  1.00  0.00    -0.268 N 
HETATM   10  N3  UNL     1      26.452  68.941  71.671  1.00  0.00    -0.248 N 
ATOM     11  H3  UNL     1      27.074  69.419  71.019  1.00  0.00     0.207 HD
ATOM     12  H2  UNL     1      26.396  67.928  73.372  1.00  0.00     0.190 HD
BRANCH  10  13
HETATM   13  N4  UNL     1      25.103  68.920  71.367  1.00  0.00    -0.331 N 
ATOM     14  H42 UNL     1      24.622  68.031  71.505  1.00  0.00     0.178 HD
ATOM     15  H41 UNL     1      24.567  69.716  71.021  1.00  0.00     0.178 HD
ENDBRANCH  10  13
ENDBRANCH   2   9
BRANCH   1  16
HETATM   16  N1  UNL     1      28.307  66.564  74.283  1.00  0.00    -0.362 N 
ATOM     17  H1  UNL     1      28.273  65.651  73.831  1.00  0.00     0.165 HD
BRANCH  16  18
HETATM   18  C2  UNL     1      27.624  66.739  75.510  1.00  0.00     0.078 C 
HETATM   19  C1  UNL     1      27.770  67.806  76.249  1.00  0.00     0.029 C 
ENDBRANCH  16  18
ENDBRANCH   1  16
BRANCH   8  20
HETATM   20  N7  UNL     1      31.049  66.904  74.532  1.00  0.00    -0.396 N 
ATOM     21  H72 UNL     1      32.018  66.654  74.339  1.00  0.00     0.156 HD
ATOM     22  H71 UNL     1      30.618  66.460  75.343  1.00  0.00     0.156 HD
ENDBRANCH   8  20
TORSDOF 5
ENDMDL
