MODEL 1
REMARK VINA RESULT: -5.650056271      0.000      0.000
REMARK  1 active torsions:
REMARK  status: ('A' for Active; 'I' for Inactive)
REMARK    1  A    between atoms: C2_2  and  O1_3 
ROOT
HETATM    1  C1  UNL     1      24.523   2.332  18.643  1.00  0.00     0.097 C 
HETATM    2  C2  UNL     1      24.825   1.838  17.242  1.00  0.00     0.210 C 
HETATM    3  N1  UNL     1      25.522   0.672  17.122  1.00  0.00    -0.354 N 
ATOM      4  H1  UNL     1      26.273   0.880  16.464  1.00  0.00     0.163 HD
HETATM    5  C3  UNL     1      25.679  -0.483  17.417  1.00  0.00     0.070 C 
HETATM    6  C4  UNL     1      26.857  -1.181  16.756  1.00  0.00     0.119 C 
HETATM    7  S1  UNL     1      26.855  -0.611  15.034  1.00  0.00    -0.143 SA
HETATM    8  C5  UNL     1      28.526  -0.406  14.384  1.00  0.00     0.060 C 
HETATM    9  C6  UNL     1      28.459  -0.594  12.874  1.00  0.00     0.039 C 
HETATM   10  C7  UNL     1      29.493  -1.362  15.023  1.00  0.00     0.039 C 
HETATM   11  S2  UNL     1      29.066   1.285  14.760  1.00  0.00    -0.069 SA
HETATM   12  S3  UNL     1      28.018   1.905  16.515  1.00  0.00    -0.020 SA
HETATM   13  C8  UNL     1      26.703   3.000  15.990  1.00  0.00     0.148 C 
HETATM   14  N2  UNL     1      27.037   3.826  15.053  1.00  0.00    -0.379 N 
ATOM     15  H21 UNL     1      26.289   4.450  14.753  1.00  0.00     0.158 HD
ATOM     16  H22 UNL     1      27.977   3.838  14.657  1.00  0.00     0.158 HD
HETATM   17  N3  UNL     1      25.408   2.984  16.535  1.00  0.00    -0.322 N 
ATOM     18  H3  UNL     1      24.836   3.822  16.433  1.00  0.00     0.166 HD
ENDROOT
BRANCH   2  19
HETATM   19  O1  UNL     1      23.553   1.664  16.636  1.00  0.00    -0.354 OA
ATOM     20  H1  UNL     1      23.390   0.729  16.675  1.00  0.00     0.214 HD
ENDBRANCH   2  19
TORSDOF 1
ENDMDL
MODEL 2
REMARK VINA RESULT: -5.077296692      3.438      6.292
REMARK  1 active torsions:
REMARK  status: ('A' for Active; 'I' for Inactive)
REMARK    1  A    between atoms: C2_2  and  O1_3 
ROOT
HETATM    1  C1  UNL     1      26.938   2.847  16.086  1.00  0.00     0.097 C 
HETATM    2  C2  UNL     1      25.570   2.466  16.615  1.00  0.00     0.210 C 
HETATM    3  N1  UNL     1      25.025   3.258  17.582  1.00  0.00    -0.354 N 
ATOM      4  H1  UNL     1      24.722   2.612  18.311  1.00  0.00     0.163 HD
HETATM    5  C3  UNL     1      24.729   4.349  17.991  1.00  0.00     0.070 C 
HETATM    6  C4  UNL     1      24.057   4.385  19.354  1.00  0.00     0.119 C 
HETATM    7  S1  UNL     1      22.888   3.000  19.356  1.00  0.00    -0.143 SA
HETATM    8  C5  UNL     1      22.772   2.210  20.974  1.00  0.00     0.060 C 
HETATM    9  C6  UNL     1      21.391   1.577  21.081  1.00  0.00     0.039 C 
HETATM   10  C7  UNL     1      23.026   3.185  22.089  1.00  0.00     0.039 C 
HETATM   11  S2  UNL     1      24.040   0.914  21.053  1.00  0.00    -0.069 SA
HETATM   12  S3  UNL     1      25.622   1.501  19.744  1.00  0.00    -0.020 SA
HETATM   13  C8  UNL     1      25.465   0.526  18.251  1.00  0.00     0.148 C 
HETATM   14  N2  UNL     1      25.152  -0.712  18.450  1.00  0.00    -0.379 N 
ATOM     15  H21 UNL     1      25.062  -1.267  17.599  1.00  0.00     0.158 HD
ATOM     16  H22 UNL     1      25.010  -1.086  19.388  1.00  0.00     0.158 HD
HETATM   17  N3  UNL     1      25.660   1.042  16.957  1.00  0.00    -0.322 N 
ATOM     18  H3  UNL     1      25.878   0.385  16.209  1.00  0.00     0.166 HD
ENDROOT
BRANCH   2  19
HETATM   19  O1  UNL     1      24.719   2.498  15.478  1.00  0.00    -0.354 OA
ATOM     20  H1  UNL     1      24.244   3.317  15.552  1.00  0.00     0.214 HD
ENDBRANCH   2  19
TORSDOF 1
ENDMDL
MODEL 3
REMARK VINA RESULT: -5.023386874      2.811      5.139
REMARK  1 active torsions:
REMARK  status: ('A' for Active; 'I' for Inactive)
REMARK    1  A    between atoms: C2_2  and  O1_3 
ROOT
HETATM    1  C1  UNL     1      28.295   1.200  14.926  1.00  0.00     0.097 C 
HETATM    2  C2  UNL     1      27.894   1.855  16.233  1.00  0.00     0.210 C 
HETATM    3  N1  UNL     1      27.211   1.095  17.135  1.00  0.00    -0.354 N 
ATOM      4  H1  UNL     1      26.408   1.664  17.404  1.00  0.00     0.163 HD
HETATM    5  C3  UNL     1      27.098   0.079  17.767  1.00  0.00     0.070 C 
HETATM    6  C4  UNL     1      25.885  -0.001  18.681  1.00  0.00     0.119 C 
HETATM    7  S1  UNL     1      25.743   1.637  19.445  1.00  0.00    -0.143 SA
HETATM    8  C5  UNL     1      24.023   2.134  19.673  1.00  0.00     0.060 C 
HETATM    9  C6  UNL     1      23.976   3.104  20.847  1.00  0.00     0.039 C 
HETATM   10  C7  UNL     1      23.126   0.949  19.893  1.00  0.00     0.039 C 
HETATM   11  S2  UNL     1      23.484   2.984  18.164  1.00  0.00    -0.069 SA
HETATM   12  S3  UNL     1      24.654   2.208  16.553  1.00  0.00    -0.020 SA
HETATM   13  C8  UNL     1      25.903   3.431  16.168  1.00  0.00     0.148 C 
HETATM   14  N2  UNL     1      25.483   4.653  16.195  1.00  0.00    -0.379 N 
ATOM     15  H21 UNL     1      26.195   5.349  15.976  1.00  0.00     0.158 HD
ATOM     16  H22 UNL     1      24.515   4.883  16.419  1.00  0.00     0.158 HD
HETATM   17  N3  UNL     1      27.238   3.113  15.859  1.00  0.00    -0.322 N 
ATOM     18  H3  UNL     1      27.785   3.801  15.342  1.00  0.00     0.166 HD
ENDROOT
BRANCH   2  19
HETATM   19  O1  UNL     1      29.118   2.263  16.825  1.00  0.00    -0.354 OA
ATOM     20  H1  UNL     1      29.031   3.201  16.943  1.00  0.00     0.214 HD
ENDBRANCH   2  19
TORSDOF 1
ENDMDL
MODEL 4
REMARK VINA RESULT: -5.005039660      4.102      5.378
REMARK  1 active torsions:
REMARK  status: ('A' for Active; 'I' for Inactive)
REMARK    1  A    between atoms: C2_2  and  O1_3 
ROOT
HETATM    1  C1  UNL     1      21.878   1.517  21.890  1.00  0.00     0.097 C 
HETATM    2  C2  UNL     1      23.272   1.993  21.531  1.00  0.00     0.210 C 
HETATM    3  N1  UNL     1      23.425   2.666  20.356  1.00  0.00    -0.354 N 
ATOM      4  H1  UNL     1      24.211   2.211  19.891  1.00  0.00     0.163 HD
HETATM    5  C3  UNL     1      23.081   3.538  19.602  1.00  0.00     0.070 C 
HETATM    6  C4  UNL     1      23.879   3.649  18.312  1.00  0.00     0.119 C 
HETATM    7  S1  UNL     1      25.611   3.408  18.789  1.00  0.00    -0.143 SA
HETATM    8  C5  UNL     1      26.541   2.500  17.537  1.00  0.00     0.060 C 
HETATM    9  C6  UNL     1      28.002   2.910  17.660  1.00  0.00     0.039 C 
HETATM   10  C7  UNL     1      26.006   2.752  16.155  1.00  0.00     0.039 C 
HETATM   11  S2  UNL     1      26.376   0.729  17.895  1.00  0.00    -0.069 SA
HETATM   12  S3  UNL     1      24.518   0.464  18.917  1.00  0.00    -0.020 SA
HETATM   13  C8  UNL     1      24.894   0.247  20.653  1.00  0.00     0.148 C 
HETATM   14  N2  UNL     1      25.928  -0.492  20.889  1.00  0.00    -0.379 N 
ATOM     15  H21 UNL     1      26.142  -0.616  21.879  1.00  0.00     0.158 HD
ATOM     16  H22 UNL     1      26.473  -0.910  20.135  1.00  0.00     0.158 HD
HETATM   17  N3  UNL     1      24.142   0.822  21.693  1.00  0.00    -0.322 N 
ATOM     18  H3  UNL     1      24.206   0.400  22.619  1.00  0.00     0.166 HD
ENDROOT
BRANCH   2  19
HETATM   19  O1  UNL     1      23.646   2.856  22.594  1.00  0.00    -0.354 OA
ATOM     20  H1  UNL     1      24.141   2.307  23.191  1.00  0.00     0.214 HD
ENDBRANCH   2  19
TORSDOF 1
ENDMDL
MODEL 5
REMARK VINA RESULT: -4.921260336      3.202      6.272
REMARK  1 active torsions:
REMARK  status: ('A' for Active; 'I' for Inactive)
REMARK    1  A    between atoms: C2_2  and  O1_3 
ROOT
HETATM    1  C1  UNL     1      27.333   1.297  16.167  1.00  0.00     0.097 C 
HETATM    2  C2  UNL     1      25.911   1.295  16.691  1.00  0.00     0.210 C 
HETATM    3  N1  UNL     1      25.465   2.426  17.308  1.00  0.00    -0.354 N 
ATOM      4  H1  UNL     1      25.053   2.103  18.184  1.00  0.00     0.163 HD
HETATM    5  C3  UNL     1      25.323   3.619  17.320  1.00  0.00     0.070 C 
HETATM    6  C4  UNL     1      24.629   4.191  18.546  1.00  0.00     0.119 C 
HETATM    7  S1  UNL     1      23.270   3.049  18.913  1.00  0.00    -0.143 SA
HETATM    8  C5  UNL     1      23.000   2.861  20.688  1.00  0.00     0.060 C 
HETATM    9  C6  UNL     1      21.539   2.485  20.894  1.00  0.00     0.039 C 
HETATM   10  C7  UNL     1      23.367   4.108  21.442  1.00  0.00     0.039 C 
HETATM   11  S2  UNL     1      24.062   1.510  21.271  1.00  0.00    -0.069 SA
HETATM   12  S3  UNL     1      25.745   1.420  19.959  1.00  0.00    -0.020 SA
HETATM   13  C8  UNL     1      25.483   0.036  18.855  1.00  0.00     0.148 C 
HETATM   14  N2  UNL     1      24.987  -1.015  19.421  1.00  0.00    -0.379 N 
ATOM     15  H21 UNL     1      24.838  -1.803  18.792  1.00  0.00     0.158 HD
ATOM     16  H22 UNL     1      24.769  -1.036  20.417  1.00  0.00     0.158 HD
HETATM   17  N3  UNL     1      25.784   0.065  17.481  1.00  0.00    -0.322 N 
ATOM     18  H3  UNL     1      25.922  -0.825  17.004  1.00  0.00     0.166 HD
ENDROOT
BRANCH   2  19
HETATM   19  O1  UNL     1      25.103   1.060  15.547  1.00  0.00    -0.354 OA
ATOM     20  H1  UNL     1      25.709   0.770  14.876  1.00  0.00     0.214 HD
ENDBRANCH   2  19
TORSDOF 1
ENDMDL
