MODEL 1
REMARK VINA RESULT: -8.472699158      0.000      0.000
REMARK  14 active torsions:
REMARK  status: ('A' for Active; 'I' for Inactive)
REMARK    1  A    between atoms: C2_2  and  C3_3 
REMARK    2  A    between atoms: C3_3  and  C5_5 
REMARK    3  A    between atoms: C5_5  and  N1_6 
REMARK    4  A    between atoms: C5_5  and  C6_10 
REMARK       I    between atoms: C6_10  and  N2_12 
REMARK    5  A    between atoms: N2_12  and  C7_14 
REMARK    6  A    between atoms: C7_14  and  C9_16 
REMARK    7  A    between atoms: C10_18  and  C11_19 
REMARK    8  A    between atoms: C11_19  and  C12_20 
REMARK    9  A    between atoms: C12_20  and  N3_21 
REMARK   10  A    between atoms: C13_25  and  C14_26 
REMARK       I    between atoms: C14_26  and  N4_28 
REMARK   11  A    between atoms: N4_28  and  C15_30 
REMARK   12  A    between atoms: C15_30  and  C16_31 
REMARK   13  A    between atoms: C15_30  and  C17_36 
REMARK   14  A    between atoms: C16_31  and  N5_32 
ROOT
HETATM    1  C9  UNL     1      18.606  -0.352  23.554  1.00  0.00     0.283 C 
HETATM    2  O2  UNL     1      18.342  -1.369  24.447  1.00  0.00    -0.351 OA
HETATM    3  C10 UNL     1      17.064  -1.073  24.932  1.00  0.00     0.164 C 
HETATM    4  C13 UNL     1      17.196   0.405  25.077  1.00  0.00     0.245 C 
HETATM    5  O5  UNL     1      17.682   0.685  23.744  1.00  0.00    -0.342 OA
ENDROOT
BRANCH   1   6
HETATM    6  C7  UNL     1      18.639  -0.797  22.116  1.00  0.00     0.135 C 
HETATM    7  C8  UNL     1      17.308  -0.696  21.457  1.00  0.00     0.037 C 
BRANCH   6   8
HETATM    8  N2  UNL     1      19.536   0.092  21.371  1.00  0.00    -0.350 N 
HETATM    9  C6  UNL     1      20.944  -0.018  21.456  1.00  0.00     0.249 C 
HETATM   10  O1  UNL     1      21.405  -0.926  22.211  1.00  0.00    -0.271 OA
ATOM     11  H2  UNL     1      19.132   0.813  20.773  1.00  0.00     0.163 HD
BRANCH   9  12
HETATM   12  C5  UNL     1      21.788   0.899  20.690  1.00  0.00     0.278 C 
BRANCH  12  13
HETATM   13  C3  UNL     1      21.632   0.799  19.213  1.00  0.00     0.021 C 
HETATM   14  C4  UNL     1      20.182   1.074  18.875  1.00  0.00     0.012 C 
BRANCH  13  15
HETATM   15  C2  UNL     1      22.563   1.716  18.453  1.00  0.00     0.002 C 
HETATM   16  C1  UNL     1      21.835   2.589  17.474  1.00  0.00     0.005 C 
ENDBRANCH  13  15
ENDBRANCH  12  13
BRANCH  12  17
HETATM   17  N1  UNL     1      23.168   0.744  21.118  1.00  0.00    -0.066 N 
ATOM     18  H13 UNL     1      23.603  -0.063  20.669  1.00  0.00     0.275 HD
ATOM     19  H12 UNL     1      23.757   1.483  20.733  1.00  0.00     0.275 HD
ATOM     20  H11 UNL     1      23.261   0.693  22.132  1.00  0.00     0.275 HD
ENDBRANCH  12  17
ENDBRANCH   9  12
ENDBRANCH   6   8
ENDBRANCH   1   6
BRANCH   3  21
HETATM   21  C11 UNL     1      16.685  -1.862  26.116  1.00  0.00     0.062 C 
BRANCH  21  22
HETATM   22  C12 UNL     1      15.688  -2.944  25.862  1.00  0.00     0.232 C 
BRANCH  22  23
HETATM   23  N3  UNL     1      15.344  -3.192  24.502  1.00  0.00    -0.079 N 
ATOM     24  H33 UNL     1      15.212  -2.304  24.016  1.00  0.00     0.274 HD
ATOM     25  H32 UNL     1      16.156  -3.559  24.006  1.00  0.00     0.274 HD
ATOM     26  H31 UNL     1      14.539  -3.796  24.335  1.00  0.00     0.274 HD
ENDBRANCH  22  23
ENDBRANCH  21  22
ENDBRANCH   3  21
BRANCH   4  27
HETATM   27  C14 UNL     1      18.181   0.942  25.999  1.00  0.00     0.250 C 
HETATM   28  O3  UNL     1      18.397   2.180  26.044  1.00  0.00    -0.271 OA
HETATM   29  N4  UNL     1      18.960   0.127  26.893  1.00  0.00    -0.344 N 
ATOM     30  H4  UNL     1      18.812  -0.882  26.871  1.00  0.00     0.163 HD
BRANCH  29  31
HETATM   31  C15 UNL     1      19.922   0.637  27.806  1.00  0.00     0.199 C 
BRANCH  31  32
HETATM   32  C16 UNL     1      21.173  -0.207  27.910  1.00  0.00     0.264 C 
BRANCH  32  33
HETATM   33  N5  UNL     1      22.352   0.624  28.147  1.00  0.00    -0.077 N 
ATOM     34  H53 UNL     1      23.085   0.106  28.632  1.00  0.00     0.274 HD
ATOM     35  H52 UNL     1      22.850   0.824  27.279  1.00  0.00     0.274 HD
ATOM     36  H51 UNL     1      22.105   1.480  28.645  1.00  0.00     0.274 HD
ENDBRANCH  32  33
ENDBRANCH  31  32
BRANCH  31  37
HETATM   37  C17 UNL     1      19.386   0.911  29.162  1.00  0.00     0.255 C 
HETATM   38  N6  UNL     1      19.814   0.074  30.225  1.00  0.00    -0.060 NA
HETATM   39  O4  UNL     1      18.585   1.827  29.427  1.00  0.00    -0.275 OA
ENDBRANCH  31  37
ENDBRANCH  29  31
ENDBRANCH   4  27
TORSDOF 14
ENDMDL
MODEL 2
REMARK VINA RESULT: -8.375757836      1.148      1.536
REMARK  14 active torsions:
REMARK  status: ('A' for Active; 'I' for Inactive)
REMARK    1  A    between atoms: C2_2  and  C3_3 
REMARK    2  A    between atoms: C3_3  and  C5_5 
REMARK    3  A    between atoms: C5_5  and  N1_6 
REMARK    4  A    between atoms: C5_5  and  C6_10 
REMARK       I    between atoms: C6_10  and  N2_12 
REMARK    5  A    between atoms: N2_12  and  C7_14 
REMARK    6  A    between atoms: C7_14  and  C9_16 
REMARK    7  A    between atoms: C10_18  and  C11_19 
REMARK    8  A    between atoms: C11_19  and  C12_20 
REMARK    9  A    between atoms: C12_20  and  N3_21 
REMARK   10  A    between atoms: C13_25  and  C14_26 
REMARK       I    between atoms: C14_26  and  N4_28 
REMARK   11  A    between atoms: N4_28  and  C15_30 
REMARK   12  A    between atoms: C15_30  and  C16_31 
REMARK   13  A    between atoms: C15_30  and  C17_36 
REMARK   14  A    between atoms: C16_31  and  N5_32 
ROOT
HETATM    1  C9  UNL     1      18.286  -0.306  23.481  1.00  0.00     0.283 C 
HETATM    2  O2  UNL     1      18.075  -1.319  24.393  1.00  0.00    -0.351 OA
HETATM    3  C10 UNL     1      16.843  -1.004  24.973  1.00  0.00     0.164 C 
HETATM    4  C13 UNL     1      17.008   0.472  25.105  1.00  0.00     0.245 C 
HETATM    5  O5  UNL     1      17.394   0.744  23.739  1.00  0.00    -0.342 OA
ENDROOT
BRANCH   1   6
HETATM    6  C7  UNL     1      18.202  -0.752  22.045  1.00  0.00     0.135 C 
HETATM    7  C8  UNL     1      16.929  -0.341  21.393  1.00  0.00     0.037 C 
BRANCH   6   8
HETATM    8  N2  UNL     1      19.279  -0.104  21.290  1.00  0.00    -0.350 N 
HETATM    9  C6  UNL     1      20.643  -0.402  21.520  1.00  0.00     0.249 C 
HETATM   10  O1  UNL     1      20.900  -1.262  22.415  1.00  0.00    -0.271 OA
ATOM     11  H2  UNL     1      19.038   0.584  20.576  1.00  0.00     0.163 HD
BRANCH   9  12
HETATM   12  C5  UNL     1      21.674   0.278  20.735  1.00  0.00     0.278 C 
BRANCH  12  13
HETATM   13  C3  UNL     1      22.634   1.084  21.538  1.00  0.00     0.021 C 
HETATM   14  C4  UNL     1      23.617   0.132  22.188  1.00  0.00     0.012 C 
BRANCH  13  15
HETATM   15  C2  UNL     1      23.342   2.145  20.728  1.00  0.00     0.002 C 
HETATM   16  C1  UNL     1      23.772   3.314  21.566  1.00  0.00     0.005 C 
ENDBRANCH  13  15
ENDBRANCH  12  13
BRANCH  12  17
HETATM   17  N1  UNL     1      21.038   1.052  19.683  1.00  0.00    -0.066 N 
ATOM     18  H13 UNL     1      20.482   1.813  20.073  1.00  0.00     0.275 HD
ATOM     19  H12 UNL     1      21.725   1.599  19.164  1.00  0.00     0.275 HD
ATOM     20  H11 UNL     1      20.479   0.475  19.055  1.00  0.00     0.275 HD
ENDBRANCH  12  17
ENDBRANCH   9  12
ENDBRANCH   6   8
ENDBRANCH   1   6
BRANCH   3  21
HETATM   21  C11 UNL     1      16.543  -1.786  26.184  1.00  0.00     0.062 C 
BRANCH  21  22
HETATM   22  C12 UNL     1      15.719  -3.010  25.958  1.00  0.00     0.232 C 
BRANCH  22  23
HETATM   23  N3  UNL     1      15.363  -3.303  24.610  1.00  0.00    -0.079 N 
ATOM     24  H33 UNL     1      14.474  -2.856  24.387  1.00  0.00     0.274 HD
ATOM     25  H32 UNL     1      15.988  -2.803  23.976  1.00  0.00     0.274 HD
ATOM     26  H31 UNL     1      15.326  -4.288  24.349  1.00  0.00     0.274 HD
ENDBRANCH  22  23
ENDBRANCH  21  22
ENDBRANCH   3  21
BRANCH   4  27
HETATM   27  C14 UNL     1      18.068   0.995  25.949  1.00  0.00     0.250 C 
HETATM   28  O3  UNL     1      18.382   2.212  25.890  1.00  0.00    -0.271 OA
HETATM   29  N4  UNL     1      18.816   0.188  26.876  1.00  0.00    -0.344 N 
ATOM     30  H4  UNL     1      18.589  -0.804  26.937  1.00  0.00     0.163 HD
BRANCH  29  31
HETATM   31  C15 UNL     1      19.851   0.686  27.713  1.00  0.00     0.199 C 
BRANCH  31  32
HETATM   32  C16 UNL     1      21.092  -0.179  27.728  1.00  0.00     0.264 C 
BRANCH  32  33
HETATM   33  N5  UNL     1      22.278   0.607  28.066  1.00  0.00    -0.077 N 
ATOM     34  H53 UNL     1      22.247   1.535  27.643  1.00  0.00     0.274 HD
ATOM     35  H52 UNL     1      22.279   0.881  29.048  1.00  0.00     0.274 HD
ATOM     36  H51 UNL     1      23.133   0.109  27.814  1.00  0.00     0.274 HD
ENDBRANCH  32  33
ENDBRANCH  31  32
BRANCH  31  37
HETATM   37  C17 UNL     1      19.421   0.972  29.104  1.00  0.00     0.255 C 
HETATM   38  N6  UNL     1      19.910   0.129  30.135  1.00  0.00    -0.060 NA
HETATM   39  O4  UNL     1      18.659   1.903  29.424  1.00  0.00    -0.275 OA
ENDBRANCH  31  37
ENDBRANCH  29  31
ENDBRANCH   4  27
TORSDOF 14
ENDMDL
MODEL 3
REMARK VINA RESULT: -8.268873829      2.060      5.239
REMARK  14 active torsions:
REMARK  status: ('A' for Active; 'I' for Inactive)
REMARK    1  A    between atoms: C2_2  and  C3_3 
REMARK    2  A    between atoms: C3_3  and  C5_5 
REMARK    3  A    between atoms: C5_5  and  N1_6 
REMARK    4  A    between atoms: C5_5  and  C6_10 
REMARK       I    between atoms: C6_10  and  N2_12 
REMARK    5  A    between atoms: N2_12  and  C7_14 
REMARK    6  A    between atoms: C7_14  and  C9_16 
REMARK    7  A    between atoms: C10_18  and  C11_19 
REMARK    8  A    between atoms: C11_19  and  C12_20 
REMARK    9  A    between atoms: C12_20  and  N3_21 
REMARK   10  A    between atoms: C13_25  and  C14_26 
REMARK       I    between atoms: C14_26  and  N4_28 
REMARK   11  A    between atoms: N4_28  and  C15_30 
REMARK   12  A    between atoms: C15_30  and  C16_31 
REMARK   13  A    between atoms: C15_30  and  C17_36 
REMARK   14  A    between atoms: C16_31  and  N5_32 
ROOT
HETATM    1  C9  UNL     1      21.209  -0.169  23.228  1.00  0.00     0.283 C 
HETATM    2  O2  UNL     1      21.017   0.800  24.189  1.00  0.00    -0.351 OA
HETATM    3  C10 UNL     1      20.740   0.076  25.353  1.00  0.00     0.164 C 
HETATM    4  C13 UNL     1      19.859  -0.979  24.777  1.00  0.00     0.245 C 
HETATM    5  O5  UNL     1      20.736  -1.399  23.708  1.00  0.00    -0.342 OA
ENDROOT
BRANCH   1   6
HETATM    6  C7  UNL     1      22.632  -0.280  22.750  1.00  0.00     0.135 C 
HETATM    7  C8  UNL     1      23.162  -1.668  22.853  1.00  0.00     0.037 C 
BRANCH   6   8
HETATM    8  N2  UNL     1      22.677   0.072  21.327  1.00  0.00    -0.350 N 
HETATM    9  C6  UNL     1      22.779   1.413  20.888  1.00  0.00     0.249 C 
HETATM   10  O1  UNL     1      22.830   2.309  21.785  1.00  0.00    -0.271 OA
ATOM     11  H2  UNL     1      22.634  -0.673  20.631  1.00  0.00     0.163 HD
BRANCH   9  12
HETATM   12  C5  UNL     1      22.819   1.705  19.455  1.00  0.00     0.278 C 
BRANCH  12  13
HETATM   13  C3  UNL     1      21.714   1.093  18.667  1.00  0.00     0.021 C 
HETATM   14  C4  UNL     1      20.546   0.856  19.600  1.00  0.00     0.012 C 
BRANCH  13  15
HETATM   15  C2  UNL     1      21.309   1.922  17.469  1.00  0.00     0.002 C 
HETATM   16  C1  UNL     1      22.006   3.250  17.430  1.00  0.00     0.005 C 
ENDBRANCH  13  15
ENDBRANCH  12  13
BRANCH  12  17
HETATM   17  N1  UNL     1      24.132   1.362  18.937  1.00  0.00    -0.066 N 
ATOM     18  H13 UNL     1      24.209   0.359  18.767  1.00  0.00     0.275 HD
ATOM     19  H12 UNL     1      24.249   1.700  17.982  1.00  0.00     0.275 HD
ATOM     20  H11 UNL     1      24.889   1.691  19.537  1.00  0.00     0.275 HD
ENDBRANCH  12  17
ENDBRANCH   9  12
ENDBRANCH   6   8
ENDBRANCH   1   6
BRANCH   3  21
HETATM   21  C11 UNL     1      20.215   0.904  26.452  1.00  0.00     0.062 C 
BRANCH  21  22
HETATM   22  C12 UNL     1      20.754   0.574  27.805  1.00  0.00     0.232 C 
BRANCH  22  23
HETATM   23  N3  UNL     1      22.164   0.678  27.975  1.00  0.00    -0.079 N 
ATOM     24  H33 UNL     1      22.620   0.671  27.063  1.00  0.00     0.274 HD
ATOM     25  H32 UNL     1      22.401   1.617  28.296  1.00  0.00     0.274 HD
ATOM     26  H31 UNL     1      22.605  -0.012  28.583  1.00  0.00     0.274 HD
ENDBRANCH  22  23
ENDBRANCH  21  22
ENDBRANCH   3  21
BRANCH   4  27
HETATM   27  C14 UNL     1      18.603  -0.594  24.156  1.00  0.00     0.250 C 
HETATM   28  O3  UNL     1      18.009   0.451  24.524  1.00  0.00    -0.271 OA
HETATM   29  N4  UNL     1      17.964  -1.357  23.116  1.00  0.00    -0.344 N 
ATOM     30  H4  UNL     1      18.420  -2.215  22.805  1.00  0.00     0.163 HD
BRANCH  29  31
HETATM   31  C15 UNL     1      16.740  -0.991  22.495  1.00  0.00     0.199 C 
BRANCH  31  32
HETATM   32  C16 UNL     1      15.599  -1.941  22.787  1.00  0.00     0.264 C 
BRANCH  32  33
HETATM   33  N5  UNL     1      15.600  -2.351  24.190  1.00  0.00    -0.077 N 
ATOM     34  H53 UNL     1      16.245  -1.789  24.745  1.00  0.00     0.274 HD
ATOM     35  H52 UNL     1      14.729  -2.095  24.656  1.00  0.00     0.274 HD
ATOM     36  H51 UNL     1      15.796  -3.348  24.283  1.00  0.00     0.274 HD
ENDBRANCH  32  33
ENDBRANCH  31  32
BRANCH  31  37
HETATM   37  C17 UNL     1      16.845  -0.768  21.032  1.00  0.00     0.255 C 
HETATM   38  N6  UNL     1      15.780  -0.088  20.387  1.00  0.00    -0.060 NA
HETATM   39  O4  UNL     1      17.807  -1.140  20.334  1.00  0.00    -0.275 OA
ENDBRANCH  31  37
ENDBRANCH  29  31
ENDBRANCH   4  27
TORSDOF 14
ENDMDL
MODEL 4
REMARK VINA RESULT: -8.248897612      1.113      1.664
REMARK  14 active torsions:
REMARK  status: ('A' for Active; 'I' for Inactive)
REMARK    1  A    between atoms: C2_2  and  C3_3 
REMARK    2  A    between atoms: C3_3  and  C5_5 
REMARK    3  A    between atoms: C5_5  and  N1_6 
REMARK    4  A    between atoms: C5_5  and  C6_10 
REMARK       I    between atoms: C6_10  and  N2_12 
REMARK    5  A    between atoms: N2_12  and  C7_14 
REMARK    6  A    between atoms: C7_14  and  C9_16 
REMARK    7  A    between atoms: C10_18  and  C11_19 
REMARK    8  A    between atoms: C11_19  and  C12_20 
REMARK    9  A    between atoms: C12_20  and  N3_21 
REMARK   10  A    between atoms: C13_25  and  C14_26 
REMARK       I    between atoms: C14_26  and  N4_28 
REMARK   11  A    between atoms: N4_28  and  C15_30 
REMARK   12  A    between atoms: C15_30  and  C16_31 
REMARK   13  A    between atoms: C15_30  and  C17_36 
REMARK   14  A    between atoms: C16_31  and  N5_32 
ROOT
HETATM    1  C9  UNL     1      18.735  -0.655  23.874  1.00  0.00     0.283 C 
HETATM    2  O2  UNL     1      18.197  -1.688  24.612  1.00  0.00    -0.351 OA
HETATM    3  C10 UNL     1      17.049  -1.133  25.187  1.00  0.00     0.164 C 
HETATM    4  C13 UNL     1      17.585   0.210  25.549  1.00  0.00     0.245 C 
HETATM    5  O5  UNL     1      18.134   0.552  24.256  1.00  0.00    -0.342 OA
ENDROOT
BRANCH   1   6
HETATM    6  C7  UNL     1      18.649  -0.861  22.385  1.00  0.00     0.135 C 
HETATM    7  C8  UNL     1      17.286  -0.594  21.850  1.00  0.00     0.037 C 
BRANCH   6   8
HETATM    8  N2  UNL     1      19.544   0.097  21.728  1.00  0.00    -0.350 N 
HETATM    9  C6  UNL     1      20.933  -0.138  21.599  1.00  0.00     0.249 C 
HETATM   10  O1  UNL     1      21.379  -1.224  22.080  1.00  0.00    -0.271 OA
ATOM     11  H2  UNL     1      19.153   0.961  21.351  1.00  0.00     0.163 HD
BRANCH   9  12
HETATM   12  C5  UNL     1      21.777   0.854  20.934  1.00  0.00     0.278 C 
BRANCH  12  13
HETATM   13  C3  UNL     1      21.724   0.817  19.447  1.00  0.00     0.021 C 
HETATM   14  C4  UNL     1      20.283   1.012  19.023  1.00  0.00     0.012 C 
BRANCH  13  15
HETATM   15  C2  UNL     1      22.637   1.830  18.794  1.00  0.00     0.002 C 
HETATM   16  C1  UNL     1      21.980   2.538  17.646  1.00  0.00     0.005 C 
ENDBRANCH  13  15
ENDBRANCH  12  13
BRANCH  12  17
HETATM   17  N1  UNL     1      23.132   0.749  21.448  1.00  0.00    -0.066 N 
ATOM     18  H13 UNL     1      23.233  -0.070  22.049  1.00  0.00     0.275 HD
ATOM     19  H12 UNL     1      23.786   0.492  20.708  1.00  0.00     0.275 HD
ATOM     20  H11 UNL     1      23.436   1.595  21.928  1.00  0.00     0.275 HD
ENDBRANCH  12  17
ENDBRANCH   9  12
ENDBRANCH   6   8
ENDBRANCH   1   6
BRANCH   3  21
HETATM   21  C11 UNL     1      16.462  -1.964  26.252  1.00  0.00     0.062 C 
BRANCH  21  22
HETATM   22  C12 UNL     1      15.510  -3.014  25.782  1.00  0.00     0.232 C 
BRANCH  22  23
HETATM   23  N3  UNL     1      15.304  -3.109  24.376  1.00  0.00    -0.079 N 
ATOM     24  H33 UNL     1      14.554  -2.476  24.097  1.00  0.00     0.274 HD
ATOM     25  H32 UNL     1      16.094  -2.689  23.885  1.00  0.00     0.274 HD
ATOM     26  H31 UNL     1      15.123  -4.040  24.000  1.00  0.00     0.274 HD
ENDBRANCH  22  23
ENDBRANCH  21  22
ENDBRANCH   3  21
BRANCH   4  27
HETATM   27  C14 UNL     1      18.676   0.305  26.502  1.00  0.00     0.250 C 
HETATM   28  O3  UNL     1      19.140   1.429  26.824  1.00  0.00    -0.271 OA
HETATM   29  N4  UNL     1      19.291  -0.838  27.123  1.00  0.00    -0.344 N 
ATOM     30  H4  UNL     1      18.940  -1.763  26.874  1.00  0.00     0.163 HD
BRANCH  29  31
HETATM   31  C15 UNL     1      20.355  -0.761  28.062  1.00  0.00     0.199 C 
BRANCH  31  32
HETATM   32  C16 UNL     1      20.045   0.099  29.267  1.00  0.00     0.264 C 
BRANCH  32  33
HETATM   33  N5  UNL     1      19.303  -0.654  30.276  1.00  0.00    -0.077 N 
ATOM     34  H53 UNL     1      18.572  -0.087  30.707  1.00  0.00     0.274 HD
ATOM     35  H52 UNL     1      18.715  -1.371  29.852  1.00  0.00     0.274 HD
ATOM     36  H51 UNL     1      19.931  -1.050  30.976  1.00  0.00     0.274 HD
ENDBRANCH  32  33
ENDBRANCH  31  32
BRANCH  31  37
HETATM   37  C17 UNL     1      21.654  -0.352  27.473  1.00  0.00     0.255 C 
HETATM   38  N6  UNL     1      21.990  -0.860  26.192  1.00  0.00    -0.060 NA
HETATM   39  O4  UNL     1      22.467   0.407  28.032  1.00  0.00    -0.275 OA
ENDBRANCH  31  37
ENDBRANCH  29  31
ENDBRANCH   4  27
TORSDOF 14
ENDMDL
MODEL 5
REMARK VINA RESULT: -8.210104690      1.996      2.486
REMARK  14 active torsions:
REMARK  status: ('A' for Active; 'I' for Inactive)
REMARK    1  A    between atoms: C2_2  and  C3_3 
REMARK    2  A    between atoms: C3_3  and  C5_5 
REMARK    3  A    between atoms: C5_5  and  N1_6 
REMARK    4  A    between atoms: C5_5  and  C6_10 
REMARK       I    between atoms: C6_10  and  N2_12 
REMARK    5  A    between atoms: N2_12  and  C7_14 
REMARK    6  A    between atoms: C7_14  and  C9_16 
REMARK    7  A    between atoms: C10_18  and  C11_19 
REMARK    8  A    between atoms: C11_19  and  C12_20 
REMARK    9  A    between atoms: C12_20  and  N3_21 
REMARK   10  A    between atoms: C13_25  and  C14_26 
REMARK       I    between atoms: C14_26  and  N4_28 
REMARK   11  A    between atoms: N4_28  and  C15_30 
REMARK   12  A    between atoms: C15_30  and  C16_31 
REMARK   13  A    between atoms: C15_30  and  C17_36 
REMARK   14  A    between atoms: C16_31  and  N5_32 
ROOT
HETATM    1  C9  UNL     1      20.532  -0.216  25.560  1.00  0.00     0.283 C 
HETATM    2  O2  UNL     1      19.257  -0.740  25.514  1.00  0.00    -0.351 OA
HETATM    3  C10 UNL     1      18.449   0.358  25.202  1.00  0.00     0.164 C 
HETATM    4  C13 UNL     1      19.100   1.389  26.061  1.00  0.00     0.245 C 
HETATM    5  O5  UNL     1      20.458   1.183  25.611  1.00  0.00    -0.342 OA
ENDROOT
BRANCH   1   6
HETATM    6  C7  UNL     1      21.420  -0.675  24.435  1.00  0.00     0.135 C 
HETATM    7  C8  UNL     1      20.961  -1.956  23.830  1.00  0.00     0.037 C 
BRANCH   6   8
HETATM    8  N2  UNL     1      21.374   0.325  23.363  1.00  0.00    -0.350 N 
HETATM    9  C6  UNL     1      22.501   0.619  22.560  1.00  0.00     0.249 C 
HETATM   10  O1  UNL     1      23.566  -0.025  22.807  1.00  0.00    -0.271 OA
ATOM     11  H2  UNL     1      20.501   0.825  23.191  1.00  0.00     0.163 HD
BRANCH   9  12
HETATM   12  C5  UNL     1      22.395   1.627  21.506  1.00  0.00     0.278 C 
BRANCH  12  13
HETATM   13  C3  UNL     1      22.257   1.075  20.130  1.00  0.00     0.021 C 
HETATM   14  C4  UNL     1      20.843   0.554  19.974  1.00  0.00     0.012 C 
BRANCH  13  15
HETATM   15  C2  UNL     1      22.603   2.075  19.051  1.00  0.00     0.002 C 
HETATM   16  C1  UNL     1      21.596   2.089  17.938  1.00  0.00     0.005 C 
ENDBRANCH  13  15
ENDBRANCH  12  13
BRANCH  12  17
HETATM   17  N1  UNL     1      23.504   2.559  21.626  1.00  0.00    -0.066 N 
ATOM     18  H13 UNL     1      24.279   2.141  22.141  1.00  0.00     0.275 HD
ATOM     19  H12 UNL     1      23.962   2.701  20.725  1.00  0.00     0.275 HD
ATOM     20  H11 UNL     1      23.226   3.449  22.039  1.00  0.00     0.275 HD
ENDBRANCH  12  17
ENDBRANCH   9  12
ENDBRANCH   6   8
ENDBRANCH   1   6
BRANCH   3  21
HETATM   21  C11 UNL     1      17.011   0.102  25.383  1.00  0.00     0.062 C 
BRANCH  21  22
HETATM   22  C12 UNL     1      16.651  -1.322  25.651  1.00  0.00     0.232 C 
BRANCH  22  23
HETATM   23  N3  UNL     1      17.041  -2.277  24.667  1.00  0.00    -0.079 N 
ATOM     24  H33 UNL     1      17.220  -1.802  23.782  1.00  0.00     0.274 HD
ATOM     25  H32 UNL     1      17.975  -2.628  24.884  1.00  0.00     0.274 HD
ATOM     26  H31 UNL     1      16.408  -3.061  24.513  1.00  0.00     0.274 HD
ENDBRANCH  22  23
ENDBRANCH  21  22
ENDBRANCH   3  21
BRANCH   4  27
HETATM   27  C14 UNL     1      19.108   1.210  27.502  1.00  0.00     0.250 C 
HETATM   28  O3  UNL     1      19.853   1.921  28.224  1.00  0.00    -0.271 OA
HETATM   29  N4  UNL     1      18.298   0.237  28.186  1.00  0.00    -0.344 N 
ATOM     30  H4  UNL     1      17.692  -0.360  27.624  1.00  0.00     0.163 HD
BRANCH  29  31
HETATM   31  C15 UNL     1      18.290   0.054  29.595  1.00  0.00     0.199 C 
BRANCH  31  32
HETATM   32  C16 UNL     1      19.648  -0.270  30.177  1.00  0.00     0.264 C 
BRANCH  32  33
HETATM   33  N5  UNL     1      20.392  -1.178  29.305  1.00  0.00    -0.077 N 
ATOM     34  H53 UNL     1      19.977  -1.230  28.375  1.00  0.00     0.274 HD
ATOM     35  H52 UNL     1      21.301  -0.792  29.050  1.00  0.00     0.274 HD
ATOM     36  H51 UNL     1      20.483  -2.103  29.728  1.00  0.00     0.274 HD
ENDBRANCH  32  33
ENDBRANCH  31  32
BRANCH  31  37
HETATM   37  C17 UNL     1      17.291  -0.935  30.072  1.00  0.00     0.255 C 
HETATM   38  N6  UNL     1      17.087  -2.100  29.290  1.00  0.00    -0.060 NA
HETATM   39  O4  UNL     1      16.621  -0.806  31.114  1.00  0.00    -0.275 OA
ENDBRANCH  31  37
ENDBRANCH  29  31
ENDBRANCH   4  27
TORSDOF 14
ENDMDL
