MODEL 1
REMARK VINA RESULT: -8.990541906      0.000      0.000
REMARK  13 active torsions:
REMARK  status: ('A' for Active; 'I' for Inactive)
REMARK    1  A    between atoms: C2_2  and  C4_4 
REMARK    2  A    between atoms: C4_4  and  C5_5 
REMARK       I    between atoms: C5_5  and  N1_7 
REMARK    3  A    between atoms: N1_7  and  C6_9 
REMARK    4  A    between atoms: C6_9  and  C7_10 
REMARK    5  A    between atoms: C6_9  and  C30_43 
REMARK       I    between atoms: C7_10  and  N2_12 
REMARK    6  A    between atoms: C10_15  and  C11_16 
REMARK    7  A    between atoms: C11_16  and  C12_17 
REMARK    8  A    between atoms: C12_17  and  C13_18 
REMARK    9  A    between atoms: C12_17  and  N5_26 
REMARK   10  A    between atoms: C13_18  and  C14_19 
REMARK       I    between atoms: N5_26  and  C17_28 
REMARK   11  A    between atoms: C17_28  and  O4_30 
REMARK   12  A    between atoms: O4_30  and  C18_31 
REMARK   13  A    between atoms: C30_43  and  O5_45 
ROOT
HETATM    1  C12 UNL     1      -8.377  17.710  28.832  1.00  0.00     0.092 C 
ENDROOT
BRANCH   1   2
HETATM    2  C11 UNL     1      -8.923  16.978  30.059  1.00  0.00     0.030 C 
BRANCH   2   3
HETATM    3  C10 UNL     1     -10.089  16.112  29.713  1.00  0.00    -0.010 C 
HETATM    4  C9  UNL     1     -11.410  16.716  30.139  1.00  0.00     0.024 C 
HETATM    5  C8  UNL     1     -12.119  15.765  31.110  1.00  0.00     0.126 C 
HETATM    6  N2  UNL     1     -11.213  15.383  32.203  1.00  0.00    -0.350 N 
HETATM    7  C7  UNL     1     -11.614  15.502  33.556  1.00  0.00     0.245 C 
HETATM    8  C29 UNL     1      -9.937  14.844  31.827  1.00  0.00     0.126 C 
HETATM    9  O2  UNL     1     -12.824  15.921  33.724  1.00  0.00    -0.271 OA
HETATM   10  C28 UNL     1      -9.892  14.744  30.298  1.00  0.00     0.024 C 
BRANCH   7  11
HETATM   11  C6  UNL     1     -10.768  15.182  34.705  1.00  0.00     0.205 C 
BRANCH  11  12
HETATM   12  N1  UNL     1     -11.564  14.628  35.812  1.00  0.00    -0.345 N 
HETATM   13  C5  UNL     1     -11.626  13.242  36.064  1.00  0.00     0.218 C 
HETATM   14  O1  UNL     1     -10.985  12.467  35.318  1.00  0.00    -0.274 OA
ATOM     15  H1  UNL     1     -12.085  15.266  36.415  1.00  0.00     0.163 HD
BRANCH  13  16
HETATM   16  C4  UNL     1     -12.414  12.695  37.168  1.00  0.00     0.106 C 
BRANCH  16  17
HETATM   17  C2  UNL     1     -11.845  11.402  37.712  1.00  0.00    -0.014 C 
HETATM   18  C1  UNL     1     -12.847  10.305  37.407  1.00  0.00     0.010 C 
HETATM   19  C3  UNL     1     -11.530  11.447  39.170  1.00  0.00     0.010 C 
ENDBRANCH  16  17
ENDBRANCH  13  16
ENDBRANCH  11  12
BRANCH  11  20
HETATM   20  C30 UNL     1     -10.084  16.445  35.207  1.00  0.00     0.146 C 
HETATM   21  C31 UNL     1      -9.304  16.169  36.478  1.00  0.00     0.042 C 
BRANCH  20  22
HETATM   22  O5  UNL     1     -11.001  17.481  35.381  1.00  0.00    -0.393 OA
ATOM     23  H5  UNL     1     -10.578  18.329  35.321  1.00  0.00     0.210 HD
ENDBRANCH  20  22
ENDBRANCH  11  20
ENDBRANCH   7  11
ENDBRANCH   2   3
ENDBRANCH   1   2
BRANCH   1  24
HETATM   24  C13 UNL     1      -6.860  17.859  28.980  1.00  0.00     0.083 C 
BRANCH  24  25
HETATM   25  C14 UNL     1      -6.335  18.482  27.739  1.00  0.00     0.027 A 
HETATM   26  C15 UNL     1      -5.365  17.915  26.931  1.00  0.00     0.114 A 
HETATM   27  N3  UNL     1      -5.161  18.761  25.927  1.00  0.00    -0.360 N 
HETATM   28  C16 UNL     1      -5.958  19.827  26.073  1.00  0.00     0.180 A 
ATOM     29  H3  UNL     1      -4.500  18.619  25.163  1.00  0.00     0.166 HD
HETATM   30  N4  UNL     1      -6.698  19.679  27.188  1.00  0.00    -0.355 N 
ATOM     31  H4  UNL     1      -7.392  20.332  27.551  1.00  0.00     0.166 HD
ENDBRANCH  24  25
ENDBRANCH   1  24
BRANCH   1  32
HETATM   32  N5  UNL     1      -8.678  16.981  27.623  1.00  0.00    -0.332 N 
HETATM   33  C17 UNL     1      -9.380  17.584  26.559  1.00  0.00     0.361 C 
HETATM   34  O3  UNL     1      -9.751  18.771  26.657  1.00  0.00    -0.238 OA
ATOM     35  H5  UNL     1      -8.378  16.011  27.537  1.00  0.00     0.165 HD
BRANCH  33  36
HETATM   36  O4  UNL     1      -9.683  16.904  25.385  1.00  0.00    -0.298 OA
BRANCH  36  37
HETATM   37  C18 UNL     1      -9.521  17.384  24.088  1.00  0.00     0.142 C 
HETATM   38  C19 UNL     1      -9.976  16.390  23.039  1.00  0.00     0.016 C 
HETATM   39  C20 UNL     1      -9.746  17.012  21.682  1.00  0.00     0.012 C 
HETATM   40  C24 UNL     1      -9.229  15.099  23.182  1.00  0.00     0.012 C 
HETATM   41  C21 UNL     1      -8.262  17.233  21.523  1.00  0.00    -0.013 C 
HETATM   42  C22 UNL     1      -7.489  15.952  21.711  1.00  0.00     0.009 C 
HETATM   43  C27 UNL     1      -7.817  18.250  22.566  1.00  0.00     0.012 C 
HETATM   44  C23 UNL     1      -7.761  15.364  23.069  1.00  0.00    -0.013 C 
HETATM   45  C25 UNL     1      -7.297  16.351  24.126  1.00  0.00     0.012 C 
HETATM   46  C26 UNL     1      -8.019  17.644  23.913  1.00  0.00     0.016 C 
ENDBRANCH  36  37
ENDBRANCH  33  36
ENDBRANCH   1  32
TORSDOF 13
ENDMDL
MODEL 2
REMARK VINA RESULT: -8.935192442      3.237     12.220
REMARK  13 active torsions:
REMARK  status: ('A' for Active; 'I' for Inactive)
REMARK    1  A    between atoms: C2_2  and  C4_4 
REMARK    2  A    between atoms: C4_4  and  C5_5 
REMARK       I    between atoms: C5_5  and  N1_7 
REMARK    3  A    between atoms: N1_7  and  C6_9 
REMARK    4  A    between atoms: C6_9  and  C7_10 
REMARK    5  A    between atoms: C6_9  and  C30_43 
REMARK       I    between atoms: C7_10  and  N2_12 
REMARK    6  A    between atoms: C10_15  and  C11_16 
REMARK    7  A    between atoms: C11_16  and  C12_17 
REMARK    8  A    between atoms: C12_17  and  C13_18 
REMARK    9  A    between atoms: C12_17  and  N5_26 
REMARK   10  A    between atoms: C13_18  and  C14_19 
REMARK       I    between atoms: N5_26  and  C17_28 
REMARK   11  A    between atoms: C17_28  and  O4_30 
REMARK   12  A    between atoms: O4_30  and  C18_31 
REMARK   13  A    between atoms: C30_43  and  O5_45 
ROOT
HETATM    1  C12 UNL     1     -10.899  16.196  26.956  1.00  0.00     0.092 C 
ENDROOT
BRANCH   1   2
HETATM    2  C11 UNL     1      -9.927  16.198  25.774  1.00  0.00     0.030 C 
BRANCH   2   3
HETATM    3  C10 UNL     1      -8.650  16.896  26.108  1.00  0.00    -0.010 C 
HETATM    4  C9  UNL     1      -8.642  18.342  25.662  1.00  0.00     0.024 C 
HETATM    5  C8  UNL     1      -7.482  18.571  24.686  1.00  0.00     0.126 C 
HETATM    6  N2  UNL     1      -7.518  17.572  23.606  1.00  0.00    -0.350 N 
HETATM    7  C7  UNL     1      -7.459  17.966  22.248  1.00  0.00     0.245 C 
HETATM    8  C29 UNL     1      -7.567  16.194  24.003  1.00  0.00     0.126 C 
HETATM    9  O2  UNL     1      -7.330  19.238  22.062  1.00  0.00    -0.271 OA
HETATM   10  C28 UNL     1      -7.493  16.132  25.533  1.00  0.00     0.024 C 
BRANCH   7  11
HETATM   11  C6  UNL     1      -7.527  17.049  21.112  1.00  0.00     0.205 C 
BRANCH  11  12
HETATM   12  N1  UNL     1      -6.686  17.518  19.999  1.00  0.00    -0.345 N 
HETATM   13  C5  UNL     1      -5.467  16.889  19.670  1.00  0.00     0.218 C 
HETATM   14  O1  UNL     1      -5.095  15.906  20.351  1.00  0.00    -0.274 OA
ATOM     15  H1  UNL     1      -6.994  18.320  19.450  1.00  0.00     0.163 HD
BRANCH  13  16
HETATM   16  C4  UNL     1      -4.636  17.355  18.560  1.00  0.00     0.106 C 
BRANCH  16  17
HETATM   17  C2  UNL     1      -5.448  17.882  17.398  1.00  0.00    -0.014 C 
HETATM   18  C1  UNL     1      -5.646  16.733  16.428  1.00  0.00     0.010 C 
HETATM   19  C3  UNL     1      -4.833  19.058  16.715  1.00  0.00     0.010 C 
ENDBRANCH  16  17
ENDBRANCH  13  16
ENDBRANCH  11  12
BRANCH  11  20
HETATM   20  C30 UNL     1      -8.960  16.957  20.610  1.00  0.00     0.146 C 
HETATM   21  C31 UNL     1      -9.011  16.322  19.234  1.00  0.00     0.042 C 
BRANCH  20  22
HETATM   22  O5  UNL     1      -9.580  18.206  20.623  1.00  0.00    -0.393 OA
ATOM     23  H5  UNL     1     -10.305  18.224  21.235  1.00  0.00     0.210 HD
ENDBRANCH  20  22
ENDBRANCH  11  20
ENDBRANCH   7  11
ENDBRANCH   2   3
ENDBRANCH   1   2
BRANCH   1  24
HETATM   24  C13 UNL     1     -11.880  15.033  26.787  1.00  0.00     0.083 C 
BRANCH  24  25
HETATM   25  C14 UNL     1     -12.710  14.949  28.014  1.00  0.00     0.027 A 
HETATM   26  C15 UNL     1     -13.587  15.934  28.431  1.00  0.00     0.114 A 
HETATM   27  N3  UNL     1     -14.141  15.502  29.559  1.00  0.00    -0.360 N 
HETATM   28  C16 UNL     1     -13.649  14.294  29.862  1.00  0.00     0.180 A 
ATOM     29  H3  UNL     1     -14.834  16.010  30.108  1.00  0.00     0.166 HD
HETATM   30  N4  UNL     1     -12.760  13.927  28.920  1.00  0.00    -0.355 N 
ATOM     31  H4  UNL     1     -12.227  13.058  28.888  1.00  0.00     0.166 HD
ENDBRANCH  24  25
ENDBRANCH   1  24
BRANCH   1  32
HETATM   32  N5  UNL     1     -10.187  16.055  28.204  1.00  0.00    -0.332 N 
HETATM   33  C17 UNL     1     -10.228  17.062  29.189  1.00  0.00     0.361 C 
HETATM   34  O3  UNL     1     -10.890  18.100  28.985  1.00  0.00    -0.238 OA
ATOM     35  H5  UNL     1      -9.644  15.209  28.377  1.00  0.00     0.165 HD
BRANCH  33  36
HETATM   36  O4  UNL     1      -9.552  16.951  30.399  1.00  0.00    -0.298 OA
BRANCH  36  37
HETATM   37  C18 UNL     1     -10.117  17.023  31.669  1.00  0.00     0.142 C 
HETATM   38  C19 UNL     1      -9.085  16.905  32.772  1.00  0.00     0.016 C 
HETATM   39  C20 UNL     1      -9.810  16.987  34.095  1.00  0.00     0.012 C 
HETATM   40  C24 UNL     1      -8.327  15.620  32.644  1.00  0.00     0.012 C 
HETATM   41  C21 UNL     1     -10.744  15.806  34.181  1.00  0.00    -0.013 C 
HETATM   42  C22 UNL     1     -10.004  14.503  34.007  1.00  0.00     0.009 C 
HETATM   43  C27 UNL     1     -11.792  15.943  33.084  1.00  0.00     0.012 C 
HETATM   44  C23 UNL     1      -9.288  14.474  32.684  1.00  0.00    -0.013 C 
HETATM   45  C25 UNL     1     -10.318  14.580  31.573  1.00  0.00     0.012 C 
HETATM   46  C26 UNL     1     -11.095  15.844  31.770  1.00  0.00     0.016 C 
ENDBRANCH  36  37
ENDBRANCH  33  36
ENDBRANCH   1  32
TORSDOF 13
ENDMDL
MODEL 3
REMARK VINA RESULT: -8.802270647      2.246     11.391
REMARK  13 active torsions:
REMARK  status: ('A' for Active; 'I' for Inactive)
REMARK    1  A    between atoms: C2_2  and  C4_4 
REMARK    2  A    between atoms: C4_4  and  C5_5 
REMARK       I    between atoms: C5_5  and  N1_7 
REMARK    3  A    between atoms: N1_7  and  C6_9 
REMARK    4  A    between atoms: C6_9  and  C7_10 
REMARK    5  A    between atoms: C6_9  and  C30_43 
REMARK       I    between atoms: C7_10  and  N2_12 
REMARK    6  A    between atoms: C10_15  and  C11_16 
REMARK    7  A    between atoms: C11_16  and  C12_17 
REMARK    8  A    between atoms: C12_17  and  C13_18 
REMARK    9  A    between atoms: C12_17  and  N5_26 
REMARK   10  A    between atoms: C13_18  and  C14_19 
REMARK       I    between atoms: N5_26  and  C17_28 
REMARK   11  A    between atoms: C17_28  and  O4_30 
REMARK   12  A    between atoms: O4_30  and  C18_31 
REMARK   13  A    between atoms: C30_43  and  O5_45 
ROOT
HETATM    1  C12 UNL     1      -9.368  15.457  29.455  1.00  0.00     0.092 C 
ENDROOT
BRANCH   1   2
HETATM    2  C11 UNL     1      -7.909  15.379  29.002  1.00  0.00     0.030 C 
BRANCH   2   3
HETATM    3  C10 UNL     1      -7.307  16.736  28.839  1.00  0.00    -0.010 C 
HETATM    4  C9  UNL     1      -8.351  17.824  28.707  1.00  0.00     0.024 C 
HETATM    5  C8  UNL     1      -8.168  18.551  27.369  1.00  0.00     0.126 C 
HETATM    6  N2  UNL     1      -8.115  17.582  26.264  1.00  0.00    -0.350 N 
HETATM    7  C7  UNL     1      -8.939  17.734  25.123  1.00  0.00     0.245 C 
HETATM    8  C29 UNL     1      -7.161  16.517  26.383  1.00  0.00     0.126 C 
HETATM    9  O2  UNL     1      -9.680  18.792  25.131  1.00  0.00    -0.271 OA
HETATM   10  C28 UNL     1      -6.361  16.732  27.674  1.00  0.00     0.024 C 
BRANCH   7  11
HETATM   11  C6  UNL     1      -8.982  16.802  23.998  1.00  0.00     0.205 C 
BRANCH  11  12
HETATM   12  N1  UNL     1      -8.794  17.504  22.719  1.00  0.00    -0.345 N 
HETATM   13  C5  UNL     1      -7.521  17.651  22.129  1.00  0.00     0.218 C 
HETATM   14  O1  UNL     1      -6.527  17.170  22.719  1.00  0.00    -0.274 OA
ATOM     15  H1  UNL     1      -9.608  17.896  22.245  1.00  0.00     0.163 HD
BRANCH  13  16
HETATM   16  C4  UNL     1      -7.338  18.346  20.855  1.00  0.00     0.106 C 
BRANCH  16  17
HETATM   17  C2  UNL     1      -7.137  17.399  19.692  1.00  0.00    -0.014 C 
HETATM   18  C1  UNL     1      -6.529  18.201  18.558  1.00  0.00     0.010 C 
HETATM   19  C3  UNL     1      -8.385  16.710  19.250  1.00  0.00     0.010 C 
ENDBRANCH  16  17
ENDBRANCH  13  16
ENDBRANCH  11  12
BRANCH  11  20
HETATM   20  C30 UNL     1     -10.335  16.107  23.956  1.00  0.00     0.146 C 
HETATM   21  C31 UNL     1     -10.974  16.249  22.588  1.00  0.00     0.042 C 
BRANCH  20  22
HETATM   22  O5  UNL     1     -11.174  16.575  24.967  1.00  0.00    -0.393 OA
ATOM     23  H5  UNL     1     -11.315  17.512  24.890  1.00  0.00     0.210 HD
ENDBRANCH  20  22
ENDBRANCH  11  20
ENDBRANCH   7  11
ENDBRANCH   2   3
ENDBRANCH   1   2
BRANCH   1  24
HETATM   24  C13 UNL     1     -10.246  14.756  28.415  1.00  0.00     0.083 C 
BRANCH  24  25
HETATM   25  C14 UNL     1     -11.600  15.362  28.473  1.00  0.00     0.027 A 
HETATM   26  C15 UNL     1     -11.843  16.720  28.576  1.00  0.00     0.114 A 
HETATM   27  N3  UNL     1     -13.163  16.872  28.600  1.00  0.00    -0.360 N 
HETATM   28  C16 UNL     1     -13.751  15.672  28.517  1.00  0.00     0.180 A 
ATOM     29  H3  UNL     1     -13.652  17.764  28.670  1.00  0.00     0.166 HD
HETATM   30  N4  UNL     1     -12.804  14.718  28.436  1.00  0.00    -0.355 N 
ATOM     31  H4  UNL     1     -12.956  13.712  28.362  1.00  0.00     0.166 HD
ENDBRANCH  24  25
ENDBRANCH   1  24
BRANCH   1  32
HETATM   32  N5  UNL     1      -9.540  14.825  30.742  1.00  0.00    -0.332 N 
HETATM   33  C17 UNL     1      -9.598  15.582  31.929  1.00  0.00     0.361 C 
HETATM   34  O3  UNL     1      -9.500  16.825  31.875  1.00  0.00    -0.238 OA
ATOM     35  H5  UNL     1      -9.620  13.809  30.793  1.00  0.00     0.165 HD
BRANCH  33  36
HETATM   36  O4  UNL     1      -9.763  14.999  33.180  1.00  0.00    -0.298 OA
BRANCH  36  37
HETATM   37  C18 UNL     1     -10.946  14.479  33.698  1.00  0.00     0.142 C 
HETATM   38  C19 UNL     1     -12.001  15.543  33.921  1.00  0.00     0.016 C 
HETATM   39  C20 UNL     1     -13.227  14.867  34.490  1.00  0.00     0.012 C 
HETATM   40  C24 UNL     1     -11.486  16.606  34.842  1.00  0.00     0.012 C 
HETATM   41  C21 UNL     1     -12.848  14.279  35.826  1.00  0.00    -0.013 C 
HETATM   42  C22 UNL     1     -12.283  15.327  36.752  1.00  0.00     0.009 C 
HETATM   43  C27 UNL     1     -11.804  13.195  35.593  1.00  0.00     0.012 C 
HETATM   44  C23 UNL     1     -11.075  15.980  36.137  1.00  0.00    -0.013 C 
HETATM   45  C25 UNL     1     -10.008  14.921  35.922  1.00  0.00     0.012 C 
HETATM   46  C26 UNL     1     -10.579  13.848  35.049  1.00  0.00     0.016 C 
ENDBRANCH  36  37
ENDBRANCH  33  36
ENDBRANCH   1  32
TORSDOF 13
ENDMDL
MODEL 4
REMARK VINA RESULT: -8.790375179      2.893     10.962
REMARK  13 active torsions:
REMARK  status: ('A' for Active; 'I' for Inactive)
REMARK    1  A    between atoms: C2_2  and  C4_4 
REMARK    2  A    between atoms: C4_4  and  C5_5 
REMARK       I    between atoms: C5_5  and  N1_7 
REMARK    3  A    between atoms: N1_7  and  C6_9 
REMARK    4  A    between atoms: C6_9  and  C7_10 
REMARK    5  A    between atoms: C6_9  and  C30_43 
REMARK       I    between atoms: C7_10  and  N2_12 
REMARK    6  A    between atoms: C10_15  and  C11_16 
REMARK    7  A    between atoms: C11_16  and  C12_17 
REMARK    8  A    between atoms: C12_17  and  C13_18 
REMARK    9  A    between atoms: C12_17  and  N5_26 
REMARK   10  A    between atoms: C13_18  and  C14_19 
REMARK       I    between atoms: N5_26  and  C17_28 
REMARK   11  A    between atoms: C17_28  and  O4_30 
REMARK   12  A    between atoms: O4_30  and  C18_31 
REMARK   13  A    between atoms: C30_43  and  O5_45 
ROOT
HETATM    1  C12 UNL     1      -9.803  16.876  27.236  1.00  0.00     0.092 C 
ENDROOT
BRANCH   1   2
HETATM    2  C11 UNL     1      -8.638  17.200  26.299  1.00  0.00     0.030 C 
BRANCH   2   3
HETATM    3  C10 UNL     1      -7.463  17.743  27.044  1.00  0.00    -0.010 C 
HETATM    4  C9  UNL     1      -7.347  19.249  26.931  1.00  0.00     0.024 C 
HETATM    5  C8  UNL     1      -5.997  19.612  26.301  1.00  0.00     0.126 C 
HETATM    6  N2  UNL     1      -5.798  18.863  25.051  1.00  0.00    -0.350 N 
HETATM    7  C7  UNL     1      -5.435  19.527  23.855  1.00  0.00     0.245 C 
HETATM    8  C29 UNL     1      -5.942  17.437  25.123  1.00  0.00     0.126 C 
HETATM    9  O2  UNL     1      -5.259  20.801  23.978  1.00  0.00    -0.271 OA
HETATM   10  C28 UNL     1      -6.212  17.055  26.583  1.00  0.00     0.024 C 
BRANCH   7  11
HETATM   11  C6  UNL     1      -5.253  18.871  22.561  1.00  0.00     0.205 C 
BRANCH  11  12
HETATM   12  N1  UNL     1      -6.182  17.740  22.405  1.00  0.00    -0.345 N 
HETATM   13  C5  UNL     1      -7.365  17.848  21.645  1.00  0.00     0.218 C 
HETATM   14  O1  UNL     1      -7.628  18.941  21.093  1.00  0.00    -0.274 OA
ATOM     15  H1  UNL     1      -5.963  16.853  22.858  1.00  0.00     0.163 HD
BRANCH  13  16
HETATM   16  C4  UNL     1      -8.284  16.721  21.487  1.00  0.00     0.106 C 
BRANCH  16  17
HETATM   17  C2  UNL     1      -8.944  16.313  22.786  1.00  0.00    -0.014 C 
HETATM   18  C1  UNL     1      -8.281  15.028  23.245  1.00  0.00     0.010 C 
HETATM   19  C3  UNL     1     -10.424  16.144  22.685  1.00  0.00     0.010 C 
ENDBRANCH  16  17
ENDBRANCH  13  16
ENDBRANCH  11  12
BRANCH  11  20
HETATM   20  C30 UNL     1      -3.835  18.331  22.452  1.00  0.00     0.146 C 
HETATM   21  C31 UNL     1      -2.949  19.288  21.680  1.00  0.00     0.042 C 
BRANCH  20  22
HETATM   22  O5  UNL     1      -3.824  17.054  21.890  1.00  0.00    -0.393 OA
ATOM     23  H5  UNL     1      -3.218  16.482  22.347  1.00  0.00     0.210 HD
ENDBRANCH  20  22
ENDBRANCH  11  20
ENDBRANCH   7  11
ENDBRANCH   2   3
ENDBRANCH   1   2
BRANCH   1  24
HETATM   24  C13 UNL     1     -10.511  15.618  26.727  1.00  0.00     0.083 C 
BRANCH  24  25
HETATM   25  C14 UNL     1     -11.699  15.380  27.584  1.00  0.00     0.027 A 
HETATM   26  C15 UNL     1     -11.909  14.229  28.324  1.00  0.00     0.114 A 
HETATM   27  N3  UNL     1     -13.069  14.386  28.954  1.00  0.00    -0.360 N 
HETATM   28  C16 UNL     1     -13.589  15.579  28.640  1.00  0.00     0.180 A 
ATOM     29  H3  UNL     1     -13.496  13.703  29.580  1.00  0.00     0.166 HD
HETATM   30  N4  UNL     1     -12.759  16.216  27.792  1.00  0.00    -0.355 N 
ATOM     31  H4  UNL     1     -12.895  17.141  27.385  1.00  0.00     0.166 HD
ENDBRANCH  24  25
ENDBRANCH   1  24
BRANCH   1  32
HETATM   32  N5  UNL     1      -9.332  16.658  28.583  1.00  0.00    -0.332 N 
HETATM   33  C17 UNL     1      -9.929  17.307  29.683  1.00  0.00     0.361 C 
HETATM   34  O3  UNL     1     -10.884  18.087  29.496  1.00  0.00    -0.238 OA
ATOM     35  H5  UNL     1      -8.551  16.021  28.743  1.00  0.00     0.165 HD
BRANCH  33  36
HETATM   36  O4  UNL     1      -9.495  17.114  30.990  1.00  0.00    -0.298 OA
BRANCH  36  37
HETATM   37  C18 UNL     1     -10.300  17.004  32.119  1.00  0.00     0.142 C 
HETATM   38  C19 UNL     1      -9.497  16.881  33.398  1.00  0.00     0.016 C 
HETATM   39  C20 UNL     1     -10.470  16.760  34.547  1.00  0.00     0.012 C 
HETATM   40  C24 UNL     1      -8.582  15.697  33.329  1.00  0.00     0.012 C 
HETATM   41  C21 UNL     1     -11.257  15.489  34.349  1.00  0.00    -0.013 C 
HETATM   42  C22 UNL     1     -10.349  14.289  34.231  1.00  0.00     0.009 C 
HETATM   43  C27 UNL     1     -12.080  15.628  33.075  1.00  0.00     0.012 C 
HETATM   44  C23 UNL     1      -9.391  14.462  33.084  1.00  0.00    -0.013 C 
HETATM   45  C25 UNL     1     -10.190  14.575  31.797  1.00  0.00     0.012 C 
HETATM   46  C26 UNL     1     -11.133  15.729  31.928  1.00  0.00     0.016 C 
ENDBRANCH  36  37
ENDBRANCH  33  36
ENDBRANCH   1  32
TORSDOF 13
ENDMDL
MODEL 5
REMARK VINA RESULT: -8.755244803      2.016     10.833
REMARK  13 active torsions:
REMARK  status: ('A' for Active; 'I' for Inactive)
REMARK    1  A    between atoms: C2_2  and  C4_4 
REMARK    2  A    between atoms: C4_4  and  C5_5 
REMARK       I    between atoms: C5_5  and  N1_7 
REMARK    3  A    between atoms: N1_7  and  C6_9 
REMARK    4  A    between atoms: C6_9  and  C7_10 
REMARK    5  A    between atoms: C6_9  and  C30_43 
REMARK       I    between atoms: C7_10  and  N2_12 
REMARK    6  A    between atoms: C10_15  and  C11_16 
REMARK    7  A    between atoms: C11_16  and  C12_17 
REMARK    8  A    between atoms: C12_17  and  C13_18 
REMARK    9  A    between atoms: C12_17  and  N5_26 
REMARK   10  A    between atoms: C13_18  and  C14_19 
REMARK       I    between atoms: N5_26  and  C17_28 
REMARK   11  A    between atoms: C17_28  and  O4_30 
REMARK   12  A    between atoms: O4_30  and  C18_31 
REMARK   13  A    between atoms: C30_43  and  O5_45 
ROOT
HETATM    1  C12 UNL     1     -10.389  16.402  30.662  1.00  0.00     0.092 C 
ENDROOT
BRANCH   1   2
HETATM    2  C11 UNL     1     -11.694  16.458  29.866  1.00  0.00     0.030 C 
BRANCH   2   3
HETATM    3  C10 UNL     1     -11.965  15.172  29.156  1.00  0.00    -0.010 C 
HETATM    4  C9  UNL     1     -10.706  14.369  28.907  1.00  0.00     0.024 C 
HETATM    5  C8  UNL     1     -10.533  14.141  27.400  1.00  0.00     0.126 C 
HETATM    6  N2  UNL     1     -10.626  15.418  26.677  1.00  0.00    -0.350 N 
HETATM    7  C7  UNL     1      -9.630  15.802  25.747  1.00  0.00     0.245 C 
HETATM    8  C29 UNL     1     -11.791  16.219  26.926  1.00  0.00     0.126 C 
HETATM    9  O2  UNL     1      -8.692  14.931  25.573  1.00  0.00    -0.271 OA
HETATM   10  C28 UNL     1     -12.708  15.446  27.881  1.00  0.00     0.024 C 
BRANCH   7  11
HETATM   11  C6  UNL     1      -9.621  17.066  25.013  1.00  0.00     0.205 C 
BRANCH  11  12
HETATM   12  N1  UNL     1      -9.007  16.905  23.686  1.00  0.00    -0.345 N 
HETATM   13  C5  UNL     1      -9.759  16.510  22.560  1.00  0.00     0.218 C 
HETATM   14  O1  UNL     1     -10.983  16.289  22.703  1.00  0.00    -0.274 OA
ATOM     15  H1  UNL     1      -8.008  17.084  23.576  1.00  0.00     0.163 HD
BRANCH  13  16
HETATM   16  C4  UNL     1      -9.147  16.355  21.240  1.00  0.00     0.106 C 
BRANCH  16  17
HETATM   17  C2  UNL     1      -7.835  17.096  21.110  1.00  0.00    -0.014 C 
HETATM   18  C1  UNL     1      -7.966  18.042  19.932  1.00  0.00     0.010 C 
HETATM   19  C3  UNL     1      -6.649  16.203  20.949  1.00  0.00     0.010 C 
ENDBRANCH  16  17
ENDBRANCH  13  16
ENDBRANCH  11  12
BRANCH  11  20
HETATM   20  C30 UNL     1      -8.811  18.101  25.780  1.00  0.00     0.146 C 
HETATM   21  C31 UNL     1      -9.720  19.020  26.573  1.00  0.00     0.042 C 
BRANCH  20  22
HETATM   22  O5  UNL     1      -7.972  18.819  24.927  1.00  0.00    -0.393 OA
ATOM     23  H5  UNL     1      -7.528  19.518  25.391  1.00  0.00     0.210 HD
ENDBRANCH  20  22
ENDBRANCH  11  20
ENDBRANCH   7  11
ENDBRANCH   2   3
ENDBRANCH   1   2
BRANCH   1  24
HETATM   24  C13 UNL     1      -9.696  17.764  30.569  1.00  0.00     0.083 C 
BRANCH  24  25
HETATM   25  C14 UNL     1      -8.478  17.606  29.736  1.00  0.00     0.027 A 
HETATM   26  C15 UNL     1      -8.108  16.428  29.111  1.00  0.00     0.114 A 
HETATM   27  N3  UNL     1      -6.974  16.677  28.466  1.00  0.00    -0.360 N 
HETATM   28  C16 UNL     1      -6.620  17.953  28.662  1.00  0.00     0.180 A 
ATOM     29  H3  UNL     1      -6.453  16.000  27.908  1.00  0.00     0.166 HD
HETATM   30  N4  UNL     1      -7.536  18.552  29.446  1.00  0.00    -0.355 N 
ATOM     31  H4  UNL     1      -7.529  19.522  29.761  1.00  0.00     0.166 HD
ENDBRANCH  24  25
ENDBRANCH   1  24
BRANCH   1  32
HETATM   32  N5  UNL     1     -10.645  16.080  32.045  1.00  0.00    -0.332 N 
HETATM   33  C17 UNL     1      -9.936  15.054  32.702  1.00  0.00     0.361 C 
HETATM   34  O3  UNL     1      -9.068  14.407  32.082  1.00  0.00    -0.238 OA
ATOM     35  H5  UNL     1     -11.354  16.604  32.558  1.00  0.00     0.165 HD
BRANCH  33  36
HETATM   36  O4  UNL     1     -10.164  14.723  34.033  1.00  0.00    -0.298 OA
BRANCH  36  37
HETATM   37  C18 UNL     1     -11.179  13.904  34.519  1.00  0.00     0.142 C 
HETATM   38  C19 UNL     1     -12.530  14.590  34.518  1.00  0.00     0.016 C 
HETATM   39  C20 UNL     1     -13.544  13.615  35.070  1.00  0.00     0.012 C 
HETATM   40  C24 UNL     1     -12.481  15.846  35.331  1.00  0.00     0.012 C 
HETATM   41  C21 UNL     1     -13.160  13.312  36.496  1.00  0.00    -0.013 C 
HETATM   42  C22 UNL     1     -13.059  14.571  37.321  1.00  0.00     0.009 C 
HETATM   43  C27 UNL     1     -11.812  12.603  36.489  1.00  0.00     0.012 C 
HETATM   44  C23 UNL     1     -12.049  15.514  36.725  1.00  0.00    -0.013 C 
HETATM   45  C25 UNL     1     -10.690  14.838  36.734  1.00  0.00     0.012 C 
HETATM   46  C26 UNL     1     -10.795  13.559  35.964  1.00  0.00     0.016 C 
ENDBRANCH  36  37
ENDBRANCH  33  36
ENDBRANCH   1  32
TORSDOF 13
ENDMDL
