MODEL 1
REMARK VINA RESULT: -8.574071749      0.000      0.000
REMARK  15 active torsions:
REMARK  status: ('A' for Active; 'I' for Inactive)
REMARK    1  A    between atoms: N1_2  and  C2_3 
REMARK    2  A    between atoms: N1_2  and  C15_25 
REMARK    3  A    between atoms: C2_3  and  O1_4 
REMARK    4  A    between atoms: C2_3  and  C3_6 
REMARK    5  A    between atoms: C3_6  and  N2_7 
REMARK    6  A    between atoms: C3_6  and  C11_21 
REMARK       I    between atoms: N2_7  and  C4_9 
REMARK       I    between atoms: C4_9  and  N3_11 
REMARK    7  A    between atoms: N3_11  and  C5_13 
REMARK    8  A    between atoms: C5_13  and  C6_14 
REMARK    9  A    between atoms: C5_13  and  C7_17 
REMARK   10  A    between atoms: C15_25  and  C16_26 
REMARK   11  A    between atoms: C15_25  and  C26_37 
REMARK   12  A    between atoms: C16_26  and  C17_27 
REMARK   13  A    between atoms: C17_27  and  C18_28 
REMARK   14  A    between atoms: C18_28  and  N4_29 
REMARK       I    between atoms: C26_37  and  N5_39 
REMARK   15  A    between atoms: N5_39  and  C27_41 
ROOT
HETATM    1  C1  UNL     1     -11.072  17.571  29.928  1.00  0.00     0.152 C 
HETATM    2  N1  UNL     1     -10.303  16.622  30.722  1.00  0.00    -0.355 N 
ENDROOT
BRANCH   2   3
HETATM    3  C2  UNL     1     -10.638  15.259  30.677  1.00  0.00     0.138 C 
BRANCH   3   4
HETATM    4  O1  UNL     1      -9.653  14.486  31.043  1.00  0.00    -0.348 OA
ATOM      5  H1  UNL     1      -9.309  13.966  30.326  1.00  0.00     0.219 HD
ENDBRANCH   3   4
BRANCH   3   6
HETATM    6  C3  UNL     1     -11.921  14.628  30.287  1.00  0.00     0.168 C 
BRANCH   6   7
HETATM    7  N2  UNL     1     -12.212  13.549  31.210  1.00  0.00    -0.330 N 
HETATM    8  C4  UNL     1     -12.935  13.489  32.381  1.00  0.00     0.317 C 
HETATM    9  O2  UNL     1     -13.581  14.424  32.952  1.00  0.00    -0.247 OA
HETATM   10  N3  UNL     1     -13.000  12.247  33.066  1.00  0.00    -0.328 N 
ATOM     11  H3  UNL     1     -12.436  11.490  32.679  1.00  0.00     0.165 HD
ATOM     12  H2  UNL     1     -11.798  12.657  30.939  1.00  0.00     0.165 HD
BRANCH  10  13
HETATM   13  C5  UNL     1     -13.760  11.932  34.232  1.00  0.00     0.194 C 
BRANCH  13  14
HETATM   14  C6  UNL     1     -12.870  11.889  35.453  1.00  0.00     0.197 C 
HETATM   15  O3  UNL     1     -11.819  11.278  35.507  1.00  0.00    -0.646 OA
HETATM   16  O4  UNL     1     -13.319  12.616  36.584  1.00  0.00    -0.646 OA
ENDBRANCH  13  14
BRANCH  13  17
HETATM   17  C7  UNL     1     -14.414  10.573  34.039  1.00  0.00    -0.021 C 
HETATM   18  C8  UNL     1     -13.584   9.656  33.195  1.00  0.00     0.017 C 
HETATM   19  C9  UNL     1     -14.844   9.922  35.305  1.00  0.00     0.017 C 
HETATM   20  C10 UNL     1     -15.692  10.857  33.226  1.00  0.00     0.017 C 
ENDBRANCH  13  17
ENDBRANCH  10  13
ENDBRANCH   6   7
BRANCH   6  21
HETATM   21  C11 UNL     1     -11.807  14.043  28.866  1.00  0.00    -0.023 C 
HETATM   22  C12 UNL     1     -10.473  14.142  28.257  1.00  0.00     0.017 C 
HETATM   23  C13 UNL     1     -12.738  14.887  27.952  1.00  0.00     0.017 C 
HETATM   24  C14 UNL     1     -12.353  12.664  28.758  1.00  0.00     0.017 C 
ENDBRANCH   6  21
ENDBRANCH   3   6
ENDBRANCH   2   3
BRANCH   2  25
HETATM   25  C15 UNL     1      -9.172  17.172  31.491  1.00  0.00     0.177 C 
BRANCH  25  26
HETATM   26  C16 UNL     1      -7.899  16.981  30.781  1.00  0.00     0.036 C 
BRANCH  26  27
HETATM   27  C17 UNL     1      -7.826  17.631  29.443  1.00  0.00     0.033 C 
BRANCH  27  28
HETATM   28  C18 UNL     1      -7.549  16.599  28.386  1.00  0.00     0.272 C 
BRANCH  28  29
HETATM   29  N4  UNL     1      -8.127  16.916  27.109  1.00  0.00     0.088 N 
HETATM   30  C19 UNL     1      -8.389  18.305  26.913  1.00  0.00     0.272 C 
HETATM   31  C20 UNL     1      -9.756  18.482  26.306  1.00  0.00     0.030 C 
HETATM   32  C21 UNL     1     -10.555  17.219  26.262  1.00  0.00     0.002 C 
HETATM   33  C22 UNL     1     -10.363  16.593  24.876  1.00  0.00     0.000 C 
HETATM   34  C23 UNL     1      -9.290  15.556  24.979  1.00  0.00     0.002 C 
HETATM   35  C24 UNL     1      -7.944  16.193  24.778  1.00  0.00     0.030 C 
HETATM   36  C25 UNL     1      -7.224  16.397  26.099  1.00  0.00     0.272 C 
ENDBRANCH  28  29
ENDBRANCH  27  28
ENDBRANCH  26  27
ENDBRANCH  25  26
BRANCH  25  37
HETATM   37  C26 UNL     1      -9.188  16.476  32.799  1.00  0.00     0.241 C 
HETATM   38  O5  UNL     1      -8.215  15.887  33.285  1.00  0.00    -0.271 OA
HETATM   39  N5  UNL     1     -10.409  16.468  33.592  1.00  0.00    -0.351 N 
ATOM     40  H5  UNL     1     -11.244  16.942  33.249  1.00  0.00     0.163 HD
BRANCH  39  41
HETATM   41  C27 UNL     1     -10.434  15.795  34.853  1.00  0.00     0.022 C 
HETATM   42  C28 UNL     1     -11.799  15.868  35.546  1.00  0.00     0.037 C 
HETATM   43  C29 UNL     1     -10.122  14.328  34.668  1.00  0.00     0.037 C 
HETATM   44  C30 UNL     1      -9.430  16.344  35.858  1.00  0.00     0.037 C 
ENDBRANCH  39  41
ENDBRANCH  25  37
ENDBRANCH   2  25
TORSDOF 15
ENDMDL
MODEL 2
REMARK VINA RESULT: -8.365139117      2.966      8.647
REMARK  15 active torsions:
REMARK  status: ('A' for Active; 'I' for Inactive)
REMARK    1  A    between atoms: N1_2  and  C2_3 
REMARK    2  A    between atoms: N1_2  and  C15_25 
REMARK    3  A    between atoms: C2_3  and  O1_4 
REMARK    4  A    between atoms: C2_3  and  C3_6 
REMARK    5  A    between atoms: C3_6  and  N2_7 
REMARK    6  A    between atoms: C3_6  and  C11_21 
REMARK       I    between atoms: N2_7  and  C4_9 
REMARK       I    between atoms: C4_9  and  N3_11 
REMARK    7  A    between atoms: N3_11  and  C5_13 
REMARK    8  A    between atoms: C5_13  and  C6_14 
REMARK    9  A    between atoms: C5_13  and  C7_17 
REMARK   10  A    between atoms: C15_25  and  C16_26 
REMARK   11  A    between atoms: C15_25  and  C26_37 
REMARK   12  A    between atoms: C16_26  and  C17_27 
REMARK   13  A    between atoms: C17_27  and  C18_28 
REMARK   14  A    between atoms: C18_28  and  N4_29 
REMARK       I    between atoms: C26_37  and  N5_39 
REMARK   15  A    between atoms: N5_39  and  C27_41 
ROOT
HETATM    1  C1  UNL     1     -10.670  17.254  29.523  1.00  0.00     0.152 C 
HETATM    2  N1  UNL     1      -9.653  16.247  29.795  1.00  0.00    -0.355 N 
ENDROOT
BRANCH   2   3
HETATM    3  C2  UNL     1      -9.964  14.889  29.613  1.00  0.00     0.138 C 
BRANCH   3   4
HETATM    4  O1  UNL     1      -9.584  14.147  30.616  1.00  0.00    -0.348 OA
ATOM      5  H1  UNL     1     -10.314  13.831  31.135  1.00  0.00     0.219 HD
ENDBRANCH   3   4
BRANCH   3   6
HETATM    6  C3  UNL     1     -10.645  14.236  28.471  1.00  0.00     0.168 C 
BRANCH   6   7
HETATM    7  N2  UNL     1     -10.410  15.021  27.275  1.00  0.00    -0.330 N 
HETATM    8  C4  UNL     1      -9.401  15.019  26.338  1.00  0.00     0.317 C 
HETATM    9  O2  UNL     1      -8.382  14.261  26.286  1.00  0.00    -0.247 OA
HETATM   10  N3  UNL     1      -9.469  15.961  25.278  1.00  0.00    -0.328 N 
ATOM     11  H3  UNL     1     -10.233  16.635  25.323  1.00  0.00     0.165 HD
ATOM     12  H2  UNL     1     -11.137  15.713  27.091  1.00  0.00     0.165 HD
BRANCH  10  13
HETATM   13  C5  UNL     1      -8.595  16.076  24.156  1.00  0.00     0.194 C 
BRANCH  13  14
HETATM   14  C6  UNL     1      -7.950  17.443  24.120  1.00  0.00     0.197 C 
HETATM   15  O3  UNL     1      -8.474  18.452  24.550  1.00  0.00    -0.646 OA
HETATM   16  O4  UNL     1      -6.657  17.512  23.544  1.00  0.00    -0.646 OA
ENDBRANCH  13  14
BRANCH  13  17
HETATM   17  C7  UNL     1      -9.400  15.867  22.882  1.00  0.00    -0.021 C 
HETATM   18  C8  UNL     1     -10.829  16.290  23.037  1.00  0.00     0.017 C 
HETATM   19  C9  UNL     1      -8.777  16.456  21.668  1.00  0.00     0.017 C 
HETATM   20  C10 UNL     1      -9.430  14.341  22.675  1.00  0.00     0.017 C 
ENDBRANCH  13  17
ENDBRANCH  10  13
ENDBRANCH   6   7
BRANCH   6  21
HETATM   21  C11 UNL     1     -12.163  14.176  28.730  1.00  0.00    -0.023 C 
HETATM   22  C12 UNL     1     -12.554  14.174  30.147  1.00  0.00     0.017 C 
HETATM   23  C13 UNL     1     -12.666  12.819  28.165  1.00  0.00     0.017 C 
HETATM   24  C14 UNL     1     -12.927  15.191  27.957  1.00  0.00     0.017 C 
ENDBRANCH   6  21
ENDBRANCH   3   6
ENDBRANCH   2   3
BRANCH   2  25
HETATM   25  C15 UNL     1      -8.326  16.744  30.202  1.00  0.00     0.177 C 
BRANCH  25  26
HETATM   26  C16 UNL     1      -8.441  17.852  31.161  1.00  0.00     0.036 C 
BRANCH  26  27
HETATM   27  C17 UNL     1      -8.092  17.502  32.565  1.00  0.00     0.033 C 
BRANCH  27  28
HETATM   28  C18 UNL     1      -8.572  16.114  32.883  1.00  0.00     0.272 C 
BRANCH  28  29
HETATM   29  N4  UNL     1      -9.643  16.082  33.841  1.00  0.00     0.088 N 
HETATM   30  C19 UNL     1      -9.589  17.122  34.816  1.00  0.00     0.272 C 
HETATM   31  C20 UNL     1      -9.864  16.551  36.182  1.00  0.00     0.030 C 
HETATM   32  C21 UNL     1      -9.910  15.057  36.204  1.00  0.00     0.002 C 
HETATM   33  C22 UNL     1     -11.377  14.633  36.073  1.00  0.00     0.000 C 
HETATM   34  C23 UNL     1     -11.645  14.321  34.635  1.00  0.00     0.002 C 
HETATM   35  C24 UNL     1     -12.036  15.575  33.906  1.00  0.00     0.030 C 
HETATM   36  C25 UNL     1     -10.882  16.124  33.087  1.00  0.00     0.272 C 
ENDBRANCH  28  29
ENDBRANCH  27  28
ENDBRANCH  26  27
ENDBRANCH  25  26
BRANCH  25  37
HETATM   37  C26 UNL     1      -7.642  17.158  28.955  1.00  0.00     0.241 C 
HETATM   38  O5  UNL     1      -8.210  17.301  27.866  1.00  0.00    -0.271 OA
HETATM   39  N5  UNL     1      -6.211  17.425  28.975  1.00  0.00    -0.351 N 
ATOM     40  H5  UNL     1      -5.687  17.330  29.844  1.00  0.00     0.163 HD
BRANCH  39  41
HETATM   41  C27 UNL     1      -5.543  17.819  27.775  1.00  0.00     0.022 C 
HETATM   42  C28 UNL     1      -6.161  19.061  27.123  1.00  0.00     0.037 C 
HETATM   43  C29 UNL     1      -4.100  18.158  28.067  1.00  0.00     0.037 C 
HETATM   44  C30 UNL     1      -5.542  16.744  26.696  1.00  0.00     0.037 C 
ENDBRANCH  39  41
ENDBRANCH  25  37
ENDBRANCH   2  25
TORSDOF 15
ENDMDL
MODEL 3
REMARK VINA RESULT: -8.258106913      1.128      1.830
REMARK  15 active torsions:
REMARK  status: ('A' for Active; 'I' for Inactive)
REMARK    1  A    between atoms: N1_2  and  C2_3 
REMARK    2  A    between atoms: N1_2  and  C15_25 
REMARK    3  A    between atoms: C2_3  and  O1_4 
REMARK    4  A    between atoms: C2_3  and  C3_6 
REMARK    5  A    between atoms: C3_6  and  N2_7 
REMARK    6  A    between atoms: C3_6  and  C11_21 
REMARK       I    between atoms: N2_7  and  C4_9 
REMARK       I    between atoms: C4_9  and  N3_11 
REMARK    7  A    between atoms: N3_11  and  C5_13 
REMARK    8  A    between atoms: C5_13  and  C6_14 
REMARK    9  A    between atoms: C5_13  and  C7_17 
REMARK   10  A    between atoms: C15_25  and  C16_26 
REMARK   11  A    between atoms: C15_25  and  C26_37 
REMARK   12  A    between atoms: C16_26  and  C17_27 
REMARK   13  A    between atoms: C17_27  and  C18_28 
REMARK   14  A    between atoms: C18_28  and  N4_29 
REMARK       I    between atoms: C26_37  and  N5_39 
REMARK   15  A    between atoms: N5_39  and  C27_41 
ROOT
HETATM    1  C1  UNL     1     -11.074  17.544  29.955  1.00  0.00     0.152 C 
HETATM    2  N1  UNL     1     -10.323  16.583  30.752  1.00  0.00    -0.355 N 
ENDROOT
BRANCH   2   3
HETATM    3  C2  UNL     1     -10.663  15.222  30.687  1.00  0.00     0.138 C 
BRANCH   3   4
HETATM    4  O1  UNL     1      -9.684  14.441  31.049  1.00  0.00    -0.348 OA
ATOM      5  H1  UNL     1      -9.963  13.752  31.641  1.00  0.00     0.219 HD
ENDBRANCH   3   4
BRANCH   3   6
HETATM    6  C3  UNL     1     -11.945  14.602  30.278  1.00  0.00     0.168 C 
BRANCH   6   7
HETATM    7  N2  UNL     1     -12.228  13.487  31.161  1.00  0.00    -0.330 N 
HETATM    8  C4  UNL     1     -12.975  13.372  32.313  1.00  0.00     0.317 C 
HETATM    9  O2  UNL     1     -13.656  14.272  32.898  1.00  0.00    -0.247 OA
HETATM   10  N3  UNL     1     -13.022  12.108  32.957  1.00  0.00    -0.328 N 
ATOM     11  H3  UNL     1     -12.430  11.378  32.560  1.00  0.00     0.165 HD
ATOM     12  H2  UNL     1     -11.786  12.615  30.872  1.00  0.00     0.165 HD
BRANCH  10  13
HETATM   13  C5  UNL     1     -13.798  11.737  34.096  1.00  0.00     0.194 C 
BRANCH  13  14
HETATM   14  C6  UNL     1     -12.957  11.776  35.351  1.00  0.00     0.197 C 
HETATM   15  O3  UNL     1     -11.896  11.195  35.475  1.00  0.00    -0.646 OA
HETATM   16  O4  UNL     1     -13.467  12.546  36.426  1.00  0.00    -0.646 OA
ENDBRANCH  13  14
BRANCH  13  17
HETATM   17  C7  UNL     1     -14.329  10.327  33.890  1.00  0.00    -0.021 C 
HETATM   18  C8  UNL     1     -13.349   9.448  33.176  1.00  0.00     0.017 C 
HETATM   19  C9  UNL     1     -14.845   9.687  35.129  1.00  0.00     0.017 C 
HETATM   20  C10 UNL     1     -15.529  10.488  32.936  1.00  0.00     0.017 C 
ENDBRANCH  13  17
ENDBRANCH  10  13
ENDBRANCH   6   7
BRANCH   6  21
HETATM   21  C11 UNL     1     -11.835  14.071  28.836  1.00  0.00    -0.023 C 
HETATM   22  C12 UNL     1     -10.504  14.199  28.224  1.00  0.00     0.017 C 
HETATM   23  C13 UNL     1     -12.774  14.945  27.959  1.00  0.00     0.017 C 
HETATM   24  C14 UNL     1     -12.376  12.695  28.678  1.00  0.00     0.017 C 
ENDBRANCH   6  21
ENDBRANCH   3   6
ENDBRANCH   2   3
BRANCH   2  25
HETATM   25  C15 UNL     1      -9.204  17.120  31.548  1.00  0.00     0.177 C 
BRANCH  25  26
HETATM   26  C16 UNL     1      -7.919  16.928  30.860  1.00  0.00     0.036 C 
BRANCH  26  27
HETATM   27  C17 UNL     1      -7.800  17.630  29.552  1.00  0.00     0.033 C 
BRANCH  27  28
HETATM   28  C18 UNL     1      -7.653  16.625  28.443  1.00  0.00     0.272 C 
BRANCH  28  29
HETATM   29  N4  UNL     1      -6.785  17.062  27.384  1.00  0.00     0.088 N 
HETATM   30  C19 UNL     1      -5.394  16.911  27.667  1.00  0.00     0.272 C 
HETATM   31  C20 UNL     1      -4.655  18.157  27.256  1.00  0.00     0.030 C 
HETATM   32  C21 UNL     1      -5.558  19.284  26.869  1.00  0.00     0.002 C 
HETATM   33  C22 UNL     1      -5.718  19.251  25.345  1.00  0.00     0.000 C 
HETATM   34  C23 UNL     1      -6.985  18.524  25.026  1.00  0.00     0.002 C 
HETATM   35  C24 UNL     1      -6.717  17.048  24.938  1.00  0.00     0.030 C 
HETATM   36  C25 UNL     1      -7.169  16.327  26.195  1.00  0.00     0.272 C 
ENDBRANCH  28  29
ENDBRANCH  27  28
ENDBRANCH  26  27
ENDBRANCH  25  26
BRANCH  25  37
HETATM   37  C26 UNL     1      -9.248  16.412  32.848  1.00  0.00     0.241 C 
HETATM   38  O5  UNL     1      -8.286  15.820  33.350  1.00  0.00    -0.271 OA
HETATM   39  N5  UNL     1     -10.486  16.395  33.614  1.00  0.00    -0.351 N 
ATOM     40  H5  UNL     1     -11.314  16.871  33.257  1.00  0.00     0.163 HD
BRANCH  39  41
HETATM   41  C27 UNL     1     -10.539  15.710  34.868  1.00  0.00     0.022 C 
HETATM   42  C28 UNL     1      -9.561  16.275  35.903  1.00  0.00     0.037 C 
HETATM   43  C29 UNL     1     -11.920  15.827  35.469  1.00  0.00     0.037 C 
HETATM   44  C30 UNL     1     -10.220  14.224  34.764  1.00  0.00     0.037 C 
ENDBRANCH  39  41
ENDBRANCH  25  37
ENDBRANCH   2  25
TORSDOF 15
ENDMDL
MODEL 4
REMARK VINA RESULT: -8.241746184      1.460      5.657
REMARK  15 active torsions:
REMARK  status: ('A' for Active; 'I' for Inactive)
REMARK    1  A    between atoms: N1_2  and  C2_3 
REMARK    2  A    between atoms: N1_2  and  C15_25 
REMARK    3  A    between atoms: C2_3  and  O1_4 
REMARK    4  A    between atoms: C2_3  and  C3_6 
REMARK    5  A    between atoms: C3_6  and  N2_7 
REMARK    6  A    between atoms: C3_6  and  C11_21 
REMARK       I    between atoms: N2_7  and  C4_9 
REMARK       I    between atoms: C4_9  and  N3_11 
REMARK    7  A    between atoms: N3_11  and  C5_13 
REMARK    8  A    between atoms: C5_13  and  C6_14 
REMARK    9  A    between atoms: C5_13  and  C7_17 
REMARK   10  A    between atoms: C15_25  and  C16_26 
REMARK   11  A    between atoms: C15_25  and  C26_37 
REMARK   12  A    between atoms: C16_26  and  C17_27 
REMARK   13  A    between atoms: C17_27  and  C18_28 
REMARK   14  A    between atoms: C18_28  and  N4_29 
REMARK       I    between atoms: C26_37  and  N5_39 
REMARK   15  A    between atoms: N5_39  and  C27_41 
ROOT
HETATM    1  C1  UNL     1     -10.739  17.211  30.039  1.00  0.00     0.152 C 
HETATM    2  N1  UNL     1      -9.905  16.051  30.326  1.00  0.00    -0.355 N 
ENDROOT
BRANCH   2   3
HETATM    3  C2  UNL     1     -10.486  14.772  30.335  1.00  0.00     0.138 C 
BRANCH   3   4
HETATM    4  O1  UNL     1      -9.655  13.845  30.720  1.00  0.00    -0.348 OA
ATOM      5  H1  UNL     1      -9.386  13.274  30.010  1.00  0.00     0.219 HD
ENDBRANCH   3   4
BRANCH   3   6
HETATM    6  C3  UNL     1     -11.868  14.376  29.978  1.00  0.00     0.168 C 
BRANCH   6   7
HETATM    7  N2  UNL     1     -12.192  13.139  30.661  1.00  0.00    -0.330 N 
HETATM    8  C4  UNL     1     -13.110  12.822  31.638  1.00  0.00     0.317 C 
HETATM    9  O2  UNL     1     -13.962  13.587  32.189  1.00  0.00    -0.247 OA
HETATM   10  N3  UNL     1     -13.147  11.485  32.114  1.00  0.00    -0.328 N 
ATOM     11  H3  UNL     1     -12.430  10.857  31.749  1.00  0.00     0.165 HD
ATOM     12  H2  UNL     1     -11.627  12.346  30.358  1.00  0.00     0.165 HD
BRANCH  10  13
HETATM   13  C5  UNL     1     -14.068  10.915  33.043  1.00  0.00     0.194 C 
BRANCH  13  14
HETATM   14  C6  UNL     1     -13.549  11.047  34.457  1.00  0.00     0.197 C 
HETATM   15  O3  UNL     1     -12.431  10.720  34.803  1.00  0.00    -0.646 OA
HETATM   16  O4  UNL     1     -14.450  11.588  35.409  1.00  0.00    -0.646 OA
ENDBRANCH  13  14
BRANCH  13  17
HETATM   17  C7  UNL     1     -14.253   9.442  32.711  1.00  0.00    -0.021 C 
HETATM   18  C8  UNL     1     -13.067   8.866  32.000  1.00  0.00     0.017 C 
HETATM   19  C9  UNL     1     -14.663   8.606  33.870  1.00  0.00     0.017 C 
HETATM   20  C10 UNL     1     -15.414   9.405  31.699  1.00  0.00     0.017 C 
ENDBRANCH  13  17
ENDBRANCH  10  13
ENDBRANCH   6   7
BRANCH   6  21
HETATM   21  C11 UNL     1     -11.971  14.141  28.459  1.00  0.00    -0.023 C 
HETATM   22  C12 UNL     1     -10.710  14.292  27.718  1.00  0.00     0.017 C 
HETATM   23  C13 UNL     1     -12.913  15.239  27.892  1.00  0.00     0.017 C 
HETATM   24  C14 UNL     1     -12.656  12.867  28.111  1.00  0.00     0.017 C 
ENDBRANCH   6  21
ENDBRANCH   3   6
ENDBRANCH   2   3
BRANCH   2  25
HETATM   25  C15 UNL     1      -8.469  16.310  30.541  1.00  0.00     0.177 C 
BRANCH  25  26
HETATM   26  C16 UNL     1      -8.258  17.537  31.321  1.00  0.00     0.036 C 
BRANCH  26  27
HETATM   27  C17 UNL     1      -8.007  17.320  32.773  1.00  0.00     0.033 C 
BRANCH  27  28
HETATM   28  C18 UNL     1      -9.299  17.412  33.536  1.00  0.00     0.272 C 
BRANCH  28  29
HETATM   29  N4  UNL     1      -9.561  16.264  34.360  1.00  0.00     0.088 N 
HETATM   30  C19 UNL     1      -8.909  15.070  33.928  1.00  0.00     0.272 C 
HETATM   31  C20 UNL     1      -9.875  13.917  33.981  1.00  0.00     0.030 C 
HETATM   32  C21 UNL     1     -11.285  14.334  34.255  1.00  0.00     0.002 C 
HETATM   33  C22 UNL     1     -11.525  14.199  35.763  1.00  0.00     0.000 C 
HETATM   34  C23 UNL     1     -11.323  15.543  36.388  1.00  0.00     0.002 C 
HETATM   35  C24 UNL     1      -9.872  15.734  36.729  1.00  0.00     0.030 C 
HETATM   36  C25 UNL     1      -9.176  16.620  35.712  1.00  0.00     0.272 C 
ENDBRANCH  28  29
ENDBRANCH  27  28
ENDBRANCH  26  27
ENDBRANCH  25  26
BRANCH  25  37
HETATM   37  C26 UNL     1      -7.861  16.396  29.193  1.00  0.00     0.241 C 
HETATM   38  O5  UNL     1      -7.558  15.416  28.504  1.00  0.00    -0.271 OA
HETATM   39  N5  UNL     1      -7.592  17.702  28.610  1.00  0.00    -0.351 N 
ATOM     40  H5  UNL     1      -7.825  18.550  29.127  1.00  0.00     0.163 HD
BRANCH  39  41
HETATM   41  C27 UNL     1      -7.001  17.794  27.312  1.00  0.00     0.022 C 
HETATM   42  C28 UNL     1      -7.831  17.109  26.223  1.00  0.00     0.037 C 
HETATM   43  C29 UNL     1      -6.862  19.242  26.903  1.00  0.00     0.037 C 
HETATM   44  C30 UNL     1      -5.613  17.171  27.229  1.00  0.00     0.037 C 
ENDBRANCH  39  41
ENDBRANCH  25  37
ENDBRANCH   2  25
TORSDOF 15
ENDMDL
MODEL 5
REMARK VINA RESULT: -8.180619145      3.003      8.718
REMARK  15 active torsions:
REMARK  status: ('A' for Active; 'I' for Inactive)
REMARK    1  A    between atoms: N1_2  and  C2_3 
REMARK    2  A    between atoms: N1_2  and  C15_25 
REMARK    3  A    between atoms: C2_3  and  O1_4 
REMARK    4  A    between atoms: C2_3  and  C3_6 
REMARK    5  A    between atoms: C3_6  and  N2_7 
REMARK    6  A    between atoms: C3_6  and  C11_21 
REMARK       I    between atoms: N2_7  and  C4_9 
REMARK       I    between atoms: C4_9  and  N3_11 
REMARK    7  A    between atoms: N3_11  and  C5_13 
REMARK    8  A    between atoms: C5_13  and  C6_14 
REMARK    9  A    between atoms: C5_13  and  C7_17 
REMARK   10  A    between atoms: C15_25  and  C16_26 
REMARK   11  A    between atoms: C15_25  and  C26_37 
REMARK   12  A    between atoms: C16_26  and  C17_27 
REMARK   13  A    between atoms: C17_27  and  C18_28 
REMARK   14  A    between atoms: C18_28  and  N4_29 
REMARK       I    between atoms: C26_37  and  N5_39 
REMARK   15  A    between atoms: N5_39  and  C27_41 
ROOT
HETATM    1  C1  UNL     1     -10.629  17.319  29.653  1.00  0.00     0.152 C 
HETATM    2  N1  UNL     1      -9.613  16.294  29.853  1.00  0.00    -0.355 N 
ENDROOT
BRANCH   2   3
HETATM    3  C2  UNL     1      -9.947  14.945  29.645  1.00  0.00     0.138 C 
BRANCH   3   4
HETATM    4  O1  UNL     1      -9.599  14.181  30.642  1.00  0.00    -0.348 OA
ATOM      5  H1  UNL     1      -8.668  13.989  30.649  1.00  0.00     0.219 HD
ENDBRANCH   3   4
BRANCH   3   6
HETATM    6  C3  UNL     1     -10.623  14.323  28.483  1.00  0.00     0.168 C 
BRANCH   6   7
HETATM    7  N2  UNL     1     -10.361  15.127  27.305  1.00  0.00    -0.330 N 
HETATM    8  C4  UNL     1      -9.401  15.058  26.320  1.00  0.00     0.317 C 
HETATM    9  O2  UNL     1      -8.470  14.202  26.191  1.00  0.00    -0.247 OA
HETATM   10  N3  UNL     1      -9.419  16.044  25.297  1.00  0.00    -0.328 N 
ATOM     11  H3  UNL     1     -10.105  16.790  25.404  1.00  0.00     0.165 HD
ATOM     12  H2  UNL     1     -11.020  15.896  27.181  1.00  0.00     0.165 HD
BRANCH  10  13
HETATM   13  C5  UNL     1      -8.589  16.113  24.138  1.00  0.00     0.194 C 
BRANCH  13  14
HETATM   14  C6  UNL     1      -7.930  17.469  24.034  1.00  0.00     0.197 C 
HETATM   15  O3  UNL     1      -8.429  18.500  24.443  1.00  0.00    -0.646 OA
HETATM   16  O4  UNL     1      -6.653  17.502  23.419  1.00  0.00    -0.646 OA
ENDBRANCH  13  14
BRANCH  13  17
HETATM   17  C7  UNL     1      -9.447  15.876  22.905  1.00  0.00    -0.021 C 
HETATM   18  C8  UNL     1     -10.865  16.316  23.105  1.00  0.00     0.017 C 
HETATM   19  C9  UNL     1      -8.869  16.425  21.650  1.00  0.00     0.017 C 
HETATM   20  C10 UNL     1      -9.497  14.345  22.743  1.00  0.00     0.017 C 
ENDBRANCH  13  17
ENDBRANCH  10  13
ENDBRANCH   6   7
BRANCH   6  21
HETATM   21  C11 UNL     1     -12.144  14.279  28.721  1.00  0.00    -0.023 C 
HETATM   22  C12 UNL     1     -12.555  14.302  30.132  1.00  0.00     0.017 C 
HETATM   23  C13 UNL     1     -12.651  12.918  28.170  1.00  0.00     0.017 C 
HETATM   24  C14 UNL     1     -12.889  15.288  27.922  1.00  0.00     0.017 C 
ENDBRANCH   6  21
ENDBRANCH   3   6
ENDBRANCH   2   3
BRANCH   2  25
HETATM   25  C15 UNL     1      -8.265  16.765  30.218  1.00  0.00     0.177 C 
BRANCH  25  26
HETATM   26  C16 UNL     1      -8.327  17.852  31.206  1.00  0.00     0.036 C 
BRANCH  26  27
HETATM   27  C17 UNL     1      -8.017  17.444  32.604  1.00  0.00     0.033 C 
BRANCH  27  28
HETATM   28  C18 UNL     1      -9.244  17.580  33.462  1.00  0.00     0.272 C 
BRANCH  28  29
HETATM   29  N4  UNL     1      -9.527  16.410  34.247  1.00  0.00     0.088 N 
HETATM   30  C19 UNL     1      -8.858  15.230  33.804  1.00  0.00     0.272 C 
HETATM   31  C20 UNL     1      -9.821  14.073  33.797  1.00  0.00     0.030 C 
HETATM   32  C21 UNL     1     -11.240  14.479  34.038  1.00  0.00     0.002 C 
HETATM   33  C22 UNL     1     -11.527  14.304  35.534  1.00  0.00     0.000 C 
HETATM   34  C23 UNL     1     -11.350  15.631  36.199  1.00  0.00     0.002 C 
HETATM   35  C24 UNL     1      -9.911  15.818  36.590  1.00  0.00     0.030 C 
HETATM   36  C25 UNL     1      -9.186  16.733  35.619  1.00  0.00     0.272 C 
ENDBRANCH  28  29
ENDBRANCH  27  28
ENDBRANCH  26  27
ENDBRANCH  25  26
BRANCH  25  37
HETATM   37  C26 UNL     1      -7.625  17.199  28.954  1.00  0.00     0.241 C 
HETATM   38  O5  UNL     1      -8.239  17.406  27.901  1.00  0.00    -0.271 OA
HETATM   39  N5  UNL     1      -6.186  17.409  28.913  1.00  0.00    -0.351 N 
ATOM     40  H5  UNL     1      -5.624  17.261  29.752  1.00  0.00     0.163 HD
BRANCH  39  41
HETATM   41  C27 UNL     1      -5.560  17.823  27.696  1.00  0.00     0.022 C 
HETATM   42  C28 UNL     1      -6.199  19.075  27.088  1.00  0.00     0.037 C 
HETATM   43  C29 UNL     1      -4.107  18.154  27.942  1.00  0.00     0.037 C 
HETATM   44  C30 UNL     1      -5.600  16.765  26.600  1.00  0.00     0.037 C 
ENDBRANCH  39  41
ENDBRANCH  25  37
ENDBRANCH   2  25
TORSDOF 15
ENDMDL
