MODEL 1
REMARK VINA RESULT: -4.598243255      0.000      0.000
REMARK  2 active torsions:
REMARK  status: ('A' for Active; 'I' for Inactive)
REMARK    1  A    between atoms: N3_11  and  C6_12 
REMARK    2  A    between atoms: C6_12  and  C7_13 
ROOT
HETATM    1  C1  UNL     1      -4.512   9.838  -3.778  1.00  0.00     0.034 C 
HETATM    2  C2  UNL     1      -5.572   9.174  -4.592  1.00  0.00     0.032 C 
HETATM    3  C3  UNL     1      -6.580  10.155  -5.124  1.00  0.00     0.034 C 
HETATM    4  C4  UNL     1      -4.926   8.514  -5.798  1.00  0.00     0.103 C 
HETATM    5  C5  UNL     1      -5.747   7.282  -5.965  1.00  0.00     0.087 C 
HETATM    6  N1  UNL     1      -5.558   6.383  -6.863  1.00  0.00    -0.388 N 
ATOM      7  H11 UNL     1      -6.120   5.540  -6.977  1.00  0.00     0.157 HD
ATOM      8  H12 UNL     1      -4.843   6.384  -7.591  1.00  0.00     0.157 HD
HETATM    9  N2  UNL     1      -6.760   7.280  -4.932  1.00  0.00    -0.308 N 
ATOM     10  H2  UNL     1      -7.644   6.771  -4.941  1.00  0.00     0.182 HD
HETATM   11  N3  UNL     1      -6.282   8.115  -3.922  1.00  0.00    -0.220 NA
ENDROOT
BRANCH  11  12
HETATM   12  C6  UNL     1      -5.509   7.407  -2.954  1.00  0.00     0.129 C 
BRANCH  12  13
HETATM   13  C7  UNL     1      -6.321   6.234  -2.459  1.00  0.00     0.131 C 
HETATM   14 CL1  UNL     1      -6.478   6.288  -0.706  1.00  0.00    -0.129 Cl
ENDBRANCH  12  13
ENDBRANCH  11  12
TORSDOF 2
ENDMDL
MODEL 2
REMARK VINA RESULT: -4.400105836      2.347      3.701
REMARK  2 active torsions:
REMARK  status: ('A' for Active; 'I' for Inactive)
REMARK    1  A    between atoms: N3_11  and  C6_12 
REMARK    2  A    between atoms: C6_12  and  C7_13 
ROOT
HETATM    1  C1  UNL     1      -5.303   6.704  -6.695  1.00  0.00     0.034 C 
HETATM    2  C2  UNL     1      -6.070   6.679  -5.415  1.00  0.00     0.032 C 
HETATM    3  C3  UNL     1      -7.448   6.099  -5.588  1.00  0.00     0.034 C 
HETATM    4  C4  UNL     1      -5.343   5.789  -4.421  1.00  0.00     0.103 C 
HETATM    5  C5  UNL     1      -5.588   6.488  -3.129  1.00  0.00     0.087 C 
HETATM    6  N1  UNL     1      -5.140   6.109  -1.986  1.00  0.00    -0.388 N 
ATOM      7  H11 UNL     1      -5.307   6.588  -1.102  1.00  0.00     0.157 HD
ATOM      8  H12 UNL     1      -4.575   5.282  -1.793  1.00  0.00     0.157 HD
HETATM    9  N2  UNL     1      -6.389   7.662  -3.403  1.00  0.00    -0.308 N 
ATOM     10  H2  UNL     1      -6.975   8.173  -2.743  1.00  0.00     0.182 HD
HETATM   11  N3  UNL     1      -6.196   7.952  -4.754  1.00  0.00    -0.220 NA
ENDROOT
BRANCH  11  12
HETATM   12  C6  UNL     1      -5.097   8.837  -4.966  1.00  0.00     0.129 C 
BRANCH  12  13
HETATM   13  C7  UNL     1      -5.266  10.034  -4.061  1.00  0.00     0.131 C 
HETATM   14 CL1  UNL     1      -6.644  11.005  -4.571  1.00  0.00    -0.129 Cl
ENDBRANCH  12  13
ENDBRANCH  11  12
TORSDOF 2
ENDMDL
MODEL 3
REMARK VINA RESULT: -4.338351635      1.452      2.831
REMARK  2 active torsions:
REMARK  status: ('A' for Active; 'I' for Inactive)
REMARK    1  A    between atoms: N3_11  and  C6_12 
REMARK    2  A    between atoms: C6_12  and  C7_13 
ROOT
HETATM    1  C1  UNL     1      -7.098   6.715  -5.215  1.00  0.00     0.034 C 
HETATM    2  C2  UNL     1      -6.052   7.774  -5.115  1.00  0.00     0.032 C 
HETATM    3  C3  UNL     1      -5.092   7.737  -6.273  1.00  0.00     0.034 C 
HETATM    4  C4  UNL     1      -6.723   9.136  -5.149  1.00  0.00     0.103 C 
HETATM    5  C5  UNL     1      -5.875   9.932  -4.218  1.00  0.00     0.087 C 
HETATM    6  N1  UNL     1      -6.072  11.163  -3.908  1.00  0.00    -0.388 N 
ATOM      7  H11 UNL     1      -5.492  11.709  -3.271  1.00  0.00     0.157 HD
ATOM      8  H12 UNL     1      -6.813  11.772  -4.255  1.00  0.00     0.157 HD
HETATM    9  N2  UNL     1      -4.824   9.069  -3.726  1.00  0.00    -0.308 N 
ATOM     10  H2  UNL     1      -3.927   9.356  -3.334  1.00  0.00     0.182 HD
HETATM   11  N3  UNL     1      -5.287   7.764  -3.894  1.00  0.00    -0.220 NA
ENDROOT
BRANCH  11  12
HETATM   12  C6  UNL     1      -6.003   7.291  -2.755  1.00  0.00     0.129 C 
BRANCH  12  13
HETATM   13  C7  UNL     1      -5.223   6.155  -2.138  1.00  0.00     0.131 C 
HETATM   14 CL1  UNL     1      -6.002   5.605  -0.656  1.00  0.00    -0.129 Cl
ENDBRANCH  12  13
ENDBRANCH  11  12
TORSDOF 2
ENDMDL
MODEL 4
REMARK VINA RESULT: -3.922699195      2.356      3.726
REMARK  2 active torsions:
REMARK  status: ('A' for Active; 'I' for Inactive)
REMARK    1  A    between atoms: N3_11  and  C6_12 
REMARK    2  A    between atoms: C6_12  and  C7_13 
ROOT
HETATM    1  C1  UNL     1      -6.324   6.508  -1.736  1.00  0.00     0.034 C 
HETATM    2  C2  UNL     1      -5.781   6.001  -3.031  1.00  0.00     0.032 C 
HETATM    3  C3  UNL     1      -4.721   4.952  -2.831  1.00  0.00     0.034 C 
HETATM    4  C4  UNL     1      -6.905   5.342  -3.812  1.00  0.00     0.103 C 
HETATM    5  C5  UNL     1      -6.565   5.697  -5.219  1.00  0.00     0.087 C 
HETATM    6  N1  UNL     1      -7.255   5.370  -6.252  1.00  0.00    -0.388 N 
ATOM      7  H11 UNL     1      -7.023   5.613  -7.214  1.00  0.00     0.157 HD
ATOM      8  H12 UNL     1      -8.112   4.817  -6.267  1.00  0.00     0.157 HD
HETATM    9  N2  UNL     1      -5.350   6.482  -5.198  1.00  0.00    -0.308 N 
ATOM     10  H2  UNL     1      -4.695   6.620  -5.968  1.00  0.00     0.182 HD
HETATM   11  N3  UNL     1      -5.256   7.012  -3.911  1.00  0.00    -0.220 NA
ENDROOT
BRANCH  11  12
HETATM   12  C6  UNL     1      -5.899   8.281  -3.800  1.00  0.00     0.129 C 
BRANCH  12  13
HETATM   13  C7  UNL     1      -5.408   9.165  -4.921  1.00  0.00     0.131 C 
HETATM   14 CL1  UNL     1      -6.511  10.515  -5.171  1.00  0.00    -0.129 Cl
ENDBRANCH  12  13
ENDBRANCH  11  12
TORSDOF 2
ENDMDL
MODEL 5
REMARK VINA RESULT: -3.786806090      2.323      3.472
REMARK  2 active torsions:
REMARK  status: ('A' for Active; 'I' for Inactive)
REMARK    1  A    between atoms: N3_11  and  C6_12 
REMARK    2  A    between atoms: C6_12  and  C7_13 
ROOT
HETATM    1  C1  UNL     1      -6.341   9.948  -5.253  1.00  0.00     0.034 C 
HETATM    2  C2  UNL     1      -5.527   9.057  -4.376  1.00  0.00     0.032 C 
HETATM    3  C3  UNL     1      -4.320   9.759  -3.815  1.00  0.00     0.034 C 
HETATM    4  C4  UNL     1      -6.372   8.626  -3.189  1.00  0.00     0.103 C 
HETATM    5  C5  UNL     1      -5.908   7.229  -2.959  1.00  0.00     0.087 C 
HETATM    6  N1  UNL     1      -6.362   6.438  -2.054  1.00  0.00    -0.388 N 
ATOM      7  H11 UNL     1      -6.045   5.482  -1.896  1.00  0.00     0.157 HD
ATOM      8  H12 UNL     1      -7.081   6.647  -1.362  1.00  0.00     0.157 HD
HETATM    9  N2  UNL     1      -4.888   6.931  -3.941  1.00  0.00    -0.308 N 
ATOM     10  H2  UNL     1      -4.169   6.211  -3.880  1.00  0.00     0.182 HD
HETATM   11  N3  UNL     1      -5.090   7.829  -4.990  1.00  0.00    -0.220 NA
ENDROOT
BRANCH  11  12
HETATM   12  C6  UNL     1      -5.980   7.316  -5.979  1.00  0.00     0.129 C 
BRANCH  12  13
HETATM   13  C7  UNL     1      -5.275   6.212  -6.730  1.00  0.00     0.131 C 
HETATM   14 CL1  UNL     1      -6.383   4.883  -7.058  1.00  0.00    -0.129 Cl
ENDBRANCH  12  13
ENDBRANCH  11  12
TORSDOF 2
ENDMDL
