MODEL 1
REMARK VINA RESULT: -7.239457718      0.000      0.000
REMARK  14 active torsions:
REMARK  status: ('A' for Active; 'I' for Inactive)
REMARK    1  A    between atoms: C4_4  and  S1_5 
REMARK    2  A    between atoms: S1_5  and  C5_6 
REMARK    3  A    between atoms: S1_5  and  N4_31 
REMARK    4  A    between atoms: C5_6  and  C6_7 
REMARK    5  A    between atoms: C6_7  and  C7_8 
REMARK    6  A    between atoms: C7_8  and  C8_9 
REMARK    7  A    between atoms: C7_8  and  C15_16 
REMARK    8  A    between atoms: C8_9  and  C9_10 
REMARK       I    between atoms: C15_16  and  N1_18 
REMARK    9  A    between atoms: N1_18  and  C16_20 
REMARK   10  A    between atoms: C16_20  and  C17_21 
REMARK   11  A    between atoms: C16_20  and  C20_28 
REMARK   12  A    between atoms: C17_21  and  C18_22 
REMARK   13  A    between atoms: C18_22  and  C19_23 
REMARK   14  A    between atoms: C19_23  and  N2_24 
ROOT
HETATM    1  C7  UNL     1       2.624  44.298  54.552  1.00  0.00     0.079 C 
ENDROOT
BRANCH   1   2
HETATM    2  C6  UNL     1       3.277  43.207  55.370  1.00  0.00     0.025 C 
BRANCH   2   3
HETATM    3  C5  UNL     1       4.763  43.249  55.329  1.00  0.00     0.092 C 
BRANCH   3   4
HETATM    4  S1  UNL     1       5.452  43.263  56.964  1.00  0.00    -0.053 SA
BRANCH   4   5
HETATM    5  C4  UNL     1       7.186  42.887  56.915  1.00  0.00     0.067 C 
HETATM    6  C3  UNL     1       7.608  42.115  58.138  1.00  0.00     0.048 C 
HETATM    7  C2  UNL     1       7.443  40.634  57.975  1.00  0.00     0.183 C 
HETATM    8  C1  UNL     1       7.885  39.935  59.223  1.00  0.00     0.040 C 
HETATM    9  N5  UNL     1       8.293  40.231  56.853  1.00  0.00    -0.071 N 
HETATM   10  C22 UNL     1       7.668  40.759  55.663  1.00  0.00     0.234 C 
ATOM     11  H52 UNL     1       9.267  40.514  56.960  1.00  0.00     0.277 HD
ATOM     12  H51 UNL     1       8.460  39.225  56.812  1.00  0.00     0.277 HD
HETATM   13  C21 UNL     1       7.623  42.263  55.637  1.00  0.00     0.044 C 
ENDBRANCH   4   5
BRANCH   4  14
HETATM   14  N4  UNL     1       5.160  44.717  57.800  1.00  0.00    -0.094 N 
HETATM   15  O3  UNL     1       5.455  45.801  57.249  1.00  0.00    -0.527 OA
HETATM   16  O4  UNL     1       4.613  44.725  59.057  1.00  0.00    -0.527 OA
ENDBRANCH   4  14
ENDBRANCH   3   4
ENDBRANCH   2   3
ENDBRANCH   1   2
BRANCH   1  17
HETATM   17  C8  UNL     1       1.560  44.939  55.377  1.00  0.00     0.018 C 
BRANCH  17  18
HETATM   18  C9  UNL     1       1.966  45.148  56.826  1.00  0.00    -0.014 C 
HETATM   19  C10 UNL     1       2.116  46.644  57.014  1.00  0.00     0.005 C 
HETATM   20  C11 UNL     1       1.770  47.063  58.427  1.00  0.00     0.000 C 
HETATM   21  C12 UNL     1       0.327  46.772  58.771  1.00  0.00     0.000 C 
HETATM   22  C13 UNL     1      -0.173  45.645  57.896  1.00  0.00     0.000 C 
HETATM   23  C14 UNL     1       0.945  44.623  57.800  1.00  0.00     0.005 C 
ENDBRANCH  17  18
ENDBRANCH   1  17
BRANCH   1  24
HETATM   24  C15 UNL     1       2.143  43.790  53.261  1.00  0.00     0.222 C 
HETATM   25  O1  UNL     1       1.982  42.558  53.108  1.00  0.00    -0.273 OA
HETATM   26  N1  UNL     1       1.858  44.660  52.190  1.00  0.00    -0.348 N 
ATOM     27  H1  UNL     1       1.987  45.666  52.303  1.00  0.00     0.163 HD
BRANCH  26  28
HETATM   28  C16 UNL     1       1.369  44.112  50.890  1.00  0.00     0.173 C 
BRANCH  28  29
HETATM   29  C17 UNL     1       0.275  45.001  50.428  1.00  0.00     0.036 C 
BRANCH  29  30
HETATM   30  C18 UNL     1      -0.799  44.365  49.628  1.00  0.00     0.030 C 
BRANCH  30  31
HETATM   31  C19 UNL     1      -0.372  44.531  48.146  1.00  0.00     0.230 C 
BRANCH  31  32
HETATM   32  N2  UNL     1      -0.096  43.193  47.673  1.00  0.00    -0.079 N 
ATOM     33  H23 UNL     1       0.664  42.730  48.171  1.00  0.00     0.274 HD
ATOM     34  H22 UNL     1      -0.823  42.517  47.908  1.00  0.00     0.274 HD
ATOM     35  H21 UNL     1       0.067  43.288  46.671  1.00  0.00     0.274 HD
ENDBRANCH  31  32
ENDBRANCH  30  31
ENDBRANCH  29  30
ENDBRANCH  28  29
BRANCH  28  36
HETATM   36  C20 UNL     1       2.477  44.072  49.931  1.00  0.00     0.254 C 
HETATM   37  N3  UNL     1       2.885  42.948  49.186  1.00  0.00    -0.060 NA
HETATM   38  O2  UNL     1       3.142  45.149  49.751  1.00  0.00    -0.275 OA
ENDBRANCH  28  36
ENDBRANCH  26  28
ENDBRANCH   1  24
TORSDOF 14
ENDMDL
MODEL 2
REMARK VINA RESULT: -6.954737713      2.019      5.653
REMARK  14 active torsions:
REMARK  status: ('A' for Active; 'I' for Inactive)
REMARK    1  A    between atoms: C4_4  and  S1_5 
REMARK    2  A    between atoms: S1_5  and  C5_6 
REMARK    3  A    between atoms: S1_5  and  N4_31 
REMARK    4  A    between atoms: C5_6  and  C6_7 
REMARK    5  A    between atoms: C6_7  and  C7_8 
REMARK    6  A    between atoms: C7_8  and  C8_9 
REMARK    7  A    between atoms: C7_8  and  C15_16 
REMARK    8  A    between atoms: C8_9  and  C9_10 
REMARK       I    between atoms: C15_16  and  N1_18 
REMARK    9  A    between atoms: N1_18  and  C16_20 
REMARK   10  A    between atoms: C16_20  and  C17_21 
REMARK   11  A    between atoms: C16_20  and  C20_28 
REMARK   12  A    between atoms: C17_21  and  C18_22 
REMARK   13  A    between atoms: C18_22  and  C19_23 
REMARK   14  A    between atoms: C19_23  and  N2_24 
ROOT
HETATM    1  C7  UNL     1       2.782  43.260  54.765  1.00  0.00     0.079 C 
ENDROOT
BRANCH   1   2
HETATM    2  C6  UNL     1       2.904  44.694  55.228  1.00  0.00     0.025 C 
BRANCH   2   3
HETATM    3  C5  UNL     1       2.050  45.009  56.405  1.00  0.00     0.092 C 
BRANCH   3   4
HETATM    4  S1  UNL     1       2.494  46.569  57.124  1.00  0.00    -0.053 SA
BRANCH   4   5
HETATM    5  C4  UNL     1       2.148  46.575  58.865  1.00  0.00     0.067 C 
HETATM    6  C3  UNL     1       2.196  47.973  59.422  1.00  0.00     0.048 C 
HETATM    7  C2  UNL     1       0.880  48.684  59.318  1.00  0.00     0.183 C 
HETATM    8  C1  UNL     1       1.001  50.060  59.893  1.00  0.00     0.040 C 
HETATM    9  N5  UNL     1      -0.087  47.906  60.095  1.00  0.00    -0.071 N 
HETATM   10  C22 UNL     1      -0.317  46.689  59.350  1.00  0.00     0.234 C 
ATOM     11  H52 UNL     1       0.203  47.743  61.058  1.00  0.00     0.277 HD
ATOM     12  H51 UNL     1      -0.943  48.419  60.308  1.00  0.00     0.277 HD
HETATM   13  C21 UNL     1       0.912  45.831  59.228  1.00  0.00     0.044 C 
ENDBRANCH   4   5
BRANCH   4  14
HETATM   14  N4  UNL     1       4.109  47.012  56.814  1.00  0.00    -0.094 N 
HETATM   15  O3  UNL     1       4.337  47.923  55.987  1.00  0.00    -0.527 OA
HETATM   16  O4  UNL     1       5.156  46.396  57.448  1.00  0.00    -0.527 OA
ENDBRANCH   4  14
ENDBRANCH   3   4
ENDBRANCH   2   3
ENDBRANCH   1   2
BRANCH   1  17
HETATM   17  C8  UNL     1       4.135  42.633  54.798  1.00  0.00     0.018 C 
BRANCH  17  18
HETATM   18  C9  UNL     1       5.128  43.390  55.663  1.00  0.00    -0.014 C 
HETATM   19  C10 UNL     1       4.936  42.880  57.077  1.00  0.00     0.005 C 
HETATM   20  C11 UNL     1       6.230  42.921  57.861  1.00  0.00     0.000 C 
HETATM   21  C12 UNL     1       7.287  42.020  57.265  1.00  0.00     0.000 C 
HETATM   22  C13 UNL     1       6.998  41.825  55.794  1.00  0.00     0.000 C 
HETATM   23  C14 UNL     1       6.556  43.168  55.243  1.00  0.00     0.005 C 
ENDBRANCH  17  18
ENDBRANCH   1  17
BRANCH   1  24
HETATM   24  C15 UNL     1       2.122  43.170  53.456  1.00  0.00     0.222 C 
HETATM   25  O1  UNL     1       1.510  42.121  53.149  1.00  0.00    -0.273 OA
HETATM   26  N1  UNL     1       2.162  44.238  52.538  1.00  0.00    -0.348 N 
ATOM     27  H1  UNL     1       2.658  45.097  52.777  1.00  0.00     0.163 HD
BRANCH  26  28
HETATM   28  C16 UNL     1       1.479  44.114  51.216  1.00  0.00     0.173 C 
BRANCH  28  29
HETATM   29  C17 UNL     1       0.553  45.266  51.096  1.00  0.00     0.036 C 
BRANCH  29  30
HETATM   30  C18 UNL     1      -0.126  45.433  49.789  1.00  0.00     0.030 C 
BRANCH  30  31
HETATM   31  C19 UNL     1      -0.827  44.079  49.505  1.00  0.00     0.230 C 
BRANCH  31  32
HETATM   32  N2  UNL     1      -0.408  43.700  48.175  1.00  0.00    -0.079 N 
ATOM     33  H23 UNL     1      -0.109  44.488  47.598  1.00  0.00     0.274 HD
ATOM     34  H22 UNL     1       0.477  43.192  48.152  1.00  0.00     0.274 HD
ATOM     35  H21 UNL     1      -1.191  43.178  47.781  1.00  0.00     0.274 HD
ENDBRANCH  31  32
ENDBRANCH  30  31
ENDBRANCH  29  30
ENDBRANCH  28  29
BRANCH  28  36
HETATM   36  C20 UNL     1       2.485  44.112  50.148  1.00  0.00     0.254 C 
HETATM   37  N3  UNL     1       2.766  43.039  49.280  1.00  0.00    -0.060 NA
HETATM   38  O2  UNL     1       3.176  45.175  49.985  1.00  0.00    -0.275 OA
ENDBRANCH  28  36
ENDBRANCH  26  28
ENDBRANCH   1  24
TORSDOF 14
ENDMDL
MODEL 3
REMARK VINA RESULT: -6.859419105      4.055      5.733
REMARK  14 active torsions:
REMARK  status: ('A' for Active; 'I' for Inactive)
REMARK    1  A    between atoms: C4_4  and  S1_5 
REMARK    2  A    between atoms: S1_5  and  C5_6 
REMARK    3  A    between atoms: S1_5  and  N4_31 
REMARK    4  A    between atoms: C5_6  and  C6_7 
REMARK    5  A    between atoms: C6_7  and  C7_8 
REMARK    6  A    between atoms: C7_8  and  C8_9 
REMARK    7  A    between atoms: C7_8  and  C15_16 
REMARK    8  A    between atoms: C8_9  and  C9_10 
REMARK       I    between atoms: C15_16  and  N1_18 
REMARK    9  A    between atoms: N1_18  and  C16_20 
REMARK   10  A    between atoms: C16_20  and  C17_21 
REMARK   11  A    between atoms: C16_20  and  C20_28 
REMARK   12  A    between atoms: C17_21  and  C18_22 
REMARK   13  A    between atoms: C18_22  and  C19_23 
REMARK   14  A    between atoms: C19_23  and  N2_24 
ROOT
HETATM    1  C7  UNL     1       2.967  47.065  56.972  1.00  0.00     0.079 C 
ENDROOT
BRANCH   1   2
HETATM    2  C6  UNL     1       4.105  46.839  57.940  1.00  0.00     0.025 C 
BRANCH   2   3
HETATM    3  C5  UNL     1       5.226  47.802  57.768  1.00  0.00     0.092 C 
BRANCH   3   4
HETATM    4  S1  UNL     1       6.273  47.833  59.200  1.00  0.00    -0.053 SA
BRANCH   4   5
HETATM    5  C4  UNL     1       7.953  48.172  58.738  1.00  0.00     0.067 C 
HETATM    6  C3  UNL     1       8.728  46.895  58.541  1.00  0.00     0.048 C 
HETATM    7  C2  UNL     1       8.618  46.359  57.146  1.00  0.00     0.183 C 
HETATM    8  C1  UNL     1       9.414  45.098  57.024  1.00  0.00     0.040 C 
HETATM    9  N5  UNL     1       9.167  47.380  56.252  1.00  0.00    -0.071 N 
HETATM   10  C22 UNL     1       8.220  48.471  56.255  1.00  0.00     0.234 C 
ATOM     11  H52 UNL     1      10.115  47.666  56.496  1.00  0.00     0.277 HD
ATOM     12  H51 UNL     1       9.380  47.030  55.318  1.00  0.00     0.277 HD
HETATM   13  C21 UNL     1       8.077  49.125  57.603  1.00  0.00     0.044 C 
ENDBRANCH   4   5
BRANCH   4  14
HETATM   14  N4  UNL     1       5.733  48.915  60.399  1.00  0.00    -0.094 N 
HETATM   15  O3  UNL     1       4.508  48.976  60.652  1.00  0.00    -0.527 OA
HETATM   16  O4  UNL     1       6.606  49.715  61.090  1.00  0.00    -0.527 OA
ENDBRANCH   4  14
ENDBRANCH   3   4
ENDBRANCH   2   3
ENDBRANCH   1   2
BRANCH   1  17
HETATM   17  C8  UNL     1       1.730  47.360  57.752  1.00  0.00     0.018 C 
BRANCH  17  18
HETATM   18  C9  UNL     1       1.329  46.235  58.691  1.00  0.00    -0.014 C 
HETATM   19  C10 UNL     1       0.864  46.896  59.973  1.00  0.00     0.005 C 
HETATM   20  C11 UNL     1      -0.209  46.080  60.660  1.00  0.00     0.000 C 
HETATM   21  C12 UNL     1      -1.457  45.952  59.816  1.00  0.00     0.000 C 
HETATM   22  C13 UNL     1      -1.089  46.122  58.360  1.00  0.00     0.000 C 
HETATM   23  C14 UNL     1       0.217  45.382  58.139  1.00  0.00     0.005 C 
ENDBRANCH  17  18
ENDBRANCH   1  17
BRANCH   1  24
HETATM   24  C15 UNL     1       2.820  45.940  56.038  1.00  0.00     0.222 C 
HETATM   25  O1  UNL     1       2.109  46.080  55.017  1.00  0.00    -0.273 OA
HETATM   26  N1  UNL     1       3.463  44.708  56.266  1.00  0.00    -0.348 N 
ATOM     27  H1  UNL     1       4.045  44.582  57.095  1.00  0.00     0.163 HD
BRANCH  26  28
HETATM   28  C16 UNL     1       3.295  43.585  55.297  1.00  0.00     0.173 C 
BRANCH  28  29
HETATM   29  C17 UNL     1       4.612  42.914  55.176  1.00  0.00     0.036 C 
BRANCH  29  30
HETATM   30  C18 UNL     1       5.599  43.201  56.245  1.00  0.00     0.030 C 
BRANCH  30  31
HETATM   31  C19 UNL     1       6.946  42.621  55.738  1.00  0.00     0.230 C 
BRANCH  31  32
HETATM   32  N2  UNL     1       6.620  41.887  54.536  1.00  0.00    -0.079 N 
ATOM     33  H23 UNL     1       5.758  42.197  54.087  1.00  0.00     0.274 HD
ATOM     34  H22 UNL     1       7.242  42.086  53.752  1.00  0.00     0.274 HD
ATOM     35  H21 UNL     1       6.609  40.905  54.813  1.00  0.00     0.274 HD
ENDBRANCH  31  32
ENDBRANCH  30  31
ENDBRANCH  29  30
ENDBRANCH  28  29
BRANCH  28  36
HETATM   36  C20 UNL     1       2.261  42.668  55.789  1.00  0.00     0.254 C 
HETATM   37  N3  UNL     1       2.014  42.350  57.138  1.00  0.00    -0.060 NA
HETATM   38  O2  UNL     1       1.515  42.098  54.921  1.00  0.00    -0.275 OA
ENDBRANCH  28  36
ENDBRANCH  26  28
ENDBRANCH   1  24
TORSDOF 14
ENDMDL
MODEL 4
REMARK VINA RESULT: -6.782535663      4.250      6.093
REMARK  14 active torsions:
REMARK  status: ('A' for Active; 'I' for Inactive)
REMARK    1  A    between atoms: C4_4  and  S1_5 
REMARK    2  A    between atoms: S1_5  and  C5_6 
REMARK    3  A    between atoms: S1_5  and  N4_31 
REMARK    4  A    between atoms: C5_6  and  C6_7 
REMARK    5  A    between atoms: C6_7  and  C7_8 
REMARK    6  A    between atoms: C7_8  and  C8_9 
REMARK    7  A    between atoms: C7_8  and  C15_16 
REMARK    8  A    between atoms: C8_9  and  C9_10 
REMARK       I    between atoms: C15_16  and  N1_18 
REMARK    9  A    between atoms: N1_18  and  C16_20 
REMARK   10  A    between atoms: C16_20  and  C17_21 
REMARK   11  A    between atoms: C16_20  and  C20_28 
REMARK   12  A    between atoms: C17_21  and  C18_22 
REMARK   13  A    between atoms: C18_22  and  C19_23 
REMARK   14  A    between atoms: C19_23  and  N2_24 
ROOT
HETATM    1  C7  UNL     1       3.348  47.135  57.539  1.00  0.00     0.079 C 
ENDROOT
BRANCH   1   2
HETATM    2  C6  UNL     1       4.657  46.946  58.271  1.00  0.00     0.025 C 
BRANCH   2   3
HETATM    3  C5  UNL     1       5.590  48.094  58.116  1.00  0.00     0.092 C 
BRANCH   3   4
HETATM    4  S1  UNL     1       6.794  48.125  59.419  1.00  0.00    -0.053 SA
BRANCH   4   5
HETATM    5  C4  UNL     1       8.433  48.260  58.752  1.00  0.00     0.067 C 
HETATM    6  C3  UNL     1       9.037  46.899  58.523  1.00  0.00     0.048 C 
HETATM    7  C2  UNL     1       8.705  46.336  57.175  1.00  0.00     0.183 C 
HETATM    8  C1  UNL     1       9.341  44.991  57.017  1.00  0.00     0.040 C 
HETATM    9  N5  UNL     1       9.250  47.262  56.179  1.00  0.00    -0.071 N 
HETATM   10  C22 UNL     1       8.432  48.451  56.244  1.00  0.00     0.234 C 
ATOM     11  H52 UNL     1      10.245  47.447  56.300  1.00  0.00     0.277 HD
ATOM     12  H51 UNL     1       9.311  46.861  55.243  1.00  0.00     0.277 HD
HETATM   13  C21 UNL     1       8.522  49.158  57.570  1.00  0.00     0.044 C 
ENDBRANCH   4   5
BRANCH   4  14
HETATM   14  N4  UNL     1       6.496  49.340  60.575  1.00  0.00    -0.094 N 
HETATM   15  O3  UNL     1       7.361  50.226  60.757  1.00  0.00    -0.527 OA
HETATM   16  O4  UNL     1       5.336  49.368  61.305  1.00  0.00    -0.527 OA
ENDBRANCH   4  14
ENDBRANCH   3   4
ENDBRANCH   2   3
ENDBRANCH   1   2
BRANCH   1  17
HETATM   17  C8  UNL     1       2.246  47.201  58.543  1.00  0.00     0.018 C 
BRANCH  17  18
HETATM   18  C9  UNL     1       2.334  48.415  59.452  1.00  0.00    -0.014 C 
HETATM   19  C10 UNL     1       1.221  49.349  59.023  1.00  0.00     0.005 C 
HETATM   20  C11 UNL     1       0.693  50.156  60.189  1.00  0.00     0.000 C 
HETATM   21  C12 UNL     1       0.074  49.281  61.254  1.00  0.00     0.000 C 
HETATM   22  C13 UNL     1       0.675  47.897  61.169  1.00  0.00     0.000 C 
HETATM   23  C14 UNL     1       2.160  48.069  60.907  1.00  0.00     0.005 C 
ENDBRANCH  17  18
ENDBRANCH   1  17
BRANCH   1  24
HETATM   24  C15 UNL     1       3.148  46.103  56.513  1.00  0.00     0.222 C 
HETATM   25  O1  UNL     1       2.601  46.413  55.430  1.00  0.00    -0.273 OA
HETATM   26  N1  UNL     1       3.560  44.772  56.721  1.00  0.00    -0.348 N 
ATOM     27  H1  UNL     1       4.006  44.508  57.600  1.00  0.00     0.163 HD
BRANCH  26  28
HETATM   28  C16 UNL     1       3.343  43.747  55.657  1.00  0.00     0.173 C 
BRANCH  28  29
HETATM   29  C17 UNL     1       4.652  43.092  55.413  1.00  0.00     0.036 C 
BRANCH  29  30
HETATM   30  C18 UNL     1       5.687  43.277  56.458  1.00  0.00     0.030 C 
BRANCH  30  31
HETATM   31  C19 UNL     1       6.895  42.412  56.008  1.00  0.00     0.230 C 
BRANCH  31  32
HETATM   32  N2  UNL     1       6.663  42.126  54.611  1.00  0.00    -0.079 N 
ATOM     33  H23 UNL     1       5.887  41.485  54.446  1.00  0.00     0.274 HD
ATOM     34  H22 UNL     1       6.281  42.914  54.088  1.00  0.00     0.274 HD
ATOM     35  H21 UNL     1       7.557  41.790  54.251  1.00  0.00     0.274 HD
ENDBRANCH  31  32
ENDBRANCH  30  31
ENDBRANCH  29  30
ENDBRANCH  28  29
BRANCH  28  36
HETATM   36  C20 UNL     1       2.331  42.786  56.106  1.00  0.00     0.254 C 
HETATM   37  N3  UNL     1       2.077  42.416  57.440  1.00  0.00    -0.060 NA
HETATM   38  O2  UNL     1       1.610  42.225  55.210  1.00  0.00    -0.275 OA
ENDBRANCH  28  36
ENDBRANCH  26  28
ENDBRANCH   1  24
TORSDOF 14
ENDMDL
MODEL 5
REMARK VINA RESULT: -6.664013612      0.974      1.561
REMARK  14 active torsions:
REMARK  status: ('A' for Active; 'I' for Inactive)
REMARK    1  A    between atoms: C4_4  and  S1_5 
REMARK    2  A    between atoms: S1_5  and  C5_6 
REMARK    3  A    between atoms: S1_5  and  N4_31 
REMARK    4  A    between atoms: C5_6  and  C6_7 
REMARK    5  A    between atoms: C6_7  and  C7_8 
REMARK    6  A    between atoms: C7_8  and  C8_9 
REMARK    7  A    between atoms: C7_8  and  C15_16 
REMARK    8  A    between atoms: C8_9  and  C9_10 
REMARK       I    between atoms: C15_16  and  N1_18 
REMARK    9  A    between atoms: N1_18  and  C16_20 
REMARK   10  A    between atoms: C16_20  and  C17_21 
REMARK   11  A    between atoms: C16_20  and  C20_28 
REMARK   12  A    between atoms: C17_21  and  C18_22 
REMARK   13  A    between atoms: C18_22  and  C19_23 
REMARK   14  A    between atoms: C19_23  and  N2_24 
ROOT
HETATM    1  C7  UNL     1       2.646  44.277  54.575  1.00  0.00     0.079 C 
ENDROOT
BRANCH   1   2
HETATM    2  C6  UNL     1       3.213  43.159  55.420  1.00  0.00     0.025 C 
BRANCH   2   3
HETATM    3  C5  UNL     1       4.659  43.325  55.725  1.00  0.00     0.092 C 
BRANCH   3   4
HETATM    4  S1  UNL     1       4.940  43.439  57.473  1.00  0.00    -0.053 SA
BRANCH   4   5
HETATM    5  C4  UNL     1       6.183  42.279  57.983  1.00  0.00     0.067 C 
HETATM    6  C3  UNL     1       7.175  42.028  56.878  1.00  0.00     0.048 C 
HETATM    7  C2  UNL     1       8.310  43.006  56.884  1.00  0.00     0.183 C 
HETATM    8  C1  UNL     1       9.254  42.694  55.766  1.00  0.00     0.040 C 
HETATM    9  N5  UNL     1       8.996  42.857  58.168  1.00  0.00    -0.071 N 
HETATM   10  C22 UNL     1       8.101  43.393  59.169  1.00  0.00     0.234 C 
ATOM     11  H52 UNL     1       9.293  41.900  58.360  1.00  0.00     0.277 HD
ATOM     12  H51 UNL     1       9.924  43.281  58.185  1.00  0.00     0.277 HD
HETATM   13  C21 UNL     1       6.816  42.620  59.286  1.00  0.00     0.044 C 
ENDBRANCH   4   5
BRANCH   4  14
HETATM   14  N4  UNL     1       5.319  45.016  57.988  1.00  0.00    -0.094 N 
HETATM   15  O3  UNL     1       6.077  45.718  57.280  1.00  0.00    -0.527 OA
HETATM   16  O4  UNL     1       4.816  45.531  59.155  1.00  0.00    -0.527 OA
ENDBRANCH   4  14
ENDBRANCH   3   4
ENDBRANCH   2   3
ENDBRANCH   1   2
BRANCH   1  17
HETATM   17  C8  UNL     1       1.607  44.994  55.369  1.00  0.00     0.018 C 
BRANCH  17  18
HETATM   18  C9  UNL     1       2.004  45.213  56.819  1.00  0.00    -0.014 C 
HETATM   19  C10 UNL     1       2.140  46.711  57.002  1.00  0.00     0.005 C 
HETATM   20  C11 UNL     1       1.783  47.133  58.410  1.00  0.00     0.000 C 
HETATM   21  C12 UNL     1       0.341  46.832  58.748  1.00  0.00     0.000 C 
HETATM   22  C13 UNL     1      -0.145  45.698  57.876  1.00  0.00     0.000 C 
HETATM   23  C14 UNL     1       0.982  44.684  57.790  1.00  0.00     0.005 C 
ENDBRANCH  17  18
ENDBRANCH   1  17
BRANCH   1  24
HETATM   24  C15 UNL     1       2.161  43.783  53.280  1.00  0.00     0.222 C 
HETATM   25  O1  UNL     1       1.991  42.553  53.118  1.00  0.00    -0.273 OA
HETATM   26  N1  UNL     1       1.880  44.663  52.216  1.00  0.00    -0.348 N 
ATOM     27  H1  UNL     1       2.015  45.667  52.337  1.00  0.00     0.163 HD
BRANCH  26  28
HETATM   28  C16 UNL     1       1.386  44.129  50.913  1.00  0.00     0.173 C 
BRANCH  28  29
HETATM   29  C17 UNL     1       0.314  45.041  50.448  1.00  0.00     0.036 C 
BRANCH  29  30
HETATM   30  C18 UNL     1      -0.774  44.428  49.649  1.00  0.00     0.030 C 
BRANCH  30  31
HETATM   31  C19 UNL     1      -0.330  44.555  48.168  1.00  0.00     0.230 C 
BRANCH  31  32
HETATM   32  N2  UNL     1      -0.099  43.201  47.718  1.00  0.00    -0.079 N 
ATOM     33  H23 UNL     1       0.878  43.001  47.502  1.00  0.00     0.274 HD
ATOM     34  H22 UNL     1      -0.205  42.501  48.452  1.00  0.00     0.274 HD
ATOM     35  H21 UNL     1      -0.730  43.067  46.928  1.00  0.00     0.274 HD
ENDBRANCH  31  32
ENDBRANCH  30  31
ENDBRANCH  29  30
ENDBRANCH  28  29
BRANCH  28  36
HETATM   36  C20 UNL     1       2.499  44.068  49.959  1.00  0.00     0.254 C 
HETATM   37  N3  UNL     1       2.898  42.933  49.227  1.00  0.00    -0.060 NA
HETATM   38  O2  UNL     1       3.176  45.136  49.772  1.00  0.00    -0.275 OA
ENDBRANCH  28  36
ENDBRANCH  26  28
ENDBRANCH   1  24
TORSDOF 14
ENDMDL
