MODEL 1
REMARK VINA RESULT: -7.057968266      0.000      0.000
REMARK  17 active torsions:
REMARK  status: ('A' for Active; 'I' for Inactive)
REMARK    1  A    between atoms: C6_6  and  C7_7 
REMARK    2  A    between atoms: C7_7  and  C8_8 
REMARK    3  A    between atoms: C8_8  and  N1_9 
REMARK    4  A    between atoms: C8_8  and  C18_26 
REMARK    5  A    between atoms: N1_9  and  C9_12 
REMARK    6  A    between atoms: C9_12  and  C10_13 
REMARK    7  A    between atoms: C10_13  and  C11_15 
REMARK    8  A    between atoms: C11_15  and  O2_16 
REMARK    9  A    between atoms: C11_15  and  N2_18 
REMARK   10  A    between atoms: N2_18  and  C12_20 
REMARK   11  A    between atoms: C18_26  and  N3_28 
REMARK       I    between atoms: N3_28  and  C20_30 
REMARK   12  A    between atoms: C20_30  and  C21_32 
REMARK   13  A    between atoms: C21_32  and  C22_33 
REMARK   14  A    between atoms: C22_33  and  N4_34 
REMARK   15  A    between atoms: C22_33  and  C23_38 
REMARK   16  A    between atoms: C23_38  and  C24_39 
REMARK   17  A    between atoms: C24_39  and  S1_40 
ROOT
HETATM    1  C8  UNL     1       3.272  44.681  55.651  1.00  0.00     0.231 C 
ENDROOT
BRANCH   1   2
HETATM    2  C7  UNL     1       3.930  43.477  56.166  1.00  0.00     0.015 C 
BRANCH   2   3
HETATM    3  C6  UNL     1       5.381  43.318  56.180  1.00  0.00    -0.054 C 
HETATM    4  C2  UNL     1       6.023  42.856  57.420  1.00  0.00    -0.061 C 
HETATM    5  C1  UNL     1       5.642  43.075  58.666  1.00  0.00     0.019 C 
HETATM    6  C3  UNL     1       7.207  42.072  57.005  1.00  0.00     0.038 C 
HETATM    7  C4  UNL     1       7.500  42.605  55.620  1.00  0.00     0.009 C 
HETATM    8  C5  UNL     1       6.054  42.623  55.040  1.00  0.00     0.039 C 
ENDBRANCH   2   3
ENDBRANCH   1   2
BRANCH   1   9
HETATM    9  N1  UNL     1       2.077  44.282  54.864  1.00  0.00    -0.059 N 
ATOM     10  H12 UNL     1       2.108  43.285  54.651  1.00  0.00     0.278 HD
ATOM     11  H11 UNL     1       1.241  44.312  55.448  1.00  0.00     0.278 HD
BRANCH   9  12
HETATM   12  C9  UNL     1       1.876  45.029  53.683  1.00  0.00     0.316 C 
BRANCH  12  13
HETATM   13  C10 UNL     1       1.856  44.096  52.496  1.00  0.00     0.200 C 
HETATM   14  O1  UNL     1       1.959  42.901  52.671  1.00  0.00    -0.291 OA
BRANCH  13  15
HETATM   15  C11 UNL     1       1.712  44.621  51.091  1.00  0.00     0.286 C 
BRANCH  15  16
HETATM   16  O2  UNL     1       1.772  45.988  51.151  1.00  0.00    -0.370 OA
ATOM     17  H2  UNL     1       2.548  46.264  50.677  1.00  0.00     0.212 HD
ENDBRANCH  15  16
BRANCH  15  18
HETATM   18  N2  UNL     1       0.563  44.035  50.511  1.00  0.00    -0.387 N 
ATOM     19  H2  UNL     1      -0.109  43.526  51.086  1.00  0.00     0.156 HD
BRANCH  18  20
HETATM   20  C12 UNL     1       0.366  44.168  49.115  1.00  0.00     0.079 C 
HETATM   21  C13 UNL     1      -1.061  43.699  48.809  1.00  0.00     0.025 C 
HETATM   22  C14 UNL     1      -1.495  44.348  47.539  1.00  0.00     0.002 C 
HETATM   23  C15 UNL     1      -0.273  44.582  46.669  1.00  0.00     0.000 C 
HETATM   24  C16 UNL     1       0.665  43.405  46.814  1.00  0.00     0.002 C 
HETATM   25  C17 UNL     1       1.308  43.473  48.207  1.00  0.00     0.025 C 
ENDBRANCH  18  20
ENDBRANCH  15  18
ENDBRANCH  13  15
ENDBRANCH  12  13
ENDBRANCH   9  12
ENDBRANCH   1   9
BRANCH   1  26
HETATM   26  C18 UNL     1       2.776  45.710  56.598  1.00  0.00     0.114 C 
HETATM   27  C19 UNL     1       3.535  46.985  56.602  1.00  0.00     0.034 C 
BRANCH  26  28
HETATM   28  N3  UNL     1       2.742  45.168  57.975  1.00  0.00    -0.354 N 
HETATM   29  C20 UNL     1       1.565  44.592  58.496  1.00  0.00     0.220 C 
HETATM   30  O3  UNL     1       0.495  44.533  57.794  1.00  0.00    -0.274 OA
ATOM     31  H3  UNL     1       3.580  45.213  58.554  1.00  0.00     0.162 HD
BRANCH  29  32
HETATM   32  C21 UNL     1       1.506  44.031  59.860  1.00  0.00     0.135 C 
BRANCH  32  33
HETATM   33  C22 UNL     1       0.903  42.635  59.783  1.00  0.00     0.193 C 
BRANCH  33  34
HETATM   34  N4  UNL     1       1.535  41.930  58.715  1.00  0.00    -0.075 N 
ATOM     35  H43 UNL     1       1.518  42.450  57.838  1.00  0.00     0.274 HD
ATOM     36  H42 UNL     1       2.548  41.876  58.825  1.00  0.00     0.274 HD
ATOM     37  H41 UNL     1       1.100  41.011  58.634  1.00  0.00     0.274 HD
ENDBRANCH  33  34
BRANCH  33  38
HETATM   38  C23 UNL     1       1.045  41.876  61.062  1.00  0.00     0.043 C 
BRANCH  38  39
HETATM   39  C24 UNL     1       2.231  40.984  61.177  1.00  0.00     0.075 C 
BRANCH  39  40
HETATM   40  S1  UNL     1       2.025  39.611  62.313  1.00  0.00    -0.173 SA
HETATM   41  C25 UNL     1       0.514  38.661  61.969  1.00  0.00     0.089 C 
ENDBRANCH  39  40
ENDBRANCH  38  39
ENDBRANCH  33  38
ENDBRANCH  32  33
ENDBRANCH  29  32
ENDBRANCH  26  28
ENDBRANCH   1  26
TORSDOF 17
ENDMDL
MODEL 2
REMARK VINA RESULT: -7.054091442      2.675      3.713
REMARK  17 active torsions:
REMARK  status: ('A' for Active; 'I' for Inactive)
REMARK    1  A    between atoms: C6_6  and  C7_7 
REMARK    2  A    between atoms: C7_7  and  C8_8 
REMARK    3  A    between atoms: C8_8  and  N1_9 
REMARK    4  A    between atoms: C8_8  and  C18_26 
REMARK    5  A    between atoms: N1_9  and  C9_12 
REMARK    6  A    between atoms: C9_12  and  C10_13 
REMARK    7  A    between atoms: C10_13  and  C11_15 
REMARK    8  A    between atoms: C11_15  and  O2_16 
REMARK    9  A    between atoms: C11_15  and  N2_18 
REMARK   10  A    between atoms: N2_18  and  C12_20 
REMARK   11  A    between atoms: C18_26  and  N3_28 
REMARK       I    between atoms: N3_28  and  C20_30 
REMARK   12  A    between atoms: C20_30  and  C21_32 
REMARK   13  A    between atoms: C21_32  and  C22_33 
REMARK   14  A    between atoms: C22_33  and  N4_34 
REMARK   15  A    between atoms: C22_33  and  C23_38 
REMARK   16  A    between atoms: C23_38  and  C24_39 
REMARK   17  A    between atoms: C24_39  and  S1_40 
ROOT
HETATM    1  C8  UNL     1       3.165  44.322  55.816  1.00  0.00     0.231 C 
ENDROOT
BRANCH   1   2
HETATM    2  C7  UNL     1       4.035  43.143  55.798  1.00  0.00     0.015 C 
BRANCH   2   3
HETATM    3  C6  UNL     1       5.479  43.228  55.992  1.00  0.00    -0.054 C 
HETATM    4  C2  UNL     1       6.030  42.877  57.310  1.00  0.00    -0.061 C 
HETATM    5  C1  UNL     1       5.466  43.027  58.496  1.00  0.00     0.019 C 
HETATM    6  C3  UNL     1       7.370  42.302  57.058  1.00  0.00     0.038 C 
HETATM    7  C4  UNL     1       7.739  42.879  55.710  1.00  0.00     0.009 C 
HETATM    8  C5  UNL     1       6.394  42.657  54.957  1.00  0.00     0.039 C 
ENDBRANCH   2   3
ENDBRANCH   1   2
BRANCH   1   9
HETATM    9  N1  UNL     1       2.027  44.100  54.887  1.00  0.00    -0.059 N 
ATOM     10  H12 UNL     1       1.963  43.115  54.632  1.00  0.00     0.278 HD
ATOM     11  H11 UNL     1       1.140  44.212  55.379  1.00  0.00     0.278 HD
BRANCH   9  12
HETATM   12  C9  UNL     1       2.050  44.907  53.729  1.00  0.00     0.316 C 
BRANCH  12  13
HETATM   13  C10 UNL     1       1.911  44.032  52.505  1.00  0.00     0.200 C 
HETATM   14  O1  UNL     1       1.952  42.826  52.623  1.00  0.00    -0.291 OA
BRANCH  13  15
HETATM   15  C11 UNL     1       1.724  44.628  51.135  1.00  0.00     0.286 C 
BRANCH  15  16
HETATM   16  O2  UNL     1       1.764  45.991  51.267  1.00  0.00    -0.370 OA
ATOM     17  H2  UNL     1       0.874  46.315  51.188  1.00  0.00     0.212 HD
ENDBRANCH  15  16
BRANCH  15  18
HETATM   18  N2  UNL     1       0.570  44.055  50.552  1.00  0.00    -0.387 N 
ATOM     19  H2  UNL     1      -0.110  43.556  51.126  1.00  0.00     0.156 HD
BRANCH  18  20
HETATM   20  C12 UNL     1       0.379  44.188  49.156  1.00  0.00     0.079 C 
HETATM   21  C13 UNL     1      -1.030  43.675  48.837  1.00  0.00     0.025 C 
HETATM   22  C14 UNL     1      -1.474  44.315  47.566  1.00  0.00     0.002 C 
HETATM   23  C15 UNL     1      -0.254  44.590  46.706  1.00  0.00     0.000 C 
HETATM   24  C16 UNL     1       0.719  43.443  46.854  1.00  0.00     0.002 C 
HETATM   25  C17 UNL     1       1.349  43.526  48.252  1.00  0.00     0.025 C 
ENDBRANCH  18  20
ENDBRANCH  15  18
ENDBRANCH  13  15
ENDBRANCH  12  13
ENDBRANCH   9  12
ENDBRANCH   1   9
BRANCH   1  26
HETATM   26  C18 UNL     1       2.536  44.752  57.089  1.00  0.00     0.114 C 
HETATM   27  C19 UNL     1       1.113  44.366  57.254  1.00  0.00     0.034 C 
BRANCH  26  28
HETATM   28  N3  UNL     1       2.657  46.218  57.254  1.00  0.00    -0.354 N 
HETATM   29  C20 UNL     1       2.660  46.804  58.537  1.00  0.00     0.220 C 
HETATM   30  O3  UNL     1       2.548  46.081  59.589  1.00  0.00    -0.274 OA
ATOM     31  H3  UNL     1       2.738  46.812  56.429  1.00  0.00     0.162 HD
BRANCH  29  32
HETATM   32  C21 UNL     1       2.793  48.260  58.732  1.00  0.00     0.135 C 
BRANCH  32  33
HETATM   33  C22 UNL     1       1.400  48.872  58.770  1.00  0.00     0.193 C 
BRANCH  33  34
HETATM   34  N4  UNL     1       0.448  47.818  58.901  1.00  0.00    -0.075 N 
ATOM     35  H43 UNL     1      -0.458  48.146  59.234  1.00  0.00     0.274 HD
ATOM     36  H42 UNL     1       0.140  47.453  57.999  1.00  0.00     0.274 HD
ATOM     37  H41 UNL     1       0.847  47.095  59.499  1.00  0.00     0.274 HD
ENDBRANCH  33  34
BRANCH  33  38
HETATM   38  C23 UNL     1       1.236  49.860  59.879  1.00  0.00     0.043 C 
BRANCH  38  39
HETATM   39  C24 UNL     1       2.223  49.781  60.990  1.00  0.00     0.075 C 
BRANCH  39  40
HETATM   40  S1  UNL     1       1.756  48.679  62.327  1.00  0.00    -0.173 SA
HETATM   41  C25 UNL     1      -0.043  48.642  62.583  1.00  0.00     0.089 C 
ENDBRANCH  39  40
ENDBRANCH  38  39
ENDBRANCH  33  38
ENDBRANCH  32  33
ENDBRANCH  29  32
ENDBRANCH  26  28
ENDBRANCH   1  26
TORSDOF 17
ENDMDL
MODEL 3
REMARK VINA RESULT: -7.041830556      2.410      4.812
REMARK  17 active torsions:
REMARK  status: ('A' for Active; 'I' for Inactive)
REMARK    1  A    between atoms: C6_6  and  C7_7 
REMARK    2  A    between atoms: C7_7  and  C8_8 
REMARK    3  A    between atoms: C8_8  and  N1_9 
REMARK    4  A    between atoms: C8_8  and  C18_26 
REMARK    5  A    between atoms: N1_9  and  C9_12 
REMARK    6  A    between atoms: C9_12  and  C10_13 
REMARK    7  A    between atoms: C10_13  and  C11_15 
REMARK    8  A    between atoms: C11_15  and  O2_16 
REMARK    9  A    between atoms: C11_15  and  N2_18 
REMARK   10  A    between atoms: N2_18  and  C12_20 
REMARK   11  A    between atoms: C18_26  and  N3_28 
REMARK       I    between atoms: N3_28  and  C20_30 
REMARK   12  A    between atoms: C20_30  and  C21_32 
REMARK   13  A    between atoms: C21_32  and  C22_33 
REMARK   14  A    between atoms: C22_33  and  N4_34 
REMARK   15  A    between atoms: C22_33  and  C23_38 
REMARK   16  A    between atoms: C23_38  and  C24_39 
REMARK   17  A    between atoms: C24_39  and  S1_40 
ROOT
HETATM    1  C8  UNL     1       2.251  44.271  56.178  1.00  0.00     0.231 C 
ENDROOT
BRANCH   1   2
HETATM    2  C7  UNL     1       2.778  45.638  56.176  1.00  0.00     0.015 C 
BRANCH   2   3
HETATM    3  C6  UNL     1       2.449  46.610  57.213  1.00  0.00    -0.054 C 
HETATM    4  C2  UNL     1       1.278  46.355  58.067  1.00  0.00    -0.061 C 
HETATM    5  C1  UNL     1       0.160  45.727  57.750  1.00  0.00     0.019 C 
HETATM    6  C3  UNL     1       1.594  46.942  59.388  1.00  0.00     0.038 C 
HETATM    7  C4  UNL     1       2.643  47.979  59.057  1.00  0.00     0.009 C 
HETATM    8  C5  UNL     1       3.535  47.146  58.090  1.00  0.00     0.039 C 
ENDBRANCH   2   3
ENDBRANCH   1   2
BRANCH   1   9
HETATM    9  N1  UNL     1       2.198  43.769  54.781  1.00  0.00    -0.059 N 
ATOM     10  H12 UNL     1       3.023  43.207  54.574  1.00  0.00     0.278 HD
ATOM     11  H11 UNL     1       1.473  43.057  54.686  1.00  0.00     0.278 HD
BRANCH   9  12
HETATM   12  C9  UNL     1       2.031  44.772  53.803  1.00  0.00     0.316 C 
BRANCH  12  13
HETATM   13  C10 UNL     1       1.908  44.131  52.441  1.00  0.00     0.200 C 
HETATM   14  O1  UNL     1       1.961  42.924  52.340  1.00  0.00    -0.291 OA
BRANCH  13  15
HETATM   15  C11 UNL     1       1.724  44.963  51.199  1.00  0.00     0.286 C 
BRANCH  15  16
HETATM   16  O2  UNL     1       2.001  46.264  51.526  1.00  0.00    -0.370 OA
ATOM     17  H2  UNL     1       2.150  46.739  50.716  1.00  0.00     0.212 HD
ENDBRANCH  15  16
BRANCH  15  18
HETATM   18  N2  UNL     1       0.451  44.675  50.654  1.00  0.00    -0.387 N 
ATOM     19  H2  UNL     1      -0.365  44.583  51.258  1.00  0.00     0.156 HD
BRANCH  18  20
HETATM   20  C12 UNL     1       0.334  44.518  49.251  1.00  0.00     0.079 C 
HETATM   21  C13 UNL     1      -1.029  43.874  48.976  1.00  0.00     0.025 C 
HETATM   22  C14 UNL     1      -1.429  44.224  47.584  1.00  0.00     0.002 C 
HETATM   23  C15 UNL     1      -0.175  44.392  46.744  1.00  0.00     0.000 C 
HETATM   24  C16 UNL     1       0.839  43.354  47.164  1.00  0.00     0.002 C 
HETATM   25  C17 UNL     1       1.384  43.746  48.545  1.00  0.00     0.025 C 
ENDBRANCH  18  20
ENDBRANCH  15  18
ENDBRANCH  13  15
ENDBRANCH  12  13
ENDBRANCH   9  12
ENDBRANCH   1   9
BRANCH   1  26
HETATM   26  C18 UNL     1       2.960  43.210  56.935  1.00  0.00     0.114 C 
HETATM   27  C19 UNL     1       2.294  42.774  58.187  1.00  0.00     0.034 C 
BRANCH  26  28
HETATM   28  N3  UNL     1       4.341  43.639  57.251  1.00  0.00    -0.354 N 
HETATM   29  C20 UNL     1       5.400  43.387  56.355  1.00  0.00     0.220 C 
HETATM   30  O3  UNL     1       5.193  42.771  55.250  1.00  0.00    -0.274 OA
ATOM     31  H3  UNL     1       4.529  44.123  58.129  1.00  0.00     0.162 HD
BRANCH  29  32
HETATM   32  C21 UNL     1       6.783  43.816  56.637  1.00  0.00     0.135 C 
BRANCH  32  33
HETATM   33  C22 UNL     1       7.739  42.825  55.985  1.00  0.00     0.193 C 
BRANCH  33  34
HETATM   34  N4  UNL     1       8.090  43.322  54.694  1.00  0.00    -0.075 N 
ATOM     35  H43 UNL     1       7.376  43.935  54.301  1.00  0.00     0.274 HD
ATOM     36  H42 UNL     1       8.852  43.999  54.728  1.00  0.00     0.274 HD
ATOM     37  H41 UNL     1       8.300  42.528  54.089  1.00  0.00     0.274 HD
ENDBRANCH  33  34
BRANCH  33  38
HETATM   38  C23 UNL     1       8.967  42.588  56.802  1.00  0.00     0.043 C 
BRANCH  38  39
HETATM   39  C24 UNL     1       9.187  41.196  57.280  1.00  0.00     0.075 C 
BRANCH  39  40
HETATM   40  S1  UNL     1       7.715  40.376  57.897  1.00  0.00    -0.173 SA
HETATM   41  C25 UNL     1       6.992  41.250  59.316  1.00  0.00     0.089 C 
ENDBRANCH  39  40
ENDBRANCH  38  39
ENDBRANCH  33  38
ENDBRANCH  32  33
ENDBRANCH  29  32
ENDBRANCH  26  28
ENDBRANCH   1  26
TORSDOF 17
ENDMDL
MODEL 4
REMARK VINA RESULT: -6.986170292      2.118      3.017
REMARK  17 active torsions:
REMARK  status: ('A' for Active; 'I' for Inactive)
REMARK    1  A    between atoms: C6_6  and  C7_7 
REMARK    2  A    between atoms: C7_7  and  C8_8 
REMARK    3  A    between atoms: C8_8  and  N1_9 
REMARK    4  A    between atoms: C8_8  and  C18_26 
REMARK    5  A    between atoms: N1_9  and  C9_12 
REMARK    6  A    between atoms: C9_12  and  C10_13 
REMARK    7  A    between atoms: C10_13  and  C11_15 
REMARK    8  A    between atoms: C11_15  and  O2_16 
REMARK    9  A    between atoms: C11_15  and  N2_18 
REMARK   10  A    between atoms: N2_18  and  C12_20 
REMARK   11  A    between atoms: C18_26  and  N3_28 
REMARK       I    between atoms: N3_28  and  C20_30 
REMARK   12  A    between atoms: C20_30  and  C21_32 
REMARK   13  A    between atoms: C21_32  and  C22_33 
REMARK   14  A    between atoms: C22_33  and  N4_34 
REMARK   15  A    between atoms: C22_33  and  C23_38 
REMARK   16  A    between atoms: C23_38  and  C24_39 
REMARK   17  A    between atoms: C24_39  and  S1_40 
ROOT
HETATM    1  C8  UNL     1       3.332  44.625  55.605  1.00  0.00     0.231 C 
ENDROOT
BRANCH   1   2
HETATM    2  C7  UNL     1       4.030  43.414  56.045  1.00  0.00     0.015 C 
BRANCH   2   3
HETATM    3  C6  UNL     1       5.485  43.310  56.073  1.00  0.00    -0.054 C 
HETATM    4  C2  UNL     1       6.142  43.007  57.354  1.00  0.00    -0.061 C 
HETATM    5  C1  UNL     1       5.750  43.343  58.570  1.00  0.00     0.019 C 
HETATM    6  C3  UNL     1       7.354  42.227  57.022  1.00  0.00     0.038 C 
HETATM    7  C4  UNL     1       7.630  42.620  55.588  1.00  0.00     0.009 C 
HETATM    8  C5  UNL     1       6.186  42.524  55.012  1.00  0.00     0.039 C 
ENDBRANCH   2   3
ENDBRANCH   1   2
BRANCH   1   9
HETATM    9  N1  UNL     1       2.132  44.237  54.819  1.00  0.00    -0.059 N 
ATOM     10  H12 UNL     1       2.161  43.242  54.596  1.00  0.00     0.278 HD
ATOM     11  H11 UNL     1       1.299  44.261  55.407  1.00  0.00     0.278 HD
BRANCH   9  12
HETATM   12  C9  UNL     1       1.929  44.996  53.647  1.00  0.00     0.316 C 
BRANCH  12  13
HETATM   13  C10 UNL     1       1.882  44.073  52.452  1.00  0.00     0.200 C 
HETATM   14  O1  UNL     1       1.950  42.874  52.618  1.00  0.00    -0.291 OA
BRANCH  13  15
HETATM   15  C11 UNL     1       1.757  44.612  51.052  1.00  0.00     0.286 C 
BRANCH  15  16
HETATM   16  O2  UNL     1       1.989  45.961  51.104  1.00  0.00    -0.370 OA
ATOM     17  H2  UNL     1       2.546  46.186  50.368  1.00  0.00     0.212 HD
ENDBRANCH  15  16
BRANCH  15  18
HETATM   18  N2  UNL     1       0.524  44.175  50.514  1.00  0.00    -0.387 N 
ATOM     19  H2  UNL     1      -0.217  43.829  51.124  1.00  0.00     0.156 HD
BRANCH  18  20
HETATM   20  C12 UNL     1       0.339  44.227  49.111  1.00  0.00     0.079 C 
HETATM   21  C13 UNL     1      -1.071  43.706  48.817  1.00  0.00     0.025 C 
HETATM   22  C14 UNL     1      -1.506  44.274  47.509  1.00  0.00     0.002 C 
HETATM   23  C15 UNL     1      -0.280  44.491  46.639  1.00  0.00     0.000 C 
HETATM   24  C16 UNL     1       0.684  43.348  46.858  1.00  0.00     0.002 C 
HETATM   25  C17 UNL     1       1.309  43.507  48.252  1.00  0.00     0.025 C 
ENDBRANCH  18  20
ENDBRANCH  15  18
ENDBRANCH  13  15
ENDBRANCH  12  13
ENDBRANCH   9  12
ENDBRANCH   1   9
BRANCH   1  26
HETATM   26  C18 UNL     1       2.827  45.590  56.613  1.00  0.00     0.114 C 
HETATM   27  C19 UNL     1       3.709  46.755  56.870  1.00  0.00     0.034 C 
BRANCH  26  28
HETATM   28  N3  UNL     1       2.558  44.901  57.895  1.00  0.00    -0.354 N 
HETATM   29  C20 UNL     1       1.250  44.504  58.242  1.00  0.00     0.220 C 
HETATM   30  O3  UNL     1       0.263  44.740  57.461  1.00  0.00    -0.274 OA
ATOM     31  H3  UNL     1       3.328  44.712  58.537  1.00  0.00     0.162 HD
BRANCH  29  32
HETATM   32  C21 UNL     1       0.954  43.803  59.506  1.00  0.00     0.135 C 
BRANCH  32  33
HETATM   33  C22 UNL     1       0.050  44.690  60.351  1.00  0.00     0.193 C 
BRANCH  33  34
HETATM   34  N4  UNL     1      -0.419  43.928  61.463  1.00  0.00    -0.075 N 
ATOM     35  H43 UNL     1      -0.268  42.927  61.343  1.00  0.00     0.274 HD
ATOM     36  H42 UNL     1       0.155  44.056  62.296  1.00  0.00     0.274 HD
ATOM     37  H41 UNL     1      -1.399  44.160  61.623  1.00  0.00     0.274 HD
ENDBRANCH  33  34
BRANCH  33  38
HETATM   38  C23 UNL     1       0.739  45.929  60.824  1.00  0.00     0.043 C 
BRANCH  38  39
HETATM   39  C24 UNL     1       0.160  47.224  60.373  1.00  0.00     0.075 C 
BRANCH  39  40
HETATM   40  S1  UNL     1       1.239  48.198  59.320  1.00  0.00    -0.173 SA
HETATM   41  C25 UNL     1       0.921  49.979  59.480  1.00  0.00     0.089 C 
ENDBRANCH  39  40
ENDBRANCH  38  39
ENDBRANCH  33  38
ENDBRANCH  32  33
ENDBRANCH  29  32
ENDBRANCH  26  28
ENDBRANCH   1  26
TORSDOF 17
ENDMDL
MODEL 5
REMARK VINA RESULT: -6.953349039      1.559      2.037
REMARK  17 active torsions:
REMARK  status: ('A' for Active; 'I' for Inactive)
REMARK    1  A    between atoms: C6_6  and  C7_7 
REMARK    2  A    between atoms: C7_7  and  C8_8 
REMARK    3  A    between atoms: C8_8  and  N1_9 
REMARK    4  A    between atoms: C8_8  and  C18_26 
REMARK    5  A    between atoms: N1_9  and  C9_12 
REMARK    6  A    between atoms: C9_12  and  C10_13 
REMARK    7  A    between atoms: C10_13  and  C11_15 
REMARK    8  A    between atoms: C11_15  and  O2_16 
REMARK    9  A    between atoms: C11_15  and  N2_18 
REMARK   10  A    between atoms: N2_18  and  C12_20 
REMARK   11  A    between atoms: C18_26  and  N3_28 
REMARK       I    between atoms: N3_28  and  C20_30 
REMARK   12  A    between atoms: C20_30  and  C21_32 
REMARK   13  A    between atoms: C21_32  and  C22_33 
REMARK   14  A    between atoms: C22_33  and  N4_34 
REMARK   15  A    between atoms: C22_33  and  C23_38 
REMARK   16  A    between atoms: C23_38  and  C24_39 
REMARK   17  A    between atoms: C24_39  and  S1_40 
ROOT
HETATM    1  C8  UNL     1       3.303  44.624  55.657  1.00  0.00     0.231 C 
ENDROOT
BRANCH   1   2
HETATM    2  C7  UNL     1       3.990  43.407  56.099  1.00  0.00     0.015 C 
BRANCH   2   3
HETATM    3  C6  UNL     1       5.444  43.284  56.108  1.00  0.00    -0.054 C 
HETATM    4  C2  UNL     1       6.103  42.857  57.352  1.00  0.00    -0.061 C 
HETATM    5  C1  UNL     1       5.722  43.084  58.596  1.00  0.00     0.019 C 
HETATM    6  C3  UNL     1       7.304  42.096  56.943  1.00  0.00     0.038 C 
HETATM    7  C4  UNL     1       7.577  42.615  55.549  1.00  0.00     0.009 C 
HETATM    8  C5  UNL     1       6.130  42.590  54.976  1.00  0.00     0.039 C 
ENDBRANCH   2   3
ENDBRANCH   1   2
BRANCH   1   9
HETATM    9  N1  UNL     1       2.101  44.244  54.869  1.00  0.00    -0.059 N 
ATOM     10  H12 UNL     1       2.120  43.249  54.650  1.00  0.00     0.278 HD
ATOM     11  H11 UNL     1       1.267  44.280  55.456  1.00  0.00     0.278 HD
BRANCH   9  12
HETATM   12  C9  UNL     1       1.907  45.001  53.694  1.00  0.00     0.316 C 
BRANCH  12  13
HETATM   13  C10 UNL     1       1.879  44.077  52.500  1.00  0.00     0.200 C 
HETATM   14  O1  UNL     1       1.984  42.880  52.666  1.00  0.00    -0.291 OA
BRANCH  13  15
HETATM   15  C11 UNL     1       1.726  44.611  51.101  1.00  0.00     0.286 C 
BRANCH  15  16
HETATM   16  O2  UNL     1       1.779  45.979  51.170  1.00  0.00    -0.370 OA
ATOM     17  H2  UNL     1       2.226  46.208  51.977  1.00  0.00     0.212 HD
ENDBRANCH  15  16
BRANCH  15  18
HETATM   18  N2  UNL     1       0.577  44.024  50.522  1.00  0.00    -0.387 N 
ATOM     19  H2  UNL     1      -0.089  43.507  51.096  1.00  0.00     0.156 HD
BRANCH  18  20
HETATM   20  C12 UNL     1       0.371  44.168  49.128  1.00  0.00     0.079 C 
HETATM   21  C13 UNL     1      -1.053  43.689  48.826  1.00  0.00     0.025 C 
HETATM   22  C14 UNL     1      -1.499  44.345  47.563  1.00  0.00     0.002 C 
HETATM   23  C15 UNL     1      -0.283  44.597  46.689  1.00  0.00     0.000 C 
HETATM   24  C16 UNL     1       0.664  43.427  46.819  1.00  0.00     0.002 C 
HETATM   25  C17 UNL     1       1.314  43.488  48.209  1.00  0.00     0.025 C 
ENDBRANCH  18  20
ENDBRANCH  15  18
ENDBRANCH  13  15
ENDBRANCH  12  13
ENDBRANCH   9  12
ENDBRANCH   1   9
BRANCH   1  26
HETATM   26  C18 UNL     1       2.805  45.594  56.663  1.00  0.00     0.114 C 
HETATM   27  C19 UNL     1       3.490  46.911  56.664  1.00  0.00     0.034 C 
BRANCH  26  28
HETATM   28  N3  UNL     1       2.883  45.013  58.021  1.00  0.00    -0.354 N 
HETATM   29  C20 UNL     1       1.801  44.287  58.561  1.00  0.00     0.220 C 
HETATM   30  O3  UNL     1       0.721  44.123  57.891  1.00  0.00    -0.274 OA
ATOM     31  H3  UNL     1       3.731  45.139  58.575  1.00  0.00     0.162 HD
BRANCH  29  32
HETATM   32  C21 UNL     1       1.856  43.684  59.906  1.00  0.00     0.135 C 
BRANCH  32  33
HETATM   33  C22 UNL     1       0.521  43.008  60.187  1.00  0.00     0.193 C 
BRANCH  33  34
HETATM   34  N4  UNL     1       0.622  41.636  59.809  1.00  0.00    -0.075 N 
ATOM     35  H43 UNL     1       1.125  41.075  60.496  1.00  0.00     0.274 HD
ATOM     36  H42 UNL     1      -0.273  41.148  59.860  1.00  0.00     0.274 HD
ATOM     37  H41 UNL     1       1.041  41.587  58.881  1.00  0.00     0.274 HD
ENDBRANCH  33  34
BRANCH  33  38
HETATM   38  C23 UNL     1       0.108  43.124  61.619  1.00  0.00     0.043 C 
BRANCH  38  39
HETATM   39  C24 UNL     1      -1.158  43.858  61.888  1.00  0.00     0.075 C 
BRANCH  39  40
HETATM   40  S1  UNL     1      -1.440  45.274  60.823  1.00  0.00    -0.173 SA
HETATM   41  C25 UNL     1      -0.226  46.595  61.109  1.00  0.00     0.089 C 
ENDBRANCH  39  40
ENDBRANCH  38  39
ENDBRANCH  33  38
ENDBRANCH  32  33
ENDBRANCH  29  32
ENDBRANCH  26  28
ENDBRANCH   1  26
TORSDOF 17
ENDMDL
