MODEL 1
REMARK VINA RESULT: -9.371395142      0.000      0.000
REMARK  14 active torsions:
REMARK  status: ('A' for Active; 'I' for Inactive)
REMARK    1  A    between atoms: C2_2  and  C3_3 
REMARK    2  A    between atoms: C2_2  and  N4_40 
REMARK    3  A    between atoms: C3_3  and  C4_4 
REMARK    4  A    between atoms: C4_4  and  N1_6 
REMARK    5  A    between atoms: C4_4  and  C24_32 
REMARK    6  A    between atoms: N1_6  and  C6_8 
REMARK    7  A    between atoms: C6_8  and  C7_9 
REMARK    8  A    between atoms: C7_9  and  O1_10 
REMARK    9  A    between atoms: C7_9  and  C8_12 
REMARK   10  A    between atoms: C8_12  and  N2_13 
REMARK   11  A    between atoms: C8_12  and  C20_28 
REMARK       I    between atoms: N2_13  and  C9_15 
REMARK   12  A    between atoms: C9_15  and  O3_17 
REMARK   13  A    between atoms: O3_17  and  C10_18 
REMARK       I    between atoms: C24_32  and  N3_34 
REMARK   14  A    between atoms: N3_34  and  C25_36 
ROOT
HETATM    1  C7  UNL     1      17.931  21.938  18.958  1.00  0.00     0.159 C 
ENDROOT
BRANCH   1   2
HETATM    2  C6  UNL     1      17.468  21.832  17.502  1.00  0.00     0.149 C 
BRANCH   2   3
HETATM    3  N1  UNL     1      16.439  20.903  17.391  1.00  0.00    -0.403 N 
ATOM      4  H1  UNL     1      16.708  19.921  17.317  1.00  0.00     0.154 HD
BRANCH   3   5
HETATM    5  C4  UNL     1      15.085  21.184  17.372  1.00  0.00     0.105 C 
HETATM    6  C5  UNL     1      14.639  22.418  18.126  1.00  0.00     0.049 C 
BRANCH   5   7
HETATM    7  C3  UNL     1      14.209  19.990  17.502  1.00  0.00     0.065 C 
BRANCH   7   8
HETATM    8  C2  UNL     1      12.985  20.016  18.317  1.00  0.00     0.087 C 
HETATM    9  C1  UNL     1      11.724  19.675  17.551  1.00  0.00     0.033 C 
BRANCH   8  10
HETATM   10  N4  UNL     1      13.138  19.236  19.494  1.00  0.00    -0.365 N 
HETATM   11  C29 UNL     1      14.288  19.391  20.276  1.00  0.00     0.089 C 
HETATM   12  C30 UNL     1      14.342  18.477  21.483  1.00  0.00     0.212 C 
HETATM   13  O5  UNL     1      13.051  18.424  22.028  1.00  0.00    -0.381 OA
HETATM   14  C31 UNL     1      12.290  17.641  21.149  1.00  0.00     0.212 C 
HETATM   15  C32 UNL     1      12.213  18.222  19.768  1.00  0.00     0.089 C 
ENDBRANCH   8  10
ENDBRANCH   7   8
ENDBRANCH   5   7
BRANCH   5  16
HETATM   16  C24 UNL     1      14.813  21.592  15.874  1.00  0.00     0.246 C 
HETATM   17  O4  UNL     1      15.139  22.738  15.538  1.00  0.00    -0.271 OA
HETATM   18  N3  UNL     1      14.233  20.665  15.017  1.00  0.00    -0.351 N 
ATOM     19  H3  UNL     1      14.004  19.747  15.399  1.00  0.00     0.163 HD
BRANCH  18  20
HETATM   20  C25 UNL     1      13.932  20.900  13.642  1.00  0.00     0.022 C 
HETATM   21  C26 UNL     1      15.147  21.349  12.850  1.00  0.00     0.037 C 
HETATM   22  C27 UNL     1      12.864  21.980  13.471  1.00  0.00     0.037 C 
HETATM   23  C28 UNL     1      13.383  19.662  12.955  1.00  0.00     0.037 C 
ENDBRANCH  18  20
ENDBRANCH   5  16
ENDBRANCH   3   5
ENDBRANCH   2   3
ENDBRANCH   1   2
BRANCH   1  24
HETATM   24  O1  UNL     1      17.181  21.236  19.848  1.00  0.00    -0.392 OA
ATOM     25  H1  UNL     1      17.588  21.104  20.695  1.00  0.00     0.210 HD
ENDBRANCH   1  24
BRANCH   1  26
HETATM   26  C8  UNL     1      18.210  23.311  19.427  1.00  0.00     0.124 C 
BRANCH  26  27
HETATM   27  N2  UNL     1      18.449  24.127  18.223  1.00  0.00    -0.329 N 
HETATM   28  C9  UNL     1      17.585  25.185  17.865  1.00  0.00     0.361 C 
HETATM   29  O2  UNL     1      16.601  25.440  18.567  1.00  0.00    -0.238 OA
ATOM     30  H2  UNL     1      19.256  23.922  17.635  1.00  0.00     0.165 HD
BRANCH  28  31
HETATM   31  O3  UNL     1      17.829  25.928  16.749  1.00  0.00    -0.298 OA
BRANCH  31  32
HETATM   32  C10 UNL     1      18.655  25.558  15.672  1.00  0.00     0.138 C 
HETATM   33  C11 UNL     1      18.314  26.313  14.405  1.00  0.00     0.037 C 
HETATM   34  C12 UNL     1      19.566  26.328  13.536  1.00  0.00    -0.011 C 
HETATM   35  C13 UNL     1      20.322  27.630  13.700  1.00  0.00     0.009 C 
HETATM   36  C17 UNL     1      20.453  25.157  13.811  1.00  0.00     0.010 C 
HETATM   37  C14 UNL     1      21.080  27.696  14.997  1.00  0.00    -0.013 C 
HETATM   38  C15 UNL     1      22.074  26.533  15.020  1.00  0.00     0.010 C 
HETATM   39  C19 UNL     1      20.208  27.367  16.163  1.00  0.00     0.012 C 
HETATM   40  C16 UNL     1      21.118  25.353  15.158  1.00  0.00    -0.007 C 
HETATM   41  C18 UNL     1      20.075  25.848  16.105  1.00  0.00     0.020 C 
ENDBRANCH  31  32
ENDBRANCH  28  31
ENDBRANCH  26  27
BRANCH  26  42
HETATM   42  C20 UNL     1      19.336  23.516  20.362  1.00  0.00    -0.028 C 
HETATM   43  C21 UNL     1      20.657  23.852  19.667  1.00  0.00     0.016 C 
HETATM   44  C22 UNL     1      18.973  24.745  21.234  1.00  0.00     0.016 C 
HETATM   45  C23 UNL     1      19.629  22.407  21.314  1.00  0.00     0.016 C 
ENDBRANCH  26  42
ENDBRANCH   1  26
TORSDOF 14
ENDMDL
MODEL 2
REMARK VINA RESULT: -9.160598196      1.943      4.388
REMARK  14 active torsions:
REMARK  status: ('A' for Active; 'I' for Inactive)
REMARK    1  A    between atoms: C2_2  and  C3_3 
REMARK    2  A    between atoms: C2_2  and  N4_40 
REMARK    3  A    between atoms: C3_3  and  C4_4 
REMARK    4  A    between atoms: C4_4  and  N1_6 
REMARK    5  A    between atoms: C4_4  and  C24_32 
REMARK    6  A    between atoms: N1_6  and  C6_8 
REMARK    7  A    between atoms: C6_8  and  C7_9 
REMARK    8  A    between atoms: C7_9  and  O1_10 
REMARK    9  A    between atoms: C7_9  and  C8_12 
REMARK   10  A    between atoms: C8_12  and  N2_13 
REMARK   11  A    between atoms: C8_12  and  C20_28 
REMARK       I    between atoms: N2_13  and  C9_15 
REMARK   12  A    between atoms: C9_15  and  O3_17 
REMARK   13  A    between atoms: O3_17  and  C10_18 
REMARK       I    between atoms: C24_32  and  N3_34 
REMARK   14  A    between atoms: N3_34  and  C25_36 
ROOT
HETATM    1  C7  UNL     1      17.410  24.274  16.115  1.00  0.00     0.159 C 
ENDROOT
BRANCH   1   2
HETATM    2  C6  UNL     1      16.772  22.984  15.594  1.00  0.00     0.149 C 
BRANCH   2   3
HETATM    3  N1  UNL     1      16.365  22.185  16.658  1.00  0.00    -0.403 N 
ATOM      4  H1  UNL     1      17.087  21.637  17.128  1.00  0.00     0.154 HD
BRANCH   3   5
HETATM    5  C4  UNL     1      15.073  22.063  17.139  1.00  0.00     0.105 C 
HETATM    6  C5  UNL     1      14.560  23.200  17.996  1.00  0.00     0.049 C 
BRANCH   5   7
HETATM    7  C3  UNL     1      14.715  20.693  17.592  1.00  0.00     0.065 C 
BRANCH   7   8
HETATM    8  C2  UNL     1      15.056  20.212  18.939  1.00  0.00     0.087 C 
HETATM    9  C1  UNL     1      15.498  21.302  19.892  1.00  0.00     0.033 C 
BRANCH   8  10
HETATM   10  N4  UNL     1      14.016  19.407  19.474  1.00  0.00    -0.365 N 
HETATM   11  C29 UNL     1      14.161  18.857  20.752  1.00  0.00     0.089 C 
HETATM   12  C30 UNL     1      12.996  17.993  21.189  1.00  0.00     0.212 C 
HETATM   13  O5  UNL     1      11.820  18.623  20.759  1.00  0.00    -0.381 OA
HETATM   14  C31 UNL     1      11.766  18.441  19.370  1.00  0.00     0.212 C 
HETATM   15  C32 UNL     1      12.936  19.052  18.657  1.00  0.00     0.089 C 
ENDBRANCH   8  10
ENDBRANCH   7   8
ENDBRANCH   5   7
BRANCH   5  16
HETATM   16  C24 UNL     1      14.183  22.192  15.844  1.00  0.00     0.246 C 
HETATM   17  O4  UNL     1      13.671  23.297  15.625  1.00  0.00    -0.271 OA
HETATM   18  N3  UNL     1      14.019  21.081  15.025  1.00  0.00    -0.351 N 
ATOM     19  H3  UNL     1      14.489  20.218  15.300  1.00  0.00     0.163 HD
BRANCH  18  20
HETATM   20  C25 UNL     1      13.244  21.057  13.828  1.00  0.00     0.022 C 
HETATM   21  C26 UNL     1      11.922  21.789  13.977  1.00  0.00     0.037 C 
HETATM   22  C27 UNL     1      12.915  19.628  13.392  1.00  0.00     0.037 C 
HETATM   23  C28 UNL     1      13.976  21.688  12.658  1.00  0.00     0.037 C 
ENDBRANCH  18  20
ENDBRANCH   5  16
ENDBRANCH   3   5
ENDBRANCH   2   3
ENDBRANCH   1   2
BRANCH   1  24
HETATM   24  O1  UNL     1      16.847  25.418  15.647  1.00  0.00    -0.392 OA
ATOM     25  H1  UNL     1      17.461  26.049  15.292  1.00  0.00     0.210 HD
ENDBRANCH   1  24
BRANCH   1  26
HETATM   26  C8  UNL     1      18.885  24.313  16.048  1.00  0.00     0.124 C 
BRANCH  26  27
HETATM   27  N2  UNL     1      19.362  24.570  17.418  1.00  0.00    -0.329 N 
HETATM   28  C9  UNL     1      19.478  23.530  18.366  1.00  0.00     0.361 C 
HETATM   29  O2  UNL     1      19.171  22.375  18.053  1.00  0.00    -0.238 OA
ATOM     30  H2  UNL     1      19.614  25.520  17.688  1.00  0.00     0.165 HD
BRANCH  28  31
HETATM   31  O3  UNL     1      19.925  23.791  19.627  1.00  0.00    -0.298 OA
BRANCH  31  32
HETATM   32  C10 UNL     1      20.293  25.051  20.131  1.00  0.00     0.138 C 
HETATM   33  C11 UNL     1      20.377  25.061  21.642  1.00  0.00     0.037 C 
HETATM   34  C12 UNL     1      21.329  26.183  22.036  1.00  0.00    -0.011 C 
HETATM   35  C13 UNL     1      22.718  25.643  22.306  1.00  0.00     0.009 C 
HETATM   36  C17 UNL     1      21.369  27.271  21.011  1.00  0.00     0.010 C 
HETATM   37  C14 UNL     1      23.458  25.301  21.043  1.00  0.00    -0.013 C 
HETATM   38  C15 UNL     1      23.570  26.576  20.203  1.00  0.00     0.010 C 
HETATM   39  C19 UNL     1      22.646  24.425  20.148  1.00  0.00     0.012 C 
HETATM   40  C16 UNL     1      22.114  26.767  19.793  1.00  0.00    -0.007 C 
HETATM   41  C18 UNL     1      21.636  25.380  19.516  1.00  0.00     0.020 C 
ENDBRANCH  31  32
ENDBRANCH  28  31
ENDBRANCH  26  27
BRANCH  26  42
HETATM   42  C20 UNL     1      19.518  25.295  15.141  1.00  0.00    -0.028 C 
HETATM   43  C21 UNL     1      19.787  26.650  15.796  1.00  0.00     0.016 C 
HETATM   44  C22 UNL     1      20.901  24.713  14.751  1.00  0.00     0.016 C 
HETATM   45  C23 UNL     1      18.813  25.576  13.859  1.00  0.00     0.016 C 
ENDBRANCH  26  42
ENDBRANCH   1  26
TORSDOF 14
ENDMDL
MODEL 3
REMARK VINA RESULT: -8.989668690      0.805      1.376
REMARK  14 active torsions:
REMARK  status: ('A' for Active; 'I' for Inactive)
REMARK    1  A    between atoms: C2_2  and  C3_3 
REMARK    2  A    between atoms: C2_2  and  N4_40 
REMARK    3  A    between atoms: C3_3  and  C4_4 
REMARK    4  A    between atoms: C4_4  and  N1_6 
REMARK    5  A    between atoms: C4_4  and  C24_32 
REMARK    6  A    between atoms: N1_6  and  C6_8 
REMARK    7  A    between atoms: C6_8  and  C7_9 
REMARK    8  A    between atoms: C7_9  and  O1_10 
REMARK    9  A    between atoms: C7_9  and  C8_12 
REMARK   10  A    between atoms: C8_12  and  N2_13 
REMARK   11  A    between atoms: C8_12  and  C20_28 
REMARK       I    between atoms: N2_13  and  C9_15 
REMARK   12  A    between atoms: C9_15  and  O3_17 
REMARK   13  A    between atoms: O3_17  and  C10_18 
REMARK       I    between atoms: C24_32  and  N3_34 
REMARK   14  A    between atoms: N3_34  and  C25_36 
ROOT
HETATM    1  C7  UNL     1      18.473  22.003  18.839  1.00  0.00     0.159 C 
ENDROOT
BRANCH   1   2
HETATM    2  C6  UNL     1      17.901  21.885  17.424  1.00  0.00     0.149 C 
BRANCH   2   3
HETATM    3  N1  UNL     1      16.773  21.070  17.428  1.00  0.00    -0.403 N 
ATOM      4  H1  UNL     1      16.931  20.062  17.413  1.00  0.00     0.154 HD
BRANCH   3   5
HETATM    5  C4  UNL     1      15.458  21.498  17.451  1.00  0.00     0.105 C 
HETATM    6  C5  UNL     1      15.224  22.950  17.805  1.00  0.00     0.049 C 
BRANCH   5   7
HETATM    7  C3  UNL     1      14.506  20.522  18.043  1.00  0.00     0.065 C 
BRANCH   7   8
HETATM    8  C2  UNL     1      14.735  19.929  19.369  1.00  0.00     0.087 C 
HETATM    9  C1  UNL     1      15.096  20.934  20.443  1.00  0.00     0.033 C 
BRANCH   8  10
HETATM   10  N4  UNL     1      13.655  19.088  19.748  1.00  0.00    -0.365 N 
HETATM   11  C29 UNL     1      13.660  18.492  21.014  1.00  0.00     0.089 C 
HETATM   12  C30 UNL     1      12.468  17.594  21.278  1.00  0.00     0.212 C 
HETATM   13  O5  UNL     1      11.340  18.222  20.735  1.00  0.00    -0.381 OA
HETATM   14  C31 UNL     1      11.453  18.093  19.344  1.00  0.00     0.212 C 
HETATM   15  C32 UNL     1      12.687  18.748  18.797  1.00  0.00     0.089 C 
ENDBRANCH   8  10
ENDBRANCH   7   8
ENDBRANCH   5   7
BRANCH   5  16
HETATM   16  C24 UNL     1      15.028  21.450  15.934  1.00  0.00     0.246 C 
HETATM   17  O4  UNL     1      15.856  21.849  15.105  1.00  0.00    -0.271 OA
HETATM   18  N3  UNL     1      13.765  20.971  15.606  1.00  0.00    -0.351 N 
ATOM     19  H3  UNL     1      13.162  20.666  16.370  1.00  0.00     0.163 HD
BRANCH  18  20
HETATM   20  C25 UNL     1      13.248  20.874  14.279  1.00  0.00     0.022 C 
HETATM   21  C26 UNL     1      14.270  20.330  13.296  1.00  0.00     0.037 C 
HETATM   22  C27 UNL     1      12.795  22.233  13.745  1.00  0.00     0.037 C 
HETATM   23  C28 UNL     1      12.030  19.972  14.203  1.00  0.00     0.037 C 
ENDBRANCH  18  20
ENDBRANCH   5  16
ENDBRANCH   3   5
ENDBRANCH   2   3
ENDBRANCH   1   2
BRANCH   1  24
HETATM   24  O1  UNL     1      17.945  21.136  19.742  1.00  0.00    -0.392 OA
ATOM     25  H1  UNL     1      18.491  20.384  19.939  1.00  0.00     0.210 HD
ENDBRANCH   1  24
BRANCH   1  26
HETATM   26  C8  UNL     1      18.549  23.379  19.370  1.00  0.00     0.124 C 
BRANCH  26  27
HETATM   27  N2  UNL     1      18.777  24.264  18.214  1.00  0.00    -0.329 N 
HETATM   28  C9  UNL     1      17.880  25.307  17.895  1.00  0.00     0.361 C 
HETATM   29  O2  UNL     1      16.876  25.490  18.590  1.00  0.00    -0.238 OA
ATOM     30  H2  UNL     1      19.601  24.120  17.631  1.00  0.00     0.165 HD
BRANCH  28  31
HETATM   31  O3  UNL     1      18.114  26.115  16.822  1.00  0.00    -0.298 OA
BRANCH  31  32
HETATM   32  C10 UNL     1      18.829  25.766  15.663  1.00  0.00     0.138 C 
HETATM   33  C11 UNL     1      18.219  26.363  14.412  1.00  0.00     0.037 C 
HETATM   34  C12 UNL     1      19.327  26.467  13.372  1.00  0.00    -0.011 C 
HETATM   35  C13 UNL     1      19.910  27.864  13.341  1.00  0.00     0.009 C 
HETATM   36  C17 UNL     1      20.398  25.446  13.590  1.00  0.00     0.010 C 
HETATM   37  C14 UNL     1      20.820  28.134  14.506  1.00  0.00    -0.013 C 
HETATM   38  C15 UNL     1      21.960  27.114  14.459  1.00  0.00     0.010 C 
HETATM   39  C19 UNL     1      20.168  27.794  15.805  1.00  0.00     0.012 C 
HETATM   40  C16 UNL     1      21.205  25.837  14.810  1.00  0.00    -0.007 C 
HETATM   41  C18 UNL     1      20.241  26.271  15.865  1.00  0.00     0.020 C 
ENDBRANCH  31  32
ENDBRANCH  28  31
ENDBRANCH  26  27
BRANCH  26  42
HETATM   42  C20 UNL     1      19.572  23.678  20.396  1.00  0.00    -0.028 C 
HETATM   43  C21 UNL     1      19.623  22.651  21.528  1.00  0.00     0.016 C 
HETATM   44  C22 UNL     1      20.947  23.619  19.684  1.00  0.00     0.016 C 
HETATM   45  C23 UNL     1      19.500  25.019  21.043  1.00  0.00     0.016 C 
ENDBRANCH  26  42
ENDBRANCH   1  26
TORSDOF 14
ENDMDL
MODEL 4
REMARK VINA RESULT: -8.929804654      1.405      4.056
REMARK  14 active torsions:
REMARK  status: ('A' for Active; 'I' for Inactive)
REMARK    1  A    between atoms: C2_2  and  C3_3 
REMARK    2  A    between atoms: C2_2  and  N4_40 
REMARK    3  A    between atoms: C3_3  and  C4_4 
REMARK    4  A    between atoms: C4_4  and  N1_6 
REMARK    5  A    between atoms: C4_4  and  C24_32 
REMARK    6  A    between atoms: N1_6  and  C6_8 
REMARK    7  A    between atoms: C6_8  and  C7_9 
REMARK    8  A    between atoms: C7_9  and  O1_10 
REMARK    9  A    between atoms: C7_9  and  C8_12 
REMARK   10  A    between atoms: C8_12  and  N2_13 
REMARK   11  A    between atoms: C8_12  and  C20_28 
REMARK       I    between atoms: N2_13  and  C9_15 
REMARK   12  A    between atoms: C9_15  and  O3_17 
REMARK   13  A    between atoms: O3_17  and  C10_18 
REMARK       I    between atoms: C24_32  and  N3_34 
REMARK   14  A    between atoms: N3_34  and  C25_36 
ROOT
HETATM    1  C7  UNL     1      18.116  22.371  19.573  1.00  0.00     0.159 C 
ENDROOT
BRANCH   1   2
HETATM    2  C6  UNL     1      16.727  21.984  20.086  1.00  0.00     0.149 C 
BRANCH   2   3
HETATM    3  N1  UNL     1      15.746  22.443  19.213  1.00  0.00    -0.403 N 
ATOM      4  H1  UNL     1      15.216  23.266  19.503  1.00  0.00     0.154 HD
BRANCH   3   5
HETATM    5  C4  UNL     1      15.421  21.889  17.987  1.00  0.00     0.105 C 
HETATM    6  C5  UNL     1      16.524  21.143  17.269  1.00  0.00     0.049 C 
BRANCH   5   7
HETATM    7  C3  UNL     1      14.554  22.746  17.138  1.00  0.00     0.065 C 
BRANCH   7   8
HETATM    8  C2  UNL     1      14.884  23.023  15.732  1.00  0.00     0.087 C 
HETATM    9  C1  UNL     1      16.368  23.018  15.432  1.00  0.00     0.033 C 
BRANCH   8  10
HETATM   10  N4  UNL     1      14.146  22.183  14.857  1.00  0.00    -0.365 N 
HETATM   11  C29 UNL     1      14.829  21.398  13.920  1.00  0.00     0.089 C 
HETATM   12  C30 UNL     1      13.923  20.574  13.028  1.00  0.00     0.212 C 
HETATM   13  O5  UNL     1      12.884  20.078  13.827  1.00  0.00    -0.381 OA
HETATM   14  C31 UNL     1      12.049  21.168  14.101  1.00  0.00     0.212 C 
HETATM   15  C32 UNL     1      12.750  22.268  14.842  1.00  0.00     0.089 C 
ENDBRANCH   8  10
ENDBRANCH   7   8
ENDBRANCH   5   7
BRANCH   5  16
HETATM   16  C24 UNL     1      14.421  20.729  18.360  1.00  0.00     0.246 C 
HETATM   17  O4  UNL     1      13.330  20.721  17.777  1.00  0.00    -0.271 OA
HETATM   18  N3  UNL     1      14.804  19.787  19.309  1.00  0.00    -0.351 N 
ATOM     19  H3  UNL     1      15.728  19.888  19.729  1.00  0.00     0.163 HD
BRANCH  18  20
HETATM   20  C25 UNL     1      14.000  18.690  19.741  1.00  0.00     0.022 C 
HETATM   21  C26 UNL     1      12.516  18.947  19.552  1.00  0.00     0.037 C 
HETATM   22  C27 UNL     1      14.214  18.377  21.222  1.00  0.00     0.037 C 
HETATM   23  C28 UNL     1      14.331  17.410  18.995  1.00  0.00     0.037 C 
ENDBRANCH  18  20
ENDBRANCH   5  16
ENDBRANCH   3   5
ENDBRANCH   2   3
ENDBRANCH   1   2
BRANCH   1  24
HETATM   24  O1  UNL     1      19.082  21.440  19.785  1.00  0.00    -0.392 OA
ATOM     25  H1  UNL     1      19.877  21.568  19.281  1.00  0.00     0.210 HD
ENDBRANCH   1  24
BRANCH   1  26
HETATM   26  C8  UNL     1      18.563  23.730  19.943  1.00  0.00     0.124 C 
BRANCH  26  27
HETATM   27  N2  UNL     1      18.781  24.459  18.681  1.00  0.00    -0.329 N 
HETATM   28  C9  UNL     1      17.742  25.187  18.060  1.00  0.00     0.361 C 
HETATM   29  O2  UNL     1      16.619  25.217  18.574  1.00  0.00    -0.238 OA
ATOM     30  H2  UNL     1      19.703  24.438  18.246  1.00  0.00     0.165 HD
BRANCH  28  31
HETATM   31  O3  UNL     1      17.969  25.857  16.895  1.00  0.00    -0.298 OA
BRANCH  31  32
HETATM   32  C10 UNL     1      18.835  25.454  15.863  1.00  0.00     0.138 C 
HETATM   33  C11 UNL     1      18.445  26.045  14.525  1.00  0.00     0.037 C 
HETATM   34  C12 UNL     1      19.700  26.082  13.663  1.00  0.00    -0.011 C 
HETATM   35  C13 UNL     1      20.338  27.454  13.695  1.00  0.00     0.009 C 
HETATM   36  C17 UNL     1      20.682  25.025  14.057  1.00  0.00     0.010 C 
HETATM   37  C14 UNL     1      21.073  27.716  14.980  1.00  0.00    -0.013 C 
HETATM   38  C15 UNL     1      22.165  26.652  15.124  1.00  0.00     0.010 C 
HETATM   39  C19 UNL     1      20.221  27.431  16.172  1.00  0.00     0.012 C 
HETATM   40  C16 UNL     1      21.312  25.413  15.378  1.00  0.00    -0.007 C 
HETATM   41  C18 UNL     1      20.220  25.908  16.268  1.00  0.00     0.020 C 
ENDBRANCH  31  32
ENDBRANCH  28  31
ENDBRANCH  26  27
BRANCH  26  42
HETATM   42  C20 UNL     1      19.777  23.864  20.776  1.00  0.00    -0.028 C 
HETATM   43  C21 UNL     1      21.080  23.679  19.997  1.00  0.00     0.016 C 
HETATM   44  C22 UNL     1      19.789  25.318  21.314  1.00  0.00     0.016 C 
HETATM   45  C23 UNL     1      19.870  22.981  21.973  1.00  0.00     0.016 C 
ENDBRANCH  26  42
ENDBRANCH   1  26
TORSDOF 14
ENDMDL
MODEL 5
REMARK VINA RESULT: -8.848191421      1.789      9.667
REMARK  14 active torsions:
REMARK  status: ('A' for Active; 'I' for Inactive)
REMARK    1  A    between atoms: C2_2  and  C3_3 
REMARK    2  A    between atoms: C2_2  and  N4_40 
REMARK    3  A    between atoms: C3_3  and  C4_4 
REMARK    4  A    between atoms: C4_4  and  N1_6 
REMARK    5  A    between atoms: C4_4  and  C24_32 
REMARK    6  A    between atoms: N1_6  and  C6_8 
REMARK    7  A    between atoms: C6_8  and  C7_9 
REMARK    8  A    between atoms: C7_9  and  O1_10 
REMARK    9  A    between atoms: C7_9  and  C8_12 
REMARK   10  A    between atoms: C8_12  and  N2_13 
REMARK   11  A    between atoms: C8_12  and  C20_28 
REMARK       I    between atoms: N2_13  and  C9_15 
REMARK   12  A    between atoms: C9_15  and  O3_17 
REMARK   13  A    between atoms: O3_17  and  C10_18 
REMARK       I    between atoms: C24_32  and  N3_34 
REMARK   14  A    between atoms: N3_34  and  C25_36 
ROOT
HETATM    1  C7  UNL     1      16.053  22.270  15.293  1.00  0.00     0.159 C 
ENDROOT
BRANCH   1   2
HETATM    2  C6  UNL     1      17.042  22.499  16.438  1.00  0.00     0.149 C 
BRANCH   2   3
HETATM    3  N1  UNL     1      17.761  23.671  16.226  1.00  0.00    -0.403 N 
ATOM      4  H1  UNL     1      18.197  23.787  15.310  1.00  0.00     0.154 HD
BRANCH   3   5
HETATM    5  C4  UNL     1      17.939  24.696  17.138  1.00  0.00     0.105 C 
HETATM    6  C5  UNL     1      16.755  25.031  18.019  1.00  0.00     0.049 C 
BRANCH   5   7
HETATM    7  C3  UNL     1      18.712  25.853  16.618  1.00  0.00     0.065 C 
BRANCH   7   8
HETATM    8  C2  UNL     1      19.154  25.918  15.216  1.00  0.00     0.087 C 
HETATM    9  C1  UNL     1      18.022  26.018  14.215  1.00  0.00     0.033 C 
BRANCH   8  10
HETATM   10  N4  UNL     1      20.135  26.928  15.035  1.00  0.00    -0.365 N 
HETATM   11  C29 UNL     1      20.179  27.635  13.828  1.00  0.00     0.089 C 
HETATM   12  C30 UNL     1      21.292  28.660  13.752  1.00  0.00     0.212 C 
HETATM   13  O5  UNL     1      21.377  29.283  15.005  1.00  0.00    -0.381 OA
HETATM   14  C31 UNL     1      21.953  28.343  15.869  1.00  0.00     0.212 C 
HETATM   15  C32 UNL     1      21.134  27.093  16.001  1.00  0.00     0.089 C 
ENDBRANCH   8  10
ENDBRANCH   7   8
ENDBRANCH   5   7
BRANCH   5  16
HETATM   16  C24 UNL     1      18.965  24.093  18.173  1.00  0.00     0.246 C 
HETATM   17  O4  UNL     1      19.989  23.576  17.711  1.00  0.00    -0.271 OA
HETATM   18  N3  UNL     1      18.675  24.169  19.531  1.00  0.00    -0.351 N 
ATOM     19  H3  UNL     1      17.801  24.618  19.804  1.00  0.00     0.163 HD
BRANCH  18  20
HETATM   20  C25 UNL     1      19.511  23.666  20.573  1.00  0.00     0.022 C 
HETATM   21  C26 UNL     1      20.940  24.167  20.465  1.00  0.00     0.037 C 
HETATM   22  C27 UNL     1      19.571  22.138  20.565  1.00  0.00     0.037 C 
HETATM   23  C28 UNL     1      19.005  24.053  21.951  1.00  0.00     0.037 C 
ENDBRANCH  18  20
ENDBRANCH   5  16
ENDBRANCH   3   5
ENDBRANCH   2   3
ENDBRANCH   1   2
BRANCH   1  24
HETATM   24  O1  UNL     1      16.245  23.062  14.205  1.00  0.00    -0.392 OA
ATOM     25  H1  UNL     1      16.765  22.670  13.514  1.00  0.00     0.210 HD
ENDBRANCH   1  24
BRANCH   1  26
HETATM   26  C8  UNL     1      14.632  22.216  15.696  1.00  0.00     0.124 C 
BRANCH  26  27
HETATM   27  N2  UNL     1      14.582  21.461  16.961  1.00  0.00    -0.329 N 
HETATM   28  C9  UNL     1      14.403  22.111  18.201  1.00  0.00     0.361 C 
HETATM   29  O2  UNL     1      14.288  23.340  18.241  1.00  0.00    -0.238 OA
ATOM     30  H2  UNL     1      14.680  20.446  16.939  1.00  0.00     0.165 HD
BRANCH  28  31
HETATM   31  O3  UNL     1      14.356  21.391  19.357  1.00  0.00    -0.298 OA
BRANCH  31  32
HETATM   32  C10 UNL     1      14.640  20.020  19.491  1.00  0.00     0.138 C 
HETATM   33  C11 UNL     1      14.612  19.568  20.936  1.00  0.00     0.037 C 
HETATM   34  C12 UNL     1      14.312  18.075  20.939  1.00  0.00    -0.011 C 
HETATM   35  C13 UNL     1      12.841  17.820  21.190  1.00  0.00     0.009 C 
HETATM   36  C17 UNL     1      14.762  17.410  19.677  1.00  0.00     0.010 C 
HETATM   37  C14 UNL     1      11.992  18.107  19.983  1.00  0.00    -0.013 C 
HETATM   38  C15 UNL     1      12.471  17.200  18.845  1.00  0.00     0.010 C 
HETATM   39  C19 UNL     1      12.271  19.461  19.422  1.00  0.00     0.012 C 
HETATM   40  C16 UNL     1      13.834  17.819  18.552  1.00  0.00    -0.007 C 
HETATM   41  C18 UNL     1      13.593  19.288  18.680  1.00  0.00     0.020 C 
ENDBRANCH  31  32
ENDBRANCH  28  31
ENDBRANCH  26  27
BRANCH  26  42
HETATM   42  C20 UNL     1      13.661  21.618  14.756  1.00  0.00    -0.028 C 
HETATM   43  C21 UNL     1      14.300  20.696  13.716  1.00  0.00     0.016 C 
HETATM   44  C22 UNL     1      12.709  20.733  15.602  1.00  0.00     0.016 C 
HETATM   45  C23 UNL     1      12.786  22.562  14.004  1.00  0.00     0.016 C 
ENDBRANCH  26  42
ENDBRANCH   1  26
TORSDOF 14
ENDMDL
