MODEL 1
REMARK VINA RESULT: -9.945002561      0.000      0.000
REMARK  9 active torsions:
REMARK  status: ('A' for Active; 'I' for Inactive)
REMARK    1  A    between atoms: C6_8  and  C7_9 
REMARK    2  A    between atoms: C9_11  and  C10_12 
REMARK    3  A    between atoms: C12_19  and  C13_20 
REMARK    4  A    between atoms: C13_20  and  S1_21 
REMARK    5  A    between atoms: S1_21  and  N3_24 
REMARK    6  A    between atoms: N3_24  and  C14_26 
REMARK    7  A    between atoms: C17_29  and  N4_30 
REMARK    8  A    between atoms: N4_30  and  C18_33 
REMARK    9  A    between atoms: C18_33  and  C19_34 
ROOT
HETATM    1  C13 UNL     1      15.055  21.275  15.341  1.00  0.00     0.179 C 
ENDROOT
BRANCH   1   2
HETATM    2  C12 UNL     1      13.598  21.532  15.243  1.00  0.00     0.024 C 
HETATM    3  C2  UNL     1      13.033  22.845  15.343  1.00  0.00    -0.011 C 
HETATM    4  C1  UNL     1      13.653  24.098  15.865  1.00  0.00     0.064 C 
HETATM    5  N1  UNL     1      11.771  22.973  14.991  1.00  0.00    -0.396 N 
HETATM    6  C3  UNL     1      11.003  21.892  14.446  1.00  0.00     0.124 C 
ATOM      7  H1  UNL     1      11.319  23.880  15.111  1.00  0.00     0.159 HD
HETATM    8  C4  UNL     1      11.871  20.822  13.805  1.00  0.00     0.013 C 
HETATM    9  C5  UNL     1      11.974  19.709  14.892  1.00  0.00     0.013 C 
HETATM   10  C28 UNL     1      13.315  21.212  13.737  1.00  0.00    -0.028 C 
HETATM   11  C6  UNL     1      12.868  20.358  15.856  1.00  0.00     0.015 C 
HETATM   12  C29 UNL     1      14.152  20.119  13.188  1.00  0.00     0.016 C 
HETATM   13  C30 UNL     1      13.522  22.410  12.868  1.00  0.00     0.016 C 
BRANCH  11  14
HETATM   14  C7  UNL     1      12.643  20.322  17.303  1.00  0.00     0.085 C 
HETATM   15  C8  UNL     1      13.647  19.469  18.093  1.00  0.00     0.050 C 
HETATM   16  C9  UNL     1      13.142  18.052  18.244  1.00  0.00     0.186 C 
HETATM   17  N2  UNL     1      11.812  18.192  17.640  1.00  0.00    -0.346 N 
HETATM   18  C11 UNL     1      11.401  19.525  17.650  1.00  0.00     0.223 C 
ATOM     19  H2  UNL     1      11.263  17.419  17.264  1.00  0.00     0.163 HD
HETATM   20  O3  UNL     1      10.209  19.921  17.896  1.00  0.00    -0.273 OA
BRANCH  16  21
HETATM   21  C10 UNL     1      12.817  17.899  19.721  1.00  0.00     0.196 C 
HETATM   22  O1  UNL     1      11.942  17.131  20.154  1.00  0.00    -0.646 OA
HETATM   23  O2  UNL     1      13.599  18.702  20.617  1.00  0.00    -0.646 OA
ENDBRANCH  16  21
ENDBRANCH  11  14
ENDBRANCH   1   2
BRANCH   1  24
HETATM   24  S1  UNL     1      16.063  21.839  16.581  1.00  0.00     0.228 S 
HETATM   25  O4  UNL     1      15.324  21.947  17.929  1.00  0.00    -0.206 OA
HETATM   26  O5  UNL     1      17.327  21.149  16.918  1.00  0.00    -0.206 OA
BRANCH  24  27
HETATM   27  N3  UNL     1      16.482  23.490  16.310  1.00  0.00    -0.315 N 
ATOM     28  H3  UNL     1      16.028  24.256  16.806  1.00  0.00     0.172 HD
BRANCH  27  29
HETATM   29  C14 UNL     1      17.512  23.712  15.339  1.00  0.00     0.093 C 
HETATM   30  C15 UNL     1      17.257  24.935  14.461  1.00  0.00     0.028 C 
HETATM   31  C16 UNL     1      18.536  25.723  14.446  1.00  0.00     0.036 C 
HETATM   32  C17 UNL     1      18.776  26.208  15.858  1.00  0.00     0.193 C 
HETATM   33  C24 UNL     1      19.058  25.070  16.763  1.00  0.00    -0.018 C 
HETATM   34  C25 UNL     1      18.259  25.286  18.035  1.00  0.00     0.017 C 
HETATM   35  C26 UNL     1      20.530  25.139  17.128  1.00  0.00     0.017 C 
HETATM   36  C27 UNL     1      18.798  23.730  16.095  1.00  0.00     0.036 C 
BRANCH  32  37
HETATM   37  N4  UNL     1      19.656  27.328  15.924  1.00  0.00    -0.070 N 
ATOM     38  H42 UNL     1      19.345  28.028  16.597  1.00  0.00     0.277 HD
ATOM     39  H41 UNL     1      20.547  27.098  16.362  1.00  0.00     0.277 HD
BRANCH  37  40
HETATM   40  C18 UNL     1      19.817  27.874  14.590  1.00  0.00     0.237 C 
BRANCH  40  41
HETATM   41  C19 UNL     1      21.233  27.808  14.124  1.00  0.00     0.011 C 
HETATM   42  C20 UNL     1      21.680  29.059  13.452  1.00  0.00     0.006 C 
HETATM   43  C21 UNL     1      22.633  29.726  14.451  1.00  0.00     0.000 C 
HETATM   44  C22 UNL     1      23.234  28.551  15.171  1.00  0.00     0.000 C 
HETATM   45  C23 UNL     1      22.194  27.478  15.243  1.00  0.00     0.006 C 
ENDBRANCH  40  41
ENDBRANCH  37  40
ENDBRANCH  32  37
ENDBRANCH  27  29
ENDBRANCH  24  27
ENDBRANCH   1  24
TORSDOF 9
ENDMDL
MODEL 2
REMARK VINA RESULT: -9.803423974      0.778      1.184
REMARK  9 active torsions:
REMARK  status: ('A' for Active; 'I' for Inactive)
REMARK    1  A    between atoms: C6_8  and  C7_9 
REMARK    2  A    between atoms: C9_11  and  C10_12 
REMARK    3  A    between atoms: C12_19  and  C13_20 
REMARK    4  A    between atoms: C13_20  and  S1_21 
REMARK    5  A    between atoms: S1_21  and  N3_24 
REMARK    6  A    between atoms: N3_24  and  C14_26 
REMARK    7  A    between atoms: C17_29  and  N4_30 
REMARK    8  A    between atoms: N4_30  and  C18_33 
REMARK    9  A    between atoms: C18_33  and  C19_34 
ROOT
HETATM    1  C13 UNL     1      15.106  21.149  15.419  1.00  0.00     0.179 C 
ENDROOT
BRANCH   1   2
HETATM    2  C12 UNL     1      13.678  21.531  15.308  1.00  0.00     0.024 C 
HETATM    3  C2  UNL     1      13.225  22.884  15.427  1.00  0.00    -0.011 C 
HETATM    4  C1  UNL     1      13.942  24.069  15.982  1.00  0.00     0.064 C 
HETATM    5  N1  UNL     1      11.983  23.126  15.062  1.00  0.00    -0.396 N 
HETATM    6  C3  UNL     1      11.134  22.126  14.485  1.00  0.00     0.124 C 
ATOM      7  H1  UNL     1      11.609  24.066  15.194  1.00  0.00     0.159 HD
HETATM    8  C4  UNL     1      11.917  20.997  13.834  1.00  0.00     0.013 C 
HETATM    9  C5  UNL     1      11.910  19.859  14.899  1.00  0.00     0.013 C 
HETATM   10  C28 UNL     1      13.390  21.264  13.792  1.00  0.00    -0.028 C 
HETATM   11  C6  UNL     1      12.842  20.411  15.888  1.00  0.00     0.015 C 
HETATM   12  C29 UNL     1      14.140  20.115  13.231  1.00  0.00     0.016 C 
HETATM   13  C30 UNL     1      13.711  22.457  12.950  1.00  0.00     0.016 C 
BRANCH  11  14
HETATM   14  C7  UNL     1      12.594  20.367  17.330  1.00  0.00     0.085 C 
HETATM   15  C8  UNL     1      13.616  19.553  18.138  1.00  0.00     0.050 C 
HETATM   16  C9  UNL     1      13.162  18.117  18.281  1.00  0.00     0.186 C 
HETATM   17  N2  UNL     1      11.839  18.206  17.655  1.00  0.00    -0.346 N 
HETATM   18  C11 UNL     1      11.377  19.523  17.656  1.00  0.00     0.223 C 
ATOM     19  H2  UNL     1      11.325  17.413  17.270  1.00  0.00     0.163 HD
HETATM   20  O3  UNL     1      10.167  19.874  17.882  1.00  0.00    -0.273 OA
BRANCH  16  21
HETATM   21  C10 UNL     1      12.818  17.952  19.752  1.00  0.00     0.196 C 
HETATM   22  O1  UNL     1      11.952  17.166  20.170  1.00  0.00    -0.646 OA
HETATM   23  O2  UNL     1      13.571  18.767  20.663  1.00  0.00    -0.646 OA
ENDBRANCH  16  21
ENDBRANCH  11  14
ENDBRANCH   1   2
BRANCH   1  24
HETATM   24  S1  UNL     1      16.145  21.616  16.673  1.00  0.00     0.228 S 
HETATM   25  O4  UNL     1      15.388  21.879  17.989  1.00  0.00    -0.206 OA
HETATM   26  O5  UNL     1      17.291  20.772  17.078  1.00  0.00    -0.206 OA
BRANCH  24  27
HETATM   27  N3  UNL     1      16.798  23.182  16.359  1.00  0.00    -0.315 N 
ATOM     28  H3  UNL     1      16.209  24.007  16.253  1.00  0.00     0.172 HD
BRANCH  27  29
HETATM   29  C14 UNL     1      18.226  23.244  16.258  1.00  0.00     0.093 C 
HETATM   30  C15 UNL     1      18.712  24.282  15.250  1.00  0.00     0.028 C 
HETATM   31  C16 UNL     1      19.782  25.080  15.941  1.00  0.00     0.036 C 
HETATM   32  C17 UNL     1      19.118  25.817  17.082  1.00  0.00     0.193 C 
HETATM   33  C24 UNL     1      18.644  24.869  18.116  1.00  0.00    -0.018 C 
HETATM   34  C25 UNL     1      17.247  25.295  18.525  1.00  0.00     0.017 C 
HETATM   35  C26 UNL     1      19.547  25.032  19.325  1.00  0.00     0.017 C 
HETATM   36  C27 UNL     1      18.733  23.424  17.650  1.00  0.00     0.036 C 
BRANCH  32  37
HETATM   37  N4  UNL     1      19.864  26.948  17.528  1.00  0.00    -0.070 N 
ATOM     38  H42 UNL     1      19.285  27.781  17.630  1.00  0.00     0.277 HD
ATOM     39  H41 UNL     1      20.159  26.862  18.500  1.00  0.00     0.277 HD
BRANCH  37  40
HETATM   40  C18 UNL     1      20.980  27.155  16.625  1.00  0.00     0.237 C 
BRANCH  40  41
HETATM   41  C19 UNL     1      20.854  28.431  15.861  1.00  0.00     0.011 C 
HETATM   42  C20 UNL     1      22.169  28.977  15.424  1.00  0.00     0.006 C 
HETATM   43  C21 UNL     1      22.215  28.733  13.911  1.00  0.00     0.000 C 
HETATM   44  C22 UNL     1      20.768  28.819  13.517  1.00  0.00     0.000 C 
HETATM   45  C23 UNL     1      19.951  28.296  14.656  1.00  0.00     0.006 C 
ENDBRANCH  40  41
ENDBRANCH  37  40
ENDBRANCH  32  37
ENDBRANCH  27  29
ENDBRANCH  24  27
ENDBRANCH   1  24
TORSDOF 9
ENDMDL
MODEL 3
REMARK VINA RESULT: -9.734663616      0.917      1.757
REMARK  9 active torsions:
REMARK  status: ('A' for Active; 'I' for Inactive)
REMARK    1  A    between atoms: C6_8  and  C7_9 
REMARK    2  A    between atoms: C9_11  and  C10_12 
REMARK    3  A    between atoms: C12_19  and  C13_20 
REMARK    4  A    between atoms: C13_20  and  S1_21 
REMARK    5  A    between atoms: S1_21  and  N3_24 
REMARK    6  A    between atoms: N3_24  and  C14_26 
REMARK    7  A    between atoms: C17_29  and  N4_30 
REMARK    8  A    between atoms: N4_30  and  C18_33 
REMARK    9  A    between atoms: C18_33  and  C19_34 
ROOT
HETATM    1  C13 UNL     1      15.064  21.301  15.080  1.00  0.00     0.179 C 
ENDROOT
BRANCH   1   2
HETATM    2  C12 UNL     1      13.605  21.563  15.116  1.00  0.00     0.024 C 
HETATM    3  C2  UNL     1      13.054  22.884  15.177  1.00  0.00    -0.011 C 
HETATM    4  C1  UNL     1      13.727  24.166  15.537  1.00  0.00     0.064 C 
HETATM    5  N1  UNL     1      11.762  22.996  14.950  1.00  0.00    -0.396 N 
HETATM    6  C3  UNL     1      10.940  21.885  14.570  1.00  0.00     0.124 C 
ATOM      7  H1  UNL     1      11.326  23.913  15.049  1.00  0.00     0.159 HD
HETATM    8  C4  UNL     1      11.736  20.763  13.923  1.00  0.00     0.013 C 
HETATM    9  C5  UNL     1      11.952  19.732  15.072  1.00  0.00     0.013 C 
HETATM   10  C28 UNL     1      13.165  21.135  13.675  1.00  0.00    -0.028 C 
HETATM   11  C6  UNL     1      12.942  20.443  15.887  1.00  0.00     0.015 C 
HETATM   12  C29 UNL     1      13.940  19.998  13.124  1.00  0.00     0.016 C 
HETATM   13  C30 UNL     1      13.281  22.264  12.703  1.00  0.00     0.016 C 
BRANCH  11  14
HETATM   14  C7  UNL     1      12.870  20.515  17.348  1.00  0.00     0.085 C 
HETATM   15  C8  UNL     1      14.075  19.912  18.087  1.00  0.00     0.050 C 
HETATM   16  C9  UNL     1      13.828  18.455  18.409  1.00  0.00     0.186 C 
HETATM   17  N2  UNL     1      12.441  18.325  17.950  1.00  0.00    -0.346 N 
HETATM   18  C11 UNL     1      11.817  19.572  17.897  1.00  0.00     0.223 C 
ATOM     19  H2  UNL     1      11.992  17.442  17.703  1.00  0.00     0.163 HD
HETATM   20  O3  UNL     1      10.606  19.800  18.244  1.00  0.00    -0.273 OA
BRANCH  16  21
HETATM   21  C10 UNL     1      13.681  18.399  19.920  1.00  0.00     0.196 C 
HETATM   22  O1  UNL     1      14.344  19.102  20.700  1.00  0.00    -0.646 OA
HETATM   23  O2  UNL     1      12.704  17.472  20.416  1.00  0.00    -0.646 OA
ENDBRANCH  16  21
ENDBRANCH  11  14
ENDBRANCH   1   2
BRANCH   1  24
HETATM   24  S1  UNL     1      16.213  22.050  16.075  1.00  0.00     0.228 S 
HETATM   25  O4  UNL     1      15.567  22.746  17.289  1.00  0.00    -0.206 OA
HETATM   26  O5  UNL     1      17.341  21.289  16.654  1.00  0.00    -0.206 OA
BRANCH  24  27
HETATM   27  N3  UNL     1      16.918  23.401  15.267  1.00  0.00    -0.315 N 
ATOM     28  H3  UNL     1      16.823  23.545  14.262  1.00  0.00     0.172 HD
BRANCH  27  29
HETATM   29  C14 UNL     1      17.646  24.307  16.105  1.00  0.00     0.093 C 
HETATM   30  C15 UNL     1      19.130  23.967  16.210  1.00  0.00     0.028 C 
HETATM   31  C16 UNL     1      19.879  25.248  15.972  1.00  0.00     0.036 C 
HETATM   32  C17 UNL     1      19.600  25.668  14.546  1.00  0.00     0.193 C 
HETATM   33  C24 UNL     1      18.176  26.040  14.378  1.00  0.00    -0.018 C 
HETATM   34  C25 UNL     1      17.686  25.408  13.089  1.00  0.00     0.017 C 
HETATM   35  C26 UNL     1      18.123  27.546  14.200  1.00  0.00     0.017 C 
HETATM   36  C27 UNL     1      17.343  25.676  15.596  1.00  0.00     0.036 C 
BRANCH  32  37
HETATM   37  N4  UNL     1      20.575  26.568  14.026  1.00  0.00    -0.070 N 
ATOM     38  H42 UNL     1      20.914  26.287  13.107  1.00  0.00     0.277 HD
ATOM     39  H41 UNL     1      20.173  27.466  13.759  1.00  0.00     0.277 HD
BRANCH  37  40
HETATM   40  C18 UNL     1      21.647  26.705  14.994  1.00  0.00     0.237 C 
BRANCH  40  41
HETATM   41  C19 UNL     1      21.883  28.130  15.372  1.00  0.00     0.011 C 
HETATM   42  C20 UNL     1      23.210  28.347  16.010  1.00  0.00     0.006 C 
HETATM   43  C21 UNL     1      24.044  29.079  14.952  1.00  0.00     0.000 C 
HETATM   44  C22 UNL     1      23.008  29.866  14.200  1.00  0.00     0.000 C 
HETATM   45  C23 UNL     1      21.741  29.070  14.197  1.00  0.00     0.006 C 
ENDBRANCH  40  41
ENDBRANCH  37  40
ENDBRANCH  32  37
ENDBRANCH  27  29
ENDBRANCH  24  27
ENDBRANCH   1  24
TORSDOF 9
ENDMDL
MODEL 4
REMARK VINA RESULT: -9.721237936      0.800      1.149
REMARK  9 active torsions:
REMARK  status: ('A' for Active; 'I' for Inactive)
REMARK    1  A    between atoms: C6_8  and  C7_9 
REMARK    2  A    between atoms: C9_11  and  C10_12 
REMARK    3  A    between atoms: C12_19  and  C13_20 
REMARK    4  A    between atoms: C13_20  and  S1_21 
REMARK    5  A    between atoms: S1_21  and  N3_24 
REMARK    6  A    between atoms: N3_24  and  C14_26 
REMARK    7  A    between atoms: C17_29  and  N4_30 
REMARK    8  A    between atoms: N4_30  and  C18_33 
REMARK    9  A    between atoms: C18_33  and  C19_34 
ROOT
HETATM    1  C13 UNL     1      15.019  21.157  15.319  1.00  0.00     0.179 C 
ENDROOT
BRANCH   1   2
HETATM    2  C12 UNL     1      13.567  21.448  15.244  1.00  0.00     0.024 C 
HETATM    3  C2  UNL     1      13.035  22.774  15.346  1.00  0.00    -0.011 C 
HETATM    4  C1  UNL     1      13.693  24.014  15.851  1.00  0.00     0.064 C 
HETATM    5  N1  UNL     1      11.770  22.930  15.015  1.00  0.00    -0.396 N 
HETATM    6  C3  UNL     1      10.967  21.865  14.489  1.00  0.00     0.124 C 
ATOM      7  H1  UNL     1      11.342  23.848  15.137  1.00  0.00     0.159 HD
HETATM    8  C4  UNL     1      11.799  20.771  13.839  1.00  0.00     0.013 C 
HETATM    9  C5  UNL     1      11.895  19.662  14.930  1.00  0.00     0.013 C 
HETATM   10  C28 UNL     1      13.251  21.127  13.744  1.00  0.00    -0.028 C 
HETATM   11  C6  UNL     1      12.820  20.294  15.876  1.00  0.00     0.015 C 
HETATM   12  C29 UNL     1      14.053  20.012  13.187  1.00  0.00     0.016 C 
HETATM   13  C30 UNL     1      13.471  22.315  12.866  1.00  0.00     0.016 C 
BRANCH  11  14
HETATM   14  C7  UNL     1      12.619  20.271  17.326  1.00  0.00     0.085 C 
HETATM   15  C8  UNL     1      13.629  19.415  18.106  1.00  0.00     0.050 C 
HETATM   16  C9  UNL     1      13.113  18.003  18.276  1.00  0.00     0.186 C 
HETATM   17  N2  UNL     1      11.775  18.151  17.693  1.00  0.00    -0.346 N 
HETATM   18  C11 UNL     1      11.376  19.488  17.699  1.00  0.00     0.223 C 
ATOM     19  H2  UNL     1      11.212  17.380  17.332  1.00  0.00     0.163 HD
HETATM   20  O3  UNL     1      10.192  19.897  17.963  1.00  0.00    -0.273 OA
BRANCH  16  21
HETATM   21  C10 UNL     1      12.812  17.863  19.758  1.00  0.00     0.196 C 
HETATM   22  O1  UNL     1      11.932  17.113  20.212  1.00  0.00    -0.646 OA
HETATM   23  O2  UNL     1      13.621  18.660  20.636  1.00  0.00    -0.646 OA
ENDBRANCH  16  21
ENDBRANCH  11  14
ENDBRANCH   1   2
BRANCH   1  24
HETATM   24  S1  UNL     1      16.060  21.700  16.540  1.00  0.00     0.228 S 
HETATM   25  O4  UNL     1      15.353  21.801  17.906  1.00  0.00    -0.206 OA
HETATM   26  O5  UNL     1      17.326  20.996  16.841  1.00  0.00    -0.206 OA
BRANCH  24  27
HETATM   27  N3  UNL     1      16.487  23.350  16.276  1.00  0.00    -0.315 N 
ATOM     28  H3  UNL     1      15.854  24.119  16.494  1.00  0.00     0.172 HD
BRANCH  27  29
HETATM   29  C14 UNL     1      17.794  23.567  15.729  1.00  0.00     0.093 C 
HETATM   30  C15 UNL     1      17.898  24.855  14.916  1.00  0.00     0.028 C 
HETATM   31  C16 UNL     1      19.134  25.562  15.395  1.00  0.00     0.036 C 
HETATM   32  C17 UNL     1      18.897  25.943  16.839  1.00  0.00     0.193 C 
HETATM   33  C24 UNL     1      18.813  24.737  17.694  1.00  0.00    -0.018 C 
HETATM   34  C25 UNL     1      17.637  24.922  18.635  1.00  0.00     0.017 C 
HETATM   35  C26 UNL     1      20.074  24.692  18.537  1.00  0.00     0.017 C 
HETATM   36  C27 UNL     1      18.745  23.459  16.873  1.00  0.00     0.036 C 
BRANCH  32  37
HETATM   37  N4  UNL     1      19.743  27.001  17.286  1.00  0.00    -0.070 N 
ATOM     38  H42 UNL     1      19.230  27.725  17.788  1.00  0.00     0.277 HD
ATOM     39  H41 UNL     1      20.359  26.712  18.046  1.00  0.00     0.277 HD
BRANCH  37  40
HETATM   40  C18 UNL     1      20.474  27.526  16.148  1.00  0.00     0.237 C 
BRANCH  40  41
HETATM   41  C19 UNL     1      21.807  28.070  16.541  1.00  0.00     0.011 C 
HETATM   42  C20 UNL     1      22.714  27.030  17.100  1.00  0.00     0.006 C 
HETATM   43  C21 UNL     1      23.763  26.791  16.008  1.00  0.00     0.000 C 
HETATM   44  C22 UNL     1      23.858  28.133  15.339  1.00  0.00     0.000 C 
HETATM   45  C23 UNL     1      22.505  28.770  15.397  1.00  0.00     0.006 C 
ENDBRANCH  40  41
ENDBRANCH  37  40
ENDBRANCH  32  37
ENDBRANCH  27  29
ENDBRANCH  24  27
ENDBRANCH   1  24
TORSDOF 9
ENDMDL
MODEL 5
REMARK VINA RESULT: -9.617285563      1.389      1.843
REMARK  9 active torsions:
REMARK  status: ('A' for Active; 'I' for Inactive)
REMARK    1  A    between atoms: C6_8  and  C7_9 
REMARK    2  A    between atoms: C9_11  and  C10_12 
REMARK    3  A    between atoms: C12_19  and  C13_20 
REMARK    4  A    between atoms: C13_20  and  S1_21 
REMARK    5  A    between atoms: S1_21  and  N3_24 
REMARK    6  A    between atoms: N3_24  and  C14_26 
REMARK    7  A    between atoms: C17_29  and  N4_30 
REMARK    8  A    between atoms: N4_30  and  C18_33 
REMARK    9  A    between atoms: C18_33  and  C19_34 
ROOT
HETATM    1  C13 UNL     1      14.741  20.945  16.175  1.00  0.00     0.179 C 
ENDROOT
BRANCH   1   2
HETATM    2  C12 UNL     1      13.711  21.924  15.751  1.00  0.00     0.024 C 
HETATM    3  C2  UNL     1      13.667  23.267  16.244  1.00  0.00    -0.011 C 
HETATM    4  C1  UNL     1      14.345  23.853  17.438  1.00  0.00     0.064 C 
HETATM    5  N1  UNL     1      12.872  24.104  15.610  1.00  0.00    -0.396 N 
HETATM    6  C3  UNL     1      12.147  23.742  14.428  1.00  0.00     0.124 C 
ATOM      7  H1  UNL     1      12.768  25.051  15.975  1.00  0.00     0.159 HD
HETATM    8  C4  UNL     1      12.782  22.578  13.685  1.00  0.00     0.013 C 
HETATM    9  C5  UNL     1      11.948  21.337  14.128  1.00  0.00     0.013 C 
HETATM   10  C28 UNL     1      14.107  22.180  14.257  1.00  0.00    -0.028 C 
HETATM   11  C6  UNL     1      12.419  21.176  15.507  1.00  0.00     0.015 C 
HETATM   12  C29 UNL     1      14.665  20.991  13.571  1.00  0.00     0.016 C 
HETATM   13  C30 UNL     1      15.113  23.278  14.132  1.00  0.00     0.016 C 
BRANCH  11  14
HETATM   14  C7  UNL     1      11.521  20.900  16.631  1.00  0.00     0.085 C 
HETATM   15  C8  UNL     1      12.152  20.100  17.782  1.00  0.00     0.050 C 
HETATM   16  C9  UNL     1      11.933  18.617  17.584  1.00  0.00     0.186 C 
HETATM   17  N2  UNL     1      11.078  18.644  16.392  1.00  0.00    -0.346 N 
HETATM   18  C11 UNL     1      10.459  19.887  16.254  1.00  0.00     0.223 C 
ATOM     19  H2  UNL     1      10.954  17.860  15.750  1.00  0.00     0.163 HD
HETATM   20  O3  UNL     1       9.249  20.063  15.874  1.00  0.00    -0.273 OA
BRANCH  16  21
HETATM   21  C10 UNL     1      10.960  18.207  18.676  1.00  0.00     0.196 C 
HETATM   22  O1  UNL     1      10.893  18.770  19.782  1.00  0.00    -0.646 OA
HETATM   23  O2  UNL     1      10.091  17.110  18.357  1.00  0.00    -0.646 OA
ENDBRANCH  16  21
ENDBRANCH  11  14
ENDBRANCH   1   2
BRANCH   1  24
HETATM   24  S1  UNL     1      16.080  21.301  17.150  1.00  0.00     0.228 S 
HETATM   25  O4  UNL     1      15.701  21.418  18.639  1.00  0.00    -0.206 OA
HETATM   26  O5  UNL     1      17.282  20.438  17.151  1.00  0.00    -0.206 OA
BRANCH  24  27
HETATM   27  N3  UNL     1      16.645  22.900  16.834  1.00  0.00    -0.315 N 
ATOM     28  H3  UNL     1      16.037  23.716  16.899  1.00  0.00     0.172 HD
BRANCH  27  29
HETATM   29  C14 UNL     1      18.028  23.003  16.474  1.00  0.00     0.093 C 
HETATM   30  C15 UNL     1      18.299  24.089  15.436  1.00  0.00     0.028 C 
HETATM   31  C16 UNL     1      19.462  24.889  15.949  1.00  0.00     0.036 C 
HETATM   32  C17 UNL     1      19.008  25.568  17.222  1.00  0.00     0.193 C 
HETATM   33  C24 UNL     1      18.752  24.571  18.286  1.00  0.00    -0.018 C 
HETATM   34  C25 UNL     1      17.447  24.945  18.963  1.00  0.00     0.017 C 
HETATM   35  C26 UNL     1      19.860  24.714  19.314  1.00  0.00     0.017 C 
HETATM   36  C27 UNL     1      18.781  23.147  17.754  1.00  0.00     0.036 C 
BRANCH  32  37
HETATM   37  N4  UNL     1      19.801  26.701  17.567  1.00  0.00    -0.070 N 
ATOM     38  H42 UNL     1      19.240  27.540  17.713  1.00  0.00     0.277 HD
ATOM     39  H41 UNL     1      20.195  26.630  18.505  1.00  0.00     0.277 HD
BRANCH  37  40
HETATM   40  C18 UNL     1      20.819  26.885  16.550  1.00  0.00     0.237 C 
BRANCH  40  41
HETATM   41  C19 UNL     1      20.721  28.222  15.894  1.00  0.00     0.011 C 
HETATM   42  C20 UNL     1      22.050  28.782  15.521  1.00  0.00     0.006 C 
HETATM   43  C21 UNL     1      22.114  28.665  13.994  1.00  0.00     0.000 C 
HETATM   44  C22 UNL     1      20.674  28.805  13.590  1.00  0.00     0.000 C 
HETATM   45  C23 UNL     1      19.834  28.202  14.671  1.00  0.00     0.006 C 
ENDBRANCH  40  41
ENDBRANCH  37  40
ENDBRANCH  32  37
ENDBRANCH  27  29
ENDBRANCH  24  27
ENDBRANCH   1  24
TORSDOF 9
ENDMDL
