MODEL 1
REMARK VINA RESULT: -8.759113464      0.000      0.000
REMARK  10 active torsions:
REMARK  status: ('A' for Active; 'I' for Inactive)
REMARK    1  A    between atoms: C1_2  and  C2_5 
REMARK    2  A    between atoms: C4_7  and  N1_8 
REMARK    3  A    between atoms: C7_12  and  O1_13 
REMARK    4  A    between atoms: O1_13  and  C8_14 
REMARK    5  A    between atoms: C8_14  and  C9_15 
REMARK    6  A    between atoms: C12_20  and  O2_21 
REMARK    7  A    between atoms: O2_21  and  C13_22 
REMARK    8  A    between atoms: C13_22  and  C14_23 
REMARK    9  A    between atoms: C17_30  and  N5_31 
REMARK   10  A    between atoms: N5_31  and  C18_33 
ROOT
HETATM    1  N1  UNL     1      14.912 -12.088  20.977  1.00  0.00    -0.328 N 
ATOM      2  H1  UNL     1      14.810 -11.075  21.033  1.00  0.00     0.169 HD
HETATM    3  C5  UNL     1      14.002 -12.673  21.601  1.00  0.00     0.113 A 
HETATM    4  C6  UNL     1      13.014 -11.904  22.260  1.00  0.00     0.104 A 
HETATM    5  C7  UNL     1      11.995 -12.486  22.959  1.00  0.00     0.148 A 
HETATM    6  N2  UNL     1      11.947 -13.819  23.013  1.00  0.00    -0.302 N 
ATOM      7  H2  UNL     1      11.196 -14.278  23.530  1.00  0.00     0.171 HD
HETATM    8  C12 UNL     1      12.897 -14.576  22.378  1.00  0.00     0.227 A 
HETATM    9  N3  UNL     1      13.897 -14.006  21.692  1.00  0.00    -0.308 N 
ATOM     10  H3  UNL     1      14.589 -14.597  21.231  1.00  0.00     0.171 HD
ENDROOT
BRANCH   1  11
HETATM   11  C4  UNL     1      16.013 -12.442  20.237  1.00  0.00     0.124 A 
HETATM   12  C3  UNL     1      17.254 -12.740  20.793  1.00  0.00     0.084 A 
HETATM   13  C2  UNL     1      18.363 -13.066  20.029  1.00  0.00     0.136 A 
HETATM   14  N6  UNL     1      18.220 -13.094  18.692  1.00  0.00    -0.187 N 
HETATM   15  C17 UNL     1      17.060 -12.819  18.105  1.00  0.00     0.680 A 
ATOM     16  H6  UNL     1      19.024 -13.334  18.112  1.00  0.00     0.184 HD
HETATM   17  N4  UNL     1      15.991 -12.507  18.880  1.00  0.00    -0.177 N 
ATOM     18  H4  UNL     1      15.109 -12.307  18.410  1.00  0.00     0.186 HD
BRANCH  13  19
HETATM   19  C1  UNL     1      19.689 -13.381  20.670  1.00  0.00     0.433 C 
HETATM   20  F1  UNL     1      19.580 -13.661  22.004  1.00  0.00    -0.165 F 
HETATM   21  F2  UNL     1      20.192 -14.502  20.035  1.00  0.00    -0.165 F 
HETATM   22  F3  UNL     1      20.524 -12.327  20.402  1.00  0.00    -0.165 F 
ENDBRANCH  13  19
BRANCH  15  23
HETATM   23  N5  UNL     1      16.884 -12.825  16.901  1.00  0.00    -0.217 N 
ATOM     24  H5  UNL     1      17.610 -13.429  16.514  1.00  0.00     0.178 HD
BRANCH  23  25
HETATM   25  C18 UNL     1      16.151 -12.388  15.832  1.00  0.00     0.147 C 
HETATM   26  C19 UNL     1      15.955 -10.889  15.737  1.00  0.00     0.195 C 
HETATM   27  O3  UNL     1      14.601 -11.041  15.991  1.00  0.00    -0.387 OA
HETATM   28  C20 UNL     1      14.630 -12.421  15.928  1.00  0.00     0.195 C 
ENDBRANCH  23  25
ENDBRANCH  15  23
ENDBRANCH   1  11
BRANCH   5  29
HETATM   29  O1  UNL     1      11.064 -11.677  23.587  1.00  0.00    -0.335 OA
BRANCH  29  30
HETATM   30  C8  UNL     1      11.320 -10.888  24.736  1.00  0.00     0.182 C 
BRANCH  30  31
HETATM   31  C9  UNL     1      11.370  -9.444  24.289  1.00  0.00     0.010 A 
HETATM   32  C10 UNL     1      11.741  -8.375  25.228  1.00  0.00     0.007 A 
HETATM   33  C11 UNL     1      12.724  -8.823  24.136  1.00  0.00     0.007 A 
ENDBRANCH  30  31
ENDBRANCH  29  30
ENDBRANCH   5  29
BRANCH   8  34
HETATM   34  O2  UNL     1      12.839 -15.971  22.438  1.00  0.00    -0.321 OA
BRANCH  34  35
HETATM   35  C13 UNL     1      13.619 -16.663  21.459  1.00  0.00     0.183 C 
BRANCH  35  36
HETATM   36  C14 UNL     1      12.752 -17.278  20.408  1.00  0.00     0.010 A 
HETATM   37  C15 UNL     1      11.393 -17.747  20.817  1.00  0.00     0.007 A 
HETATM   38  C16 UNL     1      12.440 -18.765  20.572  1.00  0.00     0.007 A 
ENDBRANCH  35  36
ENDBRANCH  34  35
ENDBRANCH   8  34
TORSDOF 10
ENDMDL
MODEL 2
REMARK VINA RESULT: -8.400046569      4.010      6.104
REMARK  10 active torsions:
REMARK  status: ('A' for Active; 'I' for Inactive)
REMARK    1  A    between atoms: C1_2  and  C2_5 
REMARK    2  A    between atoms: C4_7  and  N1_8 
REMARK    3  A    between atoms: C7_12  and  O1_13 
REMARK    4  A    between atoms: O1_13  and  C8_14 
REMARK    5  A    between atoms: C8_14  and  C9_15 
REMARK    6  A    between atoms: C12_20  and  O2_21 
REMARK    7  A    between atoms: O2_21  and  C13_22 
REMARK    8  A    between atoms: C13_22  and  C14_23 
REMARK    9  A    between atoms: C17_30  and  N5_31 
REMARK   10  A    between atoms: N5_31  and  C18_33 
ROOT
HETATM    1  N1  UNL     1      16.975 -12.679  21.326  1.00  0.00    -0.328 N 
ATOM      2  H1  UNL     1      17.468 -11.834  21.616  1.00  0.00     0.169 HD
HETATM    3  C5  UNL     1      17.640 -13.705  21.582  1.00  0.00     0.113 A 
HETATM    4  C6  UNL     1      18.906 -13.570  22.200  1.00  0.00     0.104 A 
HETATM    5  C7  UNL     1      19.680 -14.653  22.503  1.00  0.00     0.148 A 
HETATM    6  N2  UNL     1      19.215 -15.867  22.200  1.00  0.00    -0.302 N 
ATOM      7  H2  UNL     1      19.774 -16.692  22.414  1.00  0.00     0.171 HD
HETATM    8  C12 UNL     1      17.990 -16.012  21.602  1.00  0.00     0.227 A 
HETATM    9  N3  UNL     1      17.229 -14.950  21.304  1.00  0.00    -0.308 N 
ATOM     10  H3  UNL     1      16.323 -15.091  20.859  1.00  0.00     0.171 HD
ENDROOT
BRANCH   1  11
HETATM   11  C4  UNL     1      15.761 -12.383  20.760  1.00  0.00     0.124 A 
HETATM   12  C3  UNL     1      14.622 -12.071  21.497  1.00  0.00     0.084 A 
HETATM   13  C2  UNL     1      13.394 -11.803  20.910  1.00  0.00     0.136 A 
HETATM   14  N6  UNL     1      13.316 -11.848  19.569  1.00  0.00    -0.187 N 
HETATM   15  C17 UNL     1      14.369 -12.139  18.814  1.00  0.00     0.680 A 
ATOM     16  H6  UNL     1      12.422 -11.651  19.117  1.00  0.00     0.184 HD
HETATM   17  N4  UNL     1      15.558 -12.393  19.417  1.00  0.00    -0.177 N 
ATOM     18  H4  UNL     1      16.355 -12.608  18.819  1.00  0.00     0.186 HD
BRANCH  13  19
HETATM   19  C1  UNL     1      12.185 -11.471  21.744  1.00  0.00     0.433 C 
HETATM   20  F1  UNL     1      11.306 -12.514  21.844  1.00  0.00    -0.165 F 
HETATM   21  F2  UNL     1      12.638 -11.168  23.016  1.00  0.00    -0.165 F 
HETATM   22  F3  UNL     1      11.628 -10.339  21.207  1.00  0.00    -0.165 F 
ENDBRANCH  13  19
BRANCH  15  23
HETATM   23  N5  UNL     1      14.345 -12.198  17.598  1.00  0.00    -0.217 N 
ATOM     24  H5  UNL     1      13.366 -12.093  17.332  1.00  0.00     0.178 HD
BRANCH  23  25
HETATM   25  C18 UNL     1      15.040 -12.341  16.429  1.00  0.00     0.147 C 
HETATM   26  C19 UNL     1      15.049 -11.133  15.516  1.00  0.00     0.195 C 
HETATM   27  O3  UNL     1      14.284 -11.819  14.585  1.00  0.00    -0.387 OA
HETATM   28  C20 UNL     1      14.355 -13.027  15.252  1.00  0.00     0.195 C 
ENDBRANCH  23  25
ENDBRANCH  15  23
ENDBRANCH   1  11
BRANCH   5  29
HETATM   29  O1  UNL     1      20.912 -14.452  23.102  1.00  0.00    -0.335 OA
BRANCH  29  30
HETATM   30  C8  UNL     1      21.275 -14.927  24.387  1.00  0.00     0.182 C 
BRANCH  30  31
HETATM   31  C9  UNL     1      20.326 -14.299  25.383  1.00  0.00     0.010 A 
HETATM   32  C10 UNL     1      20.185 -14.847  26.741  1.00  0.00     0.007 A 
HETATM   33  C11 UNL     1      20.936 -13.526  26.512  1.00  0.00     0.007 A 
ENDBRANCH  30  31
ENDBRANCH  29  30
ENDBRANCH   5  29
BRANCH   8  34
HETATM   34  O2  UNL     1      17.508 -17.286  21.288  1.00  0.00    -0.321 OA
BRANCH  34  35
HETATM   35  C13 UNL     1      16.084 -17.414  21.247  1.00  0.00     0.183 C 
BRANCH  35  36
HETATM   36  C14 UNL     1      15.611 -17.783  19.878  1.00  0.00     0.010 A 
HETATM   37  C15 UNL     1      14.973 -16.713  19.052  1.00  0.00     0.007 A 
HETATM   38  C16 UNL     1      14.100 -17.749  19.650  1.00  0.00     0.007 A 
ENDBRANCH  35  36
ENDBRANCH  34  35
ENDBRANCH   8  34
TORSDOF 10
ENDMDL
MODEL 3
REMARK VINA RESULT: -8.396232550      4.522      7.162
REMARK  10 active torsions:
REMARK  status: ('A' for Active; 'I' for Inactive)
REMARK    1  A    between atoms: C1_2  and  C2_5 
REMARK    2  A    between atoms: C4_7  and  N1_8 
REMARK    3  A    between atoms: C7_12  and  O1_13 
REMARK    4  A    between atoms: O1_13  and  C8_14 
REMARK    5  A    between atoms: C8_14  and  C9_15 
REMARK    6  A    between atoms: C12_20  and  O2_21 
REMARK    7  A    between atoms: O2_21  and  C13_22 
REMARK    8  A    between atoms: C13_22  and  C14_23 
REMARK    9  A    between atoms: C17_30  and  N5_31 
REMARK   10  A    between atoms: N5_31  and  C18_33 
ROOT
HETATM    1  N1  UNL     1      18.505 -13.292  21.183  1.00  0.00    -0.328 N 
ATOM      2  H1  UNL     1      19.238 -12.612  20.977  1.00  0.00     0.169 HD
HETATM    3  C5  UNL     1      18.923 -14.198  21.933  1.00  0.00     0.113 A 
HETATM    4  C6  UNL     1      20.268 -14.167  22.371  1.00  0.00     0.104 A 
HETATM    5  C7  UNL     1      20.783 -15.130  23.190  1.00  0.00     0.148 A 
HETATM    6  N2  UNL     1      19.981 -16.123  23.579  1.00  0.00    -0.302 N 
ATOM      7  H2  UNL     1      20.342 -16.856  24.191  1.00  0.00     0.171 HD
HETATM    8  C12 UNL     1      18.675 -16.166  23.164  1.00  0.00     0.227 A 
HETATM    9  N3  UNL     1      18.169 -15.221  22.360  1.00  0.00    -0.308 N 
ATOM     10  H3  UNL     1      17.193 -15.282  22.068  1.00  0.00     0.171 HD
ENDROOT
BRANCH   1  11
HETATM   11  C4  UNL     1      17.327 -12.964  20.561  1.00  0.00     0.124 A 
HETATM   12  C3  UNL     1      16.992 -13.378  19.274  1.00  0.00     0.084 A 
HETATM   13  C2  UNL     1      15.810 -13.012  18.649  1.00  0.00     0.136 A 
HETATM   14  N6  UNL     1      14.956 -12.225  19.327  1.00  0.00    -0.187 N 
HETATM   15  C17 UNL     1      15.222 -11.799  20.557  1.00  0.00     0.680 A 
ATOM     16  H6  UNL     1      14.080 -11.947  18.885  1.00  0.00     0.184 HD
HETATM   17  N4  UNL     1      16.386 -12.177  21.144  1.00  0.00    -0.177 N 
ATOM     18  H4  UNL     1      16.567 -11.846  22.092  1.00  0.00     0.186 HD
BRANCH  13  19
HETATM   19  C1  UNL     1      15.485 -13.481  17.255  1.00  0.00     0.433 C 
HETATM   20  F1  UNL     1      14.327 -12.940  16.769  1.00  0.00    -0.165 F 
HETATM   21  F2  UNL     1      16.525 -13.075  16.437  1.00  0.00    -0.165 F 
HETATM   22  F3  UNL     1      15.475 -14.851  17.286  1.00  0.00    -0.165 F 
ENDBRANCH  13  19
BRANCH  15  23
HETATM   23  N5  UNL     1      14.485 -11.081  21.207  1.00  0.00    -0.217 N 
ATOM     24  H5  UNL     1      14.746 -10.124  20.971  1.00  0.00     0.178 HD
BRANCH  23  25
HETATM   25  C18 UNL     1      13.464 -10.980  22.112  1.00  0.00     0.147 C 
HETATM   26  C19 UNL     1      12.803 -12.284  22.508  1.00  0.00     0.195 C 
HETATM   27  O3  UNL     1      11.635 -11.896  21.870  1.00  0.00    -0.387 OA
HETATM   28  C20 UNL     1      12.074 -10.613  21.606  1.00  0.00     0.195 C 
ENDBRANCH  23  25
ENDBRANCH  15  23
ENDBRANCH   1  11
BRANCH   5  29
HETATM   29  O1  UNL     1      22.109 -15.043  23.577  1.00  0.00    -0.335 OA
BRANCH  29  30
HETATM   30  C8  UNL     1      22.554 -14.618  24.854  1.00  0.00     0.182 C 
BRANCH  30  31
HETATM   31  C9  UNL     1      21.367 -14.683  25.789  1.00  0.00     0.010 A 
HETATM   32  C10 UNL     1      21.538 -14.508  27.239  1.00  0.00     0.007 A 
HETATM   33  C11 UNL     1      20.904 -13.393  26.393  1.00  0.00     0.007 A 
ENDBRANCH  30  31
ENDBRANCH  29  30
ENDBRANCH   5  29
BRANCH   8  34
HETATM   34  O2  UNL     1      17.841 -17.208  23.576  1.00  0.00    -0.321 OA
BRANCH  34  35
HETATM   35  C13 UNL     1      18.317 -17.979  24.682  1.00  0.00     0.183 C 
BRANCH  35  36
HETATM   36  C14 UNL     1      17.642 -17.578  25.954  1.00  0.00     0.010 A 
HETATM   37  C15 UNL     1      18.331 -16.572  26.818  1.00  0.00     0.007 A 
HETATM   38  C16 UNL     1      18.340 -17.988  27.250  1.00  0.00     0.007 A 
ENDBRANCH  35  36
ENDBRANCH  34  35
ENDBRANCH   8  34
TORSDOF 10
ENDMDL
MODEL 4
REMARK VINA RESULT: -8.346931668      4.301      7.738
REMARK  10 active torsions:
REMARK  status: ('A' for Active; 'I' for Inactive)
REMARK    1  A    between atoms: C1_2  and  C2_5 
REMARK    2  A    between atoms: C4_7  and  N1_8 
REMARK    3  A    between atoms: C7_12  and  O1_13 
REMARK    4  A    between atoms: O1_13  and  C8_14 
REMARK    5  A    between atoms: C8_14  and  C9_15 
REMARK    6  A    between atoms: C12_20  and  O2_21 
REMARK    7  A    between atoms: O2_21  and  C13_22 
REMARK    8  A    between atoms: C13_22  and  C14_23 
REMARK    9  A    between atoms: C17_30  and  N5_31 
REMARK   10  A    between atoms: N5_31  and  C18_33 
ROOT
HETATM    1  N1  UNL     1      18.620 -14.228  22.171  1.00  0.00    -0.328 N 
ATOM      2  H1  UNL     1      19.396 -14.068  21.528  1.00  0.00     0.169 HD
HETATM    3  C5  UNL     1      17.546 -13.795  21.704  1.00  0.00     0.113 A 
HETATM    4  C6  UNL     1      17.545 -13.180  20.430  1.00  0.00     0.104 A 
HETATM    5  C7  UNL     1      16.403 -12.686  19.868  1.00  0.00     0.148 A 
HETATM    6  N2  UNL     1      15.263 -12.794  20.555  1.00  0.00    -0.302 N 
ATOM      7  H2  UNL     1      14.396 -12.431  20.158  1.00  0.00     0.171 HD
HETATM    8  C12 UNL     1      15.249 -13.388  21.790  1.00  0.00     0.227 A 
HETATM    9  N3  UNL     1      16.369 -13.873  22.342  1.00  0.00    -0.308 N 
ATOM     10  H3  UNL     1      16.326 -14.309  23.263  1.00  0.00     0.171 HD
ENDROOT
BRANCH   1  11
HETATM   11  C4  UNL     1      19.038 -14.861  23.315  1.00  0.00     0.124 A 
HETATM   12  C3  UNL     1      19.682 -14.211  24.364  1.00  0.00     0.084 A 
HETATM   13  C2  UNL     1      20.125 -14.871  25.500  1.00  0.00     0.136 A 
HETATM   14  N6  UNL     1      19.914 -16.197  25.580  1.00  0.00    -0.187 N 
HETATM   15  C17 UNL     1      19.304 -16.869  24.610  1.00  0.00     0.680 A 
ATOM     16  H6  UNL     1      20.230 -16.700  26.409  1.00  0.00     0.184 HD
HETATM   17  N4  UNL     1      18.879 -16.195  23.512  1.00  0.00    -0.177 N 
ATOM     18  H4  UNL     1      18.407 -16.729  22.783  1.00  0.00     0.186 HD
BRANCH  13  19
HETATM   19  C1  UNL     1      20.819 -14.132  26.613  1.00  0.00     0.433 C 
HETATM   20  F1  UNL     1      20.840 -12.778  26.419  1.00  0.00    -0.165 F 
HETATM   21  F2  UNL     1      20.113 -14.388  27.775  1.00  0.00    -0.165 F 
HETATM   22  F3  UNL     1      22.068 -14.682  26.741  1.00  0.00    -0.165 F 
ENDBRANCH  13  19
BRANCH  15  23
HETATM   23  N5  UNL     1      19.097 -18.069  24.634  1.00  0.00    -0.217 N 
ATOM     24  H5  UNL     1      19.710 -18.474  23.926  1.00  0.00     0.178 HD
BRANCH  23  25
HETATM   25  C18 UNL     1      18.413 -19.118  25.184  1.00  0.00     0.147 C 
HETATM   26  C19 UNL     1      17.079 -18.776  25.816  1.00  0.00     0.195 C 
HETATM   27  O3  UNL     1      17.588 -19.074  27.070  1.00  0.00    -0.387 OA
HETATM   28  C20 UNL     1      18.783 -19.574  26.591  1.00  0.00     0.195 C 
ENDBRANCH  23  25
ENDBRANCH  15  23
ENDBRANCH   1  11
BRANCH   5  29
HETATM   29  O1  UNL     1      16.471 -12.091  18.621  1.00  0.00    -0.335 OA
BRANCH  29  30
HETATM   30  C8  UNL     1      17.085 -12.668  17.481  1.00  0.00     0.182 C 
BRANCH  30  31
HETATM   31  C9  UNL     1      15.994 -12.937  16.469  1.00  0.00     0.010 A 
HETATM   32  C10 UNL     1      14.886 -13.854  16.778  1.00  0.00     0.007 A 
HETATM   33  C11 UNL     1      14.649 -12.336  16.740  1.00  0.00     0.007 A 
ENDBRANCH  30  31
ENDBRANCH  29  30
ENDBRANCH   5  29
BRANCH   8  34
HETATM   34  O2  UNL     1      14.053 -13.498  22.503  1.00  0.00    -0.321 OA
BRANCH  34  35
HETATM   35  C13 UNL     1      12.920 -12.856  21.911  1.00  0.00     0.183 C 
BRANCH  35  36
HETATM   36  C14 UNL     1      12.501 -11.656  22.697  1.00  0.00     0.010 A 
HETATM   37  C15 UNL     1      11.736 -10.590  21.982  1.00  0.00     0.007 A 
HETATM   38  C16 UNL     1      13.157 -10.331  22.311  1.00  0.00     0.007 A 
ENDBRANCH  35  36
ENDBRANCH  34  35
ENDBRANCH   8  34
TORSDOF 10
ENDMDL
MODEL 5
REMARK VINA RESULT: -8.342902632      3.843      7.468
REMARK  10 active torsions:
REMARK  status: ('A' for Active; 'I' for Inactive)
REMARK    1  A    between atoms: C1_2  and  C2_5 
REMARK    2  A    between atoms: C4_7  and  N1_8 
REMARK    3  A    between atoms: C7_12  and  O1_13 
REMARK    4  A    between atoms: O1_13  and  C8_14 
REMARK    5  A    between atoms: C8_14  and  C9_15 
REMARK    6  A    between atoms: C12_20  and  O2_21 
REMARK    7  A    between atoms: O2_21  and  C13_22 
REMARK    8  A    between atoms: C13_22  and  C14_23 
REMARK    9  A    between atoms: C17_30  and  N5_31 
REMARK   10  A    between atoms: N5_31  and  C18_33 
ROOT
HETATM    1  N1  UNL     1      18.049 -14.189  22.307  1.00  0.00    -0.328 N 
ATOM      2  H1  UNL     1      18.859 -14.254  21.691  1.00  0.00     0.169 HD
HETATM    3  C5  UNL     1      17.094 -13.614  21.744  1.00  0.00     0.113 A 
HETATM    4  C6  UNL     1      17.251 -13.157  20.413  1.00  0.00     0.104 A 
HETATM    5  C7  UNL     1      16.244 -12.521  19.746  1.00  0.00     0.148 A 
HETATM    6  N2  UNL     1      15.086 -12.330  20.383  1.00  0.00    -0.302 N 
ATOM      7  H2  UNL     1      14.319 -11.855  19.906  1.00  0.00     0.171 HD
HETATM    8  C12 UNL     1      14.920 -12.767  21.671  1.00  0.00     0.227 A 
HETATM    9  N3  UNL     1      15.907 -13.392  22.327  1.00  0.00    -0.308 N 
ATOM     10  H3  UNL     1      15.753 -13.705  23.285  1.00  0.00     0.171 HD
ENDROOT
BRANCH   1  11
HETATM   11  C4  UNL     1      18.301 -14.757  23.530  1.00  0.00     0.124 A 
HETATM   12  C3  UNL     1      19.343 -14.360  24.365  1.00  0.00     0.084 A 
HETATM   13  C2  UNL     1      19.603 -14.965  25.585  1.00  0.00     0.136 A 
HETATM   14  N6  UNL     1      18.804 -15.976  25.969  1.00  0.00    -0.187 N 
HETATM   15  C17 UNL     1      17.795 -16.397  25.214  1.00  0.00     0.680 A 
ATOM     16  H6  UNL     1      18.978 -16.433  26.864  1.00  0.00     0.184 HD
HETATM   17  N4  UNL     1      17.563 -15.783  24.027  1.00  0.00    -0.177 N 
ATOM     18  H4  UNL     1      16.779 -16.117  23.467  1.00  0.00     0.186 HD
BRANCH  13  19
HETATM   19  C1  UNL     1      20.742 -14.507  26.457  1.00  0.00     0.433 C 
HETATM   20  F1  UNL     1      21.372 -13.396  25.968  1.00  0.00    -0.165 F 
HETATM   21  F2  UNL     1      20.205 -14.186  27.692  1.00  0.00    -0.165 F 
HETATM   22  F3  UNL     1      21.579 -15.580  26.620  1.00  0.00    -0.165 F 
ENDBRANCH  13  19
BRANCH  15  23
HETATM   23  N5  UNL     1      17.050 -17.311  25.516  1.00  0.00    -0.217 N 
ATOM     24  H5  UNL     1      16.503 -16.977  26.309  1.00  0.00     0.178 HD
BRANCH  23  25
HETATM   25  C18 UNL     1      16.617 -18.585  25.270  1.00  0.00     0.147 C 
HETATM   26  C19 UNL     1      17.488 -19.410  24.346  1.00  0.00     0.195 C 
HETATM   27  O3  UNL     1      16.490 -19.399  23.383  1.00  0.00    -0.387 OA
HETATM   28  C20 UNL     1      15.552 -18.801  24.201  1.00  0.00     0.195 C 
ENDBRANCH  23  25
ENDBRANCH  15  23
ENDBRANCH   1  11
BRANCH   5  29
HETATM   29  O1  UNL     1      16.464 -12.094  18.448  1.00  0.00    -0.335 OA
BRANCH  29  30
HETATM   30  C8  UNL     1      16.598 -12.950  17.326  1.00  0.00     0.182 C 
BRANCH  30  31
HETATM   31  C9  UNL     1      15.234 -13.540  17.044  1.00  0.00     0.010 A 
HETATM   32  C10 UNL     1      15.023 -14.441  15.901  1.00  0.00     0.007 A 
HETATM   33  C11 UNL     1      15.048 -14.997  17.333  1.00  0.00     0.007 A 
ENDBRANCH  30  31
ENDBRANCH  29  30
ENDBRANCH   5  29
BRANCH   8  34
HETATM   34  O2  UNL     1      13.705 -12.564  22.331  1.00  0.00    -0.321 OA
BRANCH  34  35
HETATM   35  C13 UNL     1      12.605 -12.189  21.497  1.00  0.00     0.183 C 
BRANCH  35  36
HETATM   36  C14 UNL     1      11.939 -10.950  22.001  1.00  0.00     0.010 A 
HETATM   37  C15 UNL     1      12.547 -10.266  23.182  1.00  0.00     0.007 A 
HETATM   38  C16 UNL     1      11.301 -11.038  23.387  1.00  0.00     0.007 A 
ENDBRANCH  35  36
ENDBRANCH  34  35
ENDBRANCH   8  34
TORSDOF 10
ENDMDL
