MODEL 1
REMARK VINA RESULT: -7.666684504      0.000      0.000
REMARK  13 active torsions:
REMARK  status: ('A' for Active; 'I' for Inactive)
REMARK    1  A    between atoms: C2_2  and  O1_3 
REMARK    2  A    between atoms: O1_3  and  C3_4 
REMARK    3  A    between atoms: C3_4  and  C4_6 
REMARK    4  A    between atoms: C4_6  and  C5_7 
REMARK    5  A    between atoms: C4_6  and  C15_26 
REMARK    6  A    between atoms: C5_7  and  C6_8 
REMARK    7  A    between atoms: C6_8  and  S1_9 
REMARK    8  A    between atoms: S1_9  and  C7_10 
REMARK    9  A    between atoms: C7_10  and  N2_23 
REMARK   10  A    between atoms: N1_11  and  C8_13 
REMARK   11  A    between atoms: C11_17  and  O4_18 
REMARK   12  A    between atoms: C12_20  and  O5_21 
REMARK   13  A    between atoms: C15_26  and  C16_29 
ROOT
HETATM    1  S1  UNL     1      16.013 -15.695  21.419  1.00  0.00    -0.094 SA
ENDROOT
BRANCH   1   2
HETATM    2  C6  UNL     1      16.902 -14.971  22.883  1.00  0.00     0.083 C 
BRANCH   2   3
HETATM    3  C5  UNL     1      18.238 -15.589  22.892  1.00  0.00     0.031 C 
BRANCH   3   4
HETATM    4  C4  UNL     1      19.441 -14.712  23.137  1.00  0.00     0.159 C 
BRANCH   4   5
HETATM    5  C3  UNL     1      20.037 -15.351  24.354  1.00  0.00     0.269 C 
HETATM    6  O2  UNL     1      19.606 -16.459  24.736  1.00  0.00    -0.265 OA
BRANCH   5   7
HETATM    7  O1  UNL     1      21.057 -14.730  25.054  1.00  0.00    -0.321 OA
BRANCH   7   8
HETATM    8  C2  UNL     1      20.735 -13.594  25.864  1.00  0.00     0.174 C 
HETATM    9  C1  UNL     1      20.805 -13.916  27.332  1.00  0.00     0.034 C 
ENDBRANCH   7   8
ENDBRANCH   5   7
ENDBRANCH   4   5
BRANCH   4  10
HETATM   10  C15 UNL     1      20.322 -14.708  21.967  1.00  0.00     0.260 C 
HETATM   11  F1  UNL     1      21.445 -13.952  22.227  1.00  0.00    -0.205 F 
HETATM   12  F2  UNL     1      20.741 -16.008  21.737  1.00  0.00    -0.205 F 
BRANCH  10  13
HETATM   13  C16 UNL     1      19.785 -14.248  20.662  1.00  0.00     0.063 A 
HETATM   14  C17 UNL     1      20.374 -13.259  19.778  1.00  0.00     0.015 A 
HETATM   15  C18 UNL     1      19.007 -12.988  20.464  1.00  0.00    -0.008 A 
HETATM   16  C19 UNL     1      17.797 -13.002  19.543  1.00  0.00     0.010 C 
ENDBRANCH  10  13
ENDBRANCH   4  10
ENDBRANCH   3   4
ENDBRANCH   2   3
ENDBRANCH   1   2
BRANCH   1  17
HETATM   17  C7  UNL     1      14.320 -15.942  21.873  1.00  0.00     0.139 C 
HETATM   18  N1  UNL     1      13.562 -14.941  22.076  1.00  0.00    -0.342 N 
ATOM     19  H1  UNL     1      12.596 -15.145  22.335  1.00  0.00     0.164 HD
BRANCH  18  20
HETATM   20  C8  UNL     1      13.922 -13.562  21.979  1.00  0.00     0.254 C 
HETATM   21  O3  UNL     1      13.170 -12.795  22.829  1.00  0.00    -0.356 OA
HETATM   22  C9  UNL     1      13.055 -11.530  22.326  1.00  0.00     0.151 C 
HETATM   23  C10 UNL     1      11.609 -11.126  22.298  1.00  0.00     0.042 C 
HETATM   24  C11 UNL     1      13.594 -11.503  20.935  1.00  0.00     0.179 C 
HETATM   25  C12 UNL     1      13.632 -12.998  20.590  1.00  0.00     0.198 C 
BRANCH  24  26
HETATM   26  O4  UNL     1      12.810 -10.825  20.028  1.00  0.00    -0.390 OA
ATOM     27  H4  UNL     1      13.283 -10.217  19.473  1.00  0.00     0.210 HD
ENDBRANCH  24  26
BRANCH  25  28
HETATM   28  O5  UNL     1      12.372 -13.360  20.173  1.00  0.00    -0.389 OA
ATOM     29  H5  UNL     1      11.758 -12.647  20.303  1.00  0.00     0.210 HD
ENDBRANCH  25  28
ENDBRANCH  18  20
BRANCH  17  30
HETATM   30  N2  UNL     1      13.804 -17.246  22.012  1.00  0.00    -0.371 N 
HETATM   31  C13 UNL     1      12.546 -17.558  21.386  1.00  0.00     0.151 C 
HETATM   32  C14 UNL     1      14.545 -18.238  22.776  1.00  0.00     0.151 C 
ENDBRANCH  17  30
ENDBRANCH   1  17
TORSDOF 13
ENDMDL
MODEL 2
REMARK VINA RESULT: -7.660822261      0.810      1.066
REMARK  13 active torsions:
REMARK  status: ('A' for Active; 'I' for Inactive)
REMARK    1  A    between atoms: C2_2  and  O1_3 
REMARK    2  A    between atoms: O1_3  and  C3_4 
REMARK    3  A    between atoms: C3_4  and  C4_6 
REMARK    4  A    between atoms: C4_6  and  C5_7 
REMARK    5  A    between atoms: C4_6  and  C15_26 
REMARK    6  A    between atoms: C5_7  and  C6_8 
REMARK    7  A    between atoms: C6_8  and  S1_9 
REMARK    8  A    between atoms: S1_9  and  C7_10 
REMARK    9  A    between atoms: C7_10  and  N2_23 
REMARK   10  A    between atoms: N1_11  and  C8_13 
REMARK   11  A    between atoms: C11_17  and  O4_18 
REMARK   12  A    between atoms: C12_20  and  O5_21 
REMARK   13  A    between atoms: C15_26  and  C16_29 
ROOT
HETATM    1  S1  UNL     1      16.132 -15.579  21.598  1.00  0.00    -0.094 SA
ENDROOT
BRANCH   1   2
HETATM    2  C6  UNL     1      16.885 -14.803  23.110  1.00  0.00     0.083 C 
BRANCH   2   3
HETATM    3  C5  UNL     1      18.256 -15.330  23.195  1.00  0.00     0.031 C 
BRANCH   3   4
HETATM    4  C4  UNL     1      19.405 -14.354  23.264  1.00  0.00     0.159 C 
BRANCH   4   5
HETATM    5  C3  UNL     1      19.965 -14.640  24.623  1.00  0.00     0.269 C 
HETATM    6  O2  UNL     1      20.307 -13.688  25.356  1.00  0.00    -0.265 OA
BRANCH   5   7
HETATM    7  O1  UNL     1      20.104 -15.941  25.074  1.00  0.00    -0.321 OA
BRANCH   7   8
HETATM    8  C2  UNL     1      19.899 -16.206  26.466  1.00  0.00     0.174 C 
HETATM    9  C1  UNL     1      18.450 -16.467  26.777  1.00  0.00     0.034 C 
ENDBRANCH   7   8
ENDBRANCH   5   7
ENDBRANCH   4   5
BRANCH   4  10
HETATM   10  C15 UNL     1      20.346 -14.588  22.165  1.00  0.00     0.260 C 
HETATM   11  F1  UNL     1      21.568 -14.025  22.464  1.00  0.00    -0.205 F 
HETATM   12  F2  UNL     1      20.536 -15.955  22.043  1.00  0.00    -0.205 F 
BRANCH  10  13
HETATM   13  C16 UNL     1      19.984 -14.134  20.799  1.00  0.00     0.063 A 
HETATM   14  C17 UNL     1      20.559 -13.015  20.072  1.00  0.00     0.015 A 
HETATM   15  C18 UNL     1      19.066 -12.994  20.501  1.00  0.00    -0.008 A 
HETATM   16  C19 UNL     1      18.058 -13.131  19.371  1.00  0.00     0.010 C 
ENDBRANCH  10  13
ENDBRANCH   4  10
ENDBRANCH   3   4
ENDBRANCH   2   3
ENDBRANCH   1   2
BRANCH   1  17
HETATM   17  C7  UNL     1      14.416 -15.865  21.925  1.00  0.00     0.139 C 
HETATM   18  N1  UNL     1      13.619 -14.882  22.055  1.00  0.00    -0.342 N 
ATOM     19  H1  UNL     1      12.642 -15.107  22.242  1.00  0.00     0.164 HD
BRANCH  18  20
HETATM   20  C8  UNL     1      13.951 -13.495  21.965  1.00  0.00     0.254 C 
HETATM   21  O3  UNL     1      13.186 -12.749  22.821  1.00  0.00    -0.356 OA
HETATM   22  C9  UNL     1      13.044 -11.483  22.325  1.00  0.00     0.151 C 
HETATM   23  C10 UNL     1      11.589 -11.109  22.303  1.00  0.00     0.042 C 
HETATM   24  C11 UNL     1      13.578 -11.437  20.934  1.00  0.00     0.179 C 
HETATM   25  C12 UNL     1      13.646 -12.929  20.579  1.00  0.00     0.198 C 
BRANCH  24  26
HETATM   26  O4  UNL     1      12.779 -10.770  20.032  1.00  0.00    -0.390 OA
ATOM     27  H4  UNL     1      12.879  -9.826  20.037  1.00  0.00     0.210 HD
ENDBRANCH  24  26
BRANCH  25  28
HETATM   28  O5  UNL     1      12.393 -13.314  20.163  1.00  0.00    -0.389 OA
ATOM     29  H5  UNL     1      12.408 -13.569  19.248  1.00  0.00     0.210 HD
ENDBRANCH  25  28
ENDBRANCH  18  20
BRANCH  17  30
HETATM   30  N2  UNL     1      13.924 -17.181  22.044  1.00  0.00    -0.371 N 
HETATM   31  C13 UNL     1      12.704 -17.522  21.360  1.00  0.00     0.151 C 
HETATM   32  C14 UNL     1      14.650 -18.154  22.844  1.00  0.00     0.151 C 
ENDBRANCH  17  30
ENDBRANCH   1  17
TORSDOF 13
ENDMDL
MODEL 3
REMARK VINA RESULT: -7.409533703      3.336      8.245
REMARK  13 active torsions:
REMARK  status: ('A' for Active; 'I' for Inactive)
REMARK    1  A    between atoms: C2_2  and  O1_3 
REMARK    2  A    between atoms: O1_3  and  C3_4 
REMARK    3  A    between atoms: C3_4  and  C4_6 
REMARK    4  A    between atoms: C4_6  and  C5_7 
REMARK    5  A    between atoms: C4_6  and  C15_26 
REMARK    6  A    between atoms: C5_7  and  C6_8 
REMARK    7  A    between atoms: C6_8  and  S1_9 
REMARK    8  A    between atoms: S1_9  and  C7_10 
REMARK    9  A    between atoms: C7_10  and  N2_23 
REMARK   10  A    between atoms: N1_11  and  C8_13 
REMARK   11  A    between atoms: C11_17  and  O4_18 
REMARK   12  A    between atoms: C12_20  and  O5_21 
REMARK   13  A    between atoms: C15_26  and  C16_29 
ROOT
HETATM    1  S1  UNL     1      17.300 -15.027  21.788  1.00  0.00    -0.094 SA
ENDROOT
BRANCH   1   2
HETATM    2  C6  UNL     1      16.080 -13.705  22.257  1.00  0.00     0.083 C 
BRANCH   2   3
HETATM    3  C5  UNL     1      14.829 -14.043  21.560  1.00  0.00     0.031 C 
BRANCH   3   4
HETATM    4  C4  UNL     1      13.892 -12.926  21.170  1.00  0.00     0.159 C 
BRANCH   4   5
HETATM    5  C3  UNL     1      13.965 -12.978  19.675  1.00  0.00     0.269 C 
HETATM    6  O2  UNL     1      13.658 -11.964  19.012  1.00  0.00    -0.265 OA
BRANCH   5   7
HETATM    7  O1  UNL     1      14.370 -14.131  19.023  1.00  0.00    -0.321 OA
BRANCH   7   8
HETATM    8  C2  UNL     1      14.736 -14.040  17.642  1.00  0.00     0.174 C 
HETATM    9  C1  UNL     1      15.138 -15.377  17.082  1.00  0.00     0.034 C 
ENDBRANCH   7   8
ENDBRANCH   5   7
ENDBRANCH   4   5
BRANCH   4  10
HETATM   10  C15 UNL     1      12.553 -13.165  21.714  1.00  0.00     0.260 C 
HETATM   11  F1  UNL     1      11.772 -13.807  20.778  1.00  0.00    -0.205 F 
HETATM   12  F2  UNL     1      12.674 -14.010  22.805  1.00  0.00    -0.205 F 
BRANCH  10  13
HETATM   13  C16 UNL     1      11.764 -12.012  22.216  1.00  0.00     0.063 A 
HETATM   14  C17 UNL     1      11.836 -10.638  21.751  1.00  0.00     0.015 A 
HETATM   15  C18 UNL     1      12.267 -11.004  23.198  1.00  0.00    -0.008 A 
HETATM   16  C19 UNL     1      11.341 -10.518  24.301  1.00  0.00     0.010 C 
ENDBRANCH  10  13
ENDBRANCH   4  10
ENDBRANCH   3   4
ENDBRANCH   2   3
ENDBRANCH   1   2
BRANCH   1  17
HETATM   17  C7  UNL     1      18.846 -14.242  21.426  1.00  0.00     0.139 C 
HETATM   18  N1  UNL     1      19.807 -14.314  22.254  1.00  0.00    -0.342 N 
ATOM     19  H1  UNL     1      20.673 -13.843  21.992  1.00  0.00     0.164 HD
BRANCH  18  20
HETATM   20  C8  UNL     1      19.801 -14.987  23.515  1.00  0.00     0.254 C 
HETATM   21  O3  UNL     1      19.529 -14.117  24.537  1.00  0.00    -0.356 OA
HETATM   22  C9  UNL     1      20.108 -14.569  25.690  1.00  0.00     0.151 C 
HETATM   23  C10 UNL     1      20.920 -13.469  26.313  1.00  0.00     0.042 C 
HETATM   24  C11 UNL     1      21.008 -15.715  25.372  1.00  0.00     0.179 C 
HETATM   25  C12 UNL     1      21.173 -15.568  23.854  1.00  0.00     0.198 C 
BRANCH  24  26
HETATM   26  O4  UNL     1      22.238 -15.670  25.991  1.00  0.00    -0.390 OA
ATOM     27  H4  UNL     1      22.941 -16.081  25.504  1.00  0.00     0.210 HD
ENDBRANCH  24  26
BRANCH  25  28
HETATM   28  O5  UNL     1      22.161 -14.637  23.632  1.00  0.00    -0.389 OA
ATOM     29  H5  UNL     1      22.915 -15.041  23.219  1.00  0.00     0.210 HD
ENDBRANCH  25  28
ENDBRANCH  18  20
BRANCH  17  30
HETATM   30  N2  UNL     1      19.018 -13.534  20.219  1.00  0.00    -0.371 N 
HETATM   31  C13 UNL     1      20.353 -13.180  19.815  1.00  0.00     0.151 C 
HETATM   32  C14 UNL     1      17.857 -13.179  19.418  1.00  0.00     0.151 C 
ENDBRANCH  17  30
ENDBRANCH   1  17
TORSDOF 13
ENDMDL
MODEL 4
REMARK VINA RESULT: -7.406435493      1.706      3.425
REMARK  13 active torsions:
REMARK  status: ('A' for Active; 'I' for Inactive)
REMARK    1  A    between atoms: C2_2  and  O1_3 
REMARK    2  A    between atoms: O1_3  and  C3_4 
REMARK    3  A    between atoms: C3_4  and  C4_6 
REMARK    4  A    between atoms: C4_6  and  C5_7 
REMARK    5  A    between atoms: C4_6  and  C15_26 
REMARK    6  A    between atoms: C5_7  and  C6_8 
REMARK    7  A    between atoms: C6_8  and  S1_9 
REMARK    8  A    between atoms: S1_9  and  C7_10 
REMARK    9  A    between atoms: C7_10  and  N2_23 
REMARK   10  A    between atoms: N1_11  and  C8_13 
REMARK   11  A    between atoms: C11_17  and  O4_18 
REMARK   12  A    between atoms: C12_20  and  O5_21 
REMARK   13  A    between atoms: C15_26  and  C16_29 
ROOT
HETATM    1  S1  UNL     1      15.507 -15.807  20.386  1.00  0.00    -0.094 SA
ENDROOT
BRANCH   1   2
HETATM    2  C6  UNL     1      17.040 -16.469  21.204  1.00  0.00     0.083 C 
BRANCH   2   3
HETATM    3  C5  UNL     1      17.305 -15.580  22.347  1.00  0.00     0.031 C 
BRANCH   3   4
HETATM    4  C4  UNL     1      18.733 -15.373  22.789  1.00  0.00     0.159 C 
BRANCH   4   5
HETATM    5  C3  UNL     1      19.108 -14.137  22.032  1.00  0.00     0.269 C 
HETATM    6  O2  UNL     1      18.292 -13.194  21.959  1.00  0.00    -0.265 OA
BRANCH   5   7
HETATM    7  O1  UNL     1      20.344 -14.029  21.418  1.00  0.00    -0.321 OA
BRANCH   7   8
HETATM    8  C2  UNL     1      20.580 -12.912  20.553  1.00  0.00     0.174 C 
HETATM    9  C1  UNL     1      20.299 -13.250  19.115  1.00  0.00     0.034 C 
ENDBRANCH   7   8
ENDBRANCH   5   7
ENDBRANCH   4   5
BRANCH   4  10
HETATM   10  C15 UNL     1      18.805 -15.232  24.245  1.00  0.00     0.260 C 
HETATM   11  F1  UNL     1      17.619 -14.720  24.727  1.00  0.00    -0.205 F 
HETATM   12  F2  UNL     1      18.967 -16.493  24.795  1.00  0.00    -0.205 F 
BRANCH  10  13
HETATM   13  C16 UNL     1      19.897 -14.419  24.837  1.00  0.00     0.063 A 
HETATM   14  C17 UNL     1      21.320 -14.708  24.793  1.00  0.00     0.015 A 
HETATM   15  C18 UNL     1      20.556 -14.712  26.146  1.00  0.00    -0.008 A 
HETATM   16  C19 UNL     1      20.881 -13.560  27.084  1.00  0.00     0.010 C 
ENDBRANCH  10  13
ENDBRANCH   4  10
ENDBRANCH   3   4
ENDBRANCH   2   3
ENDBRANCH   1   2
BRANCH   1  17
HETATM   17  C7  UNL     1      14.151 -16.026  21.503  1.00  0.00     0.139 C 
HETATM   18  N1  UNL     1      13.615 -15.017  22.060  1.00  0.00    -0.342 N 
ATOM     19  H1  UNL     1      12.837 -15.204  22.694  1.00  0.00     0.164 HD
BRANCH  18  20
HETATM   20  C8  UNL     1      13.987 -13.648  21.891  1.00  0.00     0.254 C 
HETATM   21  O3  UNL     1      13.327 -12.844  22.782  1.00  0.00    -0.356 OA
HETATM   22  C9  UNL     1      13.188 -11.590  22.254  1.00  0.00     0.151 C 
HETATM   23  C10 UNL     1      11.752 -11.160  22.343  1.00  0.00     0.042 C 
HETATM   24  C11 UNL     1      13.600 -11.613  20.820  1.00  0.00     0.179 C 
HETATM   25  C12 UNL     1      13.582 -13.117  20.517  1.00  0.00     0.198 C 
BRANCH  24  26
HETATM   26  O4  UNL     1      12.749 -10.946  19.967  1.00  0.00    -0.390 OA
ATOM     27  H4  UNL     1      12.863 -11.157  19.048  1.00  0.00     0.210 HD
ENDBRANCH  24  26
BRANCH  25  28
HETATM   28  O5  UNL     1      12.285 -13.467  20.225  1.00  0.00    -0.389 OA
ATOM     29  H5  UNL     1      11.809 -12.725  19.871  1.00  0.00     0.210 HD
ENDBRANCH  25  28
ENDBRANCH  18  20
BRANCH  17  30
HETATM   30  N2  UNL     1      13.661 -17.318  21.780  1.00  0.00    -0.371 N 
HETATM   31  C13 UNL     1      12.484 -17.769  21.086  1.00  0.00     0.151 C 
HETATM   32  C14 UNL     1      14.345 -18.158  22.750  1.00  0.00     0.151 C 
ENDBRANCH  17  30
ENDBRANCH   1  17
TORSDOF 13
ENDMDL
MODEL 5
REMARK VINA RESULT: -7.401847596      2.607      4.444
REMARK  13 active torsions:
REMARK  status: ('A' for Active; 'I' for Inactive)
REMARK    1  A    between atoms: C2_2  and  O1_3 
REMARK    2  A    between atoms: O1_3  and  C3_4 
REMARK    3  A    between atoms: C3_4  and  C4_6 
REMARK    4  A    between atoms: C4_6  and  C5_7 
REMARK    5  A    between atoms: C4_6  and  C15_26 
REMARK    6  A    between atoms: C5_7  and  C6_8 
REMARK    7  A    between atoms: C6_8  and  S1_9 
REMARK    8  A    between atoms: S1_9  and  C7_10 
REMARK    9  A    between atoms: C7_10  and  N2_23 
REMARK   10  A    between atoms: N1_11  and  C8_13 
REMARK   11  A    between atoms: C11_17  and  O4_18 
REMARK   12  A    between atoms: C12_20  and  O5_21 
REMARK   13  A    between atoms: C15_26  and  C16_29 
ROOT
HETATM    1  S1  UNL     1      16.965 -12.614  21.064  1.00  0.00    -0.094 SA
ENDROOT
BRANCH   1   2
HETATM    2  C6  UNL     1      16.806 -14.251  21.931  1.00  0.00     0.083 C 
BRANCH   2   3
HETATM    3  C5  UNL     1      17.919 -14.309  22.892  1.00  0.00     0.031 C 
BRANCH   3   4
HETATM    4  C4  UNL     1      18.587 -15.638  23.150  1.00  0.00     0.159 C 
BRANCH   4   5
HETATM    5  C3  UNL     1      19.856 -15.494  22.368  1.00  0.00     0.269 C 
HETATM    6  O2  UNL     1      20.616 -16.479  22.250  1.00  0.00    -0.265 OA
BRANCH   5   7
HETATM    7  O1  UNL     1      20.193 -14.290  21.776  1.00  0.00    -0.321 OA
BRANCH   7   8
HETATM    8  C2  UNL     1      20.228 -14.219  20.346  1.00  0.00     0.174 C 
HETATM    9  C1  UNL     1      20.650 -12.858  19.864  1.00  0.00     0.034 C 
ENDBRANCH   7   8
ENDBRANCH   5   7
ENDBRANCH   4   5
BRANCH   4  10
HETATM   10  C15 UNL     1      18.785 -15.844  24.586  1.00  0.00     0.260 C 
HETATM   11  F1  UNL     1      17.713 -15.336  25.287  1.00  0.00    -0.205 F 
HETATM   12  F2  UNL     1      18.829 -17.208  24.824  1.00  0.00    -0.205 F 
BRANCH  10  13
HETATM   13  C16 UNL     1      20.013 -15.310  25.228  1.00  0.00     0.063 A 
HETATM   14  C17 UNL     1      20.982 -16.056  26.010  1.00  0.00     0.015 A 
HETATM   15  C18 UNL     1      20.122 -14.945  26.673  1.00  0.00    -0.008 A 
HETATM   16  C19 UNL     1      20.871 -13.681  27.062  1.00  0.00     0.010 C 
ENDBRANCH  10  13
ENDBRANCH   4  10
ENDBRANCH   3   4
ENDBRANCH   2   3
ENDBRANCH   1   2
BRANCH   1  17
HETATM   17  C7  UNL     1      15.639 -12.481  19.898  1.00  0.00     0.139 C 
HETATM   18  N1  UNL     1      14.480 -12.133  20.287  1.00  0.00    -0.342 N 
ATOM     19  H1  UNL     1      13.756 -12.074  19.570  1.00  0.00     0.164 HD
BRANCH  18  20
HETATM   20  C8  UNL     1      14.086 -11.816  21.623  1.00  0.00     0.254 C 
HETATM   21  O3  UNL     1      13.263 -12.783  22.137  1.00  0.00    -0.356 OA
HETATM   22  C9  UNL     1      12.435 -12.230  23.073  1.00  0.00     0.151 C 
HETATM   23  C10 UNL     1      11.011 -12.599  22.770  1.00  0.00     0.042 C 
HETATM   24  C11 UNL     1      12.570 -10.745  23.035  1.00  0.00     0.179 C 
HETATM   25  C12 UNL     1      13.259 -10.533  21.680  1.00  0.00     0.198 C 
BRANCH  24  26
HETATM   26  O4  UNL     1      11.377 -10.058  23.075  1.00  0.00    -0.390 OA
ATOM     27  H4  UNL     1      11.246  -9.538  23.859  1.00  0.00     0.210 HD
ENDBRANCH  24  26
BRANCH  25  28
HETATM   28  O5  UNL     1      12.283 -10.542  20.712  1.00  0.00    -0.389 OA
ATOM     29  H5  UNL     1      12.217 -11.400  20.311  1.00  0.00     0.210 HD
ENDBRANCH  25  28
ENDBRANCH  18  20
BRANCH  17  30
HETATM   30  N2  UNL     1      15.862 -12.761  18.534  1.00  0.00    -0.371 N 
HETATM   31  C13 UNL     1      17.213 -12.978  18.089  1.00  0.00     0.151 C 
HETATM   32  C14 UNL     1      14.735 -12.823  17.616  1.00  0.00     0.151 C 
ENDBRANCH  17  30
ENDBRANCH   1  17
TORSDOF 13
ENDMDL
