MODEL 1
REMARK VINA RESULT: -8.448526683      0.000      0.000
REMARK  10 active torsions:
REMARK  status: ('A' for Active; 'I' for Inactive)
REMARK    1  A    between atoms: O1_2  and  C2_3 
REMARK    2  A    between atoms: C4_5  and  C5_6 
REMARK    3  A    between atoms: C5_6  and  O2_7 
REMARK    4  A    between atoms: C6_9  and  O3_10 
REMARK    5  A    between atoms: C7_12  and  C8_13 
REMARK    6  A    between atoms: C8_13  and  C9_14 
REMARK    7  A    between atoms: C9_14  and  C10_15 
REMARK    8  A    between atoms: C10_15  and  C11_16 
REMARK    9  A    between atoms: C11_16  and  N1_17 
REMARK   10  A    between atoms: N2_20  and  C14_21 
ROOT
HETATM    1  C10 UNL     1      19.250 -13.200  20.513  1.00  0.00     0.044 C 
ENDROOT
BRANCH   1   2
HETATM    2  C9  UNL     1      19.949 -14.462  20.882  1.00  0.00     0.006 C 
BRANCH   2   3
HETATM    3  C8  UNL     1      20.609 -14.276  22.257  1.00  0.00     0.010 C 
BRANCH   3   4
HETATM    4  C7  UNL     1      19.897 -15.162  23.220  1.00  0.00     0.045 C 
HETATM    5  C6  UNL     1      19.020 -14.397  24.175  1.00  0.00     0.138 C 
HETATM    6  C4  UNL     1      19.973 -14.767  25.293  1.00  0.00     0.038 C 
HETATM    7  C3  UNL     1      19.428 -15.662  26.357  1.00  0.00     0.077 C 
HETATM    8  C22 UNL     1      20.722 -15.684  24.384  1.00  0.00     0.144 C 
HETATM    9  C2  UNL     1      19.722 -17.056  25.862  1.00  0.00     0.260 C 
HETATM   10  O4  UNL     1      20.371 -16.979  24.662  1.00  0.00    -0.355 OA
BRANCH   5  11
HETATM   11  O3  UNL     1      17.763 -15.003  24.266  1.00  0.00    -0.394 OA
ATOM     12  H3  UNL     1      17.039 -14.392  24.341  1.00  0.00     0.210 HD
ENDBRANCH   5  11
BRANCH   6  13
HETATM   13  C5  UNL     1      20.765 -13.609  25.849  1.00  0.00     0.179 C 
BRANCH  13  14
HETATM   14  O2  UNL     1      20.778 -13.659  27.242  1.00  0.00    -0.400 OA
ATOM     15  H2  UNL     1      21.272 -14.415  27.538  1.00  0.00     0.209 HD
ENDBRANCH  13  14
ENDBRANCH   6  13
BRANCH   9  16
HETATM   16  O1  UNL     1      18.485 -17.707  25.774  1.00  0.00    -0.366 OA
HETATM   17  C1  UNL     1      18.421 -18.512  24.638  1.00  0.00     0.204 C 
ENDBRANCH   9  16
ENDBRANCH   3   4
ENDBRANCH   2   3
ENDBRANCH   1   2
BRANCH   1  18
HETATM   18  C11 UNL     1      18.133 -13.322  19.541  1.00  0.00     0.063 C 
BRANCH  18  19
HETATM   19  N1  UNL     1      16.826 -13.379  19.978  1.00  0.00    -0.371 N 
HETATM   20  C12 UNL     1      15.742 -13.206  19.113  1.00  0.00     0.083 C 
HETATM   21  C13 UNL     1      14.540 -12.608  19.807  1.00  0.00     0.167 C 
HETATM   22  N2  UNL     1      14.483 -12.783  21.226  1.00  0.00    -0.369 N 
HETATM   23  C20 UNL     1      15.450 -13.588  21.927  1.00  0.00     0.143 C 
HETATM   24  C21 UNL     1      16.458 -14.273  20.992  1.00  0.00     0.146 C 
BRANCH  22  25
HETATM   25  C14 UNL     1      13.437 -12.157  21.994  1.00  0.00     0.112 A 
HETATM   26  C15 UNL     1      13.398 -10.788  22.184  1.00  0.00     0.149 A 
HETATM   27  F1  UNL     1      14.320  -9.966  21.644  1.00  0.00    -0.203 F 
HETATM   28  C16 UNL     1      12.398 -10.160  22.935  1.00  0.00     0.090 A 
HETATM   29  C17 UNL     1      11.408 -10.913  23.518  1.00  0.00     0.161 A 
HETATM   30  F2  UNL     1      10.428 -10.342  24.249  1.00  0.00    -0.203 F 
HETATM   31  C18 UNL     1      11.438 -12.274  23.336  1.00  0.00     0.195 A 
HETATM   32  F3  UNL     1      10.476 -13.042  23.897  1.00  0.00    -0.199 F 
HETATM   33  C19 UNL     1      12.432 -12.910  22.587  1.00  0.00     0.187 A 
HETATM   34  F4  UNL     1      12.380 -14.252  22.468  1.00  0.00    -0.200 F 
ENDBRANCH  22  25
ENDBRANCH  18  19
ENDBRANCH   1  18
TORSDOF 10
ENDMDL
MODEL 2
REMARK VINA RESULT: -8.430420868      0.473      1.650
REMARK  10 active torsions:
REMARK  status: ('A' for Active; 'I' for Inactive)
REMARK    1  A    between atoms: O1_2  and  C2_3 
REMARK    2  A    between atoms: C4_5  and  C5_6 
REMARK    3  A    between atoms: C5_6  and  O2_7 
REMARK    4  A    between atoms: C6_9  and  O3_10 
REMARK    5  A    between atoms: C7_12  and  C8_13 
REMARK    6  A    between atoms: C8_13  and  C9_14 
REMARK    7  A    between atoms: C9_14  and  C10_15 
REMARK    8  A    between atoms: C10_15  and  C11_16 
REMARK    9  A    between atoms: C11_16  and  N1_17 
REMARK   10  A    between atoms: N2_20  and  C14_21 
ROOT
HETATM    1  C10 UNL     1      19.288 -13.177  20.545  1.00  0.00     0.044 C 
ENDROOT
BRANCH   1   2
HETATM    2  C9  UNL     1      19.953 -14.461  20.899  1.00  0.00     0.006 C 
BRANCH   2   3
HETATM    3  C8  UNL     1      20.643 -14.299  22.262  1.00  0.00     0.010 C 
BRANCH   3   4
HETATM    4  C7  UNL     1      19.937 -15.183  23.231  1.00  0.00     0.045 C 
HETATM    5  C6  UNL     1      19.045 -14.420  24.173  1.00  0.00     0.138 C 
HETATM    6  C4  UNL     1      19.996 -14.767  25.299  1.00  0.00     0.038 C 
HETATM    7  C3  UNL     1      19.458 -15.657  26.370  1.00  0.00     0.077 C 
HETATM    8  C22 UNL     1      20.762 -15.684  24.405  1.00  0.00     0.144 C 
HETATM    9  C2  UNL     1      19.771 -17.052  25.891  1.00  0.00     0.260 C 
HETATM   10  O4  UNL     1      20.426 -16.979  24.694  1.00  0.00    -0.355 OA
BRANCH   5  11
HETATM   11  O3  UNL     1      17.795 -15.040  24.264  1.00  0.00    -0.394 OA
ATOM     12  H3  UNL     1      17.087 -14.553  23.861  1.00  0.00     0.210 HD
ENDBRANCH   5  11
BRANCH   6  13
HETATM   13  C5  UNL     1      20.771 -13.593  25.848  1.00  0.00     0.179 C 
BRANCH  13  14
HETATM   14  O2  UNL     1      20.796 -13.640  27.241  1.00  0.00    -0.400 OA
ATOM     15  H2  UNL     1      21.360 -12.956  27.582  1.00  0.00     0.209 HD
ENDBRANCH  13  14
ENDBRANCH   6  13
BRANCH   9  16
HETATM   16  O1  UNL     1      18.543 -17.720  25.804  1.00  0.00    -0.366 OA
HETATM   17  C1  UNL     1      18.497 -18.543  24.680  1.00  0.00     0.204 C 
ENDBRANCH   9  16
ENDBRANCH   3   4
ENDBRANCH   2   3
ENDBRANCH   1   2
BRANCH   1  18
HETATM   18  C11 UNL     1      18.198 -13.251  19.537  1.00  0.00     0.063 C 
BRANCH  18  19
HETATM   19  N1  UNL     1      16.883 -13.381  19.933  1.00  0.00    -0.371 N 
HETATM   20  C12 UNL     1      15.816 -13.143  19.063  1.00  0.00     0.083 C 
HETATM   21  C13 UNL     1      14.584 -12.646  19.784  1.00  0.00     0.167 C 
HETATM   22  N2  UNL     1      14.499 -12.967  21.176  1.00  0.00    -0.369 N 
HETATM   23  C20 UNL     1      15.469 -13.819  21.815  1.00  0.00     0.143 C 
HETATM   24  C21 UNL     1      16.514 -14.383  20.840  1.00  0.00     0.146 C 
BRANCH  22  25
HETATM   25  C14 UNL     1      13.422 -12.447  21.977  1.00  0.00     0.112 A 
HETATM   26  C15 UNL     1      12.437 -13.272  22.491  1.00  0.00     0.149 A 
HETATM   27  F1  UNL     1      12.444 -14.604  22.287  1.00  0.00    -0.203 F 
HETATM   28  C16 UNL     1      11.375 -12.786  23.262  1.00  0.00     0.090 A 
HETATM   29  C17 UNL     1      11.286 -11.443  23.533  1.00  0.00     0.161 A 
HETATM   30  F2  UNL     1      10.276 -10.939  24.274  1.00  0.00    -0.203 F 
HETATM   31  C18 UNL     1      12.258 -10.615  23.029  1.00  0.00     0.195 A 
HETATM   32  F3  UNL     1      12.198  -9.287  23.278  1.00  0.00    -0.199 F 
HETATM   33  C19 UNL     1      13.324 -11.090  22.257  1.00  0.00     0.187 A 
HETATM   34  F4  UNL     1      14.227 -10.199  21.801  1.00  0.00    -0.200 F 
ENDBRANCH  22  25
ENDBRANCH  18  19
ENDBRANCH   1  18
TORSDOF 10
ENDMDL
MODEL 3
REMARK VINA RESULT: -8.362936958      0.958      2.208
REMARK  10 active torsions:
REMARK  status: ('A' for Active; 'I' for Inactive)
REMARK    1  A    between atoms: O1_2  and  C2_3 
REMARK    2  A    between atoms: C4_5  and  C5_6 
REMARK    3  A    between atoms: C5_6  and  O2_7 
REMARK    4  A    between atoms: C6_9  and  O3_10 
REMARK    5  A    between atoms: C7_12  and  C8_13 
REMARK    6  A    between atoms: C8_13  and  C9_14 
REMARK    7  A    between atoms: C9_14  and  C10_15 
REMARK    8  A    between atoms: C10_15  and  C11_16 
REMARK    9  A    between atoms: C11_16  and  N1_17 
REMARK   10  A    between atoms: N2_20  and  C14_21 
ROOT
HETATM    1  C10 UNL     1      19.092 -12.805  20.400  1.00  0.00     0.044 C 
ENDROOT
BRANCH   1   2
HETATM    2  C9  UNL     1      20.297 -13.660  20.587  1.00  0.00     0.006 C 
BRANCH   2   3
HETATM    3  C8  UNL     1      19.850 -15.033  21.111  1.00  0.00     0.010 C 
BRANCH   3   4
HETATM    4  C7  UNL     1      20.276 -15.130  22.536  1.00  0.00     0.045 C 
HETATM    5  C6  UNL     1      20.177 -16.530  23.079  1.00  0.00     0.138 C 
HETATM    6  C4  UNL     1      19.035 -16.071  23.962  1.00  0.00     0.038 C 
HETATM    7  C3  UNL     1      19.285 -16.095  25.433  1.00  0.00     0.077 C 
HETATM    8  C22 UNL     1      19.270 -14.650  23.569  1.00  0.00     0.144 C 
HETATM    9  C2  UNL     1      19.857 -14.734  25.740  1.00  0.00     0.260 C 
HETATM   10  O4  UNL     1      19.919 -14.003  24.587  1.00  0.00    -0.355 OA
BRANCH   5  11
HETATM   11  O3  UNL     1      21.344 -16.861  23.775  1.00  0.00    -0.394 OA
ATOM     12  H3  UNL     1      21.221 -17.510  24.458  1.00  0.00     0.210 HD
ENDBRANCH   5  11
BRANCH   6  13
HETATM   13  C5  UNL     1      17.687 -16.637  23.586  1.00  0.00     0.179 C 
BRANCH  13  14
HETATM   14  O2  UNL     1      16.973 -16.983  24.732  1.00  0.00    -0.400 OA
ATOM     15  H2  UNL     1      17.560 -17.051  25.476  1.00  0.00     0.209 HD
ENDBRANCH  13  14
ENDBRANCH   6  13
BRANCH   9  16
HETATM   16  O1  UNL     1      21.115 -14.960  26.313  1.00  0.00    -0.366 OA
HETATM   17  C1  UNL     1      22.080 -14.126  25.750  1.00  0.00     0.204 C 
ENDBRANCH   9  16
ENDBRANCH   3   4
ENDBRANCH   2   3
ENDBRANCH   1   2
BRANCH   1  18
HETATM   18  C11 UNL     1      18.025 -13.348  19.519  1.00  0.00     0.063 C 
BRANCH  18  19
HETATM   19  N1  UNL     1      16.715 -13.394  19.950  1.00  0.00    -0.371 N 
HETATM   20  C12 UNL     1      15.638 -13.179  19.085  1.00  0.00     0.083 C 
HETATM   21  C13 UNL     1      14.444 -12.579  19.791  1.00  0.00     0.167 C 
HETATM   22  N2  UNL     1      14.378 -12.792  21.204  1.00  0.00    -0.369 N 
HETATM   23  C20 UNL     1      15.328 -13.634  21.886  1.00  0.00     0.143 C 
HETATM   24  C21 UNL     1      16.328 -14.310  20.936  1.00  0.00     0.146 C 
BRANCH  22  25
HETATM   25  C14 UNL     1      13.340 -12.170  21.986  1.00  0.00     0.112 A 
HETATM   26  C15 UNL     1      13.338 -10.810  22.236  1.00  0.00     0.149 A 
HETATM   27  F1  UNL     1      14.293  -9.993  21.746  1.00  0.00    -0.203 F 
HETATM   28  C16 UNL     1      12.347 -10.187  23.002  1.00  0.00     0.090 A 
HETATM   29  C17 UNL     1      11.326 -10.934  23.536  1.00  0.00     0.161 A 
HETATM   30  F2  UNL     1      10.353 -10.367  24.279  1.00  0.00    -0.203 F 
HETATM   31  C18 UNL     1      11.318 -12.285  23.294  1.00  0.00     0.195 A 
HETATM   32  F3  UNL     1      10.326 -13.048  23.807  1.00  0.00    -0.199 F 
HETATM   33  C19 UNL     1      12.304 -12.918  22.530  1.00  0.00     0.187 A 
HETATM   34  F4  UNL     1      12.214 -14.251  22.351  1.00  0.00    -0.200 F 
ENDBRANCH  22  25
ENDBRANCH  18  19
ENDBRANCH   1  18
TORSDOF 10
ENDMDL
MODEL 4
REMARK VINA RESULT: -8.359440087      1.074      2.807
REMARK  10 active torsions:
REMARK  status: ('A' for Active; 'I' for Inactive)
REMARK    1  A    between atoms: O1_2  and  C2_3 
REMARK    2  A    between atoms: C4_5  and  C5_6 
REMARK    3  A    between atoms: C5_6  and  O2_7 
REMARK    4  A    between atoms: C6_9  and  O3_10 
REMARK    5  A    between atoms: C7_12  and  C8_13 
REMARK    6  A    between atoms: C8_13  and  C9_14 
REMARK    7  A    between atoms: C9_14  and  C10_15 
REMARK    8  A    between atoms: C10_15  and  C11_16 
REMARK    9  A    between atoms: C11_16  and  N1_17 
REMARK   10  A    between atoms: N2_20  and  C14_21 
ROOT
HETATM    1  C10 UNL     1      19.108 -12.692  20.325  1.00  0.00     0.044 C 
ENDROOT
BRANCH   1   2
HETATM    2  C9  UNL     1      20.357 -13.493  20.441  1.00  0.00     0.006 C 
BRANCH   2   3
HETATM    3  C8  UNL     1      19.994 -14.903  20.934  1.00  0.00     0.010 C 
BRANCH   3   4
HETATM    4  C7  UNL     1      20.331 -14.971  22.384  1.00  0.00     0.045 C 
HETATM    5  C6  UNL     1      20.365 -16.382  22.908  1.00  0.00     0.138 C 
HETATM    6  C4  UNL     1      19.118 -16.076  23.712  1.00  0.00     0.038 C 
HETATM    7  C3  UNL     1      19.268 -16.095  25.197  1.00  0.00     0.077 C 
HETATM    8  C22 UNL     1      19.207 -14.632  23.348  1.00  0.00     0.144 C 
HETATM    9  C2  UNL     1      19.651 -14.680  25.554  1.00  0.00     0.260 C 
HETATM   10  O4  UNL     1      19.702 -13.928  24.414  1.00  0.00    -0.355 OA
BRANCH   5  11
HETATM   11  O3  UNL     1      21.513 -16.583  23.680  1.00  0.00    -0.394 OA
ATOM     12  H3  UNL     1      21.340 -16.838  24.579  1.00  0.00     0.210 HD
ENDBRANCH   5  11
BRANCH   6  13
HETATM   13  C5  UNL     1      17.877 -16.793  23.239  1.00  0.00     0.179 C 
BRANCH  13  14
HETATM   14  O2  UNL     1      17.023 -17.038  24.314  1.00  0.00    -0.400 OA
ATOM     15  H2  UNL     1      16.183 -17.352  24.000  1.00  0.00     0.209 HD
ENDBRANCH  13  14
ENDBRANCH   6  13
BRANCH   9  16
HETATM   16  O1  UNL     1      20.885 -14.764  26.211  1.00  0.00    -0.366 OA
HETATM   17  C1  UNL     1      20.965 -13.837  27.249  1.00  0.00     0.204 C 
ENDBRANCH   9  16
ENDBRANCH   3   4
ENDBRANCH   2   3
ENDBRANCH   1   2
BRANCH   1  18
HETATM   18  C11 UNL     1      18.056 -13.229  19.424  1.00  0.00     0.063 C 
BRANCH  18  19
HETATM   19  N1  UNL     1      16.755 -13.358  19.861  1.00  0.00    -0.371 N 
HETATM   20  C12 UNL     1      15.660 -13.148  19.018  1.00  0.00     0.083 C 
HETATM   21  C13 UNL     1      14.447 -12.642  19.764  1.00  0.00     0.167 C 
HETATM   22  N2  UNL     1      14.405 -12.930  21.164  1.00  0.00    -0.369 N 
HETATM   23  C20 UNL     1      15.400 -13.761  21.794  1.00  0.00     0.143 C 
HETATM   24  C21 UNL     1      16.420 -14.341  20.802  1.00  0.00     0.146 C 
BRANCH  22  25
HETATM   25  C14 UNL     1      13.348 -12.398  21.985  1.00  0.00     0.112 A 
HETATM   26  C15 UNL     1      12.338 -13.204  22.477  1.00  0.00     0.149 A 
HETATM   27  F1  UNL     1      12.299 -14.530  22.234  1.00  0.00    -0.203 F 
HETATM   28  C16 UNL     1      11.295 -12.707  23.267  1.00  0.00     0.090 A 
HETATM   29  C17 UNL     1      11.252 -11.370  23.578  1.00  0.00     0.161 A 
HETATM   30  F2  UNL     1      10.262 -10.855  24.338  1.00  0.00    -0.203 F 
HETATM   31  C18 UNL     1      12.251 -10.561  23.095  1.00  0.00     0.195 A 
HETATM   32  F3  UNL     1      12.236  -9.240  23.385  1.00  0.00    -0.199 F 
HETATM   33  C19 UNL     1      13.297 -11.048  22.306  1.00  0.00     0.187 A 
HETATM   34  F4  UNL     1      14.229 -10.175  21.873  1.00  0.00    -0.200 F 
ENDBRANCH  22  25
ENDBRANCH  18  19
ENDBRANCH   1  18
TORSDOF 10
ENDMDL
MODEL 5
REMARK VINA RESULT: -8.160074031      3.751      7.535
REMARK  10 active torsions:
REMARK  status: ('A' for Active; 'I' for Inactive)
REMARK    1  A    between atoms: O1_2  and  C2_3 
REMARK    2  A    between atoms: C4_5  and  C5_6 
REMARK    3  A    between atoms: C5_6  and  O2_7 
REMARK    4  A    between atoms: C6_9  and  O3_10 
REMARK    5  A    between atoms: C7_12  and  C8_13 
REMARK    6  A    between atoms: C8_13  and  C9_14 
REMARK    7  A    between atoms: C9_14  and  C10_15 
REMARK    8  A    between atoms: C10_15  and  C11_16 
REMARK    9  A    between atoms: C11_16  and  N1_17 
REMARK   10  A    between atoms: N2_20  and  C14_21 
ROOT
HETATM    1  C10 UNL     1      16.690 -12.803  18.521  1.00  0.00     0.044 C 
ENDROOT
BRANCH   1   2
HETATM    2  C9  UNL     1      15.829 -13.833  17.879  1.00  0.00     0.006 C 
BRANCH   2   3
HETATM    3  C8  UNL     1      15.313 -14.790  18.964  1.00  0.00     0.010 C 
BRANCH   3   4
HETATM    4  C7  UNL     1      14.725 -13.959  20.053  1.00  0.00     0.045 C 
HETATM    5  C6  UNL     1      14.451 -14.747  21.304  1.00  0.00     0.138 C 
HETATM    6  C4  UNL     1      12.968 -14.581  21.043  1.00  0.00     0.038 C 
HETATM    7  C3  UNL     1      12.209 -13.765  22.038  1.00  0.00     0.077 C 
HETATM    8  C22 UNL     1      13.246 -13.635  19.923  1.00  0.00     0.144 C 
HETATM    9  C2  UNL     1      12.297 -12.355  21.511  1.00  0.00     0.260 C 
HETATM   10  O4  UNL     1      13.009 -12.354  20.345  1.00  0.00    -0.355 OA
BRANCH   5  11
HETATM   11  O3  UNL     1      14.919 -14.054  22.424  1.00  0.00    -0.394 OA
ATOM     12  H3  UNL     1      14.846 -14.534  23.241  1.00  0.00     0.210 HD
ENDBRANCH   5  11
BRANCH   6  13
HETATM   13  C5  UNL     1      12.252 -15.854  20.661  1.00  0.00     0.179 C 
BRANCH  13  14
HETATM   14  O2  UNL     1      11.849 -16.542  21.804  1.00  0.00    -0.400 OA
ATOM     15  H2  UNL     1      10.955 -16.849  21.704  1.00  0.00     0.209 HD
ENDBRANCH  13  14
ENDBRANCH   6  13
BRANCH   9  16
HETATM   16  O1  UNL     1      12.902 -11.598  22.523  1.00  0.00    -0.366 OA
HETATM   17  C1  UNL     1      13.603 -10.517  21.991  1.00  0.00     0.204 C 
ENDBRANCH   9  16
ENDBRANCH   3   4
ENDBRANCH   2   3
ENDBRANCH   1   2
BRANCH   1  18
HETATM   18  C11 UNL     1      18.103 -13.185  18.776  1.00  0.00     0.063 C 
BRANCH  18  19
HETATM   19  N1  UNL     1      18.567 -13.340  20.065  1.00  0.00    -0.371 N 
HETATM   20  C12 UNL     1      19.859 -13.796  20.343  1.00  0.00     0.083 C 
HETATM   21  C13 UNL     1      19.935 -14.547  21.653  1.00  0.00     0.167 C 
HETATM   22  N2  UNL     1      18.906 -14.256  22.604  1.00  0.00    -0.369 N 
HETATM   23  C20 UNL     1      17.934 -13.219  22.371  1.00  0.00     0.143 C 
HETATM   24  C21 UNL     1      18.178 -12.442  21.068  1.00  0.00     0.146 C 
BRANCH  22  25
HETATM   25  C14 UNL     1      18.825 -14.997  23.836  1.00  0.00     0.112 A 
HETATM   26  C15 UNL     1      18.043 -16.133  23.949  1.00  0.00     0.149 A 
HETATM   27  F1  UNL     1      17.334 -16.617  22.909  1.00  0.00    -0.203 F 
HETATM   28  C16 UNL     1      17.940 -16.861  25.140  1.00  0.00     0.090 A 
HETATM   29  C17 UNL     1      18.633 -16.452  26.252  1.00  0.00     0.161 A 
HETATM   30  F2  UNL     1      18.559 -17.130  27.417  1.00  0.00    -0.203 F 
HETATM   31  C18 UNL     1      19.413 -15.326  26.151  1.00  0.00     0.195 A 
HETATM   32  F3  UNL     1      20.108 -14.898  27.230  1.00  0.00    -0.199 F 
HETATM   33  C19 UNL     1      19.522 -14.591  24.967  1.00  0.00     0.187 A 
HETATM   34  F4  UNL     1      20.309 -13.497  24.966  1.00  0.00    -0.200 F 
ENDBRANCH  22  25
ENDBRANCH  18  19
ENDBRANCH   1  18
TORSDOF 10
ENDMDL
