MODEL 1
REMARK VINA RESULT: -7.327089336      0.000      0.000
REMARK  3 active torsions:
REMARK  status: ('A' for Active; 'I' for Inactive)
REMARK    1  A    between atoms: O1_2  and  C2_3 
REMARK    2  A    between atoms: C2_3  and  C3_4 
REMARK    3  A    between atoms: C18_24  and  O4_26 
ROOT
HETATM    1  C3  UNL     1       9.475  81.870  45.081  1.00  0.00     0.243 C 
HETATM    2  N1  UNL     1       9.049  80.479  45.287  1.00  0.00    -0.061 N 
ATOM      3  H11 UNL     1       9.806  79.846  45.546  1.00  0.00     0.278 HD
ATOM      4  H12 UNL     1       8.784  79.995  44.430  1.00  0.00     0.278 HD
HETATM    5  C4  UNL     1       7.985  80.564  46.273  1.00  0.00     0.193 C 
HETATM    6  C5  UNL     1       7.166  79.336  46.182  1.00  0.00     0.037 C 
HETATM    7  C6  UNL     1       7.931  78.050  46.320  1.00  0.00     0.035 C 
HETATM    8  C7  UNL     1       7.134  77.146  47.187  1.00  0.00    -0.087 C 
HETATM    9  C8  UNL     1       6.291  76.046  46.630  1.00  0.00     0.043 C 
HETATM   10  C9  UNL     1       7.179  77.332  48.499  1.00  0.00    -0.024 C 
HETATM   11  C10 UNL     1       7.978  78.390  49.180  1.00  0.00     0.037 C 
HETATM   12  C11 UNL     1       7.243  79.655  49.399  1.00  0.00     0.058 C 
HETATM   13  C12 UNL     1       7.701  80.870  48.745  1.00  0.00     0.173 C 
HETATM   14  O2  UNL     1       8.277  81.639  49.777  1.00  0.00    -0.234 OA
HETATM   15  O3  UNL     1       8.508  80.829  50.787  1.00  0.00    -0.230 OA
HETATM   16  C13 UNL     1       7.311  80.112  50.870  1.00  0.00     0.095 C 
HETATM   17  C14 UNL     1       6.219  81.135  51.139  1.00  0.00     0.049 C 
HETATM   18  C15 UNL     1       7.319  78.997  51.840  1.00  0.00     0.049 C 
HETATM   19  C16 UNL     1       8.634  80.809  47.606  1.00  0.00     0.051 C 
HETATM   20  C17 UNL     1       9.204  82.243  47.512  1.00  0.00     0.049 C 
HETATM   21  C18 UNL     1      10.104  82.408  46.331  1.00  0.00     0.085 C 
HETATM   22  C19 UNL     1      11.455  81.831  46.628  1.00  0.00     0.048 C 
ENDROOT
BRANCH   1  23
HETATM   23  C2  UNL     1      10.325  82.017  43.868  1.00  0.00     0.203 C 
BRANCH  23  24
HETATM   24  O1  UNL     1      10.159  83.218  43.205  1.00  0.00    -0.394 OA
HETATM   25  C1  UNL     1      10.427  82.992  41.853  1.00  0.00     0.201 C 
ENDBRANCH  23  24
ENDBRANCH   1  23
BRANCH  21  26
HETATM   26  O4  UNL     1      10.280  83.787  46.137  1.00  0.00    -0.388 OA
ATOM     27  H4  UNL     1       9.598  84.070  45.539  1.00  0.00     0.210 HD
ENDBRANCH  21  26
TORSDOF 3
ENDMDL
MODEL 2
REMARK VINA RESULT: -7.189571872      2.925      6.811
REMARK  3 active torsions:
REMARK  status: ('A' for Active; 'I' for Inactive)
REMARK    1  A    between atoms: O1_2  and  C2_3 
REMARK    2  A    between atoms: C2_3  and  C3_4 
REMARK    3  A    between atoms: C18_24  and  O4_26 
ROOT
HETATM    1  C3  UNL     1       7.204  80.781  47.371  1.00  0.00     0.243 C 
HETATM    2  N1  UNL     1       8.043  81.529  46.426  1.00  0.00    -0.061 N 
ATOM      3  H11 UNL     1       9.021  81.606  46.708  1.00  0.00     0.278 HD
ATOM      4  H12 UNL     1       7.852  82.530  46.402  1.00  0.00     0.278 HD
HETATM    5  C4  UNL     1       7.845  80.858  45.152  1.00  0.00     0.193 C 
HETATM    6  C5  UNL     1       8.221  81.793  44.069  1.00  0.00     0.037 C 
HETATM    7  C6  UNL     1       9.609  82.361  44.173  1.00  0.00     0.035 C 
HETATM    8  C7  UNL     1      10.200  82.348  42.812  1.00  0.00    -0.087 C 
HETATM    9  C8  UNL     1      10.262  83.572  41.958  1.00  0.00     0.043 C 
HETATM   10  C9  UNL     1      10.687  81.205  42.349  1.00  0.00    -0.024 C 
HETATM   11  C10 UNL     1      10.686  79.917  43.097  1.00  0.00     0.037 C 
HETATM   12  C11 UNL     1       9.492  79.078  42.856  1.00  0.00     0.058 C 
HETATM   13  C12 UNL     1       8.591  78.783  43.958  1.00  0.00     0.173 C 
HETATM   14  O2  UNL     1       8.831  77.428  44.266  1.00  0.00    -0.234 OA
HETATM   15  O3  UNL     1       9.984  77.101  43.725  1.00  0.00    -0.230 OA
HETATM   16  C13 UNL     1       9.871  77.642  42.441  1.00  0.00     0.095 C 
HETATM   17  C14 UNL     1       8.674  76.963  41.795  1.00  0.00     0.049 C 
HETATM   18  C15 UNL     1      11.099  77.564  41.622  1.00  0.00     0.049 C 
HETATM   19  C16 UNL     1       8.630  79.577  45.199  1.00  0.00     0.051 C 
HETATM   20  C17 UNL     1       7.890  78.696  46.231  1.00  0.00     0.049 C 
HETATM   21  C18 UNL     1       7.734  79.389  47.545  1.00  0.00     0.085 C 
HETATM   22  C19 UNL     1       9.014  79.319  48.321  1.00  0.00     0.048 C 
ENDROOT
BRANCH   1  23
HETATM   23  C2  UNL     1       7.017  81.518  48.652  1.00  0.00     0.203 C 
BRANCH  23  24
HETATM   24  O1  UNL     1       6.017  81.008  49.456  1.00  0.00    -0.394 OA
HETATM   25  C1  UNL     1       6.424  81.163  50.783  1.00  0.00     0.201 C 
ENDBRANCH  23  24
ENDBRANCH   1  23
BRANCH  21  26
HETATM   26  O4  UNL     1       6.771  78.676  48.275  1.00  0.00    -0.388 OA
ATOM     27  H4  UNL     1       5.941  78.797  47.830  1.00  0.00     0.210 HD
ENDBRANCH  21  26
TORSDOF 3
ENDMDL
MODEL 3
REMARK VINA RESULT: -7.181170253      2.293      4.133
REMARK  3 active torsions:
REMARK  status: ('A' for Active; 'I' for Inactive)
REMARK    1  A    between atoms: O1_2  and  C2_3 
REMARK    2  A    between atoms: C2_3  and  C3_4 
REMARK    3  A    between atoms: C18_24  and  O4_26 
ROOT
HETATM    1  C3  UNL     1       9.447  80.556  44.328  1.00  0.00     0.243 C 
HETATM    2  N1  UNL     1       9.996  81.466  45.342  1.00  0.00    -0.061 N 
ATOM      3  H11 UNL     1       9.574  82.395  45.340  1.00  0.00     0.278 HD
ATOM      4  H12 UNL     1      10.949  81.775  45.151  1.00  0.00     0.278 HD
HETATM    5  C4  UNL     1       9.846  80.749  46.596  1.00  0.00     0.193 C 
HETATM    6  C5  UNL     1      10.791  81.325  47.578  1.00  0.00     0.037 C 
HETATM    7  C6  UNL     1      10.668  82.809  47.784  1.00  0.00     0.035 C 
HETATM    8  C7  UNL     1      10.777  83.069  49.241  1.00  0.00    -0.087 C 
HETATM    9  C8  UNL     1      12.042  83.553  49.872  1.00  0.00     0.043 C 
HETATM   10  C9  UNL     1       9.709  82.860  49.999  1.00  0.00    -0.024 C 
HETATM   11  C10 UNL     1       8.392  82.379  49.495  1.00  0.00     0.037 C 
HETATM   12  C11 UNL     1       8.236  80.908  49.518  1.00  0.00     0.058 C 
HETATM   13  C12 UNL     1       8.063  80.189  48.266  1.00  0.00     0.173 C 
HETATM   14  O2  UNL     1       6.705  79.805  48.259  1.00  0.00    -0.234 OA
HETATM   15  O3  UNL     1       6.083  80.545  49.150  1.00  0.00    -0.230 OA
HETATM   16  C13 UNL     1       6.948  80.476  50.246  1.00  0.00     0.095 C 
HETATM   17  C14 UNL     1       7.042  79.007  50.624  1.00  0.00     0.049 C 
HETATM   18  C15 UNL     1       6.585  81.350  51.381  1.00  0.00     0.049 C 
HETATM   19  C16 UNL     1       8.394  80.823  46.978  1.00  0.00     0.051 C 
HETATM   20  C17 UNL     1       7.665  79.950  45.932  1.00  0.00     0.049 C 
HETATM   21  C18 UNL     1       7.973  80.380  44.535  1.00  0.00     0.085 C 
HETATM   22  C19 UNL     1       7.160  81.587  44.176  1.00  0.00     0.048 C 
ENDROOT
BRANCH   1  23
HETATM   23  C2  UNL     1       9.815  80.975  42.947  1.00  0.00     0.203 C 
BRANCH  23  24
HETATM   24  O1  UNL     1       9.788  79.951  42.020  1.00  0.00    -0.394 OA
HETATM   25  C1  UNL     1      10.810  79.059  42.351  1.00  0.00     0.201 C 
ENDBRANCH  23  24
ENDBRANCH   1  23
BRANCH  21  26
HETATM   26  O4  UNL     1       7.564  79.342  43.685  1.00  0.00    -0.388 OA
ATOM     27  H4  UNL     1       7.811  79.594  42.803  1.00  0.00     0.210 HD
ENDBRANCH  21  26
TORSDOF 3
ENDMDL
MODEL 4
REMARK VINA RESULT: -7.104091950      3.295      7.000
REMARK  3 active torsions:
REMARK  status: ('A' for Active; 'I' for Inactive)
REMARK    1  A    between atoms: O1_2  and  C2_3 
REMARK    2  A    between atoms: C2_3  and  C3_4 
REMARK    3  A    between atoms: C18_24  and  O4_26 
ROOT
HETATM    1  C3  UNL     1       7.329  80.776  46.364  1.00  0.00     0.243 C 
HETATM    2  N1  UNL     1       8.142  81.408  45.317  1.00  0.00    -0.061 N 
ATOM      3  H11 UNL     1       9.106  81.593  45.594  1.00  0.00     0.278 HD
ATOM      4  H12 UNL     1       7.891  82.378  45.124  1.00  0.00     0.278 HD
HETATM    5  C4  UNL     1       8.013  80.525  44.170  1.00  0.00     0.193 C 
HETATM    6  C5  UNL     1       8.355  81.290  42.951  1.00  0.00     0.037 C 
HETATM    7  C6  UNL     1       9.703  81.955  42.975  1.00  0.00     0.035 C 
HETATM    8  C7  UNL     1      10.324  81.755  41.641  1.00  0.00    -0.087 C 
HETATM    9  C8  UNL     1      10.330  82.821  40.597  1.00  0.00     0.043 C 
HETATM   10  C9  UNL     1      10.889  80.584  41.381  1.00  0.00    -0.024 C 
HETATM   11  C10 UNL     1      10.950  79.439  42.334  1.00  0.00     0.037 C 
HETATM   12  C11 UNL     1       9.815  78.498  42.221  1.00  0.00     0.058 C 
HETATM   13  C12 UNL     1       8.910  78.333  43.347  1.00  0.00     0.173 C 
HETATM   14  O2  UNL     1       9.225  77.065  43.879  1.00  0.00    -0.234 OA
HETATM   15  O3  UNL     1      10.407  76.728  43.413  1.00  0.00    -0.230 OA
HETATM   16  C13 UNL     1      10.289  77.040  42.056  1.00  0.00     0.095 C 
HETATM   17  C14 UNL     1       9.150  76.189  41.519  1.00  0.00     0.049 C 
HETATM   18  C15 UNL     1      11.537  76.906  41.276  1.00  0.00     0.049 C 
HETATM   19  C16 UNL     1       8.874  79.322  44.439  1.00  0.00     0.051 C 
HETATM   20  C17 UNL     1       8.166  78.579  45.595  1.00  0.00     0.049 C 
HETATM   21  C18 UNL     1       7.938  79.469  46.773  1.00  0.00     0.085 C 
HETATM   22  C19 UNL     1       9.204  79.609  47.564  1.00  0.00     0.048 C 
ENDROOT
BRANCH   1  23
HETATM   23  C2  UNL     1       7.070  81.701  47.502  1.00  0.00     0.203 C 
BRANCH  23  24
HETATM   24  O1  UNL     1       6.197  81.201  48.448  1.00  0.00    -0.394 OA
HETATM   25  C1  UNL     1       6.667  81.596  49.703  1.00  0.00     0.201 C 
ENDBRANCH  23  24
ENDBRANCH   1  23
BRANCH  21  26
HETATM   26  O4  UNL     1       7.006  78.826  47.601  1.00  0.00    -0.388 OA
ATOM     27  H4  UNL     1       6.435  79.501  47.949  1.00  0.00     0.210 HD
ENDBRANCH  21  26
TORSDOF 3
ENDMDL
MODEL 5
REMARK VINA RESULT: -6.924855538      3.618      7.058
REMARK  3 active torsions:
REMARK  status: ('A' for Active; 'I' for Inactive)
REMARK    1  A    between atoms: O1_2  and  C2_3 
REMARK    2  A    between atoms: C2_3  and  C3_4 
REMARK    3  A    between atoms: C18_24  and  O4_26 
ROOT
HETATM    1  C3  UNL     1       7.608  81.905  44.796  1.00  0.00     0.243 C 
HETATM    2  N1  UNL     1       8.753  82.249  43.942  1.00  0.00    -0.061 N 
ATOM      3  H11 UNL     1       9.616  82.428  44.456  1.00  0.00     0.278 HD
ATOM      4  H12 UNL     1       8.686  83.169  43.507  1.00  0.00     0.278 HD
HETATM    5  C4  UNL     1       8.845  81.151  42.995  1.00  0.00     0.193 C 
HETATM    6  C5  UNL     1       9.606  81.616  41.814  1.00  0.00     0.037 C 
HETATM    7  C6  UNL     1      10.963  82.186  42.118  1.00  0.00     0.035 C 
HETATM    8  C7  UNL     1      11.905  81.668  41.093  1.00  0.00    -0.087 C 
HETATM    9  C8  UNL     1      12.333  82.486  39.919  1.00  0.00     0.043 C 
HETATM   10  C9  UNL     1      12.373  80.436  41.236  1.00  0.00    -0.024 C 
HETATM   11  C10 UNL     1      12.025  79.520  42.358  1.00  0.00     0.037 C 
HETATM   12  C11 UNL     1      10.861  78.648  42.087  1.00  0.00     0.058 C 
HETATM   13  C12 UNL     1       9.662  78.783  42.899  1.00  0.00     0.173 C 
HETATM   14  O2  UNL     1       9.659  77.640  43.727  1.00  0.00    -0.234 OA
HETATM   15  O3  UNL     1      10.874  77.139  43.708  1.00  0.00    -0.230 OA
HETATM   16  C13 UNL     1      11.182  77.162  42.344  1.00  0.00     0.095 C 
HETATM   17  C14 UNL     1      10.145  76.288  41.658  1.00  0.00     0.049 C 
HETATM   18  C15 UNL     1      12.572  76.788  42.013  1.00  0.00     0.049 C 
HETATM   19  C16 UNL     1       9.442  79.982  43.727  1.00  0.00     0.051 C 
HETATM   20  C17 UNL     1       8.353  79.547  44.734  1.00  0.00     0.049 C 
HETATM   21  C18 UNL     1       7.914  80.680  45.603  1.00  0.00     0.085 C 
HETATM   22  C19 UNL     1       8.913  80.907  46.697  1.00  0.00     0.048 C 
ENDROOT
BRANCH   1  23
HETATM   23  C2  UNL     1       7.154  83.066  45.611  1.00  0.00     0.203 C 
BRANCH  23  24
HETATM   24  O1  UNL     1       5.824  83.012  45.978  1.00  0.00    -0.394 OA
HETATM   25  C1  UNL     1       5.245  84.237  45.637  1.00  0.00     0.201 C 
ENDBRANCH  23  24
ENDBRANCH   1  23
BRANCH  21  26
HETATM   26  O4  UNL     1       6.715  80.287  46.218  1.00  0.00    -0.388 OA
ATOM     27  H4  UNL     1       6.014  80.751  45.775  1.00  0.00     0.210 HD
ENDBRANCH  21  26
TORSDOF 3
ENDMDL
