MODEL 1
REMARK VINA RESULT: -7.960877568      0.000      0.000
REMARK  8 active torsions:
REMARK  status: ('A' for Active; 'I' for Inactive)
REMARK    1  A    between atoms: N1_1  and  C1_4 
REMARK    2  A    between atoms: C2_7  and  N3_8 
REMARK    3  A    between atoms: N3_8  and  C3_10 
REMARK    4  A    between atoms: C3_10  and  C4_11 
REMARK    5  A    between atoms: C4_11  and  C5_12 
REMARK    6  A    between atoms: C5_12  and  C6_13 
REMARK    7  A    between atoms: C6_13  and  N4_14 
REMARK    8  A    between atoms: C8_23  and  C9_24 
ROOT
HETATM    1  C1  UNL     1      22.658  -3.209   5.678  1.00  0.00     0.680 C 
HETATM    2  N2  UNL     1      21.936  -2.474   6.575  1.00  0.00    -0.175 N 
ATOM      3  H2  UNL     1      21.099  -2.030   6.196  1.00  0.00     0.186 HD
HETATM    4  C2  UNL     1      22.161  -2.248   7.880  1.00  0.00     0.146 C 
HETATM    5  C7  UNL     1      23.280  -2.660   8.561  1.00  0.00     0.110 A 
HETATM    6  N5  UNL     1      23.748  -2.148   9.702  1.00  0.00    -0.295 N 
ATOM      7  H5  UNL     1      23.311  -1.381  10.214  1.00  0.00     0.187 HD
HETATM    8  N6  UNL     1      24.850  -2.767  10.080  1.00  0.00    -0.294 N 
ATOM      9  H6  UNL     1      25.382  -2.545  10.922  1.00  0.00     0.187 HD
HETATM   10  C8  UNL     1      25.180  -3.749   9.183  1.00  0.00     0.131 A 
HETATM   11  C10 UNL     1      24.197  -3.677   8.239  1.00  0.00     0.098 A 
HETATM   12  C11 UNL     1      24.099  -4.513   7.153  1.00  0.00     0.274 C 
HETATM   13  O2  UNL     1      24.549  -5.649   7.347  1.00  0.00    -0.267 OA
HETATM   14  N8  UNL     1      23.567  -4.186   5.944  1.00  0.00    -0.155 N 
ATOM     15  H8  UNL     1      23.885  -4.736   5.146  1.00  0.00     0.187 HD
ENDROOT
BRANCH   4  16
HETATM   16  N3  UNL     1      21.265  -1.612   8.489  1.00  0.00    -0.374 N 
ATOM     17  H3  UNL     1      21.408  -0.602   8.507  1.00  0.00     0.161 HD
BRANCH  16  18
HETATM   18  C3  UNL     1      20.087  -2.045   9.157  1.00  0.00     0.121 C 
BRANCH  18  19
HETATM   19  C4  UNL     1      18.898  -1.470   8.430  1.00  0.00     0.021 C 
BRANCH  19  20
HETATM   20  C5  UNL     1      17.677  -1.514   9.266  1.00  0.00     0.029 C 
BRANCH  20  21
HETATM   21  C6  UNL     1      18.005  -1.848  10.685  1.00  0.00     0.229 C 
BRANCH  21  22
HETATM   22  N4  UNL     1      17.083  -2.872  11.148  1.00  0.00    -0.079 N 
ATOM     23  H43 UNL     1      16.106  -2.599  11.033  1.00  0.00     0.274 HD
ATOM     24  H42 UNL     1      17.073  -3.691  10.540  1.00  0.00     0.274 HD
ATOM     25  H41 UNL     1      17.311  -3.105  12.114  1.00  0.00     0.274 HD
ENDBRANCH  21  22
ENDBRANCH  20  21
ENDBRANCH  19  20
ENDBRANCH  18  19
ENDBRANCH  16  18
ENDBRANCH   4  16
BRANCH   1  26
HETATM   26  N1  UNL     1      22.463  -2.956   4.430  1.00  0.00    -0.234 N 
ATOM     27  H12 UNL     1      22.482  -1.969   4.174  1.00  0.00     0.174 HD
ATOM     28  H11 UNL     1      22.310  -3.757   3.818  1.00  0.00     0.174 HD
ENDBRANCH   1  26
BRANCH  10  29
HETATM   29  C9  UNL     1      26.335  -4.616   9.318  1.00  0.00     0.283 C 
HETATM   30  N7  UNL     1      26.299  -5.691  10.282  1.00  0.00    -0.056 NA
HETATM   31  O1  UNL     1      27.402  -4.552   8.679  1.00  0.00    -0.269 OA
ENDBRANCH  10  29
TORSDOF 8
ENDMDL
MODEL 2
REMARK VINA RESULT: -7.848241310      1.439      1.994
REMARK  8 active torsions:
REMARK  status: ('A' for Active; 'I' for Inactive)
REMARK    1  A    between atoms: N1_1  and  C1_4 
REMARK    2  A    between atoms: C2_7  and  N3_8 
REMARK    3  A    between atoms: N3_8  and  C3_10 
REMARK    4  A    between atoms: C3_10  and  C4_11 
REMARK    5  A    between atoms: C4_11  and  C5_12 
REMARK    6  A    between atoms: C5_12  and  C6_13 
REMARK    7  A    between atoms: C6_13  and  N4_14 
REMARK    8  A    between atoms: C8_23  and  C9_24 
ROOT
HETATM    1  C1  UNL     1      22.910  -3.619   5.854  1.00  0.00     0.680 C 
HETATM    2  N2  UNL     1      22.091  -2.797   6.574  1.00  0.00    -0.175 N 
ATOM      3  H2  UNL     1      21.229  -2.523   6.102  1.00  0.00     0.186 HD
HETATM    4  C2  UNL     1      22.249  -2.294   7.810  1.00  0.00     0.146 C 
HETATM    5  C7  UNL     1      23.379  -2.446   8.575  1.00  0.00     0.110 A 
HETATM    6  N5  UNL     1      23.756  -1.673   9.596  1.00  0.00    -0.295 N 
ATOM      7  H5  UNL     1      23.231  -0.868   9.936  1.00  0.00     0.187 HD
HETATM    8  N6  UNL     1      24.900  -2.090  10.106  1.00  0.00    -0.294 N 
ATOM      9  H6  UNL     1      25.379  -1.653  10.894  1.00  0.00     0.187 HD
HETATM   10  C8  UNL     1      25.352  -3.192   9.431  1.00  0.00     0.131 A 
HETATM   11  C10 UNL     1      24.400  -3.410   8.478  1.00  0.00     0.098 A 
HETATM   12  C11 UNL     1      24.419  -4.451   7.582  1.00  0.00     0.274 C 
HETATM   13  O2  UNL     1      24.968  -5.474   8.007  1.00  0.00    -0.267 OA
HETATM   14  N8  UNL     1      23.898  -4.427   6.324  1.00  0.00    -0.155 N 
ATOM     15  H8  UNL     1      24.295  -5.090   5.658  1.00  0.00     0.187 HD
ENDROOT
BRANCH   4  16
HETATM   16  N3  UNL     1      21.276  -1.642   8.265  1.00  0.00    -0.374 N 
ATOM     17  H3  UNL     1      21.285  -0.651   8.022  1.00  0.00     0.161 HD
BRANCH  16  18
HETATM   18  C3  UNL     1      20.164  -2.037   9.058  1.00  0.00     0.121 C 
BRANCH  18  19
HETATM   19  C4  UNL     1      18.915  -1.479   8.423  1.00  0.00     0.021 C 
BRANCH  19  20
HETATM   20  C5  UNL     1      19.229  -0.381   7.481  1.00  0.00     0.029 C 
BRANCH  20  21
HETATM   21  C6  UNL     1      18.591  -0.610   6.151  1.00  0.00     0.229 C 
BRANCH  21  22
HETATM   22  N4  UNL     1      19.635  -0.841   5.166  1.00  0.00    -0.079 N 
ATOM     23  H43 UNL     1      20.099   0.021   4.879  1.00  0.00     0.274 HD
ATOM     24  H42 UNL     1      20.447  -1.314   5.562  1.00  0.00     0.274 HD
ATOM     25  H41 UNL     1      19.234  -1.349   4.377  1.00  0.00     0.274 HD
ENDBRANCH  21  22
ENDBRANCH  20  21
ENDBRANCH  19  20
ENDBRANCH  18  19
ENDBRANCH  16  18
ENDBRANCH   4  16
BRANCH   1  26
HETATM   26  N1  UNL     1      22.734  -3.641   4.578  1.00  0.00    -0.234 N 
ATOM     27  H12 UNL     1      21.792  -3.878   4.268  1.00  0.00     0.174 HD
ATOM     28  H11 UNL     1      23.545  -3.422   3.999  1.00  0.00     0.174 HD
ENDBRANCH   1  26
BRANCH  10  29
HETATM   29  C9  UNL     1      26.580  -3.895   9.754  1.00  0.00     0.283 C 
HETATM   30  N7  UNL     1      26.868  -4.211  11.133  1.00  0.00    -0.056 NA
HETATM   31  O1  UNL     1      27.457  -4.281   8.959  1.00  0.00    -0.269 OA
ENDBRANCH  10  29
TORSDOF 8
ENDMDL
MODEL 3
REMARK VINA RESULT: -7.438770078      2.103      2.626
REMARK  8 active torsions:
REMARK  status: ('A' for Active; 'I' for Inactive)
REMARK    1  A    between atoms: N1_1  and  C1_4 
REMARK    2  A    between atoms: C2_7  and  N3_8 
REMARK    3  A    between atoms: N3_8  and  C3_10 
REMARK    4  A    between atoms: C3_10  and  C4_11 
REMARK    5  A    between atoms: C4_11  and  C5_12 
REMARK    6  A    between atoms: C5_12  and  C6_13 
REMARK    7  A    between atoms: C6_13  and  N4_14 
REMARK    8  A    between atoms: C8_23  and  C9_24 
ROOT
HETATM    1  C1  UNL     1      23.772  -2.302   7.578  1.00  0.00     0.680 C 
HETATM    2  N2  UNL     1      22.447  -2.203   7.896  1.00  0.00    -0.175 N 
ATOM      3  H2  UNL     1      22.052  -1.266   7.820  1.00  0.00     0.186 HD
HETATM    4  C2  UNL     1      21.585  -3.156   8.293  1.00  0.00     0.146 C 
HETATM    5  C7  UNL     1      21.931  -4.456   8.562  1.00  0.00     0.110 A 
HETATM    6  N5  UNL     1      21.246  -5.319   9.317  1.00  0.00    -0.295 N 
ATOM      7  H5  UNL     1      20.364  -5.107   9.783  1.00  0.00     0.187 HD
HETATM    8  N6  UNL     1      21.864  -6.484   9.380  1.00  0.00    -0.294 N 
ATOM      9  H6  UNL     1      21.525  -7.294   9.900  1.00  0.00     0.187 HD
HETATM   10  C8  UNL     1      23.022  -6.452   8.650  1.00  0.00     0.131 A 
HETATM   11  C10 UNL     1      23.058  -5.187   8.142  1.00  0.00     0.098 A 
HETATM   12  C11 UNL     1      24.038  -4.712   7.303  1.00  0.00     0.274 C 
HETATM   13  O2  UNL     1      24.543  -5.575   6.577  1.00  0.00    -0.267 OA
HETATM   14  N8  UNL     1      24.462  -3.421   7.228  1.00  0.00    -0.155 N 
ATOM     15  H8  UNL     1      25.405  -3.275   6.868  1.00  0.00     0.187 HD
ENDROOT
BRANCH   4  16
HETATM   16  N3  UNL     1      20.388  -2.794   8.418  1.00  0.00    -0.374 N 
ATOM     17  H3  UNL     1      19.739  -3.272   7.793  1.00  0.00     0.161 HD
BRANCH  16  18
HETATM   18  C3  UNL     1      19.776  -1.837   9.273  1.00  0.00     0.121 C 
BRANCH  18  19
HETATM   19  C4  UNL     1      18.528  -1.334   8.593  1.00  0.00     0.021 C 
BRANCH  19  20
HETATM   20  C5  UNL     1      17.338  -1.490   9.460  1.00  0.00     0.029 C 
BRANCH  20  21
HETATM   21  C6  UNL     1      17.727  -1.874  10.850  1.00  0.00     0.229 C 
BRANCH  21  22
HETATM   22  N4  UNL     1      16.927  -3.017  11.260  1.00  0.00    -0.079 N 
ATOM     23  H43 UNL     1      15.941  -2.907  11.024  1.00  0.00     0.274 HD
ATOM     24  H42 UNL     1      17.116  -3.846  10.696  1.00  0.00     0.274 HD
ATOM     25  H41 UNL     1      17.075  -3.180  12.255  1.00  0.00     0.274 HD
ENDBRANCH  21  22
ENDBRANCH  20  21
ENDBRANCH  19  20
ENDBRANCH  18  19
ENDBRANCH  16  18
ENDBRANCH   4  16
BRANCH   1  26
HETATM   26  N1  UNL     1      24.459  -1.213   7.610  1.00  0.00    -0.234 N 
ATOM     27  H12 UNL     1      24.687  -0.865   8.542  1.00  0.00     0.174 HD
ATOM     28  H11 UNL     1      24.709  -0.800   6.712  1.00  0.00     0.174 HD
ENDBRANCH   1  26
BRANCH  10  29
HETATM   29  C9  UNL     1      23.925  -7.580   8.511  1.00  0.00     0.283 C 
HETATM   30  N7  UNL     1      25.164  -7.585   9.253  1.00  0.00    -0.056 NA
HETATM   31  O1  UNL     1      23.760  -8.593   7.805  1.00  0.00    -0.269 OA
ENDBRANCH  10  29
TORSDOF 8
ENDMDL
MODEL 4
REMARK VINA RESULT: -7.427977544      2.300      3.288
REMARK  8 active torsions:
REMARK  status: ('A' for Active; 'I' for Inactive)
REMARK    1  A    between atoms: N1_1  and  C1_4 
REMARK    2  A    between atoms: C2_7  and  N3_8 
REMARK    3  A    between atoms: N3_8  and  C3_10 
REMARK    4  A    between atoms: C3_10  and  C4_11 
REMARK    5  A    between atoms: C4_11  and  C5_12 
REMARK    6  A    between atoms: C5_12  and  C6_13 
REMARK    7  A    between atoms: C6_13  and  N4_14 
REMARK    8  A    between atoms: C8_23  and  C9_24 
ROOT
HETATM    1  C1  UNL     1      23.721  -2.284   7.587  1.00  0.00     0.680 C 
HETATM    2  N2  UNL     1      22.400  -2.192   7.920  1.00  0.00    -0.175 N 
ATOM      3  H2  UNL     1      22.002  -1.255   7.857  1.00  0.00     0.186 HD
HETATM    4  C2  UNL     1      21.545  -3.150   8.319  1.00  0.00     0.146 C 
HETATM    5  C7  UNL     1      21.897  -4.452   8.573  1.00  0.00     0.110 A 
HETATM    6  N5  UNL     1      21.222  -5.323   9.329  1.00  0.00    -0.295 N 
ATOM      7  H5  UNL     1      20.345  -5.116   9.805  1.00  0.00     0.187 HD
HETATM    8  N6  UNL     1      21.843  -6.486   9.375  1.00  0.00    -0.294 N 
ATOM      9  H6  UNL     1      21.513  -7.301   9.892  1.00  0.00     0.187 HD
HETATM   10  C8  UNL     1      22.994  -6.446   8.632  1.00  0.00     0.131 A 
HETATM   11  C10 UNL     1      23.021  -5.175   8.135  1.00  0.00     0.098 A 
HETATM   12  C11 UNL     1      23.990  -4.691   7.290  1.00  0.00     0.274 C 
HETATM   13  O2  UNL     1      24.490  -5.547   6.550  1.00  0.00    -0.267 OA
HETATM   14  N8  UNL     1      24.410  -3.398   7.220  1.00  0.00    -0.155 N 
ATOM     15  H8  UNL     1      25.349  -3.247   6.851  1.00  0.00     0.187 HD
ENDROOT
BRANCH   4  16
HETATM   16  N3  UNL     1      20.349  -2.792   8.459  1.00  0.00    -0.374 N 
ATOM     17  H3  UNL     1      19.667  -3.461   8.101  1.00  0.00     0.161 HD
BRANCH  16  18
HETATM   18  C3  UNL     1      19.774  -1.623   9.028  1.00  0.00     0.121 C 
BRANCH  18  19
HETATM   19  C4  UNL     1      18.598  -1.217   8.177  1.00  0.00     0.021 C 
BRANCH  19  20
HETATM   20  C5  UNL     1      18.979  -0.197   7.174  1.00  0.00     0.029 C 
BRANCH  20  21
HETATM   21  C6  UNL     1      18.754  -0.694   5.784  1.00  0.00     0.229 C 
BRANCH  21  22
HETATM   22  N4  UNL     1      20.041  -1.020   5.191  1.00  0.00    -0.079 N 
ATOM     23  H43 UNL     1      20.679  -0.224   5.180  1.00  0.00     0.274 HD
ATOM     24  H42 UNL     1      20.597  -1.638   5.781  1.00  0.00     0.274 HD
ATOM     25  H41 UNL     1      19.884  -1.406   4.260  1.00  0.00     0.274 HD
ENDBRANCH  21  22
ENDBRANCH  20  21
ENDBRANCH  19  20
ENDBRANCH  18  19
ENDBRANCH  16  18
ENDBRANCH   4  16
BRANCH   1  26
HETATM   26  N1  UNL     1      24.406  -1.194   7.621  1.00  0.00    -0.234 N 
ATOM     27  H12 UNL     1      24.530  -0.725   6.724  1.00  0.00     0.174 HD
ATOM     28  H11 UNL     1      24.759  -0.901   8.532  1.00  0.00     0.174 HD
ENDBRANCH   1  26
BRANCH  10  29
HETATM   29  C9  UNL     1      23.898  -7.570   8.475  1.00  0.00     0.283 C 
HETATM   30  N7  UNL     1      25.150  -7.571   9.193  1.00  0.00    -0.056 NA
HETATM   31  O1  UNL     1      23.724  -8.581   7.770  1.00  0.00    -0.269 OA
ENDBRANCH  10  29
TORSDOF 8
ENDMDL
MODEL 5
REMARK VINA RESULT: -7.131163557      3.373      4.606
REMARK  8 active torsions:
REMARK  status: ('A' for Active; 'I' for Inactive)
REMARK    1  A    between atoms: N1_1  and  C1_4 
REMARK    2  A    between atoms: C2_7  and  N3_8 
REMARK    3  A    between atoms: N3_8  and  C3_10 
REMARK    4  A    between atoms: C3_10  and  C4_11 
REMARK    5  A    between atoms: C4_11  and  C5_12 
REMARK    6  A    between atoms: C5_12  and  C6_13 
REMARK    7  A    between atoms: C6_13  and  N4_14 
REMARK    8  A    between atoms: C8_23  and  C9_24 
ROOT
HETATM    1  C1  UNL     1      24.323  -1.957   8.738  1.00  0.00     0.680 C 
HETATM    2  N2  UNL     1      23.594  -2.990   8.222  1.00  0.00    -0.175 N 
ATOM      3  H2  UNL     1      22.902  -2.725   7.521  1.00  0.00     0.186 HD
HETATM    4  C2  UNL     1      23.652  -4.305   8.498  1.00  0.00     0.146 C 
HETATM    5  C7  UNL     1      24.432  -4.862   9.481  1.00  0.00     0.110 A 
HETATM    6  N5  UNL     1      24.247  -6.050  10.061  1.00  0.00    -0.295 N 
ATOM      7  H5  UNL     1      23.494  -6.697   9.829  1.00  0.00     0.187 HD
HETATM    8  N6  UNL     1      25.171  -6.276  10.976  1.00  0.00    -0.294 N 
ATOM      9  H6  UNL     1      25.230  -7.119  11.547  1.00  0.00     0.187 HD
HETATM   10  C8  UNL     1      26.040  -5.220  11.051  1.00  0.00     0.131 A 
HETATM   11  C10 UNL     1      25.574  -4.342  10.116  1.00  0.00     0.098 A 
HETATM   12  C11 UNL     1      26.167  -3.140   9.813  1.00  0.00     0.274 C 
HETATM   13  O2  UNL     1      27.394  -3.129   9.967  1.00  0.00    -0.267 OA
HETATM   14  N8  UNL     1      25.523  -2.023   9.377  1.00  0.00    -0.155 N 
ATOM     15  H8  UNL     1      25.993  -1.134   9.548  1.00  0.00     0.187 HD
ENDROOT
BRANCH   4  16
HETATM   16  N3  UNL     1      22.926  -5.046   7.788  1.00  0.00    -0.374 N 
ATOM     17  H3  UNL     1      21.962  -5.122   8.112  1.00  0.00     0.161 HD
BRANCH  16  18
HETATM   18  C3  UNL     1      23.206  -5.796   6.614  1.00  0.00     0.121 C 
BRANCH  18  19
HETATM   19  C4  UNL     1      22.303  -5.299   5.513  1.00  0.00     0.021 C 
BRANCH  19  20
HETATM   20  C5  UNL     1      22.894  -4.139   4.809  1.00  0.00     0.029 C 
BRANCH  20  21
HETATM   21  C6  UNL     1      22.005  -2.942   4.897  1.00  0.00     0.229 C 
BRANCH  21  22
HETATM   22  N4  UNL     1      22.782  -1.758   4.571  1.00  0.00    -0.079 N 
ATOM     23  H43 UNL     1      22.352  -1.199   3.834  1.00  0.00     0.274 HD
ATOM     24  H42 UNL     1      22.756  -1.058   5.312  1.00  0.00     0.274 HD
ATOM     25  H41 UNL     1      23.733  -2.044   4.339  1.00  0.00     0.274 HD
ENDBRANCH  21  22
ENDBRANCH  20  21
ENDBRANCH  19  20
ENDBRANCH  18  19
ENDBRANCH  16  18
ENDBRANCH   4  16
BRANCH   1  26
HETATM   26  N1  UNL     1      23.826  -0.776   8.612  1.00  0.00    -0.234 N 
ATOM     27  H12 UNL     1      24.189  -0.075   9.258  1.00  0.00     0.174 HD
ATOM     28  H11 UNL     1      23.122  -0.649   7.885  1.00  0.00     0.174 HD
ENDBRANCH   1  26
BRANCH  10  29
HETATM   29  C9  UNL     1      27.173  -5.164  11.956  1.00  0.00     0.283 C 
HETATM   30  N7  UNL     1      27.071  -4.379  13.164  1.00  0.00    -0.056 NA
HETATM   31  O1  UNL     1      28.272  -5.734  11.821  1.00  0.00    -0.269 OA
ENDBRANCH  10  29
TORSDOF 8
ENDMDL
