MODEL 1
REMARK VINA RESULT: -5.936709933      0.000      0.000
REMARK  5 active torsions:
REMARK  status: ('A' for Active; 'I' for Inactive)
REMARK    1  A    between atoms: C1_2  and  C2_4 
REMARK    2  A    between atoms: C2_4  and  N2_5 
REMARK    3  A    between atoms: C2_4  and  C6_10 
REMARK    4  A    between atoms: N2_5  and  C3_7 
REMARK    5  A    between atoms: C6_10  and  O2_11 
ROOT
HETATM    1  C2  UNL     1      14.130  16.267  16.813  1.00  0.00     0.201 C 
ENDROOT
BRANCH   1   2
HETATM    2  C1  UNL     1      12.879  15.605  17.239  1.00  0.00     0.256 C 
HETATM    3  N1  UNL     1      12.874  14.278  17.819  1.00  0.00    -0.060 NA
HETATM    4  O1  UNL     1      11.726  16.100  17.157  1.00  0.00    -0.274 OA
ENDBRANCH   1   2
BRANCH   1   5
HETATM    5  N2  UNL     1      14.678  15.725  15.669  1.00  0.00    -0.403 N 
ATOM      6  H2  UNL     1      15.334  14.965  15.847  1.00  0.00     0.154 HD
BRANCH   5   7
HETATM    7  C3  UNL     1      14.513  16.008  14.348  1.00  0.00     0.077 A 
HETATM    8  C4  UNL     1      14.395  17.184  13.528  1.00  0.00     0.027 A 
HETATM    9  C5  UNL     1      15.769  16.526  13.623  1.00  0.00     0.027 A 
ENDBRANCH   5   7
ENDBRANCH   1   5
BRANCH   1  10
HETATM   10  C6  UNL     1      15.069  16.301  18.008  1.00  0.00     0.086 C 
HETATM   11  C7  UNL     1      16.283  17.174  17.723  1.00  0.00     0.040 C 
HETATM   12  C8  UNL     1      16.978  17.632  18.976  1.00  0.00     0.003 C 
HETATM   13  C9  UNL     1      16.673  16.793  20.177  1.00  0.00     0.000 C 
HETATM   14  C10 UNL     1      15.208  16.845  20.449  1.00  0.00     0.003 C 
HETATM   15  C11 UNL     1      14.376  16.915  19.180  1.00  0.00     0.040 C 
BRANCH  10  16
HETATM   16  O2  UNL     1      15.515  15.029  18.340  1.00  0.00    -0.387 OA
ATOM     17  H2  UNL     1      16.075  14.669  17.661  1.00  0.00     0.210 HD
ENDBRANCH  10  16
ENDBRANCH   1  10
TORSDOF 5
ENDMDL
MODEL 2
REMARK VINA RESULT: -5.877106257      1.895      4.583
REMARK  5 active torsions:
REMARK  status: ('A' for Active; 'I' for Inactive)
REMARK    1  A    between atoms: C1_2  and  C2_4 
REMARK    2  A    between atoms: C2_4  and  N2_5 
REMARK    3  A    between atoms: C2_4  and  C6_10 
REMARK    4  A    between atoms: N2_5  and  C3_7 
REMARK    5  A    between atoms: C6_10  and  O2_11 
ROOT
HETATM    1  C2  UNL     1      14.453  15.590  17.669  1.00  0.00     0.201 C 
ENDROOT
BRANCH   1   2
HETATM    2  C1  UNL     1      13.997  14.819  18.844  1.00  0.00     0.256 C 
HETATM    3  N1  UNL     1      13.538  15.469  20.055  1.00  0.00    -0.060 NA
HETATM    4  O1  UNL     1      13.948  13.565  18.923  1.00  0.00    -0.274 OA
ENDBRANCH   1   2
BRANCH   1   5
HETATM    5  N2  UNL     1      15.318  16.616  17.986  1.00  0.00    -0.403 N 
ATOM      6  H2  UNL     1      14.969  17.540  17.732  1.00  0.00     0.154 HD
BRANCH   5   7
HETATM    7  C3  UNL     1      16.546  16.636  18.572  1.00  0.00     0.077 A 
HETATM    8  C4  UNL     1      17.556  17.615  18.872  1.00  0.00     0.027 A 
HETATM    9  C5  UNL     1      16.590  17.234  19.991  1.00  0.00     0.027 A 
ENDBRANCH   5   7
ENDBRANCH   1   5
BRANCH   1  10
HETATM   10  C6  UNL     1      13.222  16.019  16.887  1.00  0.00     0.086 C 
HETATM   11  C7  UNL     1      13.354  17.458  16.408  1.00  0.00     0.040 C 
HETATM   12  C8  UNL     1      12.436  17.777  15.260  1.00  0.00     0.003 C 
HETATM   13  C9  UNL     1      11.278  16.837  15.134  1.00  0.00     0.000 C 
HETATM   14  C10 UNL     1      11.793  15.456  14.908  1.00  0.00     0.003 C 
HETATM   15  C11 UNL     1      13.084  15.179  15.659  1.00  0.00     0.040 C 
BRANCH  10  16
HETATM   16  O2  UNL     1      12.071  15.920  17.656  1.00  0.00    -0.387 OA
ATOM     17  H2  UNL     1      11.548  16.711  17.602  1.00  0.00     0.210 HD
ENDBRANCH  10  16
ENDBRANCH   1  10
TORSDOF 5
ENDMDL
MODEL 3
REMARK VINA RESULT: -5.832220172      3.230      5.420
REMARK  5 active torsions:
REMARK  status: ('A' for Active; 'I' for Inactive)
REMARK    1  A    between atoms: C1_2  and  C2_4 
REMARK    2  A    between atoms: C2_4  and  N2_5 
REMARK    3  A    between atoms: C2_4  and  C6_10 
REMARK    4  A    between atoms: N2_5  and  C3_7 
REMARK    5  A    between atoms: C6_10  and  O2_11 
ROOT
HETATM    1  C2  UNL     1      12.656  17.295  15.529  1.00  0.00     0.201 C 
ENDROOT
BRANCH   1   2
HETATM    2  C1  UNL     1      12.190  16.070  16.212  1.00  0.00     0.256 C 
HETATM    3  N1  UNL     1      11.683  14.930  15.477  1.00  0.00    -0.060 NA
HETATM    4  O1  UNL     1      12.187  15.882  17.456  1.00  0.00    -0.274 OA
ENDBRANCH   1   2
BRANCH   1   5
HETATM    5  N2  UNL     1      13.662  17.953  16.206  1.00  0.00    -0.403 N 
ATOM      6  H2  UNL     1      13.377  18.854  16.590  1.00  0.00     0.154 HD
BRANCH   5   7
HETATM    7  C3  UNL     1      14.961  17.635  16.460  1.00  0.00     0.077 A 
HETATM    8  C4  UNL     1      16.188  18.339  16.719  1.00  0.00     0.027 A 
HETATM    9  C5  UNL     1      15.408  17.815  17.923  1.00  0.00     0.027 A 
ENDBRANCH   5   7
ENDBRANCH   1   5
BRANCH   1  10
HETATM   10  C6  UNL     1      11.438  18.149  15.220  1.00  0.00     0.086 C 
HETATM   11  C7  UNL     1      11.660  19.593  15.649  1.00  0.00     0.040 C 
HETATM   12  C8  UNL     1      10.734  20.556  14.958  1.00  0.00     0.003 C 
HETATM   13  C9  UNL     1       9.508  19.912  14.391  1.00  0.00     0.000 C 
HETATM   14  C10 UNL     1       9.913  18.896  13.379  1.00  0.00     0.003 C 
HETATM   15  C11 UNL     1      11.203  18.181  13.745  1.00  0.00     0.040 C 
BRANCH  10  16
HETATM   16  O2  UNL     1      10.306  17.672  15.867  1.00  0.00    -0.387 OA
ATOM     17  H2  UNL     1       9.785  18.382  16.224  1.00  0.00     0.210 HD
ENDBRANCH  10  16
ENDBRANCH   1  10
TORSDOF 5
ENDMDL
MODEL 4
REMARK VINA RESULT: -5.750908397      3.485      6.505
REMARK  5 active torsions:
REMARK  status: ('A' for Active; 'I' for Inactive)
REMARK    1  A    between atoms: C1_2  and  C2_4 
REMARK    2  A    between atoms: C2_4  and  N2_5 
REMARK    3  A    between atoms: C2_4  and  C6_10 
REMARK    4  A    between atoms: N2_5  and  C3_7 
REMARK    5  A    between atoms: C6_10  and  O2_11 
ROOT
HETATM    1  C2  UNL     1      17.727  17.697  20.667  1.00  0.00     0.201 C 
ENDROOT
BRANCH   1   2
HETATM    2  C1  UNL     1      19.166  17.570  20.358  1.00  0.00     0.256 C 
HETATM    3  N1  UNL     1      19.978  18.715  20.002  1.00  0.00    -0.060 NA
HETATM    4  O1  UNL     1      19.826  16.499  20.377  1.00  0.00    -0.274 OA
ENDBRANCH   1   2
BRANCH   1   5
HETATM    5  N2  UNL     1      17.347  17.025  21.810  1.00  0.00    -0.403 N 
ATOM      6  H2  UNL     1      17.214  16.023  21.672  1.00  0.00     0.154 HD
BRANCH   5   7
HETATM    7  C3  UNL     1      17.114  17.438  23.086  1.00  0.00     0.077 A 
HETATM    8  C4  UNL     1      16.227  18.352  23.753  1.00  0.00     0.027 A 
HETATM    9  C5  UNL     1      15.836  16.876  23.737  1.00  0.00     0.027 A 
ENDBRANCH   5   7
ENDBRANCH   1   5
BRANCH   1  10
HETATM   10  C6  UNL     1      16.947  17.315  19.420  1.00  0.00     0.086 C 
HETATM   11  C7  UNL     1      15.454  17.240  19.711  1.00  0.00     0.040 C 
HETATM   12  C8  UNL     1      14.612  17.347  18.469  1.00  0.00     0.003 C 
HETATM   13  C9  UNL     1      15.351  17.022  17.209  1.00  0.00     0.000 C 
HETATM   14  C10 UNL     1      16.485  17.977  17.049  1.00  0.00     0.003 C 
HETATM   15  C11 UNL     1      17.118  18.367  18.373  1.00  0.00     0.040 C 
BRANCH  10  16
HETATM   16  O2  UNL     1      17.356  16.086  18.922  1.00  0.00    -0.387 OA
ATOM     17  H2  UNL     1      18.301  16.041  18.839  1.00  0.00     0.210 HD
ENDBRANCH  10  16
ENDBRANCH   1  10
TORSDOF 5
ENDMDL
MODEL 5
REMARK VINA RESULT: -5.747136818      3.950      5.388
REMARK  5 active torsions:
REMARK  status: ('A' for Active; 'I' for Inactive)
REMARK    1  A    between atoms: C1_2  and  C2_4 
REMARK    2  A    between atoms: C2_4  and  N2_5 
REMARK    3  A    between atoms: C2_4  and  C6_10 
REMARK    4  A    between atoms: N2_5  and  C3_7 
REMARK    5  A    between atoms: C6_10  and  O2_11 
ROOT
HETATM    1  C2  UNL     1      13.927  16.957  22.339  1.00  0.00     0.201 C 
ENDROOT
BRANCH   1   2
HETATM    2  C1  UNL     1      13.050  16.607  23.475  1.00  0.00     0.256 C 
HETATM    3  N1  UNL     1      12.004  17.495  23.938  1.00  0.00    -0.060 NA
HETATM    4  O1  UNL     1      13.103  15.539  24.138  1.00  0.00    -0.274 OA
ENDBRANCH   1   2
BRANCH   1   5
HETATM    5  N2  UNL     1      13.789  16.114  21.256  1.00  0.00    -0.403 N 
ATOM      6  H2  UNL     1      13.920  15.128  21.484  1.00  0.00     0.154 HD
BRANCH   5   7
HETATM    7  C3  UNL     1      13.513  16.340  19.943  1.00  0.00     0.077 A 
HETATM    8  C4  UNL     1      14.254  16.478  18.718  1.00  0.00     0.027 A 
HETATM    9  C5  UNL     1      13.642  15.113  19.021  1.00  0.00     0.027 A 
ENDBRANCH   5   7
ENDBRANCH   1   5
BRANCH   1  10
HETATM   10  C6  UNL     1      15.347  17.081  22.866  1.00  0.00     0.086 C 
HETATM   11  C7  UNL     1      16.361  16.977  21.735  1.00  0.00     0.040 C 
HETATM   12  C8  UNL     1      17.700  17.558  22.098  1.00  0.00     0.003 C 
HETATM   13  C9  UNL     1      17.931  17.670  23.572  1.00  0.00     0.000 C 
HETATM   14  C10 UNL     1      16.894  18.565  24.161  1.00  0.00     0.003 C 
HETATM   15  C11 UNL     1      15.542  18.428  23.482  1.00  0.00     0.040 C 
BRANCH  10  16
HETATM   16  O2  UNL     1      15.630  16.093  23.798  1.00  0.00    -0.387 OA
ATOM     17  H2  UNL     1      14.859  15.577  24.004  1.00  0.00     0.210 HD
ENDBRANCH  10  16
ENDBRANCH   1  10
TORSDOF 5
ENDMDL
