MODEL 1
REMARK VINA RESULT: -6.121892171      0.000      0.000
REMARK  5 active torsions:
REMARK  status: ('A' for Active; 'I' for Inactive)
REMARK    1  A    between atoms: O1_1  and  C1_3 
REMARK    2  A    between atoms: C7_9  and  N1_10 
REMARK    3  A    between atoms: N1_10  and  C8_13 
REMARK    4  A    between atoms: C8_13  and  C9_14 
REMARK    5  A    between atoms: C12_17  and  O2_18 
ROOT
HETATM    1  C1  UNL     1      14.335  14.909  18.804  1.00  0.00     0.153 C 
HETATM    2  C2  UNL     1      14.972  15.940  19.644  1.00  0.00     0.017 C 
HETATM    3  C3  UNL     1      16.360  16.357  19.245  1.00  0.00     0.007 C 
HETATM    4  C4  UNL     1      16.135  17.051  17.929  1.00  0.00     0.007 C 
HETATM    5  C5  UNL     1      14.728  17.562  18.008  1.00  0.00     0.019 C 
HETATM    6  C6  UNL     1      14.234  17.270  19.432  1.00  0.00     0.014 C 
HETATM    7  C7  UNL     1      13.870  16.723  17.103  1.00  0.00     0.221 C 
HETATM    8  C12 UNL     1      13.553  15.375  17.627  1.00  0.00     0.178 C 
ENDROOT
BRANCH   7   9
HETATM    9  N1  UNL     1      14.406  16.678  15.755  1.00  0.00    -0.068 N 
ATOM     10  H12 UNL     1      15.083  17.425  15.604  1.00  0.00     0.277 HD
ATOM     11  H11 UNL     1      15.020  15.874  15.630  1.00  0.00     0.277 HD
BRANCH   9  12
HETATM   12  C8  UNL     1      13.370  16.704  14.752  1.00  0.00     0.237 C 
BRANCH  12  13
HETATM   13  C9  UNL     1      12.278  17.679  15.061  1.00  0.00     0.011 A 
HETATM   14  C10 UNL     1      11.490  18.150  13.815  1.00  0.00     0.007 A 
HETATM   15  C11 UNL     1      10.849  17.392  14.942  1.00  0.00     0.007 A 
ENDBRANCH  12  13
ENDBRANCH   9  12
ENDBRANCH   7   9
BRANCH   8  16
HETATM   16  O2  UNL     1      12.161  15.309  17.876  1.00  0.00    -0.391 OA
ATOM     17  H2  UNL     1      11.703  14.875  17.165  1.00  0.00     0.210 HD
ENDBRANCH   8  16
BRANCH   1  18
HETATM   18  O1  UNL     1      15.240  13.888  18.450  1.00  0.00    -0.393 OA
ATOM     19  H1  UNL     1      14.921  13.370  17.721  1.00  0.00     0.210 HD
ENDBRANCH   1  18
TORSDOF 5
ENDMDL
MODEL 2
REMARK VINA RESULT: -6.061015653      1.524      4.788
REMARK  5 active torsions:
REMARK  status: ('A' for Active; 'I' for Inactive)
REMARK    1  A    between atoms: O1_1  and  C1_3 
REMARK    2  A    between atoms: C7_9  and  N1_10 
REMARK    3  A    between atoms: N1_10  and  C8_13 
REMARK    4  A    between atoms: C8_13  and  C9_14 
REMARK    5  A    between atoms: C12_17  and  O2_18 
ROOT
HETATM    1  C1  UNL     1      12.868  15.315  16.927  1.00  0.00     0.153 C 
HETATM    2  C2  UNL     1      12.582  15.588  15.507  1.00  0.00     0.017 C 
HETATM    3  C3  UNL     1      12.041  16.955  15.191  1.00  0.00     0.007 C 
HETATM    4  C4  UNL     1      13.206  17.855  15.504  1.00  0.00     0.007 C 
HETATM    5  C5  UNL     1      14.414  16.991  15.307  1.00  0.00     0.019 C 
HETATM    6  C6  UNL     1      13.911  15.655  14.742  1.00  0.00     0.014 C 
HETATM    7  C7  UNL     1      14.988  16.668  16.658  1.00  0.00     0.221 C 
HETATM    8  C12 UNL     1      14.226  15.659  17.428  1.00  0.00     0.178 C 
ENDROOT
BRANCH   7   9
HETATM    9  N1  UNL     1      15.244  17.871  17.428  1.00  0.00    -0.068 N 
ATOM     10  H12 UNL     1      14.864  18.694  16.961  1.00  0.00     0.277 HD
ATOM     11  H11 UNL     1      14.680  17.891  18.277  1.00  0.00     0.277 HD
BRANCH   9  12
HETATM   12  C8  UNL     1      16.644  18.044  17.728  1.00  0.00     0.237 C 
BRANCH  12  13
HETATM   13  C9  UNL     1      17.146  17.081  18.757  1.00  0.00     0.011 A 
HETATM   14  C10 UNL     1      18.054  17.728  19.830  1.00  0.00     0.007 A 
HETATM   15  C11 UNL     1      16.741  17.080  20.163  1.00  0.00     0.007 A 
ENDBRANCH  12  13
ENDBRANCH   9  12
ENDBRANCH   7   9
BRANCH   8  16
HETATM   16  O2  UNL     1      15.031  14.502  17.568  1.00  0.00    -0.391 OA
ATOM     17  H2  UNL     1      15.225  14.114  16.723  1.00  0.00     0.210 HD
ENDBRANCH   8  16
BRANCH   1  18
HETATM   18  O1  UNL     1      11.862  15.824  17.773  1.00  0.00    -0.393 OA
ATOM     19  H1  UNL     1      11.697  16.745  17.610  1.00  0.00     0.210 HD
ENDBRANCH   1  18
TORSDOF 5
ENDMDL
MODEL 3
REMARK VINA RESULT: -6.037203853      1.723      5.009
REMARK  5 active torsions:
REMARK  status: ('A' for Active; 'I' for Inactive)
REMARK    1  A    between atoms: O1_1  and  C1_3 
REMARK    2  A    between atoms: C7_9  and  N1_10 
REMARK    3  A    between atoms: N1_10  and  C8_13 
REMARK    4  A    between atoms: C8_13  and  C9_14 
REMARK    5  A    between atoms: C12_17  and  O2_18 
ROOT
HETATM    1  C1  UNL     1      13.236  15.360  17.202  1.00  0.00     0.153 C 
HETATM    2  C2  UNL     1      13.240  15.997  15.873  1.00  0.00     0.017 C 
HETATM    3  C3  UNL     1      12.795  17.433  15.824  1.00  0.00     0.007 C 
HETATM    4  C4  UNL     1      13.889  18.147  16.569  1.00  0.00     0.007 C 
HETATM    5  C5  UNL     1      15.099  17.282  16.386  1.00  0.00     0.019 C 
HETATM    6  C6  UNL     1      14.696  16.164  15.413  1.00  0.00     0.014 C 
HETATM    7  C7  UNL     1      15.390  16.595  17.690  1.00  0.00     0.221 C 
HETATM    8  C12 UNL     1      14.474  15.479  18.020  1.00  0.00     0.178 C 
ENDROOT
BRANCH   7   9
HETATM    9  N1  UNL     1      15.508  17.549  18.778  1.00  0.00    -0.068 N 
ATOM     10  H12 UNL     1      15.341  18.501  18.452  1.00  0.00     0.277 HD
ATOM     11  H11 UNL     1      14.729  17.461  19.430  1.00  0.00     0.277 HD
BRANCH   9  12
HETATM   12  C8  UNL     1      16.774  17.447  19.462  1.00  0.00     0.237 C 
BRANCH  12  13
HETATM   13  C9  UNL     1      16.678  16.726  20.769  1.00  0.00     0.011 A 
HETATM   14  C10 UNL     1      17.369  17.462  21.942  1.00  0.00     0.007 A 
HETATM   15  C11 UNL     1      15.894  17.185  21.916  1.00  0.00     0.007 A 
ENDBRANCH  12  13
ENDBRANCH   9  12
ENDBRANCH   7   9
BRANCH   8  16
HETATM   16  O2  UNL     1      15.217  14.273  18.004  1.00  0.00    -0.391 OA
ATOM     17  H2  UNL     1      16.037  14.379  17.535  1.00  0.00     0.210 HD
ENDBRANCH   8  16
BRANCH   1  18
HETATM   18  O1  UNL     1      12.092  15.708  17.948  1.00  0.00    -0.393 OA
ATOM     19  H1  UNL     1      12.294  15.834  18.867  1.00  0.00     0.210 HD
ENDBRANCH   1  18
TORSDOF 5
ENDMDL
MODEL 4
REMARK VINA RESULT: -5.918580678      1.560      2.050
REMARK  5 active torsions:
REMARK  status: ('A' for Active; 'I' for Inactive)
REMARK    1  A    between atoms: O1_1  and  C1_3 
REMARK    2  A    between atoms: C7_9  and  N1_10 
REMARK    3  A    between atoms: N1_10  and  C8_13 
REMARK    4  A    between atoms: C8_13  and  C9_14 
REMARK    5  A    between atoms: C12_17  and  O2_18 
ROOT
HETATM    1  C1  UNL     1      14.345  14.892  18.822  1.00  0.00     0.153 C 
HETATM    2  C2  UNL     1      14.964  15.871  19.734  1.00  0.00     0.017 C 
HETATM    3  C3  UNL     1      16.365  16.298  19.398  1.00  0.00     0.007 C 
HETATM    4  C4  UNL     1      16.181  17.066  18.117  1.00  0.00     0.007 C 
HETATM    5  C5  UNL     1      14.776  17.582  18.183  1.00  0.00     0.019 C 
HETATM    6  C6  UNL     1      14.240  17.216  19.576  1.00  0.00     0.014 C 
HETATM    7  C7  UNL     1      13.939  16.800  17.211  1.00  0.00     0.221 C 
HETATM    8  C12 UNL     1      13.599  15.427  17.651  1.00  0.00     0.178 C 
ENDROOT
BRANCH   7   9
HETATM    9  N1  UNL     1      14.512  16.825  15.878  1.00  0.00    -0.068 N 
ATOM     10  H12 UNL     1      15.531  16.820  15.916  1.00  0.00     0.277 HD
ATOM     11  H11 UNL     1      14.363  15.938  15.397  1.00  0.00     0.277 HD
BRANCH   9  12
HETATM   12  C8  UNL     1      14.026  17.932  15.091  1.00  0.00     0.237 C 
BRANCH  12  13
HETATM   13  C9  UNL     1      15.124  18.754  14.495  1.00  0.00     0.011 A 
HETATM   14  C10 UNL     1      15.070  20.250  14.890  1.00  0.00     0.007 A 
HETATM   15  C11 UNL     1      16.219  19.355  15.255  1.00  0.00     0.007 A 
ENDBRANCH  12  13
ENDBRANCH   9  12
ENDBRANCH   7   9
BRANCH   8  16
HETATM   16  O2  UNL     1      12.200  15.358  17.857  1.00  0.00    -0.391 OA
ATOM     17  H2  UNL     1      11.830  16.221  18.005  1.00  0.00     0.210 HD
ENDBRANCH   8  16
BRANCH   1  18
HETATM   18  O1  UNL     1      15.253  13.886  18.438  1.00  0.00    -0.393 OA
ATOM     19  H1  UNL     1      14.871  13.285  17.809  1.00  0.00     0.210 HD
ENDBRANCH   1  18
TORSDOF 5
ENDMDL
MODEL 5
REMARK VINA RESULT: -5.910087762      1.806      5.195
REMARK  5 active torsions:
REMARK  status: ('A' for Active; 'I' for Inactive)
REMARK    1  A    between atoms: O1_1  and  C1_3 
REMARK    2  A    between atoms: C7_9  and  N1_10 
REMARK    3  A    between atoms: N1_10  and  C8_13 
REMARK    4  A    between atoms: C8_13  and  C9_14 
REMARK    5  A    between atoms: C12_17  and  O2_18 
ROOT
HETATM    1  C1  UNL     1      13.258  15.434  17.176  1.00  0.00     0.153 C 
HETATM    2  C2  UNL     1      13.332  16.121  15.874  1.00  0.00     0.017 C 
HETATM    3  C3  UNL     1      12.936  17.572  15.865  1.00  0.00     0.007 C 
HETATM    4  C4  UNL     1      14.025  18.219  16.676  1.00  0.00     0.007 C 
HETATM    5  C5  UNL     1      15.211  17.320  16.503  1.00  0.00     0.019 C 
HETATM    6  C6  UNL     1      14.808  16.255  15.472  1.00  0.00     0.014 C 
HETATM    7  C7  UNL     1      15.432  16.575  17.788  1.00  0.00     0.221 C 
HETATM    8  C12 UNL     1      14.468  15.479  18.041  1.00  0.00     0.178 C 
ENDROOT
BRANCH   7   9
HETATM    9  N1  UNL     1      15.541  17.482  18.916  1.00  0.00    -0.068 N 
ATOM     10  H12 UNL     1      15.876  18.399  18.619  1.00  0.00     0.277 HD
ATOM     11  H11 UNL     1      14.620  17.750  19.263  1.00  0.00     0.277 HD
BRANCH   9  12
HETATM   12  C8  UNL     1      16.361  16.946  19.974  1.00  0.00     0.237 C 
BRANCH  12  13
HETATM   13  C9  UNL     1      17.636  17.704  20.170  1.00  0.00     0.011 A 
HETATM   14  C10 UNL     1      18.252  17.539  21.579  1.00  0.00     0.007 A 
HETATM   15  C11 UNL     1      18.953  17.088  20.330  1.00  0.00     0.007 A 
ENDBRANCH  12  13
ENDBRANCH   9  12
ENDBRANCH   7   9
BRANCH   8  16
HETATM   16  O2  UNL     1      15.171  14.250  18.005  1.00  0.00    -0.391 OA
ATOM     17  H2  UNL     1      15.908  14.292  17.407  1.00  0.00     0.210 HD
ENDBRANCH   8  16
BRANCH   1  18
HETATM   18  O1  UNL     1      12.099  15.793  17.893  1.00  0.00    -0.393 OA
ATOM     19  H1  UNL     1      11.442  15.108  17.868  1.00  0.00     0.210 HD
ENDBRANCH   1  18
TORSDOF 5
ENDMDL
