MODEL 1
REMARK VINA RESULT: -5.116051861      0.000      0.000
REMARK  5 active torsions:
REMARK  status: ('A' for Active; 'I' for Inactive)
REMARK    1  A    between atoms: O1_2  and  C2_3 
REMARK    2  A    between atoms: C2_3  and  C3_5 
REMARK    3  A    between atoms: C3_5  and  O3_25 
REMARK    4  A    between atoms: C4_6  and  C5_7 
REMARK    5  A    between atoms: C6_8  and  C7_9 
ROOT
HETATM    1  C5  UNL     1      60.702  65.286  25.291  1.00  0.00     0.064 C 
HETATM    2  C6  UNL     1      61.739  66.005  26.087  1.00  0.00     0.080 C 
HETATM    3  C8  UNL     1      62.382  65.000  26.980  1.00  0.00     0.010 C 
HETATM    4  N2  UNL     1      63.534  65.070  27.522  1.00  0.00    -0.404 N 
ATOM      5  H21 UNL     1      63.975  64.382  28.134  1.00  0.00     0.155 HD
ATOM      6  H22 UNL     1      64.206  65.833  27.432  1.00  0.00     0.155 HD
HETATM    7  C9  UNL     1      61.405  63.891  27.110  1.00  0.00     0.176 C 
HETATM    8  C10 UNL     1      60.408  64.185  28.121  1.00  0.00     0.072 C 
HETATM    9  N3  UNL     1      59.599  64.404  28.935  1.00  0.00    -0.196 NA
HETATM   10  C11 UNL     1      60.810  63.845  25.713  1.00  0.00     0.166 C 
HETATM   11  C12 UNL     1      59.539  63.168  25.748  1.00  0.00     0.087 C 
HETATM   12  N4  UNL     1      58.519  62.626  25.778  1.00  0.00    -0.195 NA
HETATM   13  C13 UNL     1      61.754  63.101  24.877  1.00  0.00     0.087 C 
HETATM   14  N5  UNL     1      62.501  62.513  24.229  1.00  0.00    -0.195 NA
ENDROOT
BRANCH   2  15
HETATM   15  C7  UNL     1      61.221  67.089  26.929  1.00  0.00     0.064 C 
HETATM   16  N1  UNL     1      61.925  68.139  27.077  1.00  0.00    -0.410 N 
ATOM     17  H12 UNL     1      62.830  68.210  26.613  1.00  0.00     0.155 HD
ATOM     18  H11 UNL     1      61.564  68.892  27.663  1.00  0.00     0.155 HD
ENDBRANCH   2  15
BRANCH   1  19
HETATM   19  C4  UNL     1      59.354  65.830  25.392  1.00  0.00     0.025 C 
HETATM   20  C3  UNL     1      58.550  65.938  24.353  1.00  0.00     0.140 C 
BRANCH  20  21
HETATM   21  C2  UNL     1      57.207  66.482  24.459  1.00  0.00     0.316 C 
HETATM   22  O2  UNL     1      56.189  65.773  24.510  1.00  0.00    -0.257 OA
BRANCH  21  23
HETATM   23  O1  UNL     1      57.072  67.856  24.503  1.00  0.00    -0.321 OA
HETATM   24  C1  UNL     1      56.911  68.650  23.336  1.00  0.00     0.213 C 
ENDBRANCH  21  23
ENDBRANCH  20  21
BRANCH  20  25
HETATM   25  O3  UNL     1      58.980  65.523  23.101  1.00  0.00    -0.350 OA
HETATM   26  C14 UNL     1      58.488  64.405  22.421  1.00  0.00     0.210 C 
ENDBRANCH  20  25
ENDBRANCH   1  19
TORSDOF 5
ENDMDL
MODEL 2
REMARK VINA RESULT: -4.876430466      1.366      1.699
REMARK  5 active torsions:
REMARK  status: ('A' for Active; 'I' for Inactive)
REMARK    1  A    between atoms: O1_2  and  C2_3 
REMARK    2  A    between atoms: C2_3  and  C3_5 
REMARK    3  A    between atoms: C3_5  and  O3_25 
REMARK    4  A    between atoms: C4_6  and  C5_7 
REMARK    5  A    between atoms: C6_8  and  C7_9 
ROOT
HETATM    1  C5  UNL     1      60.477  65.127  26.350  1.00  0.00     0.064 C 
HETATM    2  C6  UNL     1      61.042  65.621  27.638  1.00  0.00     0.080 C 
HETATM    3  C8  UNL     1      61.303  64.427  28.491  1.00  0.00     0.010 C 
HETATM    4  N2  UNL     1      62.115  64.336  29.470  1.00  0.00    -0.404 N 
ATOM      5  H21 UNL     1      62.293  63.518  30.054  1.00  0.00     0.155 HD
ATOM      6  H22 UNL     1      62.720  65.074  29.832  1.00  0.00     0.155 HD
HETATM    7  C9  UNL     1      60.423  63.355  27.965  1.00  0.00     0.176 C 
HETATM    8  C10 UNL     1      59.079  63.470  28.497  1.00  0.00     0.072 C 
HETATM    9  N3  UNL     1      57.992  63.546  28.919  1.00  0.00    -0.196 NA
HETATM   10  C11 UNL     1      60.473  63.626  26.470  1.00  0.00     0.166 C 
HETATM   11  C12 UNL     1      59.344  63.008  25.825  1.00  0.00     0.087 C 
HETATM   12  N4  UNL     1      58.437  62.513  25.309  1.00  0.00    -0.195 NA
HETATM   13  C13 UNL     1      61.720  63.038  25.978  1.00  0.00     0.087 C 
HETATM   14  N5  UNL     1      62.701  62.568  25.600  1.00  0.00    -0.195 NA
ENDROOT
BRANCH   2  15
HETATM   15  C7  UNL     1      60.161  66.525  28.387  1.00  0.00     0.064 C 
HETATM   16  N1  UNL     1      60.683  67.364  29.189  1.00  0.00    -0.410 N 
ATOM     17  H12 UNL     1      61.697  67.395  29.298  1.00  0.00     0.155 HD
ATOM     18  H11 UNL     1      60.070  67.991  29.709  1.00  0.00     0.155 HD
ENDBRANCH   2  15
BRANCH   1  19
HETATM   19  C4  UNL     1      59.184  65.691  25.982  1.00  0.00     0.025 C 
HETATM   20  C3  UNL     1      58.856  65.967  24.736  1.00  0.00     0.140 C 
BRANCH  20  21
HETATM   21  C2  UNL     1      57.567  66.530  24.374  1.00  0.00     0.316 C 
HETATM   22  O2  UNL     1      57.413  67.715  24.038  1.00  0.00    -0.257 OA
BRANCH  21  23
HETATM   23  O1  UNL     1      56.468  65.694  24.411  1.00  0.00    -0.321 OA
HETATM   24  C1  UNL     1      55.882  65.143  23.240  1.00  0.00     0.213 C 
ENDBRANCH  21  23
ENDBRANCH  20  21
BRANCH  20  25
HETATM   25  O3  UNL     1      59.761  65.720  23.712  1.00  0.00    -0.350 OA
HETATM   26  C14 UNL     1      59.561  64.798  22.681  1.00  0.00     0.210 C 
ENDBRANCH  20  25
ENDBRANCH   1  19
TORSDOF 5
ENDMDL
MODEL 3
REMARK VINA RESULT: -4.772877790      1.211      1.272
REMARK  5 active torsions:
REMARK  status: ('A' for Active; 'I' for Inactive)
REMARK    1  A    between atoms: O1_2  and  C2_3 
REMARK    2  A    between atoms: C2_3  and  C3_5 
REMARK    3  A    between atoms: C3_5  and  O3_25 
REMARK    4  A    between atoms: C4_6  and  C5_7 
REMARK    5  A    between atoms: C6_8  and  C7_9 
ROOT
HETATM    1  C5  UNL     1      60.432  65.206  26.226  1.00  0.00     0.064 C 
HETATM    2  C6  UNL     1      61.017  65.738  27.490  1.00  0.00     0.080 C 
HETATM    3  C8  UNL     1      61.342  64.565  28.351  1.00  0.00     0.010 C 
HETATM    4  N2  UNL     1      62.183  64.515  29.308  1.00  0.00    -0.404 N 
ATOM      5  H21 UNL     1      62.405  63.712  29.897  1.00  0.00     0.155 HD
ATOM      6  H22 UNL     1      62.774  65.277  29.641  1.00  0.00     0.155 HD
HETATM    7  C9  UNL     1      60.482  63.457  27.865  1.00  0.00     0.176 C 
HETATM    8  C10 UNL     1      59.151  63.536  28.434  1.00  0.00     0.072 C 
HETATM    9  N3  UNL     1      58.075  63.582  28.887  1.00  0.00    -0.196 NA
HETATM   10  C11 UNL     1      60.481  63.709  26.366  1.00  0.00     0.166 C 
HETATM   11  C12 UNL     1      59.355  63.045  25.763  1.00  0.00     0.087 C 
HETATM   12  N4  UNL     1      58.451  62.513  25.279  1.00  0.00    -0.195 NA
HETATM   13  C13 UNL     1      61.733  63.154  25.845  1.00  0.00     0.087 C 
HETATM   14  N5  UNL     1      62.717  62.712  25.446  1.00  0.00    -0.195 NA
ENDROOT
BRANCH   2  15
HETATM   15  C7  UNL     1      60.128  66.622  28.252  1.00  0.00     0.064 C 
HETATM   16  N1  UNL     1      60.626  67.343  29.176  1.00  0.00    -0.410 N 
ATOM     17  H12 UNL     1      61.626  67.295  29.370  1.00  0.00     0.155 HD
ATOM     18  H11 UNL     1      60.008  67.958  29.705  1.00  0.00     0.155 HD
ENDBRANCH   2  15
BRANCH   1  19
HETATM   19  C4  UNL     1      59.111  65.723  25.888  1.00  0.00     0.025 C 
HETATM   20  C3  UNL     1      58.728  65.942  24.646  1.00  0.00     0.140 C 
BRANCH  20  21
HETATM   21  C2  UNL     1      57.411  66.457  24.314  1.00  0.00     0.316 C 
HETATM   22  O2  UNL     1      56.374  65.784  24.413  1.00  0.00    -0.257 OA
BRANCH  21  23
HETATM   23  O1  UNL     1      57.326  67.762  23.868  1.00  0.00    -0.321 OA
HETATM   24  C1  UNL     1      56.181  68.574  24.085  1.00  0.00     0.213 C 
ENDBRANCH  21  23
ENDBRANCH  20  21
BRANCH  20  25
HETATM   25  O3  UNL     1      59.599  65.679  23.598  1.00  0.00    -0.350 OA
HETATM   26  C14 UNL     1      59.323  64.819  22.531  1.00  0.00     0.210 C 
ENDBRANCH  20  25
ENDBRANCH   1  19
TORSDOF 5
ENDMDL
MODEL 4
REMARK VINA RESULT: -4.645938847      1.453      1.683
REMARK  5 active torsions:
REMARK  status: ('A' for Active; 'I' for Inactive)
REMARK    1  A    between atoms: O1_2  and  C2_3 
REMARK    2  A    between atoms: C2_3  and  C3_5 
REMARK    3  A    between atoms: C3_5  and  O3_25 
REMARK    4  A    between atoms: C4_6  and  C5_7 
REMARK    5  A    between atoms: C6_8  and  C7_9 
ROOT
HETATM    1  C5  UNL     1      59.622  65.133  24.201  1.00  0.00     0.064 C 
HETATM    2  C6  UNL     1      60.756  65.521  25.089  1.00  0.00     0.080 C 
HETATM    3  C8  UNL     1      61.295  64.266  25.686  1.00  0.00     0.010 C 
HETATM    4  N2  UNL     1      62.460  64.076  26.169  1.00  0.00    -0.404 N 
ATOM      5  H21 UNL     1      62.829  63.217  26.578  1.00  0.00     0.155 HD
ATOM      6  H22 UNL     1      63.216  64.759  26.226  1.00  0.00     0.155 HD
HETATM    7  C9  UNL     1      60.196  63.274  25.602  1.00  0.00     0.176 C 
HETATM    8  C10 UNL     1      59.266  63.425  26.704  1.00  0.00     0.072 C 
HETATM    9  N3  UNL     1      58.508  63.531  27.587  1.00  0.00    -0.196 NA
HETATM   10  C11 UNL     1      59.566  63.630  24.266  1.00  0.00     0.166 C 
HETATM   11  C12 UNL     1      58.224  63.110  24.207  1.00  0.00     0.087 C 
HETATM   12  N4  UNL     1      57.148  62.693  24.160  1.00  0.00    -0.195 NA
HETATM   13  C13 UNL     1      60.394  63.009  23.231  1.00  0.00     0.087 C 
HETATM   14  N5  UNL     1      61.049  62.514  22.425  1.00  0.00    -0.195 NA
ENDROOT
BRANCH   2  15
HETATM   15  C7  UNL     1      60.392  66.422  26.189  1.00  0.00     0.064 C 
HETATM   16  N1  UNL     1      61.287  67.181  26.680  1.00  0.00    -0.410 N 
ATOM     17  H12 UNL     1      62.235  67.152  26.305  1.00  0.00     0.155 HD
ATOM     18  H11 UNL     1      61.034  67.807  27.444  1.00  0.00     0.155 HD
ENDBRANCH   2  15
BRANCH   1  19
HETATM   19  C4  UNL     1      58.351  65.783  24.497  1.00  0.00     0.025 C 
HETATM   20  C3  UNL     1      57.523  66.189  23.556  1.00  0.00     0.140 C 
BRANCH  20  21
HETATM   21  C2  UNL     1      56.257  66.837  23.856  1.00  0.00     0.316 C 
HETATM   22  O2  UNL     1      55.166  66.249  23.810  1.00  0.00    -0.257 OA
BRANCH  21  23
HETATM   23  O1  UNL     1      56.288  68.173  24.207  1.00  0.00    -0.321 OA
HETATM   24  C1  UNL     1      56.816  69.179  23.355  1.00  0.00     0.213 C 
ENDBRANCH  21  23
ENDBRANCH  20  21
BRANCH  20  25
HETATM   25  O3  UNL     1      57.849  66.000  22.220  1.00  0.00    -0.350 OA
HETATM   26  C14 UNL     1      57.231  65.076  21.373  1.00  0.00     0.210 C 
ENDBRANCH  20  25
ENDBRANCH   1  19
TORSDOF 5
ENDMDL
MODEL 5
REMARK VINA RESULT: -4.352782710      3.483      5.989
REMARK  5 active torsions:
REMARK  status: ('A' for Active; 'I' for Inactive)
REMARK    1  A    between atoms: O1_2  and  C2_3 
REMARK    2  A    between atoms: C2_3  and  C3_5 
REMARK    3  A    between atoms: C3_5  and  O3_25 
REMARK    4  A    between atoms: C4_6  and  C5_7 
REMARK    5  A    between atoms: C6_8  and  C7_9 
ROOT
HETATM    1  C5  UNL     1      61.637  65.598  26.618  1.00  0.00     0.064 C 
HETATM    2  C6  UNL     1      60.800  65.745  25.392  1.00  0.00     0.080 C 
HETATM    3  C8  UNL     1      59.377  65.777  25.834  1.00  0.00     0.010 C 
HETATM    4  N2  UNL     1      58.381  66.266  25.204  1.00  0.00    -0.404 N 
ATOM      5  H21 UNL     1      57.407  66.288  25.506  1.00  0.00     0.155 HD
ATOM      6  H22 UNL     1      58.399  66.717  24.289  1.00  0.00     0.155 HD
HETATM    7  C9  UNL     1      59.351  65.122  27.164  1.00  0.00     0.176 C 
HETATM    8  C10 UNL     1      59.304  63.679  27.039  1.00  0.00     0.072 C 
HETATM    9  N3  UNL     1      59.261  62.514  26.956  1.00  0.00    -0.196 NA
HETATM   10  C11 UNL     1      60.662  65.603  27.764  1.00  0.00     0.166 C 
HETATM   11  C12 UNL     1      61.051  64.732  28.843  1.00  0.00     0.087 C 
HETATM   12  N4  UNL     1      61.363  64.033  29.708  1.00  0.00    -0.195 NA
HETATM   13  C13 UNL     1      60.422  66.956  28.270  1.00  0.00     0.087 C 
HETATM   14  N5  UNL     1      60.223  68.018  28.667  1.00  0.00    -0.195 NA
ENDROOT
BRANCH   2  15
HETATM   15  C7  UNL     1      60.944  64.656  24.419  1.00  0.00     0.064 C 
HETATM   16  N1  UNL     1      60.715  64.899  23.190  1.00  0.00    -0.410 N 
ATOM     17  H12 UNL     1      60.438  65.838  22.904  1.00  0.00     0.155 HD
ATOM     18  H11 UNL     1      60.816  64.142  22.514  1.00  0.00     0.155 HD
ENDBRANCH   2  15
BRANCH   1  19
HETATM   19  C4  UNL     1      62.542  64.456  26.619  1.00  0.00     0.025 C 
HETATM   20  C3  UNL     1      63.850  64.583  26.721  1.00  0.00     0.140 C 
BRANCH  20  21
HETATM   21  C2  UNL     1      64.748  63.441  26.721  1.00  0.00     0.316 C 
HETATM   22  O2  UNL     1      64.818  62.632  25.783  1.00  0.00    -0.257 OA
BRANCH  21  23
HETATM   23  O1  UNL     1      65.557  63.261  27.826  1.00  0.00    -0.321 OA
HETATM   24  C1  UNL     1      65.043  63.150  29.145  1.00  0.00     0.213 C 
ENDBRANCH  21  23
ENDBRANCH  20  21
BRANCH  20  25
HETATM   25  O3  UNL     1      64.414  65.846  26.834  1.00  0.00    -0.350 OA
HETATM   26  C14 UNL     1      64.377  66.634  27.988  1.00  0.00     0.210 C 
ENDBRANCH  20  25
ENDBRANCH   1  19
TORSDOF 5
ENDMDL
