MODEL 1
REMARK VINA RESULT: -7.266547926      0.000      0.000
REMARK  5 active torsions:
REMARK  status: ('A' for Active; 'I' for Inactive)
REMARK    1  A    between atoms: C2_2  and  C4_4 
REMARK    2  A    between atoms: C4_4  and  C5_5 
REMARK    3  A    between atoms: C5_5  and  O1_6 
REMARK    4  A    between atoms: C5_5  and  C7_10 
REMARK    5  A    between atoms: C7_10  and  N2_11 
ROOT
HETATM    1  C5  UNL     1       5.443  21.514  73.111  1.00  0.00     0.163 C 
HETATM    2  C6  UNL     1       5.385  22.955  72.879  1.00  0.00     0.099 C 
HETATM    3  N1  UNL     1       5.344  24.124  72.720  1.00  0.00    -0.194 NA
ENDROOT
BRANCH   1   4
HETATM    4  C4  UNL     1       5.878  20.821  71.870  1.00  0.00     0.059 C 
BRANCH   4   5
HETATM    5  C2  UNL     1       6.733  19.621  72.026  1.00  0.00    -0.019 C 
HETATM    6  C1  UNL     1       7.493  19.421  70.697  1.00  0.00     0.009 C 
HETATM    7  C3  UNL     1       6.032  18.321  72.247  1.00  0.00     0.009 C 
ENDBRANCH   4   5
ENDBRANCH   1   4
BRANCH   1   8
HETATM    8  O1  UNL     1       4.271  20.992  73.609  1.00  0.00    -0.374 OA
ATOM      9  H1  UNL     1       4.032  21.385  74.440  1.00  0.00     0.212 HD
ENDBRANCH   1   8
BRANCH   1  10
HETATM   10  C7  UNL     1       6.513  21.337  74.200  1.00  0.00     0.192 C 
BRANCH  10  11
HETATM   11  N2  UNL     1       6.084  20.624  75.339  1.00  0.00    -0.326 N 
HETATM   12  C8  UNL     1       6.798  19.475  75.747  1.00  0.00     0.140 C 
HETATM   13  C9  UNL     1       6.277  19.038  77.122  1.00  0.00     0.048 C 
HETATM   14  C10 UNL     1       6.556  20.042  78.200  1.00  0.00     0.235 C 
HETATM   15  N3  UNL     1       7.569  20.979  77.779  1.00  0.00    -0.060 N 
HETATM   16  C11 UNL     1       6.827  22.042  77.070  1.00  0.00     0.366 C 
ATOM     17  H32 UNL     1       8.159  21.321  78.538  1.00  0.00     0.278 HD
ATOM     18  H31 UNL     1       8.320  20.560  77.230  1.00  0.00     0.278 HD
HETATM   19  N4  UNL     1       5.683  21.442  76.400  1.00  0.00    -0.116 NA
ENDBRANCH  10  11
ENDBRANCH   1  10
TORSDOF 5
ENDMDL
MODEL 2
REMARK VINA RESULT: -6.608986580      1.366      2.103
REMARK  5 active torsions:
REMARK  status: ('A' for Active; 'I' for Inactive)
REMARK    1  A    between atoms: C2_2  and  C4_4 
REMARK    2  A    between atoms: C4_4  and  C5_5 
REMARK    3  A    between atoms: C5_5  and  O1_6 
REMARK    4  A    between atoms: C5_5  and  C7_10 
REMARK    5  A    between atoms: C7_10  and  N2_11 
ROOT
HETATM    1  C5  UNL     1       5.908  20.194  73.023  1.00  0.00     0.163 C 
HETATM    2  C6  UNL     1       5.880  21.642  72.836  1.00  0.00     0.099 C 
HETATM    3  N1  UNL     1       5.835  22.814  72.704  1.00  0.00    -0.194 NA
ENDROOT
BRANCH   1   4
HETATM    4  C4  UNL     1       7.284  19.681  72.790  1.00  0.00     0.059 C 
BRANCH   4   5
HETATM    5  C2  UNL     1       8.064  20.304  71.695  1.00  0.00    -0.019 C 
HETATM    6  C1  UNL     1       7.733  19.535  70.398  1.00  0.00     0.009 C 
HETATM    7  C3  UNL     1       9.552  20.223  71.801  1.00  0.00     0.009 C 
ENDBRANCH   4   5
ENDBRANCH   1   4
BRANCH   1   8
HETATM    8  O1  UNL     1       4.974  19.526  72.265  1.00  0.00    -0.374 OA
ATOM      9  H1  UNL     1       4.490  20.114  71.697  1.00  0.00     0.212 HD
ENDBRANCH   1   8
BRANCH   1  10
HETATM   10  C7  UNL     1       5.525  19.983  74.497  1.00  0.00     0.192 C 
BRANCH  10  11
HETATM   11  N2  UNL     1       6.417  20.556  75.427  1.00  0.00    -0.326 N 
HETATM   12  C8  UNL     1       5.985  21.641  76.224  1.00  0.00     0.140 C 
HETATM   13  C9  UNL     1       7.048  21.912  77.297  1.00  0.00     0.048 C 
HETATM   14  C10 UNL     1       7.199  20.782  78.270  1.00  0.00     0.235 C 
HETATM   15  N3  UNL     1       6.065  19.893  78.205  1.00  0.00    -0.060 N 
HETATM   16  C11 UNL     1       6.401  18.931  77.135  1.00  0.00     0.366 C 
ATOM     17  H32 UNL     1       5.829  19.455  79.096  1.00  0.00     0.278 HD
ATOM     18  H31 UNL     1       5.172  20.368  78.071  1.00  0.00     0.278 HD
HETATM   19  N4  UNL     1       7.188  19.620  76.123  1.00  0.00    -0.116 NA
ENDBRANCH  10  11
ENDBRANCH   1  10
TORSDOF 5
ENDMDL
MODEL 3
REMARK VINA RESULT: -6.487522674      0.860      1.154
REMARK  5 active torsions:
REMARK  status: ('A' for Active; 'I' for Inactive)
REMARK    1  A    between atoms: C2_2  and  C4_4 
REMARK    2  A    between atoms: C4_4  and  C5_5 
REMARK    3  A    between atoms: C5_5  and  O1_6 
REMARK    4  A    between atoms: C5_5  and  C7_10 
REMARK    5  A    between atoms: C7_10  and  N2_11 
ROOT
HETATM    1  C5  UNL     1       5.786  20.737  73.140  1.00  0.00     0.163 C 
HETATM    2  C6  UNL     1       5.565  22.061  72.564  1.00  0.00     0.099 C 
HETATM    3  N1  UNL     1       5.386  23.141  72.124  1.00  0.00    -0.194 NA
ENDROOT
BRANCH   1   4
HETATM    4  C4  UNL     1       6.536  19.886  72.179  1.00  0.00     0.059 C 
BRANCH   4   5
HETATM    5  C2  UNL     1       7.701  20.497  71.498  1.00  0.00    -0.019 C 
HETATM    6  C1  UNL     1       7.730  19.949  70.055  1.00  0.00     0.009 C 
HETATM    7  C3  UNL     1       9.050  20.161  72.045  1.00  0.00     0.009 C 
ENDBRANCH   4   5
ENDBRANCH   1   4
BRANCH   1   8
HETATM    8  O1  UNL     1       4.629  20.129  73.573  1.00  0.00    -0.374 OA
ATOM      9  H1  UNL     1       4.394  20.399  74.453  1.00  0.00     0.212 HD
ENDBRANCH   1   8
BRANCH   1  10
HETATM   10  C7  UNL     1       6.652  20.993  74.385  1.00  0.00     0.192 C 
BRANCH  10  11
HETATM   11  N2  UNL     1       6.172  20.400  75.571  1.00  0.00    -0.326 N 
HETATM   12  C8  UNL     1       6.852  19.286  76.113  1.00  0.00     0.140 C 
HETATM   13  C9  UNL     1       6.275  18.992  77.504  1.00  0.00     0.048 C 
HETATM   14  C10 UNL     1       6.534  20.093  78.489  1.00  0.00     0.235 C 
HETATM   15  N3  UNL     1       7.576  20.971  78.017  1.00  0.00    -0.060 N 
HETATM   16  C11 UNL     1       6.877  21.969  77.182  1.00  0.00     0.366 C 
ATOM     17  H32 UNL     1       8.145  21.377  78.760  1.00  0.00     0.278 HD
ATOM     18  H31 UNL     1       8.338  20.490  77.539  1.00  0.00     0.278 HD
HETATM   19  N4  UNL     1       5.747  21.322  76.533  1.00  0.00    -0.116 NA
ENDBRANCH  10  11
ENDBRANCH   1  10
TORSDOF 5
ENDMDL
MODEL 4
REMARK VINA RESULT: -5.592457128      1.392      1.710
REMARK  5 active torsions:
REMARK  status: ('A' for Active; 'I' for Inactive)
REMARK    1  A    between atoms: C2_2  and  C4_4 
REMARK    2  A    between atoms: C4_4  and  C5_5 
REMARK    3  A    between atoms: C5_5  and  O1_6 
REMARK    4  A    between atoms: C5_5  and  C7_10 
REMARK    5  A    between atoms: C7_10  and  N2_11 
ROOT
HETATM    1  C5  UNL     1       5.431  20.531  73.305  1.00  0.00     0.163 C 
HETATM    2  C6  UNL     1       6.075  20.883  72.042  1.00  0.00     0.099 C 
HETATM    3  N1  UNL     1       6.610  21.190  71.036  1.00  0.00    -0.194 NA
ENDROOT
BRANCH   1   4
HETATM    4  C4  UNL     1       5.099  19.082  73.315  1.00  0.00     0.059 C 
BRANCH   4   5
HETATM    5  C2  UNL     1       6.209  18.129  73.082  1.00  0.00    -0.019 C 
HETATM    6  C1  UNL     1       5.753  17.151  71.977  1.00  0.00     0.009 C 
HETATM    7  C3  UNL     1       6.583  17.242  74.224  1.00  0.00     0.009 C 
ENDBRANCH   4   5
ENDBRANCH   1   4
BRANCH   1   8
HETATM    8  O1  UNL     1       4.338  21.312  73.599  1.00  0.00    -0.374 OA
ATOM      9  H1  UNL     1       4.576  22.222  73.736  1.00  0.00     0.212 HD
ENDBRANCH   1   8
BRANCH   1  10
HETATM   10  C7  UNL     1       6.493  20.821  74.379  1.00  0.00     0.192 C 
BRANCH  10  11
HETATM   11  N2  UNL     1       6.136  20.424  75.685  1.00  0.00    -0.326 N 
HETATM   12  C8  UNL     1       6.951  19.497  76.373  1.00  0.00     0.140 C 
HETATM   13  C9  UNL     1       6.479  19.422  77.832  1.00  0.00     0.048 C 
HETATM   14  C10 UNL     1       6.679  20.708  78.577  1.00  0.00     0.235 C 
HETATM   15  N3  UNL     1       7.603  21.569  77.880  1.00  0.00    -0.060 N 
HETATM   16  C11 UNL     1       6.766  22.326  76.927  1.00  0.00     0.366 C 
ATOM     17  H32 UNL     1       8.167  22.156  78.494  1.00  0.00     0.278 HD
ATOM     18  H31 UNL     1       8.383  21.074  77.446  1.00  0.00     0.278 HD
HETATM   19  N4  UNL     1       5.673  21.471  76.488  1.00  0.00    -0.116 NA
ENDBRANCH  10  11
ENDBRANCH   1  10
TORSDOF 5
ENDMDL
MODEL 5
REMARK VINA RESULT: -5.330042863      2.331      4.668
REMARK  5 active torsions:
REMARK  status: ('A' for Active; 'I' for Inactive)
REMARK    1  A    between atoms: C2_2  and  C4_4 
REMARK    2  A    between atoms: C4_4  and  C5_5 
REMARK    3  A    between atoms: C5_5  and  O1_6 
REMARK    4  A    between atoms: C5_5  and  C7_10 
REMARK    5  A    between atoms: C7_10  and  N2_11 
ROOT
HETATM    1  C5  UNL     1       6.113  21.593  74.569  1.00  0.00     0.163 C 
HETATM    2  C6  UNL     1       5.034  22.339  73.927  1.00  0.00     0.099 C 
HETATM    3  N1  UNL     1       4.182  22.959  73.395  1.00  0.00    -0.194 NA
ENDROOT
BRANCH   1   4
HETATM    4  C4  UNL     1       5.671  20.200  74.841  1.00  0.00     0.059 C 
BRANCH   4   5
HETATM    5  C2  UNL     1       6.633  19.303  75.521  1.00  0.00    -0.019 C 
HETATM    6  C1  UNL     1       6.550  17.926  74.826  1.00  0.00     0.009 C 
HETATM    7  C3  UNL     1       6.369  19.003  76.960  1.00  0.00     0.009 C 
ENDBRANCH   4   5
ENDBRANCH   1   4
BRANCH   1   8
HETATM    8  O1  UNL     1       6.607  22.207  75.697  1.00  0.00    -0.374 OA
ATOM      9  H1  UNL     1       7.520  22.450  75.599  1.00  0.00     0.212 HD
ENDBRANCH   1   8
BRANCH   1  10
HETATM   10  C7  UNL     1       7.248  21.579  73.532  1.00  0.00     0.192 C 
BRANCH  10  11
HETATM   11  N2  UNL     1       7.152  20.556  72.565  1.00  0.00    -0.326 N 
HETATM   12  C8  UNL     1       6.576  20.845  71.307  1.00  0.00     0.140 C 
HETATM   13  C9  UNL     1       6.809  19.646  70.377  1.00  0.00     0.048 C 
HETATM   14  C10 UNL     1       8.258  19.417  70.071  1.00  0.00     0.235 C 
HETATM   15  N3  UNL     1       9.044  20.582  70.396  1.00  0.00    -0.060 N 
HETATM   16  C11 UNL     1       9.386  20.419  71.824  1.00  0.00     0.366 C 
ATOM     17  H32 UNL     1       9.852  20.720  69.790  1.00  0.00     0.278 HD
ATOM     18  H31 UNL     1       8.583  21.466  70.178  1.00  0.00     0.278 HD
HETATM   19  N4  UNL     1       8.285  19.739  72.491  1.00  0.00    -0.116 NA
ENDBRANCH  10  11
ENDBRANCH   1  10
TORSDOF 5
ENDMDL
