MODEL 1
REMARK VINA RESULT: -8.058737257      0.000      0.000
REMARK  8 active torsions:
REMARK  status: ('A' for Active; 'I' for Inactive)
REMARK    1  A    between atoms: C4_4  and  C5_5 
REMARK    2  A    between atoms: C5_5  and  N1_6 
REMARK    3  A    between atoms: N1_6  and  C7_8 
REMARK    4  A    between atoms: C7_8  and  C8_9 
REMARK    5  A    between atoms: C8_9  and  C9_10 
REMARK    6  A    between atoms: C9_10  and  O2_12 
REMARK    7  A    between atoms: O2_12  and  C10_13 
REMARK    8  A    between atoms: C17_21  and  O3_22 
ROOT
HETATM    1  C10 UNL     1       5.560   8.137  20.750  1.00  0.00     0.143 C 
HETATM    2  C11 UNL     1       6.950   7.985  20.235  1.00  0.00     0.046 C 
HETATM    3  C12 UNL     1       7.918   7.296  21.116  1.00  0.00     0.001 A 
HETATM    4  C13 UNL     1       7.703   5.901  21.153  1.00  0.00     0.020 A 
HETATM    5  C14 UNL     1       7.348   6.591  22.340  1.00  0.00     0.022 A 
HETATM    6  C15 UNL     1       6.400   7.470  22.927  1.00  0.00     0.054 C 
HETATM    7 CL1  UNL     1       4.937   6.406  23.219  1.00  0.00    -0.118 Cl
HETATM    8  C16 UNL     1       6.728   7.926  24.319  1.00  0.00     0.062 C 
HETATM    9  C17 UNL     1       7.879   8.711  24.665  1.00  0.00     0.159 C 
HETATM   10  C18 UNL     1       9.234   8.450  24.119  1.00  0.00     0.112 C 
HETATM   11  C19 UNL     1      10.116   9.628  24.292  1.00  0.00     0.018 C 
HETATM   12  C20 UNL     1      10.808   9.575  25.414  1.00  0.00     0.049 C 
HETATM   13  C21 UNL     1      10.502   8.362  26.164  1.00  0.00     0.152 C 
HETATM   14  O4  UNL     1      10.635   8.093  27.367  1.00  0.00    -0.293 OA
HETATM   15  C22 UNL     1       9.961   7.465  25.078  1.00  0.00     0.128 C 
HETATM   16  O5  UNL     1       9.370   7.923  22.916  1.00  0.00    -0.359 OA
HETATM   17  C23 UNL     1       8.805   8.280  21.771  1.00  0.00     0.201 C 
HETATM   18  C24 UNL     1       8.046   9.574  21.730  1.00  0.00     0.157 C 
HETATM   19  O6  UNL     1       8.624  10.581  21.380  1.00  0.00    -0.295 OA
HETATM   20  C25 UNL     1       6.618   9.857  22.060  1.00  0.00     0.095 C 
HETATM   21  C26 UNL     1       5.800   8.611  22.183  1.00  0.00     0.011 C 
HETATM   22  C27 UNL     1       4.429   9.020  22.704  1.00  0.00     0.020 C 
ENDROOT
BRANCH   1  23
HETATM   23  O2  UNL     1       4.745   7.039  20.634  1.00  0.00    -0.315 OA
BRANCH  23  24
HETATM   24  C9  UNL     1       4.522   6.475  19.348  1.00  0.00     0.264 C 
HETATM   25  O1  UNL     1       4.052   7.273  18.513  1.00  0.00    -0.265 OA
BRANCH  24  26
HETATM   26  C8  UNL     1       4.843   5.055  19.096  1.00  0.00     0.155 C 
BRANCH  26  27
HETATM   27  C7  UNL     1       4.606   4.193  20.282  1.00  0.00     0.072 C 
BRANCH  27  28
HETATM   28  N1  UNL     1       5.286   3.010  20.487  1.00  0.00    -0.374 N 
HETATM   29  C6  UNL     1       5.521   2.548  21.827  1.00  0.00     0.154 C 
BRANCH  28  30
HETATM   30  C5  UNL     1       5.889   2.251  19.484  1.00  0.00     0.089 C 
BRANCH  30  31
HETATM   31  C4  UNL     1       7.297   1.896  19.732  1.00  0.00     0.019 C 
HETATM   32  C2  UNL     1       7.989   1.119  18.867  1.00  0.00    -0.086 C 
HETATM   33  C1  UNL     1       7.303   0.621  17.643  1.00  0.00     0.043 C 
HETATM   34  C3  UNL     1       9.393   0.783  19.148  1.00  0.00     0.043 C 
ENDBRANCH  30  31
ENDBRANCH  28  30
ENDBRANCH  27  28
ENDBRANCH  26  27
ENDBRANCH  24  26
ENDBRANCH  23  24
ENDBRANCH   1  23
BRANCH   9  35
HETATM   35  O3  UNL     1       7.996   8.551  26.090  1.00  0.00    -0.392 OA
ATOM     36  H3  UNL     1       7.666   9.369  26.442  1.00  0.00     0.210 HD
ENDBRANCH   9  35
TORSDOF 8
ENDMDL
MODEL 2
REMARK VINA RESULT: -7.810198525      1.561      2.019
REMARK  8 active torsions:
REMARK  status: ('A' for Active; 'I' for Inactive)
REMARK    1  A    between atoms: C4_4  and  C5_5 
REMARK    2  A    between atoms: C5_5  and  N1_6 
REMARK    3  A    between atoms: N1_6  and  C7_8 
REMARK    4  A    between atoms: C7_8  and  C8_9 
REMARK    5  A    between atoms: C8_9  and  C9_10 
REMARK    6  A    between atoms: C9_10  and  O2_12 
REMARK    7  A    between atoms: O2_12  and  C10_13 
REMARK    8  A    between atoms: C17_21  and  O3_22 
ROOT
HETATM    1  C10 UNL     1       3.423   6.814  20.821  1.00  0.00     0.143 C 
HETATM    2  C11 UNL     1       4.532   7.103  19.867  1.00  0.00     0.046 C 
HETATM    3  C12 UNL     1       5.907   6.829  20.337  1.00  0.00     0.001 A 
HETATM    4  C13 UNL     1       6.194   5.446  20.361  1.00  0.00     0.020 A 
HETATM    5  C14 UNL     1       6.043   6.046  21.636  1.00  0.00     0.022 A 
HETATM    6  C15 UNL     1       5.107   6.592  22.554  1.00  0.00     0.054 C 
HETATM    7 CL1  UNL     1       4.267   5.120  23.250  1.00  0.00    -0.118 Cl
HETATM    8  C16 UNL     1       5.705   7.212  23.784  1.00  0.00     0.062 C 
HETATM    9  C17 UNL     1       6.575   8.353  23.776  1.00  0.00     0.159 C 
HETATM   10  C18 UNL     1       7.678   8.528  22.798  1.00  0.00     0.112 C 
HETATM   11  C19 UNL     1       8.122   9.941  22.739  1.00  0.00     0.018 C 
HETATM   12  C20 UNL     1       9.121  10.186  23.564  1.00  0.00     0.049 C 
HETATM   13  C21 UNL     1       9.504   8.986  24.300  1.00  0.00     0.152 C 
HETATM   14  O4  UNL     1      10.108   8.847  25.373  1.00  0.00    -0.293 OA
HETATM   15  C22 UNL     1       8.965   7.899  23.403  1.00  0.00     0.128 C 
HETATM   16  O5  UNL     1       7.575   8.008  21.589  1.00  0.00    -0.359 OA
HETATM   17  C23 UNL     1       6.579   8.088  20.718  1.00  0.00     0.201 C 
HETATM   18  C24 UNL     1       5.464   9.051  21.007  1.00  0.00     0.157 C 
HETATM   19  O6  UNL     1       5.524  10.171  20.545  1.00  0.00    -0.295 OA
HETATM   20  C25 UNL     1       4.219   8.861  21.806  1.00  0.00     0.095 C 
HETATM   21  C26 UNL     1       3.951   7.422  22.119  1.00  0.00     0.011 C 
HETATM   22  C27 UNL     1       2.777   7.381  23.087  1.00  0.00     0.020 C 
ENDROOT
BRANCH   1  23
HETATM   23  O2  UNL     1       3.031   5.502  20.916  1.00  0.00    -0.315 OA
BRANCH  23  24
HETATM   24  C9  UNL     1       2.575   4.829  19.750  1.00  0.00     0.264 C 
HETATM   25  O1  UNL     1       1.607   5.376  19.188  1.00  0.00    -0.265 OA
BRANCH  24  26
HETATM   26  C8  UNL     1       3.243   3.589  19.302  1.00  0.00     0.155 C 
BRANCH  26  27
HETATM   27  C7  UNL     1       3.704   2.743  20.432  1.00  0.00     0.072 C 
BRANCH  27  28
HETATM   28  N1  UNL     1       4.975   2.213  20.492  1.00  0.00    -0.374 N 
HETATM   29  C6  UNL     1       5.627   2.069  21.764  1.00  0.00     0.154 C 
BRANCH  28  30
HETATM   30  C5  UNL     1       5.763   1.899  19.384  1.00  0.00     0.089 C 
BRANCH  30  31
HETATM   31  C4  UNL     1       7.196   1.710  19.670  1.00  0.00     0.019 C 
HETATM   32  C2  UNL     1       8.001   1.040  18.815  1.00  0.00    -0.086 C 
HETATM   33  C1  UNL     1       7.417   0.489  17.560  1.00  0.00     0.043 C 
HETATM   34  C3  UNL     1       9.427   0.870  19.134  1.00  0.00     0.043 C 
ENDBRANCH  30  31
ENDBRANCH  28  30
ENDBRANCH  27  28
ENDBRANCH  26  27
ENDBRANCH  24  26
ENDBRANCH  23  24
ENDBRANCH   1  23
BRANCH   9  35
HETATM   35  O3  UNL     1       7.203   8.325  25.070  1.00  0.00    -0.392 OA
ATOM     36  H3  UNL     1       7.853   9.016  25.027  1.00  0.00     0.210 HD
ENDBRANCH   9  35
TORSDOF 8
ENDMDL
MODEL 3
REMARK VINA RESULT: -7.790509715      1.437      1.844
REMARK  8 active torsions:
REMARK  status: ('A' for Active; 'I' for Inactive)
REMARK    1  A    between atoms: C4_4  and  C5_5 
REMARK    2  A    between atoms: C5_5  and  N1_6 
REMARK    3  A    between atoms: N1_6  and  C7_8 
REMARK    4  A    between atoms: C7_8  and  C8_9 
REMARK    5  A    between atoms: C8_9  and  C9_10 
REMARK    6  A    between atoms: C9_10  and  O2_12 
REMARK    7  A    between atoms: O2_12  and  C10_13 
REMARK    8  A    between atoms: C17_21  and  O3_22 
ROOT
HETATM    1  C10 UNL     1       4.381   7.484  20.054  1.00  0.00     0.143 C 
HETATM    2  C11 UNL     1       5.666   6.806  19.719  1.00  0.00     0.046 C 
HETATM    3  C12 UNL     1       6.446   6.256  20.849  1.00  0.00     0.001 A 
HETATM    4  C13 UNL     1       5.873   5.071  21.362  1.00  0.00     0.020 A 
HETATM    5  C14 UNL     1       5.749   6.206  22.202  1.00  0.00     0.022 A 
HETATM    6  C15 UNL     1       5.084   7.448  22.377  1.00  0.00     0.054 C 
HETATM    7 CL1  UNL     1       3.403   6.972  22.929  1.00  0.00    -0.118 Cl
HETATM    8  C16 UNL     1       5.564   8.272  23.537  1.00  0.00     0.062 C 
HETATM    9  C17 UNL     1       6.891   8.805  23.659  1.00  0.00     0.159 C 
HETATM   10  C18 UNL     1       8.112   8.029  23.331  1.00  0.00     0.112 C 
HETATM   11  C19 UNL     1       9.278   8.923  23.134  1.00  0.00     0.018 C 
HETATM   12  C20 UNL     1       9.966   9.099  24.246  1.00  0.00     0.049 C 
HETATM   13  C21 UNL     1       9.376   8.356  25.354  1.00  0.00     0.152 C 
HETATM   14  O4  UNL     1       9.471   8.511  26.580  1.00  0.00    -0.293 OA
HETATM   15  C22 UNL     1       8.585   7.301  24.621  1.00  0.00     0.128 C 
HETATM   16  O5  UNL     1       8.067   7.091  22.403  1.00  0.00    -0.359 OA
HETATM   17  C23 UNL     1       7.580   7.146  21.171  1.00  0.00     0.201 C 
HETATM   18  C24 UNL     1       7.187   8.488  20.626  1.00  0.00     0.157 C 
HETATM   19  O6  UNL     1       7.998   9.118  19.982  1.00  0.00    -0.295 OA
HETATM   20  C25 UNL     1       5.895   9.226  20.740  1.00  0.00     0.095 C 
HETATM   21  C26 UNL     1       4.781   8.360  21.241  1.00  0.00     0.011 C 
HETATM   22  C27 UNL     1       3.584   9.265  21.493  1.00  0.00     0.020 C 
ENDROOT
BRANCH   1  23
HETATM   23  O2  UNL     1       3.303   6.666  20.280  1.00  0.00    -0.315 OA
BRANCH  23  24
HETATM   24  C9  UNL     1       2.897   5.759  19.263  1.00  0.00     0.264 C 
HETATM   25  O1  UNL     1       2.582   6.303  18.187  1.00  0.00    -0.265 OA
BRANCH  24  26
HETATM   26  C8  UNL     1       2.876   4.305  19.532  1.00  0.00     0.155 C 
BRANCH  26  27
HETATM   27  C7  UNL     1       3.489   3.510  18.437  1.00  0.00     0.072 C 
BRANCH  27  28
HETATM   28  N1  UNL     1       4.812   3.118  18.457  1.00  0.00    -0.374 N 
HETATM   29  C6  UNL     1       5.767   3.803  17.630  1.00  0.00     0.154 C 
BRANCH  28  30
HETATM   30  C5  UNL     1       5.307   2.007  19.139  1.00  0.00     0.089 C 
BRANCH  30  31
HETATM   31  C4  UNL     1       6.667   1.592  18.753  1.00  0.00     0.019 C 
HETATM   32  C2  UNL     1       7.667   1.528  19.661  1.00  0.00    -0.086 C 
HETATM   33  C1  UNL     1       7.374   1.885  21.077  1.00  0.00     0.043 C 
HETATM   34  C3  UNL     1       9.013   1.112  19.238  1.00  0.00     0.043 C 
ENDBRANCH  30  31
ENDBRANCH  28  30
ENDBRANCH  27  28
ENDBRANCH  26  27
ENDBRANCH  24  26
ENDBRANCH  23  24
ENDBRANCH   1  23
BRANCH   9  35
HETATM   35  O3  UNL     1       7.006   9.141  25.053  1.00  0.00    -0.392 OA
ATOM     36  H3  UNL     1       6.352   9.817  25.183  1.00  0.00     0.210 HD
ENDBRANCH   9  35
TORSDOF 8
ENDMDL
MODEL 4
REMARK VINA RESULT: -7.706479202      1.783      2.458
REMARK  8 active torsions:
REMARK  status: ('A' for Active; 'I' for Inactive)
REMARK    1  A    between atoms: C4_4  and  C5_5 
REMARK    2  A    between atoms: C5_5  and  N1_6 
REMARK    3  A    between atoms: N1_6  and  C7_8 
REMARK    4  A    between atoms: C7_8  and  C8_9 
REMARK    5  A    between atoms: C8_9  and  C9_10 
REMARK    6  A    between atoms: C9_10  and  O2_12 
REMARK    7  A    between atoms: O2_12  and  C10_13 
REMARK    8  A    between atoms: C17_21  and  O3_22 
ROOT
HETATM    1  C10 UNL     1       3.356   6.565  20.685  1.00  0.00     0.143 C 
HETATM    2  C11 UNL     1       4.489   6.910  19.780  1.00  0.00     0.046 C 
HETATM    3  C12 UNL     1       5.854   6.643  20.285  1.00  0.00     0.001 A 
HETATM    4  C13 UNL     1       6.165   5.265  20.267  1.00  0.00     0.020 A 
HETATM    5  C14 UNL     1       5.961   5.814  21.559  1.00  0.00     0.022 A 
HETATM    6  C15 UNL     1       4.986   6.308  22.464  1.00  0.00     0.054 C 
HETATM    7 CL1  UNL     1       4.151   4.797  23.077  1.00  0.00    -0.118 Cl
HETATM    8  C16 UNL     1       5.531   6.891  23.736  1.00  0.00     0.062 C 
HETATM    9  C17 UNL     1       6.379   8.048  23.799  1.00  0.00     0.159 C 
HETATM   10  C18 UNL     1       7.510   8.278  22.866  1.00  0.00     0.112 C 
HETATM   11  C19 UNL     1       7.929   9.700  22.874  1.00  0.00     0.018 C 
HETATM   12  C20 UNL     1       8.896   9.932  23.741  1.00  0.00     0.049 C 
HETATM   13  C21 UNL     1       9.277   8.712  24.444  1.00  0.00     0.152 C 
HETATM   14  O4  UNL     1       9.847   8.543  25.531  1.00  0.00    -0.293 OA
HETATM   15  C22 UNL     1       8.788   7.649  23.490  1.00  0.00     0.128 C 
HETATM   16  O5  UNL     1       7.457   7.802  21.636  1.00  0.00    -0.359 OA
HETATM   17  C23 UNL     1       6.489   7.898  20.735  1.00  0.00     0.201 C 
HETATM   18  C24 UNL     1       5.347   8.830  21.022  1.00  0.00     0.157 C 
HETATM   19  O6  UNL     1       5.401   9.967  20.605  1.00  0.00    -0.295 OA
HETATM   20  C25 UNL     1       4.080   8.587  21.772  1.00  0.00     0.095 C 
HETATM   21  C26 UNL     1       3.829   7.134  22.022  1.00  0.00     0.011 C 
HETATM   22  C27 UNL     1       2.625   7.035  22.948  1.00  0.00     0.020 C 
ENDROOT
BRANCH   1  23
HETATM   23  O2  UNL     1       2.985   5.244  20.718  1.00  0.00    -0.315 OA
BRANCH  23  24
HETATM   24  C9  UNL     1       2.562   4.613  19.516  1.00  0.00     0.264 C 
HETATM   25  O1  UNL     1       1.662   5.222  18.907  1.00  0.00    -0.265 OA
BRANCH  24  26
HETATM   26  C8  UNL     1       3.184   3.342  19.089  1.00  0.00     0.155 C 
BRANCH  26  27
HETATM   27  C7  UNL     1       4.079   3.507  17.915  1.00  0.00     0.072 C 
BRANCH  27  28
HETATM   28  N1  UNL     1       5.233   2.769  17.753  1.00  0.00    -0.374 N 
HETATM   29  C6  UNL     1       6.115   3.060  16.656  1.00  0.00     0.154 C 
BRANCH  28  30
HETATM   30  C5  UNL     1       5.580   1.650  18.511  1.00  0.00     0.089 C 
BRANCH  30  31
HETATM   31  C4  UNL     1       6.965   1.181  18.333  1.00  0.00     0.019 C 
HETATM   32  C2  UNL     1       7.882   1.310  19.318  1.00  0.00    -0.086 C 
HETATM   33  C1  UNL     1       7.472   1.939  20.604  1.00  0.00     0.043 C 
HETATM   34  C3  UNL     1       9.257   0.831  19.104  1.00  0.00     0.043 C 
ENDBRANCH  30  31
ENDBRANCH  28  30
ENDBRANCH  27  28
ENDBRANCH  26  27
ENDBRANCH  24  26
ENDBRANCH  23  24
ENDBRANCH   1  23
BRANCH   9  35
HETATM   35  O3  UNL     1       6.965   7.981  25.111  1.00  0.00    -0.392 OA
ATOM     36  H3  UNL     1       7.646   8.643  25.094  1.00  0.00     0.210 HD
ENDBRANCH   9  35
TORSDOF 8
ENDMDL
MODEL 5
REMARK VINA RESULT: -7.692826832      1.267      1.385
REMARK  8 active torsions:
REMARK  status: ('A' for Active; 'I' for Inactive)
REMARK    1  A    between atoms: C4_4  and  C5_5 
REMARK    2  A    between atoms: C5_5  and  N1_6 
REMARK    3  A    between atoms: N1_6  and  C7_8 
REMARK    4  A    between atoms: C7_8  and  C8_9 
REMARK    5  A    between atoms: C8_9  and  C9_10 
REMARK    6  A    between atoms: C9_10  and  O2_12 
REMARK    7  A    between atoms: O2_12  and  C10_13 
REMARK    8  A    between atoms: C17_21  and  O3_22 
ROOT
HETATM    1  C10 UNL     1       4.538   7.484  20.241  1.00  0.00     0.143 C 
HETATM    2  C11 UNL     1       5.834   6.839  19.885  1.00  0.00     0.046 C 
HETATM    3  C12 UNL     1       6.631   6.280  20.999  1.00  0.00     0.001 A 
HETATM    4  C13 UNL     1       6.084   5.073  21.489  1.00  0.00     0.020 A 
HETATM    5  C14 UNL     1       5.943   6.187  22.354  1.00  0.00     0.022 A 
HETATM    6  C15 UNL     1       5.254   7.412  22.559  1.00  0.00     0.054 C 
HETATM    7 CL1  UNL     1       3.586   6.891  23.109  1.00  0.00    -0.118 Cl
HETATM    8  C16 UNL     1       5.724   8.220  23.734  1.00  0.00     0.062 C 
HETATM    9  C17 UNL     1       7.041   8.777  23.861  1.00  0.00     0.159 C 
HETATM   10  C18 UNL     1       8.275   8.032  23.510  1.00  0.00     0.112 C 
HETATM   11  C19 UNL     1       9.422   8.953  23.326  1.00  0.00     0.018 C 
HETATM   12  C20 UNL     1      10.113   9.119  24.438  1.00  0.00     0.049 C 
HETATM   13  C21 UNL     1       9.544   8.341  25.533  1.00  0.00     0.152 C 
HETATM   14  O4  UNL     1       9.643   8.472  26.761  1.00  0.00    -0.293 OA
HETATM   15  C22 UNL     1       8.769   7.286  24.781  1.00  0.00     0.128 C 
HETATM   16  O5  UNL     1       8.244   7.114  22.562  1.00  0.00    -0.359 OA
HETATM   17  C23 UNL     1       7.749   7.185  21.334  1.00  0.00     0.201 C 
HETATM   18  C24 UNL     1       7.326   8.531  20.820  1.00  0.00     0.157 C 
HETATM   19  O6  UNL     1       8.121   9.191  20.186  1.00  0.00    -0.295 OA
HETATM   20  C25 UNL     1       6.020   9.240  20.957  1.00  0.00     0.095 C 
HETATM   21  C26 UNL     1       4.927   8.342  21.445  1.00  0.00     0.011 C 
HETATM   22  C27 UNL     1       3.713   9.218  21.722  1.00  0.00     0.020 C 
ENDROOT
BRANCH   1  23
HETATM   23  O2  UNL     1       3.477   6.639  20.455  1.00  0.00    -0.315 OA
BRANCH  23  24
HETATM   24  C9  UNL     1       3.067   5.765  19.411  1.00  0.00     0.264 C 
HETATM   25  O1  UNL     1       2.754   6.343  18.353  1.00  0.00    -0.265 OA
BRANCH  24  26
HETATM   26  C8  UNL     1       3.039   4.305  19.636  1.00  0.00     0.155 C 
BRANCH  26  27
HETATM   27  C7  UNL     1       4.046   3.579  18.820  1.00  0.00     0.072 C 
BRANCH  27  28
HETATM   28  N1  UNL     1       4.655   2.419  19.254  1.00  0.00    -0.374 N 
HETATM   29  C6  UNL     1       4.418   1.950  20.591  1.00  0.00     0.154 C 
BRANCH  28  30
HETATM   30  C5  UNL     1       5.604   1.695  18.532  1.00  0.00     0.089 C 
BRANCH  30  31
HETATM   31  C4  UNL     1       6.939   1.627  19.149  1.00  0.00     0.019 C 
HETATM   32  C2  UNL     1       7.945   0.930  18.573  1.00  0.00    -0.086 C 
HETATM   33  C1  UNL     1       7.685   0.224  17.288  1.00  0.00     0.043 C 
HETATM   34  C3  UNL     1       9.266   0.882  19.219  1.00  0.00     0.043 C 
ENDBRANCH  30  31
ENDBRANCH  28  30
ENDBRANCH  27  28
ENDBRANCH  26  27
ENDBRANCH  24  26
ENDBRANCH  23  24
ENDBRANCH   1  23
BRANCH   9  35
HETATM   35  O3  UNL     1       7.158   9.085  25.261  1.00  0.00    -0.392 OA
ATOM     36  H3  UNL     1       7.597   9.927  25.276  1.00  0.00     0.210 HD
ENDBRANCH   9  35
TORSDOF 8
ENDMDL
