MODEL 1
REMARK VINA RESULT: -7.138068180      0.000      0.000
REMARK  7 active torsions:
REMARK  status: ('A' for Active; 'I' for Inactive)
REMARK    1  A    between atoms: C2_2  and  C3_3 
REMARK    2  A    between atoms: C3_3  and  N1_4 
REMARK    3  A    between atoms: N1_4  and  C4_5 
REMARK    4  A    between atoms: N1_4  and  C18_25 
REMARK    5  A    between atoms: C8_9  and  N2_10 
REMARK       I    between atoms: N2_10  and  C9_12 
REMARK    6  A    between atoms: C9_12  and  C10_14 
REMARK    7  A    between atoms: C10_14  and  C11_15 
ROOT
HETATM    1  C4  UNL     1       6.027  33.780  77.597  1.00  0.00     0.085 C 
HETATM    2  C5  UNL     1       6.627  32.477  78.142  1.00  0.00     0.025 C 
HETATM    3  C6  UNL     1       6.722  32.605  79.646  1.00  0.00     0.004 C 
HETATM    4  C7  UNL     1       5.287  32.752  80.169  1.00  0.00     0.025 C 
HETATM    5  C8  UNL     1       4.807  34.132  79.639  1.00  0.00     0.086 C 
HETATM    6  C17 UNL     1       4.659  33.945  78.144  1.00  0.00     0.050 C 
ENDROOT
BRANCH   5   7
HETATM    7  N2  UNL     1       3.649  34.593  80.317  1.00  0.00    -0.356 N 
HETATM    8  C9  UNL     1       3.761  35.683  81.208  1.00  0.00     0.222 C 
HETATM    9  O1  UNL     1       4.916  36.224  81.401  1.00  0.00    -0.273 OA
ATOM     10  H2  UNL     1       2.747  34.142  80.162  1.00  0.00     0.162 HD
BRANCH   8  11
HETATM   11  C10 UNL     1       2.660  36.304  81.979  1.00  0.00     0.143 C 
BRANCH  11  12
HETATM   12  C11 UNL     1       2.419  37.653  81.393  1.00  0.00    -0.026 A 
HETATM   13  C12 UNL     1       2.825  37.890  80.094  1.00  0.00     0.011 A 
HETATM   14  C13 UNL     1       2.630  39.150  79.559  1.00  0.00     0.026 A 
HETATM   15  C14 UNL     1       2.038  40.135  80.335  1.00  0.00     0.057 A 
HETATM   16 CL1  UNL     1       1.800  41.718  79.669  1.00  0.00    -0.082 Cl
HETATM   17  C15 UNL     1       1.638  39.880  81.641  1.00  0.00     0.078 A 
HETATM   18 CL2  UNL     1       0.899  41.130  82.617  1.00  0.00    -0.081 Cl
HETATM   19  C16 UNL     1       1.834  38.625  82.170  1.00  0.00     0.064 A 
HETATM   20 CL3  UNL     1       1.350  38.293  83.806  1.00  0.00    -0.082 Cl
ENDBRANCH  11  12
ENDBRANCH   8  11
ENDBRANCH   5   7
BRANCH   1  21
HETATM   21  N1  UNL     1       6.304  34.007  76.260  1.00  0.00    -0.384 N 
BRANCH  21  22
HETATM   22  C3  UNL     1       6.107  32.981  75.333  1.00  0.00     0.058 C 
BRANCH  22  23
HETATM   23  C2  UNL     1       7.213  32.650  74.381  1.00  0.00     0.040 C 
HETATM   24  C1  UNL     1       8.305  31.762  74.797  1.00  0.00     0.010 C 
ENDBRANCH  22  23
ENDBRANCH  21  22
BRANCH  21  25
HETATM   25  C18 UNL     1       7.119  35.095  75.890  1.00  0.00     0.089 C 
HETATM   26  C19 UNL     1       8.352  35.270  76.726  1.00  0.00     0.026 C 
HETATM   27  C20 UNL     1       8.942  36.679  76.532  1.00  0.00     0.008 C 
HETATM   28  C21 UNL     1       8.069  37.741  77.091  1.00  0.00     0.079 C 
HETATM   29  C22 UNL     1       6.663  37.225  77.130  1.00  0.00     0.245 C 
HETATM   30  F1  UNL     1       6.321  36.582  78.276  1.00  0.00    -0.206 F 
HETATM   31  F2  UNL     1       5.809  38.320  77.018  1.00  0.00    -0.206 F 
HETATM   32  C23 UNL     1       6.409  36.391  75.864  1.00  0.00     0.104 C 
ENDBRANCH  21  25
ENDBRANCH   1  21
TORSDOF 7
ENDMDL
MODEL 2
REMARK VINA RESULT: -7.033200840      5.750      8.817
REMARK  7 active torsions:
REMARK  status: ('A' for Active; 'I' for Inactive)
REMARK    1  A    between atoms: C2_2  and  C3_3 
REMARK    2  A    between atoms: C3_3  and  N1_4 
REMARK    3  A    between atoms: N1_4  and  C4_5 
REMARK    4  A    between atoms: N1_4  and  C18_25 
REMARK    5  A    between atoms: C8_9  and  N2_10 
REMARK       I    between atoms: N2_10  and  C9_12 
REMARK    6  A    between atoms: C9_12  and  C10_14 
REMARK    7  A    between atoms: C10_14  and  C11_15 
ROOT
HETATM    1  C4  UNL     1       6.469  34.055  77.090  1.00  0.00     0.085 C 
HETATM    2  C5  UNL     1       5.305  33.320  76.412  1.00  0.00     0.025 C 
HETATM    3  C6  UNL     1       5.869  32.536  75.247  1.00  0.00     0.004 C 
HETATM    4  C7  UNL     1       6.838  31.502  75.838  1.00  0.00     0.025 C 
HETATM    5  C8  UNL     1       8.013  32.340  76.415  1.00  0.00     0.086 C 
HETATM    6  C17 UNL     1       7.429  33.055  77.615  1.00  0.00     0.050 C 
ENDROOT
BRANCH   5   7
HETATM    7  N2  UNL     1       9.160  31.546  76.673  1.00  0.00    -0.356 N 
HETATM    8  C9  UNL     1      10.350  31.799  75.953  1.00  0.00     0.222 C 
HETATM    9  O1  UNL     1      10.361  32.732  75.063  1.00  0.00    -0.273 OA
ATOM     10  H2  UNL     1       9.127  30.801  77.370  1.00  0.00     0.162 HD
BRANCH   8  11
HETATM   11  C10 UNL     1      11.637  31.087  76.107  1.00  0.00     0.143 C 
BRANCH  11  12
HETATM   12  C11 UNL     1      12.144  31.385  77.477  1.00  0.00    -0.026 A 
HETATM   13  C12 UNL     1      12.459  32.693  77.792  1.00  0.00     0.011 A 
HETATM   14  C13 UNL     1      12.958  32.968  79.052  1.00  0.00     0.026 A 
HETATM   15  C14 UNL     1      13.129  31.932  79.957  1.00  0.00     0.057 A 
HETATM   16 CL1  UNL     1      13.762  32.273  81.535  1.00  0.00    -0.082 Cl
HETATM   17  C15 UNL     1      12.810  30.622  79.623  1.00  0.00     0.078 A 
HETATM   18 CL2  UNL     1      13.036  29.318  80.767  1.00  0.00    -0.081 Cl
HETATM   19  C16 UNL     1      12.314  30.352  78.368  1.00  0.00     0.064 A 
HETATM   20 CL3  UNL     1      11.920  28.717  77.929  1.00  0.00    -0.082 Cl
ENDBRANCH  11  12
ENDBRANCH   8  11
ENDBRANCH   5   7
BRANCH   1  21
HETATM   21  N1  UNL     1       6.077  35.147  77.843  1.00  0.00    -0.384 N 
BRANCH  21  22
HETATM   22  C3  UNL     1       4.993  35.027  78.716  1.00  0.00     0.058 C 
BRANCH  22  23
HETATM   23  C2  UNL     1       5.136  35.539  80.115  1.00  0.00     0.040 C 
HETATM   24  C1  UNL     1       6.255  35.095  80.954  1.00  0.00     0.010 C 
ENDBRANCH  22  23
ENDBRANCH  21  22
BRANCH  21  25
HETATM   25  C18 UNL     1       6.496  36.440  77.472  1.00  0.00     0.089 C 
HETATM   26  C19 UNL     1       6.361  36.749  76.011  1.00  0.00     0.026 C 
HETATM   27  C20 UNL     1       7.205  37.982  75.638  1.00  0.00     0.008 C 
HETATM   28  C21 UNL     1       8.663  37.721  75.738  1.00  0.00     0.079 C 
HETATM   29  C22 UNL     1       8.877  36.598  76.706  1.00  0.00     0.245 C 
HETATM   30  F1  UNL     1       8.869  35.358  76.154  1.00  0.00    -0.206 F 
HETATM   31  F2  UNL     1      10.135  36.771  77.280  1.00  0.00    -0.206 F 
HETATM   32  C23 UNL     1       7.884  36.754  77.869  1.00  0.00     0.104 C 
ENDBRANCH  21  25
ENDBRANCH   1  21
TORSDOF 7
ENDMDL
MODEL 3
REMARK VINA RESULT: -6.998436724      2.085      2.908
REMARK  7 active torsions:
REMARK  status: ('A' for Active; 'I' for Inactive)
REMARK    1  A    between atoms: C2_2  and  C3_3 
REMARK    2  A    between atoms: C3_3  and  N1_4 
REMARK    3  A    between atoms: N1_4  and  C4_5 
REMARK    4  A    between atoms: N1_4  and  C18_25 
REMARK    5  A    between atoms: C8_9  and  N2_10 
REMARK       I    between atoms: N2_10  and  C9_12 
REMARK    6  A    between atoms: C9_12  and  C10_14 
REMARK    7  A    between atoms: C10_14  and  C11_15 
ROOT
HETATM    1  C4  UNL     1       7.790  35.027  79.164  1.00  0.00     0.085 C 
HETATM    2  C5  UNL     1       8.688  35.049  80.408  1.00  0.00     0.025 C 
HETATM    3  C6  UNL     1       8.176  36.133  81.330  1.00  0.00     0.004 C 
HETATM    4  C7  UNL     1       6.756  35.726  81.745  1.00  0.00     0.025 C 
HETATM    5  C8  UNL     1       5.914  35.821  80.442  1.00  0.00     0.086 C 
HETATM    6  C17 UNL     1       6.408  34.682  79.575  1.00  0.00     0.050 C 
ENDROOT
BRANCH   5   7
HETATM    7  N2  UNL     1       4.520  35.832  80.704  1.00  0.00    -0.356 N 
HETATM    8  C9  UNL     1       3.744  36.928  80.264  1.00  0.00     0.222 C 
HETATM    9  O1  UNL     1       4.324  37.904  79.650  1.00  0.00    -0.273 OA
ATOM     10  H2  UNL     1       4.083  35.058  81.205  1.00  0.00     0.162 HD
BRANCH   8  11
HETATM   11  C10 UNL     1       2.284  37.094  80.431  1.00  0.00     0.143 C 
BRANCH  11  12
HETATM   12  C11 UNL     1       2.075  38.048  81.558  1.00  0.00    -0.026 A 
HETATM   13  C12 UNL     1       2.344  37.618  82.843  1.00  0.00     0.011 A 
HETATM   14  C13 UNL     1       2.122  38.491  83.892  1.00  0.00     0.026 A 
HETATM   15  C14 UNL     1       1.639  39.763  83.629  1.00  0.00     0.057 A 
HETATM   16 CL1  UNL     1       1.352  40.857  84.943  1.00  0.00    -0.082 Cl
HETATM   17  C15 UNL     1       1.371  40.178  82.330  1.00  0.00     0.078 A 
HETATM   18 CL2  UNL     1       0.753  41.783  82.005  1.00  0.00    -0.081 Cl
HETATM   19  C16 UNL     1       1.593  39.307  81.289  1.00  0.00     0.064 A 
HETATM   20 CL3  UNL     1       1.252  39.805  79.659  1.00  0.00    -0.082 Cl
ENDBRANCH  11  12
ENDBRANCH   8  11
ENDBRANCH   5   7
BRANCH   1  21
HETATM   21  N1  UNL     1       8.382  34.445  78.057  1.00  0.00    -0.384 N 
BRANCH  21  22
HETATM   22  C3  UNL     1       9.043  33.222  78.194  1.00  0.00     0.058 C 
BRANCH  22  23
HETATM   23  C2  UNL     1      10.443  33.100  77.680  1.00  0.00     0.040 C 
HETATM   24  C1  UNL     1      11.576  33.516  78.514  1.00  0.00     0.010 C 
ENDBRANCH  22  23
ENDBRANCH  21  22
BRANCH  21  25
HETATM   25  C18 UNL     1       8.652  35.226  76.916  1.00  0.00     0.089 C 
HETATM   26  C19 UNL     1       9.145  36.613  77.207  1.00  0.00     0.026 C 
HETATM   27  C20 UNL     1       9.014  37.506  75.958  1.00  0.00     0.008 C 
HETATM   28  C21 UNL     1       7.599  37.778  75.603  1.00  0.00     0.079 C 
HETATM   29  C22 UNL     1       6.751  36.673  76.154  1.00  0.00     0.245 C 
HETATM   30  F1  UNL     1       6.293  36.878  77.415  1.00  0.00    -0.206 F 
HETATM   31  F2  UNL     1       5.630  36.553  75.336  1.00  0.00    -0.206 F 
HETATM   32  C23 UNL     1       7.507  35.344  75.989  1.00  0.00     0.104 C 
ENDBRANCH  21  25
ENDBRANCH   1  21
TORSDOF 7
ENDMDL
MODEL 4
REMARK VINA RESULT: -6.982341973      2.148      3.701
REMARK  7 active torsions:
REMARK  status: ('A' for Active; 'I' for Inactive)
REMARK    1  A    between atoms: C2_2  and  C3_3 
REMARK    2  A    between atoms: C3_3  and  N1_4 
REMARK    3  A    between atoms: N1_4  and  C4_5 
REMARK    4  A    between atoms: N1_4  and  C18_25 
REMARK    5  A    between atoms: C8_9  and  N2_10 
REMARK       I    between atoms: N2_10  and  C9_12 
REMARK    6  A    between atoms: C9_12  and  C10_14 
REMARK    7  A    between atoms: C10_14  and  C11_15 
ROOT
HETATM    1  C4  UNL     1       8.353  35.536  77.631  1.00  0.00     0.085 C 
HETATM    2  C5  UNL     1       8.903  36.702  76.798  1.00  0.00     0.025 C 
HETATM    3  C6  UNL     1       7.731  37.549  76.357  1.00  0.00     0.004 C 
HETATM    4  C7  UNL     1       7.083  38.107  77.631  1.00  0.00     0.025 C 
HETATM    5  C8  UNL     1       6.484  36.866  78.351  1.00  0.00     0.086 C 
HETATM    6  C17 UNL     1       7.683  36.080  78.836  1.00  0.00     0.050 C 
ENDROOT
BRANCH   5   7
HETATM    7  N2  UNL     1       5.544  37.230  79.350  1.00  0.00    -0.356 N 
HETATM    8  C9  UNL     1       4.427  36.395  79.581  1.00  0.00     0.222 C 
HETATM    9  O1  UNL     1       4.275  35.333  78.865  1.00  0.00    -0.273 OA
ATOM     10  H2  UNL     1       5.673  38.082  79.895  1.00  0.00     0.162 HD
BRANCH   8  11
HETATM   11  C10 UNL     1       3.366  36.608  80.590  1.00  0.00     0.143 C 
BRANCH  11  12
HETATM   12  C11 UNL     1       2.896  38.016  80.445  1.00  0.00    -0.026 A 
HETATM   13  C12 UNL     1       3.256  38.717  79.310  1.00  0.00     0.011 A 
HETATM   14  C13 UNL     1       2.848  40.032  79.187  1.00  0.00     0.026 A 
HETATM   15  C14 UNL     1       2.094  40.608  80.198  1.00  0.00     0.057 A 
HETATM   16 CL1  UNL     1       1.587  42.259  80.051  1.00  0.00    -0.082 Cl
HETATM   17  C15 UNL     1       1.743  39.889  81.334  1.00  0.00     0.078 A 
HETATM   18 CL2  UNL     1       0.798  40.624  82.611  1.00  0.00    -0.081 Cl
HETATM   19  C16 UNL     1       2.151  38.580  81.453  1.00  0.00     0.064 A 
HETATM   20 CL3  UNL     1       1.730  37.670  82.873  1.00  0.00    -0.082 Cl
ENDBRANCH  11  12
ENDBRANCH   8  11
ENDBRANCH   5   7
BRANCH   1  21
HETATM   21  N1  UNL     1       9.207  34.450  77.705  1.00  0.00    -0.384 N 
BRANCH  21  22
HETATM   22  C3  UNL     1      10.521  34.637  78.141  1.00  0.00     0.058 C 
BRANCH  22  23
HETATM   23  C2  UNL     1      11.216  33.508  78.834  1.00  0.00     0.040 C 
HETATM   24  C1  UNL     1      12.632  33.232  78.560  1.00  0.00     0.010 C 
ENDBRANCH  22  23
ENDBRANCH  21  22
BRANCH  21  25
HETATM   25  C18 UNL     1       8.896  33.266  77.006  1.00  0.00     0.089 C 
HETATM   26  C19 UNL     1       9.507  33.166  75.640  1.00  0.00     0.026 C 
HETATM   27  C20 UNL     1       8.798  32.078  74.810  1.00  0.00     0.008 C 
HETATM   28  C21 UNL     1       7.402  32.446  74.469  1.00  0.00     0.079 C 
HETATM   29  C22 UNL     1       6.909  33.429  75.488  1.00  0.00     0.245 C 
HETATM   30  F1  UNL     1       7.142  34.731  75.185  1.00  0.00    -0.206 F 
HETATM   31  F2  UNL     1       5.526  33.282  75.581  1.00  0.00    -0.206 F 
HETATM   32  C23 UNL     1       7.447  33.018  76.868  1.00  0.00     0.104 C 
ENDBRANCH  21  25
ENDBRANCH   1  21
TORSDOF 7
ENDMDL
MODEL 5
REMARK VINA RESULT: -6.954514273      5.863      8.418
REMARK  7 active torsions:
REMARK  status: ('A' for Active; 'I' for Inactive)
REMARK    1  A    between atoms: C2_2  and  C3_3 
REMARK    2  A    between atoms: C3_3  and  N1_4 
REMARK    3  A    between atoms: N1_4  and  C4_5 
REMARK    4  A    between atoms: N1_4  and  C18_25 
REMARK    5  A    between atoms: C8_9  and  N2_10 
REMARK       I    between atoms: N2_10  and  C9_12 
REMARK    6  A    between atoms: C9_12  and  C10_14 
REMARK    7  A    between atoms: C10_14  and  C11_15 
ROOT
HETATM    1  C4  UNL     1      11.227  30.515  76.269  1.00  0.00     0.085 C 
HETATM    2  C5  UNL     1      10.180  30.005  75.270  1.00  0.00     0.025 C 
HETATM    3  C6  UNL     1       8.856  30.648  75.618  1.00  0.00     0.004 C 
HETATM    4  C7  UNL     1       9.035  32.160  75.426  1.00  0.00     0.025 C 
HETATM    5  C8  UNL     1      10.037  32.588  76.535  1.00  0.00     0.086 C 
HETATM    6  C17 UNL     1      11.361  31.984  76.117  1.00  0.00     0.050 C 
ENDROOT
BRANCH   5   7
HETATM    7  N2  UNL     1      10.042  33.992  76.740  1.00  0.00    -0.356 N 
HETATM    8  C9  UNL     1      10.343  34.500  78.024  1.00  0.00     0.222 C 
HETATM    9  O1  UNL     1      10.588  33.676  78.986  1.00  0.00    -0.273 OA
ATOM     10  H2  UNL     1       9.830  34.627  75.970  1.00  0.00     0.162 HD
BRANCH   8  11
HETATM   11  C10 UNL     1      10.413  35.927  78.409  1.00  0.00     0.143 C 
BRANCH  11  12
HETATM   12  C11 UNL     1       9.013  36.397  78.612  1.00  0.00    -0.026 A 
HETATM   13  C12 UNL     1       8.405  36.150  79.828  1.00  0.00     0.011 A 
HETATM   14  C13 UNL     1       7.096  36.558  80.008  1.00  0.00     0.026 A 
HETATM   15  C14 UNL     1       6.433  37.198  78.972  1.00  0.00     0.057 A 
HETATM   16 CL1  UNL     1       4.790  37.704  79.192  1.00  0.00    -0.082 Cl
HETATM   17  C15 UNL     1       7.059  37.436  77.755  1.00  0.00     0.078 A 
HETATM   18 CL2  UNL     1       6.215  38.237  76.448  1.00  0.00    -0.081 Cl
HETATM   19  C16 UNL     1       8.362  37.028  77.579  1.00  0.00     0.064 A 
HETATM   20 CL3  UNL     1       9.156  37.308  76.058  1.00  0.00    -0.082 Cl
ENDBRANCH  11  12
ENDBRANCH   8  11
ENDBRANCH   5   7
BRANCH   1  21
HETATM   21  N1  UNL     1      12.335  29.696  76.386  1.00  0.00    -0.384 N 
BRANCH  21  22
HETATM   22  C3  UNL     1      13.397  30.087  77.205  1.00  0.00     0.058 C 
BRANCH  22  23
HETATM   23  C2  UNL     1      13.235  29.985  78.690  1.00  0.00     0.040 C 
HETATM   24  C1  UNL     1      13.698  28.788  79.403  1.00  0.00     0.010 C 
ENDBRANCH  22  23
ENDBRANCH  21  22
BRANCH  21  25
HETATM   25  C18 UNL     1      12.568  28.692  75.424  1.00  0.00     0.089 C 
HETATM   26  C19 UNL     1      13.261  27.469  75.948  1.00  0.00     0.026 C 
HETATM   27  C20 UNL     1      13.837  26.635  74.788  1.00  0.00     0.008 C 
HETATM   28  C21 UNL     1      14.957  27.321  74.098  1.00  0.00     0.079 C 
HETATM   29  C22 UNL     1      14.813  28.797  74.314  1.00  0.00     0.245 C 
HETATM   30  F1  UNL     1      15.432  29.275  75.423  1.00  0.00    -0.206 F 
HETATM   31  F2  UNL     1      15.395  29.441  73.224  1.00  0.00    -0.206 F 
HETATM   32  C23 UNL     1      13.322  29.162  74.243  1.00  0.00     0.104 C 
ENDBRANCH  21  25
ENDBRANCH   1  21
TORSDOF 7
ENDMDL
