MODEL 1
REMARK VINA RESULT: -9.246234696      0.000      0.000
REMARK  2 active torsions:
REMARK  status: ('A' for Active; 'I' for Inactive)
REMARK    1  A    between atoms: C11_12  and  N2_13 
REMARK       I    between atoms: N3_19  and  C17_20 
REMARK       I    between atoms: C17_20  and  N4_22 
REMARK    2  A    between atoms: N4_22  and  C18_24 
ROOT
HETATM    1  N2  UNL     1      -1.851  10.367   2.149  1.00  0.00     0.112 N 
HETATM    2  C12 UNL     1      -1.015   9.430   1.471  1.00  0.00     0.276 C 
HETATM    3  C13 UNL     1      -1.313   9.515   0.001  1.00  0.00     0.041 C 
HETATM    4  C14 UNL     1      -2.433  10.494  -0.121  1.00  0.00    -0.009 C 
HETATM    5  C15 UNL     1      -3.805   9.830  -0.183  1.00  0.00     0.031 C 
HETATM    6  C16 UNL     1      -3.959   9.043  -1.435  1.00  0.00     0.128 C 
HETATM    7  N3  UNL     1      -3.435   9.663  -2.610  1.00  0.00    -0.334 N 
HETATM    8  C17 UNL     1      -3.868   9.155  -3.873  1.00  0.00     0.318 C 
HETATM    9  O1  UNL     1      -4.694   8.188  -3.950  1.00  0.00    -0.247 OA
HETATM   10  N4  UNL     1      -3.399   9.702  -5.094  1.00  0.00    -0.338 N 
ATOM     11  H4  UNL     1      -2.735  10.476  -5.064  1.00  0.00     0.164 HD
HETATM   12  C24 UNL     1      -2.506  10.762  -2.597  1.00  0.00     0.128 C 
HETATM   13  C25 UNL     1      -2.334  11.427  -1.275  1.00  0.00     0.031 C 
HETATM   14  C26 UNL     1      -2.356  11.292   1.185  1.00  0.00     0.284 C 
ENDROOT
BRANCH   1  15
HETATM   15  C11 UNL     1      -1.402  10.860   3.388  1.00  0.00     0.323 C 
HETATM   16  N1  UNL     1      -1.654  12.186   3.713  1.00  0.00    -0.368 N 
HETATM   17  C1  UNL     1      -0.776  13.203   3.301  1.00  0.00     0.150 C 
HETATM   18  C2  UNL     1      -2.898  12.574   4.231  1.00  0.00     0.060 C 
HETATM   19  C3  UNL     1      -3.693  11.601   4.982  1.00  0.00     0.044 C 
HETATM   20  C4  UNL     1      -3.224  11.144   6.292  1.00  0.00     0.005 C 
HETATM   21  C5  UNL     1      -2.040  11.812   6.876  1.00  0.00     0.000 C 
HETATM   22  C6  UNL     1      -0.906  10.815   7.163  1.00  0.00     0.000 C 
HETATM   23  C7  UNL     1       0.403  11.268   6.618  1.00  0.00     0.000 C 
HETATM   24  C8  UNL     1       1.144  10.278   5.797  1.00  0.00     0.000 C 
HETATM   25  C9  UNL     1       0.403   9.653   4.672  1.00  0.00     0.004 C 
HETATM   26  C10 UNL     1       0.085  10.568   3.535  1.00  0.00     0.057 C 
ENDBRANCH   1  15
BRANCH  10  27
HETATM   27  C18 UNL     1      -3.825   9.204  -6.371  1.00  0.00     0.086 C 
HETATM   28  C19 UNL     1      -2.668   9.210  -7.346  1.00  0.00     0.025 C 
HETATM   29  C20 UNL     1      -3.138   9.524  -8.753  1.00  0.00     0.002 C 
HETATM   30  C21 UNL     1      -3.675  10.939  -8.825  1.00  0.00     0.000 C 
HETATM   31  C22 UNL     1      -4.294  11.329  -7.499  1.00  0.00     0.002 C 
HETATM   32  C23 UNL     1      -4.911  10.098  -6.910  1.00  0.00     0.025 C 
ENDBRANCH  10  27
TORSDOF 2
ENDMDL
MODEL 2
REMARK VINA RESULT: -9.219314654      1.080      2.166
REMARK  2 active torsions:
REMARK  status: ('A' for Active; 'I' for Inactive)
REMARK    1  A    between atoms: C11_12  and  N2_13 
REMARK       I    between atoms: N3_19  and  C17_20 
REMARK       I    between atoms: C17_20  and  N4_22 
REMARK    2  A    between atoms: N4_22  and  C18_24 
ROOT
HETATM    1  N2  UNL     1      -2.106   9.964   1.714  1.00  0.00     0.112 N 
HETATM    2  C12 UNL     1      -1.248   9.062   1.016  1.00  0.00     0.276 C 
HETATM    3  C13 UNL     1      -1.488   9.230  -0.457  1.00  0.00     0.041 C 
HETATM    4  C14 UNL     1      -2.600  10.220  -0.566  1.00  0.00    -0.009 C 
HETATM    5  C15 UNL     1      -3.970   9.568  -0.717  1.00  0.00     0.031 C 
HETATM    6  C16 UNL     1      -4.080   8.854  -2.016  1.00  0.00     0.128 C 
HETATM    7  N3  UNL     1      -3.510   9.535  -3.133  1.00  0.00    -0.334 N 
HETATM    8  C17 UNL     1      -3.896   9.100  -4.438  1.00  0.00     0.318 C 
HETATM    9  O1  UNL     1      -4.721   8.144  -4.600  1.00  0.00    -0.247 OA
HETATM   10  N4  UNL     1      -3.378   9.711  -5.608  1.00  0.00    -0.338 N 
ATOM     11  H4  UNL     1      -2.714  10.479  -5.510  1.00  0.00     0.164 HD
HETATM   12  C24 UNL     1      -2.578  10.626  -3.024  1.00  0.00     0.128 C 
HETATM   13  C25 UNL     1      -2.454  11.216  -1.662  1.00  0.00     0.031 C 
HETATM   14  C26 UNL     1      -2.570  10.944   0.785  1.00  0.00     0.284 C 
ENDROOT
BRANCH   1  15
HETATM   15  C11 UNL     1      -1.702  10.385   2.994  1.00  0.00     0.323 C 
HETATM   16  N1  UNL     1      -2.205   9.725   4.107  1.00  0.00    -0.368 N 
HETATM   17  C1  UNL     1      -3.435  10.107   4.670  1.00  0.00     0.150 C 
HETATM   18  C2  UNL     1      -1.641   8.516   4.541  1.00  0.00     0.060 C 
HETATM   19  C3  UNL     1      -0.230   8.246   4.258  1.00  0.00     0.044 C 
HETATM   20  C4  UNL     1       0.805   9.038   4.927  1.00  0.00     0.005 C 
HETATM   21  C5  UNL     1       0.380   9.976   5.991  1.00  0.00     0.000 C 
HETATM   22  C6  UNL     1       0.795  11.421   5.675  1.00  0.00     0.000 C 
HETATM   23  C7  UNL     1      -0.332  12.383   5.821  1.00  0.00     0.000 C 
HETATM   24  C8  UNL     1      -0.557  13.299   4.675  1.00  0.00     0.000 C 
HETATM   25  C9  UNL     1      -0.696  12.674   3.336  1.00  0.00     0.004 C 
HETATM   26  C10 UNL     1      -1.946  11.882   3.131  1.00  0.00     0.057 C 
ENDBRANCH   1  15
BRANCH  10  27
HETATM   27  C18 UNL     1      -3.757   9.288  -6.926  1.00  0.00     0.086 C 
HETATM   28  C19 UNL     1      -2.551   9.282  -7.839  1.00  0.00     0.025 C 
HETATM   29  C20 UNL     1      -2.931   9.676  -9.254  1.00  0.00     0.002 C 
HETATM   30  C21 UNL     1      -3.402  11.115  -9.290  1.00  0.00     0.000 C 
HETATM   31  C22 UNL     1      -4.073  11.477  -7.981  1.00  0.00     0.002 C 
HETATM   32  C23 UNL     1      -4.773  10.252  -7.480  1.00  0.00     0.025 C 
ENDBRANCH  10  27
TORSDOF 2
ENDMDL
MODEL 3
REMARK VINA RESULT: -9.131195410      1.415      2.880
REMARK  2 active torsions:
REMARK  status: ('A' for Active; 'I' for Inactive)
REMARK    1  A    between atoms: C11_12  and  N2_13 
REMARK       I    between atoms: N3_19  and  C17_20 
REMARK       I    between atoms: C17_20  and  N4_22 
REMARK    2  A    between atoms: N4_22  and  C18_24 
ROOT
HETATM    1  N2  UNL     1      -1.500  10.004   2.118  1.00  0.00     0.112 N 
HETATM    2  C12 UNL     1      -1.479  11.256   1.433  1.00  0.00     0.276 C 
HETATM    3  C13 UNL     1      -2.118  11.064   0.087  1.00  0.00     0.041 C 
HETATM    4  C14 UNL     1      -2.431   9.608   0.000  1.00  0.00    -0.009 C 
HETATM    5  C15 UNL     1      -1.355   8.806  -0.725  1.00  0.00     0.031 C 
HETATM    6  C16 UNL     1      -1.289   9.182  -2.163  1.00  0.00     0.128 C 
HETATM    7  N3  UNL     1      -2.553   9.380  -2.797  1.00  0.00    -0.334 N 
HETATM    8  C17 UNL     1      -2.583   9.374  -4.224  1.00  0.00     0.318 C 
HETATM    9  O1  UNL     1      -1.523   9.195  -4.908  1.00  0.00    -0.247 OA
HETATM   10  N4  UNL     1      -3.789   9.568  -4.943  1.00  0.00    -0.338 N 
ATOM     11  H4  UNL     1      -4.654   9.715  -4.423  1.00  0.00     0.164 HD
HETATM   12  C24 UNL     1      -3.789   9.581  -2.088  1.00  0.00     0.128 C 
HETATM   13  C25 UNL     1      -3.738   9.278  -0.630  1.00  0.00     0.031 C 
HETATM   14  C26 UNL     1      -2.446   9.156   1.465  1.00  0.00     0.284 C 
ENDROOT
BRANCH   1  15
HETATM   15  C11 UNL     1      -1.479  10.033   3.524  1.00  0.00     0.323 C 
HETATM   16  N1  UNL     1      -1.086   8.893   4.213  1.00  0.00    -0.368 N 
HETATM   17  C1  UNL     1      -2.019   7.888   4.523  1.00  0.00     0.150 C 
HETATM   18  C2  UNL     1       0.273   8.595   4.393  1.00  0.00     0.060 C 
HETATM   19  C3  UNL     1       1.245   9.689   4.421  1.00  0.00     0.044 C 
HETATM   20  C4  UNL     1       1.241  10.628   5.546  1.00  0.00     0.005 C 
HETATM   21  C5  UNL     1       0.354  10.334   6.693  1.00  0.00     0.000 C 
HETATM   22  C6  UNL     1      -0.644  11.473   6.949  1.00  0.00     0.000 C 
HETATM   23  C7  UNL     1      -2.045  10.987   7.078  1.00  0.00     0.000 C 
HETATM   24  C8  UNL     1      -3.055  11.686   6.246  1.00  0.00     0.000 C 
HETATM   25  C9  UNL     1      -2.769  11.791   4.793  1.00  0.00     0.004 C 
HETATM   26  C10 UNL     1      -2.832  10.503   4.038  1.00  0.00     0.057 C 
ENDBRANCH   1  15
BRANCH  10  27
HETATM   27  C18 UNL     1      -3.836   9.563  -6.378  1.00  0.00     0.086 C 
HETATM   28  C19 UNL     1      -4.004  10.973  -6.899  1.00  0.00     0.025 C 
HETATM   29  C20 UNL     1      -4.854  10.997  -8.155  1.00  0.00     0.002 C 
HETATM   30  C21 UNL     1      -6.270  10.560  -7.840  1.00  0.00     0.000 C 
HETATM   31  C22 UNL     1      -6.265   9.558  -6.705  1.00  0.00     0.002 C 
HETATM   32  C23 UNL     1      -5.016   8.742  -6.829  1.00  0.00     0.025 C 
ENDBRANCH  10  27
TORSDOF 2
ENDMDL
MODEL 4
REMARK VINA RESULT: -8.918243018      1.345      2.501
REMARK  2 active torsions:
REMARK  status: ('A' for Active; 'I' for Inactive)
REMARK    1  A    between atoms: C11_12  and  N2_13 
REMARK       I    between atoms: N3_19  and  C17_20 
REMARK       I    between atoms: C17_20  and  N4_22 
REMARK    2  A    between atoms: N4_22  and  C18_24 
ROOT
HETATM    1  N2  UNL     1      -2.569   9.838   1.706  1.00  0.00     0.112 N 
HETATM    2  C12 UNL     1      -1.360   9.277   1.196  1.00  0.00     0.276 C 
HETATM    3  C13 UNL     1      -1.334   9.489  -0.290  1.00  0.00     0.041 C 
HETATM    4  C14 UNL     1      -2.642  10.128  -0.622  1.00  0.00    -0.009 C 
HETATM    5  C15 UNL     1      -3.698   9.128  -1.080  1.00  0.00     0.031 C 
HETATM    6  C16 UNL     1      -3.325   8.519  -2.385  1.00  0.00     0.128 C 
HETATM    7  N3  UNL     1      -2.766   9.423  -3.338  1.00  0.00    -0.334 N 
HETATM    8  C17 UNL     1      -2.733   9.004  -4.703  1.00  0.00     0.318 C 
HETATM    9  O1  UNL     1      -3.188   7.869  -5.059  1.00  0.00    -0.247 OA
HETATM   10  N4  UNL     1      -2.192   9.831  -5.721  1.00  0.00    -0.338 N 
ATOM     11  H4  UNL     1      -1.818  10.745  -5.466  1.00  0.00     0.164 HD
HETATM   12  C24 UNL     1      -2.241  10.721  -3.008  1.00  0.00     0.128 C 
HETATM   13  C25 UNL     1      -2.576  11.210  -1.641  1.00  0.00     0.031 C 
HETATM   14  C26 UNL     1      -3.102  10.718   0.715  1.00  0.00     0.284 C 
ENDROOT
BRANCH   1  15
HETATM   15  C11 UNL     1      -2.577  10.251   3.051  1.00  0.00     0.323 C 
HETATM   16  N1  UNL     1      -2.978   9.349   4.027  1.00  0.00    -0.368 N 
HETATM   17  C1  UNL     1      -4.338   9.202   4.351  1.00  0.00     0.150 C 
HETATM   18  C2  UNL     1      -2.085   8.392   4.530  1.00  0.00     0.060 C 
HETATM   19  C3  UNL     1      -0.649   8.680   4.519  1.00  0.00     0.044 C 
HETATM   20  C4  UNL     1      -0.118   9.726   5.398  1.00  0.00     0.005 C 
HETATM   21  C5  UNL     1      -1.037  10.338   6.383  1.00  0.00     0.000 C 
HETATM   22  C6  UNL     1      -1.146  11.858   6.192  1.00  0.00     0.000 C 
HETATM   23  C7  UNL     1      -2.558  12.326   6.141  1.00  0.00     0.000 C 
HETATM   24  C8  UNL     1      -2.912  13.205   4.998  1.00  0.00     0.000 C 
HETATM   25  C9  UNL     1      -2.576  12.704   3.641  1.00  0.00     0.004 C 
HETATM   26  C10 UNL     1      -3.384  11.536   3.177  1.00  0.00     0.057 C 
ENDBRANCH   1  15
BRANCH  10  27
HETATM   27  C18 UNL     1      -2.153   9.425  -7.097  1.00  0.00     0.086 C 
HETATM   28  C19 UNL     1      -1.138  10.253  -7.856  1.00  0.00     0.025 C 
HETATM   29  C20 UNL     1      -1.592  10.506  -9.281  1.00  0.00     0.002 C 
HETATM   30  C21 UNL     1      -2.838  11.367  -9.291  1.00  0.00     0.000 C 
HETATM   31  C22 UNL     1      -3.670  11.095  -8.056  1.00  0.00     0.002 C 
HETATM   32  C23 UNL     1      -3.509   9.645  -7.714  1.00  0.00     0.025 C 
ENDBRANCH  10  27
TORSDOF 2
ENDMDL
MODEL 5
REMARK VINA RESULT: -8.872836124      2.094     10.448
REMARK  2 active torsions:
REMARK  status: ('A' for Active; 'I' for Inactive)
REMARK    1  A    between atoms: C11_12  and  N2_13 
REMARK       I    between atoms: N3_19  and  C17_20 
REMARK       I    between atoms: C17_20  and  N4_22 
REMARK    2  A    between atoms: N4_22  and  C18_24 
ROOT
HETATM    1  N2  UNL     1      -2.478   9.773  -3.922  1.00  0.00     0.112 N 
HETATM    2  C12 UNL     1      -2.602  11.061  -3.321  1.00  0.00     0.276 C 
HETATM    3  C13 UNL     1      -2.281  10.929  -1.859  1.00  0.00     0.041 C 
HETATM    4  C14 UNL     1      -2.050   9.471  -1.635  1.00  0.00    -0.009 C 
HETATM    5  C15 UNL     1      -3.287   8.739  -1.126  1.00  0.00     0.031 C 
HETATM    6  C16 UNL     1      -3.652   9.197   0.241  1.00  0.00     0.128 C 
HETATM    7  N3  UNL     1      -2.551   9.397   1.128  1.00  0.00    -0.334 N 
HETATM    8  C17 UNL     1      -2.835   9.470   2.526  1.00  0.00     0.318 C 
HETATM    9  O1  UNL     1      -4.025   9.357   2.967  1.00  0.00    -0.247 OA
HETATM   10  N4  UNL     1      -1.809   9.672   3.483  1.00  0.00    -0.338 N 
ATOM     11  H4  UNL     1      -0.846   9.768   3.160  1.00  0.00     0.164 HD
HETATM   12  C24 UNL     1      -1.183   9.526   0.700  1.00  0.00     0.128 C 
HETATM   13  C25 UNL     1      -0.926   9.144  -0.716  1.00  0.00     0.031 C 
HETATM   14  C26 UNL     1      -1.731   8.938  -3.036  1.00  0.00     0.284 C 
ENDROOT
BRANCH   1  15
HETATM   15  C11 UNL     1      -2.191   9.724  -5.298  1.00  0.00     0.323 C 
HETATM   16  N1  UNL     1      -2.837   8.781  -6.086  1.00  0.00    -0.368 N 
HETATM   17  C1  UNL     1      -2.322   7.479  -6.212  1.00  0.00     0.150 C 
HETATM   18  C2  UNL     1      -4.135   9.013  -6.564  1.00  0.00     0.060 C 
HETATM   19  C3  UNL     1      -4.582  10.392  -6.774  1.00  0.00     0.044 C 
HETATM   20  C4  UNL     1      -3.979  11.189  -7.846  1.00  0.00     0.005 C 
HETATM   21  C5  UNL     1      -3.054  10.511  -8.780  1.00  0.00     0.000 C 
HETATM   22  C6  UNL     1      -1.665  11.166  -8.783  1.00  0.00     0.000 C 
HETATM   23  C7  UNL     1      -0.566  10.175  -8.618  1.00  0.00     0.000 C 
HETATM   24  C8  UNL     1       0.436  10.485  -7.567  1.00  0.00     0.000 C 
HETATM   25  C9  UNL     1      -0.087  10.777  -6.209  1.00  0.00     0.004 C 
HETATM   26  C10 UNL     1      -0.685   9.610  -5.494  1.00  0.00     0.057 C 
ENDBRANCH   1  15
BRANCH  10  27
HETATM   27  C18 UNL     1      -2.077   9.746   4.891  1.00  0.00     0.086 C 
HETATM   28  C19 UNL     1      -1.994  11.181   5.363  1.00  0.00     0.025 C 
HETATM   29  C20 UNL     1      -1.439  11.264   6.772  1.00  0.00     0.002 C 
HETATM   30  C21 UNL     1       0.001  10.793   6.799  1.00  0.00     0.000 C 
HETATM   31  C22 UNL     1       0.221   9.729   5.744  1.00  0.00     0.002 C 
HETATM   32  C23 UNL     1      -1.045   8.937   5.632  1.00  0.00     0.025 C 
ENDBRANCH  10  27
TORSDOF 2
ENDMDL
