MODEL 1
REMARK VINA RESULT: -7.174849392      0.000      0.000
REMARK  7 active torsions:
REMARK  status: ('A' for Active; 'I' for Inactive)
REMARK    1  A    between atoms: C4_10  and  C5_11 
REMARK    2  A    between atoms: C5_11  and  N6_14 
REMARK    3  A    between atoms: N6_14  and  O1_15 
REMARK    4  A    between atoms: O1_15  and  C7_16 
REMARK    5  A    between atoms: C7_16  and  C8_18 
REMARK    6  A    between atoms: C10_20  and  N7_21 
REMARK    7  A    between atoms: C11_26  and  N9_27 
ROOT
HETATM    1  C1  UNL     1      16.236  47.392 -48.230  1.00  0.00     0.160 C 
HETATM    2  N1  UNL     1      15.042  46.668 -47.865  1.00  0.00    -0.314 N 
HETATM    3  C2  UNL     1      14.744  46.200 -46.620  1.00  0.00     0.206 A 
HETATM    4  C3  UNL     1      15.563  46.339 -45.432  1.00  0.00     0.138 C 
HETATM    5  N2  UNL     1      16.221  46.464 -44.487  1.00  0.00    -0.188 NA
HETATM    6  N3  UNL     1      13.549  45.590 -46.723  1.00  0.00    -0.275 N 
ATOM      7  H3  UNL     1      13.043  45.132 -45.964  1.00  0.00     0.189 HD
HETATM    8  N4  UNL     1      13.137  45.689 -47.997  1.00  0.00    -0.284 N 
ATOM      9  H4  UNL     1      12.262  45.315 -48.363  1.00  0.00     0.188 HD
HETATM   10  C4  UNL     1      14.046  46.348 -48.709  1.00  0.00     0.136 A 
ENDROOT
BRANCH  10  11
HETATM   11  C5  UNL     1      14.008  46.687 -50.154  1.00  0.00     0.282 C 
HETATM   12  C6  UNL     1      13.797  45.477 -50.974  1.00  0.00     0.091 C 
HETATM   13  N5  UNL     1      13.633  44.520 -51.610  1.00  0.00    -0.195 NA
BRANCH  11  14
HETATM   14  N6  UNL     1      12.839  47.528 -50.380  1.00  0.00    -0.063 NA
BRANCH  14  15
HETATM   15  O1  UNL     1      13.207  48.817 -50.691  1.00  0.00    -0.200 OA
BRANCH  15  16
HETATM   16  C7  UNL     1      12.866  49.840 -49.832  1.00  0.00     0.329 C 
HETATM   17  O2  UNL     1      12.066  50.718 -50.246  1.00  0.00    -0.256 OA
BRANCH  16  18
HETATM   18  C8  UNL     1      13.384  49.950 -48.477  1.00  0.00     0.129 A 
HETATM   19  C9  UNL     1      14.517  50.684 -48.181  1.00  0.00     0.085 A 
HETATM   20  C10 UNL     1      14.998  50.784 -46.902  1.00  0.00     0.117 A 
HETATM   21  N8  UNL     1      14.342  50.146 -45.916  1.00  0.00    -0.177 N 
HETATM   22  C11 UNL     1      13.245  49.433 -46.190  1.00  0.00     0.678 A 
ATOM     23  H8  UNL     1      14.683  50.207 -44.956  1.00  0.00     0.185 HD
HETATM   24  N10 UNL     1      12.779  49.340 -47.450  1.00  0.00    -0.186 N 
ATOM     25  H10 UNL     1      11.940  48.788 -47.627  1.00  0.00     0.184 HD
BRANCH  20  26
HETATM   26  N7  UNL     1      16.055  51.473 -46.656  1.00  0.00    -0.385 N 
ATOM     27  H72 UNL     1      16.631  51.839 -47.414  1.00  0.00     0.157 HD
ATOM     28  H71 UNL     1      16.335  51.664 -45.694  1.00  0.00     0.157 HD
ENDBRANCH  20  26
BRANCH  22  29
HETATM   29  N9  UNL     1      12.624  48.828 -45.250  1.00  0.00    -0.234 N 
ATOM     30  H92 UNL     1      12.934  48.954 -44.286  1.00  0.00     0.174 HD
ATOM     31  H91 UNL     1      11.829  48.228 -45.467  1.00  0.00     0.174 HD
ENDBRANCH  22  29
ENDBRANCH  16  18
ENDBRANCH  15  16
ENDBRANCH  14  15
ENDBRANCH  11  14
ENDBRANCH  10  11
TORSDOF 7
ENDMDL
MODEL 2
REMARK VINA RESULT: -7.134667807      3.010      5.389
REMARK  7 active torsions:
REMARK  status: ('A' for Active; 'I' for Inactive)
REMARK    1  A    between atoms: C4_10  and  C5_11 
REMARK    2  A    between atoms: C5_11  and  N6_14 
REMARK    3  A    between atoms: N6_14  and  O1_15 
REMARK    4  A    between atoms: O1_15  and  C7_16 
REMARK    5  A    between atoms: C7_16  and  C8_18 
REMARK    6  A    between atoms: C10_20  and  N7_21 
REMARK    7  A    between atoms: C11_26  and  N9_27 
ROOT
HETATM    1  C1  UNL     1      17.192  47.589 -52.848  1.00  0.00     0.160 C 
HETATM    2  N1  UNL     1      15.987  46.842 -53.120  1.00  0.00    -0.314 N 
HETATM    3  C2  UNL     1      15.652  46.278 -54.315  1.00  0.00     0.206 A 
HETATM    4  C3  UNL     1      16.436  46.321 -55.534  1.00  0.00     0.138 C 
HETATM    5  N2  UNL     1      17.075  46.353 -56.499  1.00  0.00    -0.188 NA
HETATM    6  N3  UNL     1      14.459  45.684 -54.129  1.00  0.00    -0.275 N 
ATOM      7  H3  UNL     1      13.930  45.171 -54.835  1.00  0.00     0.189 HD
HETATM    8  N4  UNL     1      14.085  45.884 -52.855  1.00  0.00    -0.284 N 
ATOM      9  H4  UNL     1      13.221  45.543 -52.436  1.00  0.00     0.188 HD
HETATM   10  C4  UNL     1      15.015  46.594 -52.225  1.00  0.00     0.136 A 
ENDROOT
BRANCH  10  11
HETATM   11  C5  UNL     1      15.020  47.047 -50.810  1.00  0.00     0.282 C 
HETATM   12  C6  UNL     1      14.265  48.308 -50.659  1.00  0.00     0.091 C 
HETATM   13  N5  UNL     1      13.672  49.300 -50.549  1.00  0.00    -0.195 NA
BRANCH  11  14
HETATM   14  N6  UNL     1      14.295  46.055 -50.026  1.00  0.00    -0.063 NA
BRANCH  14  15
HETATM   15  O1  UNL     1      14.381  46.326 -48.680  1.00  0.00    -0.200 OA
BRANCH  15  16
HETATM   16  C7  UNL     1      13.272  46.137 -47.883  1.00  0.00     0.329 C 
HETATM   17  O2  UNL     1      12.280  45.545 -48.381  1.00  0.00    -0.256 OA
BRANCH  16  18
HETATM   18  C8  UNL     1      13.198  46.585 -46.501  1.00  0.00     0.129 A 
HETATM   19  C9  UNL     1      14.327  46.887 -45.765  1.00  0.00     0.085 A 
HETATM   20  C10 UNL     1      14.248  47.309 -44.464  1.00  0.00     0.117 A 
HETATM   21  N8  UNL     1      13.034  47.431 -43.899  1.00  0.00    -0.177 N 
HETATM   22  C11 UNL     1      11.933  47.142 -44.601  1.00  0.00     0.678 A 
ATOM     23  H8  UNL     1      12.952  47.744 -42.931  1.00  0.00     0.185 HD
HETATM   24  N10 UNL     1      12.020  46.727 -45.879  1.00  0.00    -0.186 N 
ATOM     25  H10 UNL     1      11.162  46.514 -46.388  1.00  0.00     0.184 HD
BRANCH  20  26
HETATM   26  N7  UNL     1      15.316  47.582 -43.802  1.00  0.00    -0.385 N 
ATOM     27  H72 UNL     1      16.041  48.181 -44.199  1.00  0.00     0.157 HD
ATOM     28  H71 UNL     1      15.455  47.202 -42.867  1.00  0.00     0.157 HD
ENDBRANCH  20  26
BRANCH  22  29
HETATM   29  N9  UNL     1      10.780  47.258 -44.060  1.00  0.00    -0.234 N 
ATOM     30  H92 UNL     1      10.501  48.159 -43.671  1.00  0.00     0.174 HD
ATOM     31  H91 UNL     1      10.151  46.456 -44.023  1.00  0.00     0.174 HD
ENDBRANCH  22  29
ENDBRANCH  16  18
ENDBRANCH  15  16
ENDBRANCH  14  15
ENDBRANCH  11  14
ENDBRANCH  10  11
TORSDOF 7
ENDMDL
MODEL 3
REMARK VINA RESULT: -7.106724797      3.992      5.712
REMARK  7 active torsions:
REMARK  status: ('A' for Active; 'I' for Inactive)
REMARK    1  A    between atoms: C4_10  and  C5_11 
REMARK    2  A    between atoms: C5_11  and  N6_14 
REMARK    3  A    between atoms: N6_14  and  O1_15 
REMARK    4  A    between atoms: O1_15  and  C7_16 
REMARK    5  A    between atoms: C7_16  and  C8_18 
REMARK    6  A    between atoms: C10_20  and  N7_21 
REMARK    7  A    between atoms: C11_26  and  N9_27 
ROOT
HETATM    1  C1  UNL     1      12.452  49.801 -46.640  1.00  0.00     0.160 C 
HETATM    2  N1  UNL     1      13.550  49.132 -47.297  1.00  0.00    -0.314 N 
HETATM    3  C2  UNL     1      13.728  47.783 -47.376  1.00  0.00     0.206 A 
HETATM    4  C3  UNL     1      12.855  46.768 -46.819  1.00  0.00     0.138 C 
HETATM    5  N2  UNL     1      12.146  45.966 -46.378  1.00  0.00    -0.188 NA
HETATM    6  N3  UNL     1      14.867  47.593 -48.067  1.00  0.00    -0.275 N 
ATOM      7  H3  UNL     1      15.282  46.691 -48.300  1.00  0.00     0.189 HD
HETATM    8  N4  UNL     1      15.362  48.797 -48.397  1.00  0.00    -0.284 N 
ATOM      9  H4  UNL     1      16.219  48.955 -48.925  1.00  0.00     0.188 HD
HETATM   10  C4  UNL     1      14.563  49.751 -47.929  1.00  0.00     0.136 A 
ENDROOT
BRANCH  10  11
HETATM   11  C5  UNL     1      14.719  51.222 -48.057  1.00  0.00     0.282 C 
HETATM   12  C6  UNL     1      16.120  51.626 -47.815  1.00  0.00     0.091 C 
HETATM   13  N5  UNL     1      17.222  51.934 -47.622  1.00  0.00    -0.195 NA
BRANCH  11  14
HETATM   14  N6  UNL     1      14.437  51.577 -49.442  1.00  0.00    -0.063 NA
BRANCH  14  15
HETATM   15  O1  UNL     1      13.085  51.709 -49.656  1.00  0.00    -0.200 OA
BRANCH  15  16
HETATM   16  C7  UNL     1      12.642  52.480 -50.709  1.00  0.00     0.329 C 
HETATM   17  O2  UNL     1      12.098  51.897 -51.682  1.00  0.00    -0.256 OA
BRANCH  16  18
HETATM   18  C8  UNL     1      12.772  53.929 -50.748  1.00  0.00     0.129 A 
HETATM   19  C9  UNL     1      11.674  54.767 -50.702  1.00  0.00     0.085 A 
HETATM   20  C10 UNL     1      11.805  56.130 -50.738  1.00  0.00     0.117 A 
HETATM   21  N8  UNL     1      13.040  56.656 -50.820  1.00  0.00    -0.177 N 
HETATM   22  C11 UNL     1      14.110  55.856 -50.864  1.00  0.00     0.678 A 
ATOM     23  H8  UNL     1      13.160  57.669 -50.848  1.00  0.00     0.185 HD
HETATM   24  N10 UNL     1      13.972  54.517 -50.829  1.00  0.00    -0.186 N 
ATOM     25  H10 UNL     1      14.808  53.933 -50.865  1.00  0.00     0.184 HD
BRANCH  20  26
HETATM   26  N7  UNL     1      10.765  56.885 -50.696  1.00  0.00    -0.385 N 
ATOM     27  H72 UNL     1       9.978  56.731 -51.326  1.00  0.00     0.157 HD
ATOM     28  H71 UNL     1      10.713  57.653 -50.027  1.00  0.00     0.157 HD
ENDBRANCH  20  26
BRANCH  22  29
HETATM   29  N9  UNL     1      15.283  56.360 -50.941  1.00  0.00    -0.234 N 
ATOM     30  H92 UNL     1      15.430  57.327 -50.650  1.00  0.00     0.174 HD
ATOM     31  H91 UNL     1      16.058  55.797 -51.291  1.00  0.00     0.174 HD
ENDBRANCH  22  29
ENDBRANCH  16  18
ENDBRANCH  15  16
ENDBRANCH  14  15
ENDBRANCH  11  14
ENDBRANCH  10  11
TORSDOF 7
ENDMDL
MODEL 4
REMARK VINA RESULT: -7.096265835      3.413      6.841
REMARK  7 active torsions:
REMARK  status: ('A' for Active; 'I' for Inactive)
REMARK    1  A    between atoms: C4_10  and  C5_11 
REMARK    2  A    between atoms: C5_11  and  N6_14 
REMARK    3  A    between atoms: N6_14  and  O1_15 
REMARK    4  A    between atoms: O1_15  and  C7_16 
REMARK    5  A    between atoms: C7_16  and  C8_18 
REMARK    6  A    between atoms: C10_20  and  N7_21 
REMARK    7  A    between atoms: C11_26  and  N9_27 
ROOT
HETATM    1  C1  UNL     1      15.191  50.813 -49.170  1.00  0.00     0.160 C 
HETATM    2  N1  UNL     1      13.914  50.331 -49.642  1.00  0.00    -0.314 N 
HETATM    3  C2  UNL     1      12.926  51.097 -50.186  1.00  0.00     0.206 A 
HETATM    4  C3  UNL     1      12.967  52.532 -50.391  1.00  0.00     0.138 C 
HETATM    5  N2  UNL     1      13.014  53.677 -50.560  1.00  0.00    -0.188 NA
HETATM    6  N3  UNL     1      11.920  50.256 -50.485  1.00  0.00    -0.275 N 
ATOM      7  H3  UNL     1      11.028  50.516 -50.907  1.00  0.00     0.189 HD
HETATM    8  N4  UNL     1      12.292  49.015 -50.132  1.00  0.00    -0.284 N 
ATOM      9  H4  UNL     1      11.724  48.176 -50.245  1.00  0.00     0.188 HD
HETATM   10  C4  UNL     1      13.515  49.048 -49.613  1.00  0.00     0.136 A 
ENDROOT
BRANCH  10  11
HETATM   11  C5  UNL     1      14.320  47.915 -49.090  1.00  0.00     0.282 C 
HETATM   12  C6  UNL     1      13.447  46.857 -48.542  1.00  0.00     0.091 C 
HETATM   13  N5  UNL     1      12.753  46.032 -48.112  1.00  0.00    -0.195 NA
BRANCH  11  14
HETATM   14  N6  UNL     1      15.015  47.309 -50.220  1.00  0.00    -0.063 NA
BRANCH  14  15
HETATM   15  O1  UNL     1      14.131  46.935 -51.205  1.00  0.00    -0.200 OA
BRANCH  15  16
HETATM   16  C7  UNL     1      14.456  45.889 -52.041  1.00  0.00     0.329 C 
HETATM   17  O2  UNL     1      13.760  44.843 -51.980  1.00  0.00    -0.256 OA
BRANCH  16  18
HETATM   18  C8  UNL     1      15.561  45.939 -52.988  1.00  0.00     0.129 A 
HETATM   19  C9  UNL     1      15.368  46.216 -54.328  1.00  0.00     0.085 A 
HETATM   20  C10 UNL     1      16.413  46.262 -55.212  1.00  0.00     0.117 A 
HETATM   21  N8  UNL     1      17.656  46.030 -54.753  1.00  0.00    -0.177 N 
HETATM   22  C11 UNL     1      17.855  45.761 -53.459  1.00  0.00     0.678 A 
ATOM     23  H8  UNL     1      18.448  46.059 -55.395  1.00  0.00     0.185 HD
HETATM   24  N10 UNL     1      16.822  45.718 -52.596  1.00  0.00    -0.186 N 
ATOM     25  H10 UNL     1      17.006  45.510 -51.615  1.00  0.00     0.184 HD
BRANCH  20  26
HETATM   26  N7  UNL     1      16.203  46.521 -56.454  1.00  0.00    -0.385 N 
ATOM     27  H72 UNL     1      15.348  46.986 -56.756  1.00  0.00     0.157 HD
ATOM     28  H71 UNL     1      16.894  46.263 -57.158  1.00  0.00     0.157 HD
ENDBRANCH  20  26
BRANCH  22  29
HETATM   29  N9  UNL     1      19.038  45.541 -53.026  1.00  0.00    -0.234 N 
ATOM     30  H92 UNL     1      19.832  45.956 -53.514  1.00  0.00     0.174 HD
ATOM     31  H91 UNL     1      19.179  44.957 -52.201  1.00  0.00     0.174 HD
ENDBRANCH  22  29
ENDBRANCH  16  18
ENDBRANCH  15  16
ENDBRANCH  14  15
ENDBRANCH  11  14
ENDBRANCH  10  11
TORSDOF 7
ENDMDL
MODEL 5
REMARK VINA RESULT: -7.084331974      4.359      6.480
REMARK  7 active torsions:
REMARK  status: ('A' for Active; 'I' for Inactive)
REMARK    1  A    between atoms: C4_10  and  C5_11 
REMARK    2  A    between atoms: C5_11  and  N6_14 
REMARK    3  A    between atoms: N6_14  and  O1_15 
REMARK    4  A    between atoms: O1_15  and  C7_16 
REMARK    5  A    between atoms: C7_16  and  C8_18 
REMARK    6  A    between atoms: C10_20  and  N7_21 
REMARK    7  A    between atoms: C11_26  and  N9_27 
ROOT
HETATM    1  C1  UNL     1      17.506  45.289 -49.781  1.00  0.00     0.160 C 
HETATM    2  N1  UNL     1      16.924  46.522 -50.256  1.00  0.00    -0.314 N 
HETATM    3  C2  UNL     1      17.568  47.720 -50.357  1.00  0.00     0.206 A 
HETATM    4  C3  UNL     1      18.950  47.983 -50.007  1.00  0.00     0.138 C 
HETATM    5  N2  UNL     1      20.058  48.181 -49.734  1.00  0.00    -0.188 NA
HETATM    6  N3  UNL     1      16.665  48.593 -50.840  1.00  0.00    -0.275 N 
ATOM      7  H3  UNL     1      16.831  49.581 -51.031  1.00  0.00     0.189 HD
HETATM    8  N4  UNL     1      15.508  47.938 -51.026  1.00  0.00    -0.284 N 
ATOM      9  H4  UNL     1      14.648  48.354 -51.385  1.00  0.00     0.188 HD
HETATM   10  C4  UNL     1      15.654  46.666 -50.671  1.00  0.00     0.136 A 
ENDROOT
BRANCH  10  11
HETATM   11  C5  UNL     1      14.640  45.581 -50.709  1.00  0.00     0.282 C 
HETATM   12  C6  UNL     1      13.273  46.140 -50.766  1.00  0.00     0.091 C 
HETATM   13  N5  UNL     1      12.203  46.588 -50.809  1.00  0.00    -0.195 NA
BRANCH  11  14
HETATM   14  N6  UNL     1      14.821  44.850 -51.957  1.00  0.00    -0.063 NA
BRANCH  14  15
HETATM   15  O1  UNL     1      14.525  45.640 -53.043  1.00  0.00    -0.200 OA
BRANCH  15  16
HETATM   16  C7  UNL     1      15.426  45.722 -54.083  1.00  0.00     0.329 C 
HETATM   17  O2  UNL     1      15.078  45.272 -55.205  1.00  0.00    -0.256 OA
BRANCH  16  18
HETATM   18  C8  UNL     1      16.754  46.302 -53.944  1.00  0.00     0.129 A 
HETATM   19  C9  UNL     1      17.027  47.607 -54.307  1.00  0.00     0.085 A 
HETATM   20  C10 UNL     1      18.279  48.146 -54.173  1.00  0.00     0.117 A 
HETATM   21  N8  UNL     1      19.261  47.375 -53.672  1.00  0.00    -0.177 N 
HETATM   22  C11 UNL     1      19.009  46.111 -53.317  1.00  0.00     0.678 A 
ATOM     23  H8  UNL     1      20.201  47.756 -53.564  1.00  0.00     0.185 HD
HETATM   24  N10 UNL     1      17.776  45.589 -53.453  1.00  0.00    -0.186 N 
ATOM     25  H10 UNL     1      17.615  44.621 -53.174  1.00  0.00     0.184 HD
BRANCH  20  26
HETATM   26  N7  UNL     1      18.504  49.363 -54.520  1.00  0.00    -0.385 N 
ATOM     27  H72 UNL     1      18.572  50.104 -53.822  1.00  0.00     0.157 HD
ATOM     28  H71 UNL     1      18.619  49.606 -55.503  1.00  0.00     0.157 HD
ENDBRANCH  20  26
BRANCH  22  29
HETATM   29  N9  UNL     1      19.946  45.381 -52.842  1.00  0.00    -0.234 N 
ATOM     30  H92 UNL     1      20.329  45.599 -51.922  1.00  0.00     0.174 HD
ATOM     31  H91 UNL     1      20.300  44.591 -53.381  1.00  0.00     0.174 HD
ENDBRANCH  22  29
ENDBRANCH  16  18
ENDBRANCH  15  16
ENDBRANCH  14  15
ENDBRANCH  11  14
ENDBRANCH  10  11
TORSDOF 7
ENDMDL
