MODEL 1
REMARK VINA RESULT: -6.726908532      0.000      0.000
REMARK  6 active torsions:
REMARK  status: ('A' for Active; 'I' for Inactive)
REMARK    1  A    between atoms: O1_2  and  N1_3 
REMARK    2  A    between atoms: N1_3  and  C2_5 
REMARK    3  A    between atoms: C6_10  and  O3_11 
REMARK    4  A    between atoms: C8_14  and  N2_15 
REMARK       I    between atoms: N2_15  and  C9_17 
REMARK    5  A    between atoms: N4_19  and  O5_21 
REMARK    6  A    between atoms: C10_23  and  N5_24 
ROOT
HETATM    1  C2  UNL     1      13.140  50.238 -47.245  1.00  0.00     0.116 C 
HETATM    2  C3  UNL     1      11.619  50.205 -47.339  1.00  0.00     0.054 C 
HETATM    3  C4  UNL     1      11.255  51.311 -48.315  1.00  0.00     0.170 C 
HETATM    4  O2  UNL     1      12.312  52.047 -48.764  1.00  0.00    -0.380 OA
HETATM    5  C5  UNL     1      13.353  51.383 -49.343  1.00  0.00     0.184 C 
HETATM    6  C6  UNL     1      13.269  51.175 -50.815  1.00  0.00     0.291 C 
HETATM    7  O4  UNL     1      14.311  50.273 -51.140  1.00  0.00    -0.332 OA
HETATM    8  C8  UNL     1      13.825  49.010 -50.815  1.00  0.00     0.257 C 
HETATM    9  C10 UNL     1      13.152  48.976 -49.447  1.00  0.00     0.240 C 
HETATM   10  C11 UNL     1      13.701  50.074 -48.609  1.00  0.00     0.079 C 
ENDROOT
BRANCH   8  11
HETATM   11  N2  UNL     1      12.976  48.539 -51.874  1.00  0.00    -0.335 N 
HETATM   12  C9  UNL     1      13.433  47.815 -52.996  1.00  0.00     0.210 C 
HETATM   13  N3  UNL     1      13.061  46.454 -53.261  1.00  0.00    -0.062 NA
HETATM   14  N4  UNL     1      14.225  48.363 -53.855  1.00  0.00    -0.241 N 
ATOM     15  H4  UNL     1      14.506  49.331 -53.695  1.00  0.00     0.197 HD
ATOM     16  H2  UNL     1      11.977  48.741 -51.811  1.00  0.00     0.164 HD
BRANCH  14  17
HETATM   17  O5  UNL     1      14.707  47.735 -54.956  1.00  0.00    -0.287 OA
ATOM     18  H5  UNL     1      14.305  47.781 -55.815  1.00  0.00     0.244 HD
ENDBRANCH  14  17
ENDBRANCH   8  11
BRANCH   9  19
HETATM   19  N5  UNL     1      13.361  47.640 -48.946  1.00  0.00    -0.070 N 
ATOM     20  H53 UNL     1      12.774  46.938 -49.396  1.00  0.00     0.274 HD
ATOM     21  H52 UNL     1      14.259  47.238 -49.215  1.00  0.00     0.274 HD
ATOM     22  H51 UNL     1      13.226  47.702 -47.937  1.00  0.00     0.274 HD
ENDBRANCH   9  19
BRANCH   6  23
HETATM   23  O3  UNL     1      13.571  52.353 -51.493  1.00  0.00    -0.363 OA
HETATM   24  C7  UNL     1      12.434  52.909 -52.081  1.00  0.00     0.204 C 
ENDBRANCH   6  23
BRANCH   1  25
HETATM   25  N1  UNL     1      13.693  49.491 -46.185  1.00  0.00    -0.298 N 
ATOM     26  H1  UNL     1      13.312  49.551 -45.240  1.00  0.00     0.188 HD
BRANCH  25  27
HETATM   27  O1  UNL     1      14.726  48.708 -46.461  1.00  0.00    -0.290 OA
HETATM   28  C1  UNL     1      15.844  48.933 -45.664  1.00  0.00     0.237 C 
ENDBRANCH  25  27
ENDBRANCH   1  25
TORSDOF 6
ENDMDL
MODEL 2
REMARK VINA RESULT: -6.693961099      3.160      6.242
REMARK  6 active torsions:
REMARK  status: ('A' for Active; 'I' for Inactive)
REMARK    1  A    between atoms: O1_2  and  N1_3 
REMARK    2  A    between atoms: N1_3  and  C2_5 
REMARK    3  A    between atoms: C6_10  and  O3_11 
REMARK    4  A    between atoms: C8_14  and  N2_15 
REMARK       I    between atoms: N2_15  and  C9_17 
REMARK    5  A    between atoms: N4_19  and  O5_21 
REMARK    6  A    between atoms: C10_23  and  N5_24 
ROOT
HETATM    1  C2  UNL     1      13.910  53.483 -51.388  1.00  0.00     0.116 C 
HETATM    2  C3  UNL     1      13.815  52.341 -52.392  1.00  0.00     0.054 C 
HETATM    3  C4  UNL     1      14.821  51.306 -51.918  1.00  0.00     0.170 C 
HETATM    4  O2  UNL     1      15.554  51.679 -50.829  1.00  0.00    -0.380 OA
HETATM    5  C5  UNL     1      14.882  52.070 -49.709  1.00  0.00     0.184 C 
HETATM    6  C6  UNL     1      14.547  50.999 -48.731  1.00  0.00     0.291 C 
HETATM    7  O4  UNL     1      13.659  51.588 -47.798  1.00  0.00    -0.332 OA
HETATM    8  C8  UNL     1      12.411  51.577 -48.414  1.00  0.00     0.257 C 
HETATM    9  C10 UNL     1      12.468  52.059 -49.860  1.00  0.00     0.240 C 
HETATM   10  C11 UNL     1      13.652  52.942 -50.031  1.00  0.00     0.079 C 
ENDROOT
BRANCH   8  11
HETATM   11  N2  UNL     1      11.822  50.274 -48.276  1.00  0.00    -0.335 N 
HETATM   12  C9  UNL     1      11.095  49.847 -47.145  1.00  0.00     0.210 C 
HETATM   13  N3  UNL     1       9.697  49.525 -47.182  1.00  0.00    -0.062 NA
HETATM   14  N4  UNL     1      11.675  49.723 -45.998  1.00  0.00    -0.241 N 
ATOM     15  H4  UNL     1      12.669  49.942 -45.940  1.00  0.00     0.197 HD
ATOM     16  H2  UNL     1      11.937  49.614 -49.046  1.00  0.00     0.164 HD
BRANCH  14  17
HETATM   17  O5  UNL     1      11.046  49.319 -44.866  1.00  0.00    -0.287 OA
ATOM     18  H5  UNL     1      11.418  49.389 -43.995  1.00  0.00     0.244 HD
ENDBRANCH  14  17
ENDBRANCH   8  11
BRANCH   9  19
HETATM   19  N5  UNL     1      11.188  52.671 -50.114  1.00  0.00    -0.070 N 
ATOM     20  H53 UNL     1      10.951  52.728 -51.105  1.00  0.00     0.274 HD
ATOM     21  H52 UNL     1      10.396  52.095 -49.834  1.00  0.00     0.274 HD
ATOM     22  H51 UNL     1      11.221  53.578 -49.648  1.00  0.00     0.274 HD
ENDBRANCH   9  19
BRANCH   6  23
HETATM   23  O3  UNL     1      15.674  50.639 -47.997  1.00  0.00    -0.363 OA
HETATM   24  C7  UNL     1      15.342  49.812 -46.923  1.00  0.00     0.204 C 
ENDBRANCH   6  23
BRANCH   1  25
HETATM   25  N1  UNL     1      13.276  54.680 -51.777  1.00  0.00    -0.298 N 
ATOM     26  H1  UNL     1      13.666  55.591 -51.531  1.00  0.00     0.188 HD
BRANCH  25  27
HETATM   27  O1  UNL     1      12.154  54.579 -52.476  1.00  0.00    -0.290 OA
HETATM   28  C1  UNL     1      11.962  55.600 -53.402  1.00  0.00     0.237 C 
ENDBRANCH  25  27
ENDBRANCH   1  25
TORSDOF 6
ENDMDL
MODEL 3
REMARK VINA RESULT: -6.644056085      7.085      9.274
REMARK  6 active torsions:
REMARK  status: ('A' for Active; 'I' for Inactive)
REMARK    1  A    between atoms: O1_2  and  N1_3 
REMARK    2  A    between atoms: N1_3  and  C2_5 
REMARK    3  A    between atoms: C6_10  and  O3_11 
REMARK    4  A    between atoms: C8_14  and  N2_15 
REMARK       I    between atoms: N2_15  and  C9_17 
REMARK    5  A    between atoms: N4_19  and  O5_21 
REMARK    6  A    between atoms: C10_23  and  N5_24 
ROOT
HETATM    1  C2  UNL     1      16.247  49.421 -57.342  1.00  0.00     0.116 C 
HETATM    2  C3  UNL     1      15.321  48.706 -56.366  1.00  0.00     0.054 C 
HETATM    3  C4  UNL     1      16.204  47.711 -55.632  1.00  0.00     0.170 C 
HETATM    4  O2  UNL     1      17.497  47.668 -56.066  1.00  0.00    -0.380 OA
HETATM    5  C5  UNL     1      18.205  48.833 -56.085  1.00  0.00     0.184 C 
HETATM    6  C6  UNL     1      18.957  49.172 -54.845  1.00  0.00     0.291 C 
HETATM    7  O4  UNL     1      19.398  50.507 -55.011  1.00  0.00    -0.332 OA
HETATM    8  C8  UNL     1      18.299  51.304 -54.703  1.00  0.00     0.257 C 
HETATM    9  C10 UNL     1      17.015  50.811 -55.363  1.00  0.00     0.240 C 
HETATM   10  C11 UNL     1      17.364  50.028 -56.578  1.00  0.00     0.079 C 
ENDROOT
BRANCH   8  11
HETATM   11  N2  UNL     1      18.187  51.431 -53.276  1.00  0.00    -0.335 N 
HETATM   12  C9  UNL     1      19.041  52.225 -52.481  1.00  0.00     0.210 C 
HETATM   13  N3  UNL     1      18.593  53.377 -51.751  1.00  0.00    -0.062 NA
HETATM   14  N4  UNL     1      20.295  51.938 -52.373  1.00  0.00    -0.241 N 
ATOM     15  H4  UNL     1      20.643  51.124 -52.878  1.00  0.00     0.197 HD
ATOM     16  H2  UNL     1      17.443  50.914 -52.807  1.00  0.00     0.164 HD
BRANCH  14  17
HETATM   17  O5  UNL     1      21.178  52.651 -51.630  1.00  0.00    -0.287 OA
ATOM     18  H5  UNL     1      22.033  52.332 -51.366  1.00  0.00     0.244 HD
ENDBRANCH  14  17
ENDBRANCH   8  11
BRANCH   9  19
HETATM   19  N5  UNL     1      16.217  51.990 -55.586  1.00  0.00    -0.070 N 
ATOM     20  H53 UNL     1      15.706  52.301 -54.760  1.00  0.00     0.274 HD
ATOM     21  H52 UNL     1      16.768  52.839 -55.713  1.00  0.00     0.274 HD
ATOM     22  H51 UNL     1      15.617  51.768 -56.380  1.00  0.00     0.274 HD
ENDBRANCH   9  19
BRANCH   6  23
HETATM   23  O3  UNL     1      20.115  48.405 -54.752  1.00  0.00    -0.363 OA
HETATM   24  C7  UNL     1      20.344  47.984 -53.442  1.00  0.00     0.204 C 
ENDBRANCH   6  23
BRANCH   1  25
HETATM   25  N1  UNL     1      15.600  50.190 -58.331  1.00  0.00    -0.298 N 
ATOM     26  H1  UNL     1      14.598  50.379 -58.283  1.00  0.00     0.188 HD
BRANCH  25  27
HETATM   27  O1  UNL     1      16.341  50.657 -59.326  1.00  0.00    -0.290 OA
HETATM   28  C1  UNL     1      15.712  51.627 -60.101  1.00  0.00     0.237 C 
ENDBRANCH  25  27
ENDBRANCH   1  25
TORSDOF 6
ENDMDL
MODEL 4
REMARK VINA RESULT: -6.503369758      2.964      5.581
REMARK  6 active torsions:
REMARK  status: ('A' for Active; 'I' for Inactive)
REMARK    1  A    between atoms: O1_2  and  N1_3 
REMARK    2  A    between atoms: N1_3  and  C2_5 
REMARK    3  A    between atoms: C6_10  and  O3_11 
REMARK    4  A    between atoms: C8_14  and  N2_15 
REMARK       I    between atoms: N2_15  and  C9_17 
REMARK    5  A    between atoms: N4_19  and  O5_21 
REMARK    6  A    between atoms: C10_23  and  N5_24 
ROOT
HETATM    1  C2  UNL     1      14.369  52.614 -50.478  1.00  0.00     0.116 C 
HETATM    2  C3  UNL     1      13.175  52.426 -51.407  1.00  0.00     0.054 C 
HETATM    3  C4  UNL     1      13.349  51.041 -52.007  1.00  0.00     0.170 C 
HETATM    4  O2  UNL     1      14.496  50.400 -51.640  1.00  0.00    -0.380 OA
HETATM    5  C5  UNL     1      14.746  50.250 -50.308  1.00  0.00     0.184 C 
HETATM    6  C6  UNL     1      14.215  49.014 -49.670  1.00  0.00     0.291 C 
HETATM    7  O4  UNL     1      14.379  49.195 -48.275  1.00  0.00    -0.332 OA
HETATM    8  C8  UNL     1      13.315  49.999 -47.876  1.00  0.00     0.257 C 
HETATM    9  C10 UNL     1      13.099  51.189 -48.806  1.00  0.00     0.240 C 
HETATM   10  C11 UNL     1      14.379  51.506 -49.492  1.00  0.00     0.079 C 
ENDROOT
BRANCH   8  11
HETATM   11  N2  UNL     1      12.139  49.188 -47.715  1.00  0.00    -0.335 N 
HETATM   12  C9  UNL     1      11.143  49.418 -46.744  1.00  0.00     0.210 C 
HETATM   13  N3  UNL     1       9.793  49.783 -47.071  1.00  0.00    -0.062 NA
HETATM   14  N4  UNL     1      11.410  49.306 -45.487  1.00  0.00    -0.241 N 
ATOM     15  H4  UNL     1      12.360  49.045 -45.222  1.00  0.00     0.197 HD
ATOM     16  H2  UNL     1      12.018  48.393 -48.345  1.00  0.00     0.164 HD
BRANCH  14  17
HETATM   17  O5  UNL     1      10.508  49.511 -44.495  1.00  0.00    -0.287 OA
ATOM     18  H5  UNL     1      10.134  48.819 -43.963  1.00  0.00     0.244 HD
ENDBRANCH  14  17
ENDBRANCH   8  11
BRANCH   9  19
HETATM   19  N5  UNL     1      12.558  52.235 -47.975  1.00  0.00    -0.070 N 
ATOM     20  H53 UNL     1      13.270  52.809 -47.524  1.00  0.00     0.274 HD
ATOM     21  H52 UNL     1      12.113  52.986 -48.501  1.00  0.00     0.274 HD
ATOM     22  H51 UNL     1      11.933  51.767 -47.319  1.00  0.00     0.274 HD
ENDBRANCH   9  19
BRANCH   6  23
HETATM   23  O3  UNL     1      15.007  47.916 -49.999  1.00  0.00    -0.363 OA
HETATM   24  C7  UNL     1      16.259  47.989 -49.388  1.00  0.00     0.204 C 
ENDBRANCH   6  23
BRANCH   1  25
HETATM   25  N1  UNL     1      14.576  53.933 -50.026  1.00  0.00    -0.298 N 
ATOM     26  H1  UNL     1      14.370  54.735 -50.622  1.00  0.00     0.188 HD
BRANCH  25  27
HETATM   27  O1  UNL     1      15.049  54.091 -48.798  1.00  0.00    -0.290 OA
HETATM   28  C1  UNL     1      16.298  54.702 -48.740  1.00  0.00     0.237 C 
ENDBRANCH  25  27
ENDBRANCH   1  25
TORSDOF 6
ENDMDL
MODEL 5
REMARK VINA RESULT: -6.442525602      4.814      7.469
REMARK  6 active torsions:
REMARK  status: ('A' for Active; 'I' for Inactive)
REMARK    1  A    between atoms: O1_2  and  N1_3 
REMARK    2  A    between atoms: N1_3  and  C2_5 
REMARK    3  A    between atoms: C6_10  and  O3_11 
REMARK    4  A    between atoms: C8_14  and  N2_15 
REMARK       I    between atoms: N2_15  and  C9_17 
REMARK    5  A    between atoms: N4_19  and  O5_21 
REMARK    6  A    between atoms: C10_23  and  N5_24 
ROOT
HETATM    1  C2  UNL     1      19.724  48.313 -54.763  1.00  0.00     0.116 C 
HETATM    2  C3  UNL     1      19.873  49.788 -54.410  1.00  0.00     0.054 C 
HETATM    3  C4  UNL     1      19.260  50.543 -55.578  1.00  0.00     0.170 C 
HETATM    4  O2  UNL     1      18.833  49.754 -56.606  1.00  0.00    -0.380 OA
HETATM    5  C5  UNL     1      17.952  48.752 -56.320  1.00  0.00     0.184 C 
HETATM    6  C6  UNL     1      16.507  49.102 -56.395  1.00  0.00     0.291 C 
HETATM    7  O4  UNL     1      15.812  48.003 -55.832  1.00  0.00    -0.332 OA
HETATM    8  C8  UNL     1      15.902  48.173 -54.453  1.00  0.00     0.257 C 
HETATM    9  C10 UNL     1      17.314  48.530 -53.998  1.00  0.00     0.240 C 
HETATM   10  C11 UNL     1      18.289  48.027 -55.002  1.00  0.00     0.079 C 
ENDROOT
BRANCH   8  11
HETATM   11  N2  UNL     1      14.914  49.124 -54.024  1.00  0.00    -0.335 N 
HETATM   12  C9  UNL     1      14.349  49.153 -52.732  1.00  0.00     0.210 C 
HETATM   13  N3  UNL     1      14.540  50.239 -51.812  1.00  0.00    -0.062 NA
HETATM   14  N4  UNL     1      13.615  48.178 -52.312  1.00  0.00    -0.241 N 
ATOM     15  H4  UNL     1      13.458  47.393 -52.943  1.00  0.00     0.197 HD
ATOM     16  H2  UNL     1      14.600  49.823 -54.698  1.00  0.00     0.164 HD
BRANCH  14  17
HETATM   17  O5  UNL     1      13.038  48.132 -51.086  1.00  0.00    -0.287 OA
ATOM     18  H5  UNL     1      12.891  47.333 -50.594  1.00  0.00     0.244 HD
ENDBRANCH  14  17
ENDBRANCH   8  11
BRANCH   9  19
HETATM   19  N5  UNL     1      17.443  47.982 -52.671  1.00  0.00    -0.070 N 
ATOM     20  H53 UNL     1      16.559  47.923 -52.165  1.00  0.00     0.274 HD
ATOM     21  H52 UNL     1      17.655  46.985 -52.659  1.00  0.00     0.274 HD
ATOM     22  H51 UNL     1      18.145  48.556 -52.205  1.00  0.00     0.274 HD
ENDBRANCH   9  19
BRANCH   6  23
HETATM   23  O3  UNL     1      16.088  49.167 -57.722  1.00  0.00    -0.363 OA
HETATM   24  C7  UNL     1      15.889  50.486 -58.129  1.00  0.00     0.204 C 
ENDBRANCH   6  23
BRANCH   1  25
HETATM   25  N1  UNL     1      20.473  47.426 -53.963  1.00  0.00    -0.298 N 
ATOM     26  H1  UNL     1      20.463  46.420 -54.136  1.00  0.00     0.188 HD
BRANCH  25  27
HETATM   27  O1  UNL     1      21.190  47.947 -52.978  1.00  0.00    -0.290 OA
HETATM   28  C1  UNL     1      20.692  47.683 -51.705  1.00  0.00     0.237 C 
ENDBRANCH  25  27
ENDBRANCH   1  25
TORSDOF 6
ENDMDL
