MODEL 1
REMARK VINA RESULT: -9.365298872      0.000      0.000
REMARK  8 active torsions:
REMARK  status: ('A' for Active; 'I' for Inactive)
REMARK    1  A    between atoms: C2_5  and  C3_6 
REMARK    2  A    between atoms: N3_8  and  C5_9 
REMARK    3  A    between atoms: C5_9  and  C6_10 
REMARK    4  A    between atoms: C6_10  and  O1_11 
REMARK    5  A    between atoms: C8_17  and  C9_18 
REMARK    6  A    between atoms: C9_18  and  N6_19 
REMARK    7  A    between atoms: N6_19  and  C10_21 
REMARK    8  A    between atoms: N11_32  and  C14_33 
ROOT
HETATM    1  C10 UNL     1      38.064  56.748  17.379  1.00  0.00     0.138 A 
HETATM    2  N7  UNL     1      36.797  56.580  17.881  1.00  0.00    -0.337 N 
ATOM      3  H7  UNL     1      36.465  57.256  18.568  1.00  0.00     0.168 HD
HETATM    4  C11 UNL     1      35.976  55.599  17.534  1.00  0.00     0.183 A 
HETATM    5  N8  UNL     1      36.400  54.685  16.615  1.00  0.00    -0.336 N 
ATOM      6  H8  UNL     1      35.784  53.923  16.333  1.00  0.00     0.168 HD
HETATM    7  C12 UNL     1      37.609  54.786  16.090  1.00  0.00     0.154 A 
HETATM    8  C13 UNL     1      38.458  55.816  16.463  1.00  0.00     0.136 A 
HETATM    9  N9  UNL     1      39.672  55.642  15.716  1.00  0.00    -0.277 N 
ATOM     10  H9  UNL     1      40.395  56.346  15.571  1.00  0.00     0.184 HD
HETATM   11  N10 UNL     1      39.682  54.324  15.221  1.00  0.00    -0.018 NA
HETATM   12  N11 UNL     1      38.295  53.991  15.145  1.00  0.00    -0.253 N 
ENDROOT
BRANCH   1  13
HETATM   13  N6  UNL     1      38.710  57.700  17.796  1.00  0.00    -0.348 N 
ATOM     14  H6  UNL     1      39.678  57.384  17.843  1.00  0.00     0.167 HD
BRANCH  13  15
HETATM   15  C9  UNL     1      38.717  59.001  18.229  1.00  0.00     0.121 C 
BRANCH  15  16
HETATM   16  C8  UNL     1      39.494  59.199  19.520  1.00  0.00     0.068 A 
HETATM   17  N1  UNL     1      38.998  59.113  20.763  1.00  0.00    -0.295 N 
HETATM   18  C1  UNL     1      37.640  58.814  21.167  1.00  0.00     0.178 C 
HETATM   19  N2  UNL     1      39.977  59.349  21.646  1.00  0.00    -0.296 N 
HETATM   20  C2  UNL     1      41.131  59.595  20.997  1.00  0.00     0.079 A 
ATOM     21  H2  UNL     1      39.865  59.343  22.660  1.00  0.00     0.187 HD
HETATM   22  C7  UNL     1      40.830  59.501  19.664  1.00  0.00     0.066 A 
BRANCH  20  23
HETATM   23  C3  UNL     1      42.407  59.888  21.646  1.00  0.00     0.091 A 
HETATM   24  C4  UNL     1      43.004  61.123  21.781  1.00  0.00     0.141 A 
HETATM   25  N3  UNL     1      44.184  61.006  22.443  1.00  0.00    -0.283 N 
HETATM   26  N4  UNL     1      44.302  59.711  22.708  1.00  0.00    -0.020 NA
HETATM   27  N5  UNL     1      43.257  59.034  22.243  1.00  0.00    -0.281 N 
ATOM     28  H5  UNL     1      43.122  58.026  22.327  1.00  0.00     0.184 HD
BRANCH  25  29
HETATM   29  C5  UNL     1      45.100  62.079  22.780  1.00  0.00     0.172 C 
BRANCH  29  30
HETATM   30  C6  UNL     1      45.311  62.155  24.296  1.00  0.00     0.185 C 
BRANCH  30  31
HETATM   31  O1  UNL     1      45.771  60.941  24.772  1.00  0.00    -0.399 OA
ATOM     32  H1  UNL     1      46.550  60.677  24.296  1.00  0.00     0.209 HD
ENDBRANCH  30  31
ENDBRANCH  29  30
ENDBRANCH  25  29
ENDBRANCH  20  23
ENDBRANCH  15  16
ENDBRANCH  13  15
ENDBRANCH   1  13
BRANCH  12  33
HETATM   33  C14 UNL     1      37.789  53.024  14.242  1.00  0.00     0.111 C 
HETATM   34  C15 UNL     1      38.414  51.663  14.361  1.00  0.00     0.054 C 
HETATM   35  C16 UNL     1      38.878  51.131  13.000  1.00  0.00     0.234 C 
HETATM   36  N12 UNL     1      37.822  51.238  12.045  1.00  0.00    -0.075 N 
HETATM   37  C17 UNL     1      37.268  52.549  11.915  1.00  0.00     0.234 C 
ATOM     38 2H12 UNL     1      38.129  50.891  11.137  1.00  0.00     0.277 HD
ATOM     39 1H12 UNL     1      37.087  50.561  12.253  1.00  0.00     0.277 HD
HETATM   40  C18 UNL     1      38.017  53.524  12.805  1.00  0.00     0.054 C 
ENDBRANCH  12  33
TORSDOF 8
ENDMDL
MODEL 2
REMARK VINA RESULT: -8.937238797      1.781      2.590
REMARK  8 active torsions:
REMARK  status: ('A' for Active; 'I' for Inactive)
REMARK    1  A    between atoms: C2_5  and  C3_6 
REMARK    2  A    between atoms: N3_8  and  C5_9 
REMARK    3  A    between atoms: C5_9  and  C6_10 
REMARK    4  A    between atoms: C6_10  and  O1_11 
REMARK    5  A    between atoms: C8_17  and  C9_18 
REMARK    6  A    between atoms: C9_18  and  N6_19 
REMARK    7  A    between atoms: N6_19  and  C10_21 
REMARK    8  A    between atoms: N11_32  and  C14_33 
ROOT
HETATM    1  C10 UNL     1      37.673  55.782  15.882  1.00  0.00     0.138 A 
HETATM    2  N7  UNL     1      37.252  54.801  16.746  1.00  0.00    -0.337 N 
ATOM      3  H7  UNL     1      36.956  55.085  17.680  1.00  0.00     0.168 HD
HETATM    4  C11 UNL     1      37.205  53.510  16.450  1.00  0.00     0.183 A 
HETATM    5  N8  UNL     1      37.595  53.109  15.206  1.00  0.00    -0.336 N 
ATOM      6  H8  UNL     1      37.565  52.121  14.957  1.00  0.00     0.168 HD
HETATM    7  C12 UNL     1      38.011  54.001  14.323  1.00  0.00     0.154 A 
HETATM    8  C13 UNL     1      38.056  55.348  14.647  1.00  0.00     0.136 A 
HETATM    9  N9  UNL     1      38.542  56.036  13.484  1.00  0.00    -0.277 N 
ATOM     10  H9  UNL     1      38.466  57.036  13.301  1.00  0.00     0.184 HD
HETATM   11  N10 UNL     1      39.140  55.080  12.642  1.00  0.00    -0.018 NA
HETATM   12  N11 UNL     1      38.472  53.867  12.994  1.00  0.00    -0.253 N 
ENDROOT
BRANCH   1  13
HETATM   13  N6  UNL     1      37.665  56.933  16.297  1.00  0.00    -0.348 N 
ATOM     14  H6  UNL     1      38.585  57.316  16.079  1.00  0.00     0.167 HD
BRANCH  13  15
HETATM   15  C9  UNL     1      36.977  57.940  16.922  1.00  0.00     0.121 C 
BRANCH  15  16
HETATM   16  C8  UNL     1      37.565  58.321  18.271  1.00  0.00     0.068 A 
HETATM   17  N1  UNL     1      36.953  58.217  19.459  1.00  0.00    -0.295 N 
HETATM   18  C1  UNL     1      35.620  57.726  19.741  1.00  0.00     0.178 C 
HETATM   19  N2  UNL     1      37.780  58.648  20.421  1.00  0.00    -0.296 N 
HETATM   20  C2  UNL     1      38.948  59.043  19.879  1.00  0.00     0.079 A 
ATOM     21  H2  UNL     1      37.558  58.674  21.416  1.00  0.00     0.187 HD
HETATM   22  C7  UNL     1      38.815  58.839  18.531  1.00  0.00     0.066 A 
BRANCH  20  23
HETATM   23  C3  UNL     1      40.084  59.566  20.635  1.00  0.00     0.091 A 
HETATM   24  C4  UNL     1      41.375  59.733  20.181  1.00  0.00     0.141 A 
HETATM   25  N3  UNL     1      42.157  60.247  21.166  1.00  0.00    -0.283 N 
HETATM   26  N4  UNL     1      41.347  60.390  22.207  1.00  0.00    -0.020 NA
HETATM   27  N5  UNL     1      40.115  59.993  21.910  1.00  0.00    -0.281 N 
ATOM     28  H5  UNL     1      39.319  60.009  22.548  1.00  0.00     0.184 HD
BRANCH  25  29
HETATM   29  C5  UNL     1      43.569  60.565  21.075  1.00  0.00     0.172 C 
BRANCH  29  30
HETATM   30  C6  UNL     1      44.260  60.356  22.427  1.00  0.00     0.185 C 
BRANCH  30  31
HETATM   31  O1  UNL     1      43.902  59.130  22.958  1.00  0.00    -0.399 OA
ATOM     32  H1  UNL     1      44.568  58.831  23.565  1.00  0.00     0.209 HD
ENDBRANCH  30  31
ENDBRANCH  29  30
ENDBRANCH  25  29
ENDBRANCH  20  23
ENDBRANCH  15  16
ENDBRANCH  13  15
ENDBRANCH   1  13
BRANCH  12  33
HETATM   33  C14 UNL     1      38.338  52.779  12.098  1.00  0.00     0.111 C 
HETATM   34  C15 UNL     1      38.745  53.075  10.682  1.00  0.00     0.054 C 
HETATM   35  C16 UNL     1      37.667  52.647   9.681  1.00  0.00     0.234 C 
HETATM   36  N12 UNL     1      37.268  51.300   9.934  1.00  0.00    -0.075 N 
HETATM   37  C17 UNL     1      36.844  51.046  11.275  1.00  0.00     0.234 C 
ATOM     38 2H12 UNL     1      36.546  51.014   9.274  1.00  0.00     0.277 HD
ATOM     39 1H12 UNL     1      38.014  50.655   9.670  1.00  0.00     0.277 HD
HETATM   40  C18 UNL     1      36.866  52.332  12.082  1.00  0.00     0.054 C 
ENDBRANCH  12  33
TORSDOF 8
ENDMDL
MODEL 3
REMARK VINA RESULT: -8.935426537      1.738      2.471
REMARK  8 active torsions:
REMARK  status: ('A' for Active; 'I' for Inactive)
REMARK    1  A    between atoms: C2_5  and  C3_6 
REMARK    2  A    between atoms: N3_8  and  C5_9 
REMARK    3  A    between atoms: C5_9  and  C6_10 
REMARK    4  A    between atoms: C6_10  and  O1_11 
REMARK    5  A    between atoms: C8_17  and  C9_18 
REMARK    6  A    between atoms: C9_18  and  N6_19 
REMARK    7  A    between atoms: N6_19  and  C10_21 
REMARK    8  A    between atoms: N11_32  and  C14_33 
ROOT
HETATM    1  C10 UNL     1      37.582  55.119  16.713  1.00  0.00     0.138 A 
HETATM    2  N7  UNL     1      37.642  53.937  17.410  1.00  0.00    -0.337 N 
ATOM      3  H7  UNL     1      37.431  53.962  18.408  1.00  0.00     0.168 HD
HETATM    4  C11 UNL     1      37.956  52.765  16.876  1.00  0.00     0.183 A 
HETATM    5  N8  UNL     1      38.241  52.709  15.544  1.00  0.00    -0.336 N 
ATOM      6  H8  UNL     1      38.485  51.818  15.113  1.00  0.00     0.168 HD
HETATM    7  C12 UNL     1      38.202  53.808  14.812  1.00  0.00     0.154 A 
HETATM    8  C13 UNL     1      37.873  55.028  15.383  1.00  0.00     0.136 A 
HETATM    9  N9  UNL     1      37.917  56.003  14.330  1.00  0.00    -0.277 N 
ATOM     10  H9  UNL     1      37.500  56.933  14.355  1.00  0.00     0.184 HD
HETATM   11  N10 UNL     1      38.638  55.443  13.260  1.00  0.00    -0.018 NA
HETATM   12  N11 UNL     1      38.455  54.037  13.440  1.00  0.00    -0.253 N 
ENDROOT
BRANCH   1  13
HETATM   13  N6  UNL     1      37.280  56.124  17.341  1.00  0.00    -0.348 N 
ATOM     14  H6  UNL     1      37.248  55.844  18.321  1.00  0.00     0.167 HD
BRANCH  13  15
HETATM   15  C9  UNL     1      36.965  57.458  17.321  1.00  0.00     0.121 C 
BRANCH  15  16
HETATM   16  C8  UNL     1      37.824  58.292  18.257  1.00  0.00     0.068 A 
HETATM   17  N1  UNL     1      37.396  59.284  19.051  1.00  0.00    -0.295 N 
HETATM   18  C1  UNL     1      36.047  59.786  19.211  1.00  0.00     0.178 C 
HETATM   19  N2  UNL     1      38.437  59.786  19.729  1.00  0.00    -0.296 N 
HETATM   20  C2  UNL     1      39.564  59.133  19.390  1.00  0.00     0.079 A 
ATOM     21  H2  UNL     1      38.383  60.550  20.403  1.00  0.00     0.187 HD
HETATM   22  C7  UNL     1      39.182  58.196  18.466  1.00  0.00     0.066 A 
BRANCH  20  23
HETATM   23  C3  UNL     1      40.889  59.415  19.938  1.00  0.00     0.091 A 
HETATM   24  C4  UNL     1      41.251  60.494  20.717  1.00  0.00     0.141 A 
HETATM   25  N3  UNL     1      42.568  60.418  21.042  1.00  0.00    -0.283 N 
HETATM   26  N4  UNL     1      43.000  59.304  20.465  1.00  0.00    -0.020 NA
HETATM   27  N5  UNL     1      42.019  58.697  19.808  1.00  0.00    -0.281 N 
ATOM     28  H5  UNL     1      42.108  57.824  19.287  1.00  0.00     0.184 HD
BRANCH  25  29
HETATM   29  C5  UNL     1      43.318  61.362  21.849  1.00  0.00     0.172 C 
BRANCH  29  30
HETATM   30  C6  UNL     1      44.531  60.681  22.491  1.00  0.00     0.185 C 
BRANCH  30  31
HETATM   31  O1  UNL     1      44.161  59.464  23.033  1.00  0.00    -0.399 OA
ATOM     32  H1  UNL     1      43.985  58.838  22.340  1.00  0.00     0.209 HD
ENDBRANCH  30  31
ENDBRANCH  29  30
ENDBRANCH  25  29
ENDBRANCH  20  23
ENDBRANCH  15  16
ENDBRANCH  13  15
ENDBRANCH   1  13
BRANCH  12  33
HETATM   33  C14 UNL     1      38.525  53.112  12.370  1.00  0.00     0.111 C 
HETATM   34  C15 UNL     1      39.066  53.676  11.085  1.00  0.00     0.054 C 
HETATM   35  C16 UNL     1      38.155  53.353   9.897  1.00  0.00     0.234 C 
HETATM   36  N12 UNL     1      37.853  51.957   9.874  1.00  0.00    -0.075 N 
HETATM   37  C17 UNL     1      37.300  51.448  11.089  1.00  0.00     0.234 C 
ATOM     38 2H12 UNL     1      37.242  51.740   9.087  1.00  0.00     0.277 HD
ATOM     39 1H12 UNL     1      38.679  51.421   9.607  1.00  0.00     0.277 HD
HETATM   40  C18 UNL     1      37.112  52.573  12.089  1.00  0.00     0.054 C 
ENDBRANCH  12  33
TORSDOF 8
ENDMDL
MODEL 4
REMARK VINA RESULT: -8.925650485      5.469      7.798
REMARK  8 active torsions:
REMARK  status: ('A' for Active; 'I' for Inactive)
REMARK    1  A    between atoms: C2_5  and  C3_6 
REMARK    2  A    between atoms: N3_8  and  C5_9 
REMARK    3  A    between atoms: C5_9  and  C6_10 
REMARK    4  A    between atoms: C6_10  and  O1_11 
REMARK    5  A    between atoms: C8_17  and  C9_18 
REMARK    6  A    between atoms: C9_18  and  N6_19 
REMARK    7  A    between atoms: N6_19  and  C10_21 
REMARK    8  A    between atoms: N11_32  and  C14_33 
ROOT
HETATM    1  C10 UNL     1      37.358  54.925  17.075  1.00  0.00     0.138 A 
HETATM    2  N7  UNL     1      37.415  53.704  17.701  1.00  0.00    -0.337 N 
ATOM      3  H7  UNL     1      37.163  53.664  18.688  1.00  0.00     0.168 HD
HETATM    4  C11 UNL     1      37.775  52.573  17.110  1.00  0.00     0.183 A 
HETATM    5  N8  UNL     1      38.115  52.604  15.790  1.00  0.00    -0.336 N 
ATOM      6  H8  UNL     1      38.394  51.746  15.316  1.00  0.00     0.168 HD
HETATM    7  C12 UNL     1      38.082  53.746  15.125  1.00  0.00     0.154 A 
HETATM    8  C13 UNL     1      37.704  54.921  15.755  1.00  0.00     0.136 A 
HETATM    9  N9  UNL     1      37.770  55.960  14.766  1.00  0.00    -0.277 N 
ATOM     10  H9  UNL     1      37.333  56.879  14.830  1.00  0.00     0.184 HD
HETATM   11  N10 UNL     1      38.546  55.480  13.695  1.00  0.00    -0.018 NA
HETATM   12  N11 UNL     1      38.385  54.063  13.782  1.00  0.00    -0.253 N 
ENDROOT
BRANCH   1  13
HETATM   13  N6  UNL     1      37.010  55.884  17.750  1.00  0.00    -0.348 N 
ATOM     14  H6  UNL     1      37.658  55.924  18.536  1.00  0.00     0.167 HD
BRANCH  13  15
HETATM   15  C9  UNL     1      36.140  56.929  17.926  1.00  0.00     0.121 C 
BRANCH  15  16
HETATM   16  C8  UNL     1      35.471  56.930  19.290  1.00  0.00     0.068 A 
HETATM   17  N1  UNL     1      35.912  57.562  20.387  1.00  0.00    -0.295 N 
HETATM   18  C1  UNL     1      37.099  58.378  20.536  1.00  0.00     0.178 C 
HETATM   19  N2  UNL     1      35.063  57.334  21.399  1.00  0.00    -0.296 N 
HETATM   20  C2  UNL     1      34.052  56.549  20.982  1.00  0.00     0.079 A 
ATOM     21  H2  UNL     1      35.167  57.701  22.345  1.00  0.00     0.187 HD
HETATM   22  C7  UNL     1      34.306  56.294  19.659  1.00  0.00     0.066 A 
BRANCH  20  23
HETATM   23  C3  UNL     1      32.941  56.103  21.820  1.00  0.00     0.091 A 
HETATM   24  C4  UNL     1      32.878  56.132  23.197  1.00  0.00     0.141 A 
HETATM   25  N3  UNL     1      31.687  55.638  23.624  1.00  0.00    -0.283 N 
HETATM   26  N4  UNL     1      31.034  55.312  22.516  1.00  0.00    -0.020 NA
HETATM   27  N5  UNL     1      31.761  55.582  21.438  1.00  0.00    -0.281 N 
ATOM     28  H5  UNL     1      31.471  55.420  20.473  1.00  0.00     0.184 HD
BRANCH  25  29
HETATM   29  C5  UNL     1      31.245  55.507  24.999  1.00  0.00     0.172 C 
BRANCH  29  30
HETATM   30  C6  UNL     1      29.732  55.718  25.104  1.00  0.00     0.185 C 
BRANCH  30  31
HETATM   31  O1  UNL     1      29.067  54.538  24.822  1.00  0.00    -0.399 OA
ATOM     32  H1  UNL     1      28.203  54.548  25.216  1.00  0.00     0.209 HD
ENDBRANCH  30  31
ENDBRANCH  29  30
ENDBRANCH  25  29
ENDBRANCH  20  23
ENDBRANCH  15  16
ENDBRANCH  13  15
ENDBRANCH   1  13
BRANCH  12  33
HETATM   33  C14 UNL     1      38.518  53.207  12.661  1.00  0.00     0.111 C 
HETATM   34  C15 UNL     1      39.188  53.831  11.468  1.00  0.00     0.054 C 
HETATM   35  C16 UNL     1      38.374  53.622  10.187  1.00  0.00     0.234 C 
HETATM   36  N12 UNL     1      38.029  52.243  10.044  1.00  0.00    -0.075 N 
HETATM   37  C17 UNL     1      37.355  51.678  11.170  1.00  0.00     0.234 C 
ATOM     38 2H12 UNL     1      37.482  52.101   9.196  1.00  0.00     0.277 HD
ATOM     39 1H12 UNL     1      38.857  51.693   9.813  1.00  0.00     0.277 HD
HETATM   40  C18 UNL     1      37.117  52.743  12.225  1.00  0.00     0.054 C 
ENDBRANCH  12  33
TORSDOF 8
ENDMDL
MODEL 5
REMARK VINA RESULT: -8.776920563      5.762     10.268
REMARK  8 active torsions:
REMARK  status: ('A' for Active; 'I' for Inactive)
REMARK    1  A    between atoms: C2_5  and  C3_6 
REMARK    2  A    between atoms: N3_8  and  C5_9 
REMARK    3  A    between atoms: C5_9  and  C6_10 
REMARK    4  A    between atoms: C6_10  and  O1_11 
REMARK    5  A    between atoms: C8_17  and  C9_18 
REMARK    6  A    between atoms: C9_18  and  N6_19 
REMARK    7  A    between atoms: N6_19  and  C10_21 
REMARK    8  A    between atoms: N11_32  and  C14_33 
ROOT
HETATM    1  C10 UNL     1      34.378  59.657  20.959  1.00  0.00     0.138 A 
HETATM    2  N7  UNL     1      33.600  60.789  20.946  1.00  0.00    -0.337 N 
ATOM      3  H7  UNL     1      33.952  61.601  20.440  1.00  0.00     0.168 HD
HETATM    4  C11 UNL     1      32.424  60.899  21.548  1.00  0.00     0.183 A 
HETATM    5  N8  UNL     1      31.935  59.824  22.229  1.00  0.00    -0.336 N 
ATOM      6  H8  UNL     1      31.032  59.887  22.698  1.00  0.00     0.168 HD
HETATM    7  C12 UNL     1      32.631  58.701  22.282  1.00  0.00     0.154 A 
HETATM    8  C13 UNL     1      33.860  58.600  21.650  1.00  0.00     0.136 A 
HETATM    9  N9  UNL     1      34.343  57.270  21.894  1.00  0.00    -0.277 N 
ATOM     10  H9  UNL     1      35.085  56.796  21.381  1.00  0.00     0.184 HD
HETATM   11  N10 UNL     1      33.606  56.740  22.970  1.00  0.00    -0.018 NA
HETATM   12  N11 UNL     1      32.374  57.462  22.912  1.00  0.00    -0.253 N 
ENDROOT
BRANCH   1  13
HETATM   13  N6  UNL     1      35.444  59.704  20.361  1.00  0.00    -0.348 N 
ATOM     14  H6  UNL     1      36.170  59.637  21.074  1.00  0.00     0.167 HD
BRANCH  13  15
HETATM   15  C9  UNL     1      36.103  59.806  19.163  1.00  0.00     0.121 C 
BRANCH  15  16
HETATM   16  C8  UNL     1      36.599  58.470  18.635  1.00  0.00     0.068 A 
HETATM   17  N1  UNL     1      37.862  58.170  18.301  1.00  0.00    -0.295 N 
HETATM   18  C1  UNL     1      39.032  59.022  18.363  1.00  0.00     0.178 C 
HETATM   19  N2  UNL     1      37.917  56.900  17.877  1.00  0.00    -0.296 N 
HETATM   20  C2  UNL     1      36.690  56.347  17.925  1.00  0.00     0.079 A 
ATOM     21  H2  UNL     1      38.763  56.424  17.563  1.00  0.00     0.187 HD
HETATM   22  C7  UNL     1      35.862  57.329  18.400  1.00  0.00     0.066 A 
BRANCH  20  23
HETATM   23  C3  UNL     1      36.380  54.972  17.540  1.00  0.00     0.091 A 
HETATM   24  C4  UNL     1      37.178  53.861  17.715  1.00  0.00     0.141 A 
HETATM   25  N3  UNL     1      36.556  52.754  17.234  1.00  0.00    -0.283 N 
HETATM   26  N4  UNL     1      35.391  53.189  16.772  1.00  0.00    -0.020 NA
HETATM   27  N5  UNL     1      35.269  54.500  16.945  1.00  0.00    -0.281 N 
ATOM     28  H5  UNL     1      34.462  55.060  16.671  1.00  0.00     0.184 HD
BRANCH  25  29
HETATM   29  C5  UNL     1      37.071  51.398  17.239  1.00  0.00     0.172 C 
BRANCH  29  30
HETATM   30  C6  UNL     1      36.458  50.589  18.387  1.00  0.00     0.185 C 
BRANCH  30  31
HETATM   31  O1  UNL     1      35.090  50.784  18.426  1.00  0.00    -0.399 OA
ATOM     32  H1  UNL     1      34.852  51.275  19.204  1.00  0.00     0.209 HD
ENDBRANCH  30  31
ENDBRANCH  29  30
ENDBRANCH  25  29
ENDBRANCH  20  23
ENDBRANCH  15  16
ENDBRANCH  13  15
ENDBRANCH   1  13
BRANCH  12  33
HETATM   33  C14 UNL     1      31.157  56.942  23.416  1.00  0.00     0.111 C 
HETATM   34  C15 UNL     1      31.045  56.943  24.915  1.00  0.00     0.054 C 
HETATM   35  C16 UNL     1      30.615  55.574  25.452  1.00  0.00     0.234 C 
HETATM   36  N12 UNL     1      29.458  55.113  24.752  1.00  0.00    -0.075 N 
HETATM   37  C17 UNL     1      29.598  55.078  23.331  1.00  0.00     0.234 C 
ATOM     38 2H12 UNL     1      29.173  54.199  25.103  1.00  0.00     0.277 HD
ATOM     39 1H12 UNL     1      28.642  55.666  25.015  1.00  0.00     0.277 HD
HETATM   40  C18 UNL     1      31.004  55.489  22.933  1.00  0.00     0.054 C 
ENDBRANCH  12  33
TORSDOF 8
ENDMDL
