MODEL 1
REMARK VINA RESULT: -8.489467394      0.000      0.000
REMARK  10 active torsions:
REMARK  status: ('A' for Active; 'I' for Inactive)
REMARK    1  A    between atoms: C2_7  and  C3_8 
REMARK    2  A    between atoms: C5_16  and  N6_17 
REMARK    3  A    between atoms: C11_27  and  C12_28 
REMARK    4  A    between atoms: C12_28  and  N9_29 
REMARK    5  A    between atoms: N9_29  and  C13_31 
REMARK    6  A    between atoms: C14_33  and  C15_34 
REMARK    7  A    between atoms: C15_34  and  O4_35 
REMARK    8  A    between atoms: C16_37  and  O5_38 
REMARK    9  A    between atoms: C17_40  and  O6_41 
REMARK   10  A    between atoms: C18_43  and  O7_44 
ROOT
HETATM    1  C3  UNL     1      72.745  82.578 112.836  1.00  0.00     0.106 A 
HETATM    2  N3  UNL     1      72.428  81.240 112.816  1.00  0.00    -0.284 N 
ATOM      3  H3  UNL     1      72.506  80.646 111.990  1.00  0.00     0.188 HD
HETATM    4  N4  UNL     1      72.018  80.826 113.973  1.00  0.00    -0.187 N 
HETATM    5  C4  UNL     1      71.597  79.631 114.484  1.00  0.00     0.361 A 
HETATM    6  O2  UNL     1      71.575  78.661 113.686  1.00  0.00    -0.244 OA
HETATM    7  N5  UNL     1      71.233  79.547 115.776  1.00  0.00    -0.139 N 
ATOM      8  H5  UNL     1      70.920  78.647 116.140  1.00  0.00     0.189 HD
HETATM    9  C5  UNL     1      71.266  80.601 116.608  1.00  0.00     0.686 A 
HETATM   10  N8  UNL     1      71.680  81.774 116.103  1.00  0.00    -0.174 N 
ATOM     11  H8  UNL     1      71.718  82.596 116.707  1.00  0.00     0.186 HD
HETATM   12  C10 UNL     1      72.049  81.882 114.809  1.00  0.00     0.158 A 
HETATM   13  C11 UNL     1      72.504  83.000 114.120  1.00  0.00     0.038 A 
ENDROOT
BRANCH  13  14
HETATM   14  C12 UNL     1      72.708  84.390 114.641  1.00  0.00     0.161 C 
BRANCH  14  15
HETATM   15  N9  UNL     1      71.676  85.277 114.229  1.00  0.00    -0.391 N 
ATOM     16  H9  UNL     1      70.704  84.974 114.154  1.00  0.00     0.156 HD
BRANCH  15  17
HETATM   17  C13 UNL     1      72.077  86.632 113.922  1.00  0.00     0.249 C 
HETATM   18  O3  UNL     1      72.892  87.008 115.024  1.00  0.00    -0.354 OA
HETATM   19  C14 UNL     1      73.130  88.360 115.054  1.00  0.00     0.179 C 
HETATM   20  C16 UNL     1      73.911  88.819 113.837  1.00  0.00     0.180 C 
HETATM   21  C17 UNL     1      73.362  88.243 112.585  1.00  0.00     0.182 C 
HETATM   22  C18 UNL     1      72.873  86.810 112.684  1.00  0.00     0.197 C 
BRANCH  19  23
HETATM   23  C15 UNL     1      73.959  88.679 116.266  1.00  0.00     0.198 C 
BRANCH  23  24
HETATM   24  O4  UNL     1      73.205  88.274 117.387  1.00  0.00    -0.398 OA
ATOM     25  H4  UNL     1      73.428  87.365 117.550  1.00  0.00     0.209 HD
ENDBRANCH  23  24
ENDBRANCH  19  23
BRANCH  20  26
HETATM   26  O5  UNL     1      73.770  90.225 113.783  1.00  0.00    -0.390 OA
ATOM     27  H5  UNL     1      72.915  90.393 113.404  1.00  0.00     0.210 HD
ENDBRANCH  20  26
BRANCH  21  28
HETATM   28  O6  UNL     1      72.346  89.036 112.054  1.00  0.00    -0.390 OA
ATOM     29  H6  UNL     1      72.003  88.674 111.245  1.00  0.00     0.210 HD
ENDBRANCH  21  28
BRANCH  22  30
HETATM   30  O7  UNL     1      72.151  86.610 111.495  1.00  0.00    -0.389 OA
ATOM     31  H7  UNL     1      72.237  85.739 111.126  1.00  0.00     0.210 HD
ENDBRANCH  22  30
ENDBRANCH  15  17
ENDBRANCH  14  15
ENDBRANCH  13  14
BRANCH   1  32
HETATM   32  C2  UNL     1      73.232  83.326 111.688  1.00  0.00     0.153 A 
HETATM   33  N2  UNL     1      72.431  83.778 110.684  1.00  0.00    -0.280 N 
HETATM   34  N1  UNL     1      73.183  84.409 109.814  1.00  0.00    -0.250 N 
ATOM     35  H2  UNL     1      71.421  83.648 110.619  1.00  0.00     0.189 HD
HETATM   36  C1  UNL     1      74.467  84.392 110.209  1.00  0.00     0.340 A 
ATOM     37  H1  UNL     1      72.842  84.850 108.959  1.00  0.00     0.192 HD
HETATM   38  O1  UNL     1      75.491  84.874 109.673  1.00  0.00    -0.245 OA
HETATM   39  N10 UNL     1      74.473  83.709 111.383  1.00  0.00    -0.290 N 
ATOM     40  H10 UNL     1      75.301  83.518 111.947  1.00  0.00     0.172 HD
ENDBRANCH   1  32
BRANCH   9  41
HETATM   41  N6  UNL     1      70.867  80.443 117.964  1.00  0.00    -0.214 N 
HETATM   42  C6  UNL     1      69.722  81.102 118.520  1.00  0.00     0.160 C 
HETATM   43  C7  UNL     1      70.067  81.609 119.903  1.00  0.00     0.134 C 
HETATM   44  N7  UNL     1      71.458  81.635 120.191  1.00  0.00    -0.418 N 
HETATM   45  C8  UNL     1      72.172  80.430 119.953  1.00  0.00     0.134 C 
ATOM     46  H7  UNL     1      71.918  82.473 120.549  1.00  0.00     0.153 HD
HETATM   47  C9  UNL     1      71.638  79.575 118.856  1.00  0.00     0.160 C 
ENDBRANCH   9  41
TORSDOF 10
ENDMDL
MODEL 2
REMARK VINA RESULT: -8.311311967      1.037      2.198
REMARK  10 active torsions:
REMARK  status: ('A' for Active; 'I' for Inactive)
REMARK    1  A    between atoms: C2_7  and  C3_8 
REMARK    2  A    between atoms: C5_16  and  N6_17 
REMARK    3  A    between atoms: C11_27  and  C12_28 
REMARK    4  A    between atoms: C12_28  and  N9_29 
REMARK    5  A    between atoms: N9_29  and  C13_31 
REMARK    6  A    between atoms: C14_33  and  C15_34 
REMARK    7  A    between atoms: C15_34  and  O4_35 
REMARK    8  A    between atoms: C16_37  and  O5_38 
REMARK    9  A    between atoms: C17_40  and  O6_41 
REMARK   10  A    between atoms: C18_43  and  O7_44 
ROOT
HETATM    1  C3  UNL     1      72.653  82.998 113.028  1.00  0.00     0.106 A 
HETATM    2  N3  UNL     1      72.448  81.640 112.952  1.00  0.00    -0.284 N 
ATOM      3  H3  UNL     1      72.577  81.088 112.104  1.00  0.00     0.188 HD
HETATM    4  N4  UNL     1      72.072  81.146 114.089  1.00  0.00    -0.187 N 
HETATM    5  C4  UNL     1      71.751  79.901 114.549  1.00  0.00     0.361 A 
HETATM    6  O2  UNL     1      71.812  78.966 113.713  1.00  0.00    -0.244 OA
HETATM    7  N5  UNL     1      71.393  79.734 115.836  1.00  0.00    -0.139 N 
ATOM      8  H5  UNL     1      71.155  78.797 116.161  1.00  0.00     0.189 HD
HETATM    9  C5  UNL     1      71.336  80.753 116.709  1.00  0.00     0.686 A 
HETATM   10  N8  UNL     1      71.652  81.976 116.255  1.00  0.00    -0.174 N 
ATOM     11  H8  UNL     1      71.620  82.773 116.891  1.00  0.00     0.186 HD
HETATM   12  C10 UNL     1      72.014  82.167 114.968  1.00  0.00     0.158 A 
HETATM   13  C11 UNL     1      72.374  83.345 114.327  1.00  0.00     0.038 A 
ENDROOT
BRANCH  13  14
HETATM   14  C12 UNL     1      72.461  84.725 114.905  1.00  0.00     0.161 C 
BRANCH  14  15
HETATM   15  N9  UNL     1      73.794  85.082 115.251  1.00  0.00    -0.391 N 
ATOM     16  H9  UNL     1      74.441  84.409 115.663  1.00  0.00     0.156 HD
BRANCH  15  17
HETATM   17  C13 UNL     1      74.183  86.449 114.987  1.00  0.00     0.249 C 
HETATM   18  O3  UNL     1      73.447  86.798 113.823  1.00  0.00    -0.354 OA
HETATM   19  C14 UNL     1      73.901  87.962 113.252  1.00  0.00     0.179 C 
HETATM   20  C16 UNL     1      73.721  89.148 114.180  1.00  0.00     0.180 C 
HETATM   21  C17 UNL     1      74.165  88.838 115.560  1.00  0.00     0.182 C 
HETATM   22  C18 UNL     1      73.856  87.434 116.046  1.00  0.00     0.197 C 
BRANCH  19  23
HETATM   23  C15 UNL     1      73.102  88.236 112.010  1.00  0.00     0.198 C 
BRANCH  23  24
HETATM   24  O4  UNL     1      74.014  88.696 111.037  1.00  0.00    -0.398 OA
ATOM     25  H4  UNL     1      74.250  87.942 110.509  1.00  0.00     0.209 HD
ENDBRANCH  23  24
ENDBRANCH  19  23
BRANCH  20  26
HETATM   26  O5  UNL     1      74.540  90.180 113.666  1.00  0.00    -0.390 OA
ATOM     27  H5  UNL     1      74.349  90.954 114.184  1.00  0.00     0.210 HD
ENDBRANCH  20  26
BRANCH  21  28
HETATM   28  O6  UNL     1      75.525  89.091 115.734  1.00  0.00    -0.390 OA
ATOM     29  H6  UNL     1      75.682  89.689 116.456  1.00  0.00     0.210 HD
ENDBRANCH  21  28
BRANCH  22  30
HETATM   30  O7  UNL     1      74.618  87.300 117.219  1.00  0.00    -0.389 OA
ATOM     31  H7  UNL     1      74.488  87.995 117.853  1.00  0.00     0.210 HD
ENDBRANCH  22  30
ENDBRANCH  15  17
ENDBRANCH  14  15
ENDBRANCH  13  14
BRANCH   1  32
HETATM   32  C2  UNL     1      73.078  83.829 111.913  1.00  0.00     0.153 A 
HETATM   33  N2  UNL     1      72.355  83.990 110.770  1.00  0.00    -0.280 N 
HETATM   34  N1  UNL     1      73.018  84.799 109.978  1.00  0.00    -0.250 N 
ATOM     35  H2  UNL     1      71.455  83.558 110.566  1.00  0.00     0.189 HD
HETATM   36  C1  UNL     1      74.166  85.184 110.561  1.00  0.00     0.340 A 
ATOM     37  H1  UNL     1      72.708  85.094 109.052  1.00  0.00     0.192 HD
HETATM   38  O1  UNL     1      75.075  85.942 110.150  1.00  0.00    -0.245 OA
HETATM   39  N10 UNL     1      74.181  84.565 111.770  1.00  0.00    -0.290 N 
ATOM     40  H10 UNL     1      74.925  84.650 112.463  1.00  0.00     0.172 HD
ENDBRANCH   1  32
BRANCH   9  41
HETATM   41  N6  UNL     1      70.949  80.507 118.055  1.00  0.00    -0.214 N 
HETATM   42  C6  UNL     1      69.736  81.019 118.623  1.00  0.00     0.160 C 
HETATM   43  C7  UNL     1      70.016  81.514 120.024  1.00  0.00     0.134 C 
HETATM   44  N7  UNL     1      71.395  81.681 120.326  1.00  0.00    -0.418 N 
HETATM   45  C8  UNL     1      72.236  80.569 120.055  1.00  0.00     0.134 C 
ATOM     46  H7  UNL     1      71.759  82.551 120.715  1.00  0.00     0.153 HD
HETATM   47  C9  UNL     1      71.804  79.698 118.926  1.00  0.00     0.160 C 
ENDBRANCH   9  41
TORSDOF 10
ENDMDL
MODEL 3
REMARK VINA RESULT: -8.206387443      4.820      7.676
REMARK  10 active torsions:
REMARK  status: ('A' for Active; 'I' for Inactive)
REMARK    1  A    between atoms: C2_7  and  C3_8 
REMARK    2  A    between atoms: C5_16  and  N6_17 
REMARK    3  A    between atoms: C11_27  and  C12_28 
REMARK    4  A    between atoms: C12_28  and  N9_29 
REMARK    5  A    between atoms: N9_29  and  C13_31 
REMARK    6  A    between atoms: C14_33  and  C15_34 
REMARK    7  A    between atoms: C15_34  and  O4_35 
REMARK    8  A    between atoms: C16_37  and  O5_38 
REMARK    9  A    between atoms: C17_40  and  O6_41 
REMARK   10  A    between atoms: C18_43  and  O7_44 
ROOT
HETATM    1  C3  UNL     1      73.992  88.372 117.164  1.00  0.00     0.106 A 
HETATM    2  N3  UNL     1      73.948  88.973 118.400  1.00  0.00    -0.284 N 
ATOM      3  H3  UNL     1      73.216  89.618 118.698  1.00  0.00     0.188 HD
HETATM    4  N4  UNL     1      74.951  88.622 119.141  1.00  0.00    -0.187 N 
HETATM    5  C4  UNL     1      75.372  88.912 120.408  1.00  0.00     0.361 A 
HETATM    6  O2  UNL     1      74.657  89.711 121.062  1.00  0.00    -0.244 OA
HETATM    7  N5  UNL     1      76.498  88.350 120.884  1.00  0.00    -0.139 N 
ATOM      8  H5  UNL     1      76.797  88.579 121.831  1.00  0.00     0.189 HD
HETATM    9  C5  UNL     1      77.244  87.499 120.161  1.00  0.00     0.686 A 
HETATM   10  N8  UNL     1      76.828  87.215 118.917  1.00  0.00    -0.174 N 
ATOM     11  H8  UNL     1      77.371  86.572 118.339  1.00  0.00     0.186 HD
HETATM   12  C10 UNL     1      75.702  87.768 118.418  1.00  0.00     0.158 A 
HETATM   13  C11 UNL     1      75.122  87.592 117.168  1.00  0.00     0.038 A 
ENDROOT
BRANCH  13  14
HETATM   14  C12 UNL     1      75.597  86.730 116.039  1.00  0.00     0.161 C 
BRANCH  14  15
HETATM   15  N9  UNL     1      75.864  87.483 114.861  1.00  0.00    -0.391 N 
ATOM     16  H9  UNL     1      76.490  88.289 114.868  1.00  0.00     0.156 HD
BRANCH  15  17
HETATM   17  C13 UNL     1      75.200  87.045 113.654  1.00  0.00     0.249 C 
HETATM   18  O3  UNL     1      74.143  86.219 114.122  1.00  0.00    -0.354 OA
HETATM   19  C14 UNL     1      73.578  85.478 113.112  1.00  0.00     0.179 C 
HETATM   20  C16 UNL     1      72.927  86.363 112.066  1.00  0.00     0.180 C 
HETATM   21  C17 UNL     1      73.805  87.495 111.683  1.00  0.00     0.182 C 
HETATM   22  C18 UNL     1      74.606  88.112 112.814  1.00  0.00     0.197 C 
BRANCH  19  23
HETATM   23  C15 UNL     1      72.503  84.605 113.695  1.00  0.00     0.198 C 
BRANCH  23  24
HETATM   24  O4  UNL     1      71.343  85.402 113.787  1.00  0.00    -0.398 OA
ATOM     25  H4  UNL     1      71.105  85.428 114.707  1.00  0.00     0.209 HD
ENDBRANCH  23  24
ENDBRANCH  19  23
BRANCH  20  26
HETATM   26  O5  UNL     1      72.725  85.547 110.929  1.00  0.00    -0.390 OA
ATOM     27  H5  UNL     1      73.301  85.886 110.253  1.00  0.00     0.210 HD
ENDBRANCH  20  26
BRANCH  21  28
HETATM   28  O6  UNL     1      74.670  87.150 110.646  1.00  0.00    -0.390 OA
ATOM     29  H6  UNL     1      75.427  87.723 110.613  1.00  0.00     0.210 HD
ENDBRANCH  21  28
BRANCH  22  30
HETATM   30  O7  UNL     1      75.547  88.929 112.163  1.00  0.00    -0.389 OA
ATOM     31  H7  UNL     1      76.424  88.567 112.129  1.00  0.00     0.210 HD
ENDBRANCH  22  30
ENDBRANCH  15  17
ENDBRANCH  14  15
ENDBRANCH  13  14
BRANCH   1  32
HETATM   32  C2  UNL     1      73.003  88.573 116.116  1.00  0.00     0.153 A 
HETATM   33  N2  UNL     1      72.140  87.608 115.695  1.00  0.00    -0.280 N 
HETATM   34  N1  UNL     1      71.389  88.117 114.748  1.00  0.00    -0.250 N 
ATOM     35  H2  UNL     1      72.087  86.655 116.054  1.00  0.00     0.189 HD
HETATM   36  C1  UNL     1      71.726  89.398 114.524  1.00  0.00     0.340 A 
ATOM     37  H1  UNL     1      70.654  87.613 114.252  1.00  0.00     0.192 HD
HETATM   38  O1  UNL     1      71.262  90.234 113.714  1.00  0.00    -0.245 OA
HETATM   39  N10 UNL     1      72.738  89.661 115.391  1.00  0.00    -0.290 N 
ATOM     40  H10 UNL     1      73.221  90.555 115.475  1.00  0.00     0.172 HD
ENDBRANCH   1  32
BRANCH   9  41
HETATM   41  N6  UNL     1      78.423  86.940 120.726  1.00  0.00    -0.214 N 
HETATM   42  C6  UNL     1      78.977  85.690 120.292  1.00  0.00     0.160 C 
HETATM   43  C7  UNL     1      79.430  84.905 121.502  1.00  0.00     0.134 C 
HETATM   44  N7  UNL     1      78.922  85.383 122.740  1.00  0.00    -0.418 N 
HETATM   45  C8  UNL     1      79.102  86.768 123.000  1.00  0.00     0.134 C 
ATOM     46  H7  UNL     1      78.455  84.765 123.405  1.00  0.00     0.153 HD
HETATM   47  C9  UNL     1      79.128  87.647 121.797  1.00  0.00     0.160 C 
ENDBRANCH   9  41
TORSDOF 10
ENDMDL
MODEL 4
REMARK VINA RESULT: -8.111733897      1.650      2.063
REMARK  10 active torsions:
REMARK  status: ('A' for Active; 'I' for Inactive)
REMARK    1  A    between atoms: C2_7  and  C3_8 
REMARK    2  A    between atoms: C5_16  and  N6_17 
REMARK    3  A    between atoms: C11_27  and  C12_28 
REMARK    4  A    between atoms: C12_28  and  N9_29 
REMARK    5  A    between atoms: N9_29  and  C13_31 
REMARK    6  A    between atoms: C14_33  and  C15_34 
REMARK    7  A    between atoms: C15_34  and  O4_35 
REMARK    8  A    between atoms: C16_37  and  O5_38 
REMARK    9  A    between atoms: C17_40  and  O6_41 
REMARK   10  A    between atoms: C18_43  and  O7_44 
ROOT
HETATM    1  C3  UNL     1      73.419  83.730 112.901  1.00  0.00     0.106 A 
HETATM    2  N3  UNL     1      72.711  82.606 112.541  1.00  0.00    -0.284 N 
ATOM      3  H3  UNL     1      72.455  82.374 111.581  1.00  0.00     0.188 HD
HETATM    4  N4  UNL     1      72.409  81.879 113.569  1.00  0.00    -0.187 N 
HETATM    5  C4  UNL     1      71.742  80.703 113.765  1.00  0.00     0.361 A 
HETATM    6  O2  UNL     1      71.284  80.145 112.738  1.00  0.00    -0.244 OA
HETATM    7  N5  UNL     1      71.608  80.209 115.010  1.00  0.00    -0.139 N 
ATOM      8  H5  UNL     1      71.106  79.331 115.137  1.00  0.00     0.189 HD
HETATM    9  C5  UNL     1      72.108  80.828 116.092  1.00  0.00     0.686 A 
HETATM   10  N8  UNL     1      72.763  81.983 115.897  1.00  0.00    -0.174 N 
ATOM     11  H8  UNL     1      73.156  82.480 116.696  1.00  0.00     0.186 HD
HETATM   12  C10 UNL     1      72.909  82.497 114.657  1.00  0.00     0.158 A 
HETATM   13  C11 UNL     1      73.551  83.666 114.266  1.00  0.00     0.038 A 
ENDROOT
BRANCH  13  14
HETATM   14  C12 UNL     1      74.259  84.667 115.127  1.00  0.00     0.161 C 
BRANCH  14  15
HETATM   15  N9  UNL     1      73.356  85.557 115.772  1.00  0.00    -0.391 N 
ATOM     16  H9  UNL     1      72.715  85.238 116.500  1.00  0.00     0.156 HD
BRANCH  15  17
HETATM   17  C13 UNL     1      73.395  86.936 115.342  1.00  0.00     0.249 C 
HETATM   18  O3  UNL     1      74.530  87.000 114.490  1.00  0.00    -0.354 OA
HETATM   19  C14 UNL     1      74.900  88.293 114.213  1.00  0.00     0.179 C 
HETATM   20  C16 UNL     1      73.817  89.034 113.452  1.00  0.00     0.180 C 
HETATM   21  C17 UNL     1      72.478  88.812 114.048  1.00  0.00     0.182 C 
HETATM   22  C18 UNL     1      72.220  87.412 114.573  1.00  0.00     0.197 C 
BRANCH  19  23
HETATM   23  C15 UNL     1      76.126  88.272 113.346  1.00  0.00     0.198 C 
BRANCH  23  24
HETATM   24  O4  UNL     1      75.739  88.785 112.090  1.00  0.00    -0.398 OA
ATOM     25  H4  UNL     1      74.900  89.212 112.218  1.00  0.00     0.209 HD
ENDBRANCH  23  24
ENDBRANCH  19  23
BRANCH  20  26
HETATM   26  O5  UNL     1      74.131  90.409 113.555  1.00  0.00    -0.390 OA
ATOM     27  H5  UNL     1      75.021  90.455 113.885  1.00  0.00     0.210 HD
ENDBRANCH  20  26
BRANCH  21  28
HETATM   28  O6  UNL     1      72.201  89.735 115.055  1.00  0.00    -0.390 OA
ATOM     29  H6  UNL     1      72.075  89.311 115.897  1.00  0.00     0.210 HD
ENDBRANCH  21  28
BRANCH  22  30
HETATM   30  O7  UNL     1      71.043  87.539 115.331  1.00  0.00    -0.389 OA
ATOM     31  H7  UNL     1      70.264  87.204 114.904  1.00  0.00     0.210 HD
ENDBRANCH  22  30
ENDBRANCH  15  17
ENDBRANCH  14  15
ENDBRANCH  13  14
BRANCH   1  32
HETATM   32  C2  UNL     1      73.896  84.735 111.965  1.00  0.00     0.153 A 
HETATM   33  N2  UNL     1      73.257  85.915 111.731  1.00  0.00    -0.280 N 
HETATM   34  N1  UNL     1      73.950  86.585 110.841  1.00  0.00    -0.250 N 
ATOM     35  H2  UNL     1      72.391  86.223 112.171  1.00  0.00     0.189 HD
HETATM   36  C1  UNL     1      75.037  85.885 110.474  1.00  0.00     0.340 A 
ATOM     37  H1  UNL     1      73.701  87.506 110.480  1.00  0.00     0.192 HD
HETATM   38  O1  UNL     1      75.948  86.162 109.659  1.00  0.00    -0.245 OA
HETATM   39  N10 UNL     1      74.982  84.733 111.190  1.00  0.00    -0.290 N 
ATOM     40  H10 UNL     1      75.667  83.978 111.142  1.00  0.00     0.172 HD
ENDBRANCH   1  32
BRANCH   9  41
HETATM   41  N6  UNL     1      71.930  80.250 117.379  1.00  0.00    -0.214 N 
HETATM   42  C6  UNL     1      70.663  80.221 118.050  1.00  0.00     0.160 C 
HETATM   43  C7  UNL     1      70.871  80.547 119.512  1.00  0.00     0.134 C 
HETATM   44  N7  UNL     1      72.135  81.122 119.815  1.00  0.00    -0.418 N 
HETATM   45  C8  UNL     1      73.274  80.421 119.335  1.00  0.00     0.134 C 
ATOM     46  H7  UNL     1      72.220  81.988 120.346  1.00  0.00     0.153 HD
HETATM   47  C9  UNL     1      73.069  79.651 118.076  1.00  0.00     0.160 C 
ENDBRANCH   9  41
TORSDOF 10
ENDMDL
MODEL 5
REMARK VINA RESULT: -8.039271533      5.282      7.901
REMARK  10 active torsions:
REMARK  status: ('A' for Active; 'I' for Inactive)
REMARK    1  A    between atoms: C2_7  and  C3_8 
REMARK    2  A    between atoms: C5_16  and  N6_17 
REMARK    3  A    between atoms: C11_27  and  C12_28 
REMARK    4  A    between atoms: C12_28  and  N9_29 
REMARK    5  A    between atoms: N9_29  and  C13_31 
REMARK    6  A    between atoms: C14_33  and  C15_34 
REMARK    7  A    between atoms: C15_34  and  O4_35 
REMARK    8  A    between atoms: C16_37  and  O5_38 
REMARK    9  A    between atoms: C17_40  and  O6_41 
REMARK   10  A    between atoms: C18_43  and  O7_44 
ROOT
HETATM    1  C3  UNL     1      74.098  88.347 117.408  1.00  0.00     0.106 A 
HETATM    2  N3  UNL     1      73.978  88.961 118.633  1.00  0.00    -0.284 N 
ATOM      3  H3  UNL     1      73.196  89.559 118.899  1.00  0.00     0.188 HD
HETATM    4  N4  UNL     1      74.980  88.688 119.408  1.00  0.00    -0.187 N 
HETATM    5  C4  UNL     1      75.343  89.022 120.681  1.00  0.00     0.361 A 
HETATM    6  O2  UNL     1      74.558  89.781 121.303  1.00  0.00    -0.244 OA
HETATM    7  N5  UNL     1      76.489  88.543 121.198  1.00  0.00    -0.139 N 
ATOM      8  H5  UNL     1      76.744  88.805 122.150  1.00  0.00     0.189 HD
HETATM    9  C5  UNL     1      77.310  87.733 120.511  1.00  0.00     0.686 A 
HETATM   10  N8  UNL     1      76.951  87.405 119.260  1.00  0.00    -0.174 N 
ATOM     11  H8  UNL     1      77.552  86.792 118.709  1.00  0.00     0.186 HD
HETATM   12  C10 UNL     1      75.806  87.875 118.720  1.00  0.00     0.158 A 
HETATM   13  C11 UNL     1      75.276  87.643 117.458  1.00  0.00     0.038 A 
ENDROOT
BRANCH  13  14
HETATM   14  C12 UNL     1      75.841  86.799 116.356  1.00  0.00     0.161 C 
BRANCH  14  15
HETATM   15  N9  UNL     1      76.676  87.545 115.479  1.00  0.00    -0.391 N 
ATOM     16  H9  UNL     1      77.591  87.889 115.772  1.00  0.00     0.156 HD
BRANCH  15  17
HETATM   17  C13 UNL     1      76.159  87.789 114.151  1.00  0.00     0.249 C 
HETATM   18  O3  UNL     1      75.108  86.843 114.011  1.00  0.00    -0.354 OA
HETATM   19  C14 UNL     1      74.686  86.726 112.709  1.00  0.00     0.179 C 
HETATM   20  C16 UNL     1      74.094  88.024 112.194  1.00  0.00     0.180 C 
HETATM   21  C17 UNL     1      74.941  89.190 112.542  1.00  0.00     0.182 C 
HETATM   22  C18 UNL     1      75.593  89.138 113.911  1.00  0.00     0.197 C 
BRANCH  19  23
HETATM   23  C15 UNL     1      73.609  85.682 112.641  1.00  0.00     0.198 C 
BRANCH  23  24
HETATM   24  O4  UNL     1      72.380  86.372 112.599  1.00  0.00    -0.398 OA
ATOM     25  H4  UNL     1      71.957  86.124 111.785  1.00  0.00     0.209 HD
ENDBRANCH  23  24
ENDBRANCH  19  23
BRANCH  20  26
HETATM   26  O5  UNL     1      74.049  87.907 110.785  1.00  0.00    -0.390 OA
ATOM     27  H5  UNL     1      73.471  88.597 110.479  1.00  0.00     0.210 HD
ENDBRANCH  20  26
BRANCH  21  28
HETATM   28  O6  UNL     1      75.921  89.422 111.579  1.00  0.00    -0.390 OA
ATOM     29  H6  UNL     1      76.057  88.662 111.024  1.00  0.00     0.210 HD
ENDBRANCH  21  28
BRANCH  22  30
HETATM   30  O7  UNL     1      76.547  90.170 113.878  1.00  0.00    -0.389 OA
ATOM     31  H7  UNL     1      76.960  90.350 114.714  1.00  0.00     0.210 HD
ENDBRANCH  22  30
ENDBRANCH  15  17
ENDBRANCH  14  15
ENDBRANCH  13  14
BRANCH   1  32
HETATM   32  C2  UNL     1      73.130  88.467 116.330  1.00  0.00     0.153 A 
HETATM   33  N2  UNL     1      72.449  87.411 115.804  1.00  0.00    -0.280 N 
HETATM   34  N1  UNL     1      71.661  87.865 114.857  1.00  0.00    -0.250 N 
ATOM     35  H2  UNL     1      72.536  86.438 116.094  1.00  0.00     0.189 HD
HETATM   36  C1  UNL     1      71.797  89.196 114.737  1.00  0.00     0.340 A 
ATOM     37  H1  UNL     1      71.035  87.290 114.293  1.00  0.00     0.192 HD
HETATM   38  O1  UNL     1      71.235  90.006 113.963  1.00  0.00    -0.245 OA
HETATM   39  N10 UNL     1      72.720  89.550 115.668  1.00  0.00    -0.290 N 
ATOM     40  H10 UNL     1      73.051  90.500 115.835  1.00  0.00     0.172 HD
ENDBRANCH   1  32
BRANCH   9  41
HETATM   41  N6  UNL     1      78.507  87.262 121.118  1.00  0.00    -0.214 N 
HETATM   42  C6  UNL     1      79.172  86.062 120.699  1.00  0.00     0.160 C 
HETATM   43  C7  UNL     1      79.637  85.303 121.922  1.00  0.00     0.134 C 
HETATM   44  N7  UNL     1      79.047  85.731 123.142  1.00  0.00    -0.418 N 
HETATM   45  C8  UNL     1      79.109  87.123 123.416  1.00  0.00     0.134 C 
ATOM     46  H7  UNL     1      78.603  85.074 123.785  1.00  0.00     0.153 HD
HETATM   47  C9  UNL     1      79.113  88.011 122.220  1.00  0.00     0.160 C 
ENDBRANCH   9  41
TORSDOF 10
ENDMDL
