MODEL 1
REMARK VINA RESULT: -7.756191914      0.000      0.000
REMARK  12 active torsions:
REMARK  status: ('A' for Active; 'I' for Inactive)
REMARK    1  A    between atoms: C2_2  and  C3_3 
REMARK    2  A    between atoms: C3_3  and  C4_4 
REMARK    3  A    between atoms: C4_4  and  N1_5 
REMARK    4  A    between atoms: N1_5  and  C5_7 
REMARK    5  A    between atoms: C7_9  and  N2_10 
REMARK    6  A    between atoms: N2_10  and  C8_12 
REMARK    7  A    between atoms: N4_16  and  C10_18 
REMARK    8  A    between atoms: C10_18  and  C11_19 
REMARK    9  A    between atoms: C14_26  and  N7_27 
REMARK   10  A    between atoms: N7_27  and  C16_29 
REMARK   11  A    between atoms: C16_29  and  C17_30 
REMARK   12  A    between atoms: C17_30  and  C18_32 
ROOT
HETATM    1  C8  UNL     1      15.367  21.669  21.018  1.00  0.00     0.152 A 
HETATM    2  N3  UNL     1      14.429  22.443  21.622  1.00  0.00    -0.174 N 
ATOM      3  H3  UNL     1      14.719  23.301  22.091  1.00  0.00     0.186 HD
HETATM    4  C9  UNL     1      13.130  22.105  21.616  1.00  0.00     0.681 A 
HETATM    5  N4  UNL     1      12.294  22.886  22.208  1.00  0.00    -0.226 N 
ATOM      6  H4  UNL     1      11.301  22.655  22.220  1.00  0.00     0.177 HD
HETATM    7  N5  UNL     1      12.722  20.972  21.002  1.00  0.00    -0.174 N 
ATOM      8  H5  UNL     1      11.731  20.732  21.009  1.00  0.00     0.186 HD
HETATM    9  C13 UNL     1      13.589  20.157  20.382  1.00  0.00     0.167 A 
HETATM   10  N6  UNL     1      13.478  18.997  19.702  1.00  0.00    -0.173 N 
ATOM     11  H6  UNL     1      12.616  18.481  19.524  1.00  0.00     0.186 HD
HETATM   12  C14 UNL     1      14.693  18.650  19.309  1.00  0.00     0.686 A 
HETATM   13  N9  UNL     1      15.580  19.576  19.729  1.00  0.00    -0.184 N 
ATOM     14  H9  UNL     1      16.586  19.550  19.560  1.00  0.00     0.184 HD
HETATM   15  C21 UNL     1      14.931  20.532  20.403  1.00  0.00     0.138 A 
ENDROOT
BRANCH   1  16
HETATM   16  N2  UNL     1      16.574  22.075  21.082  1.00  0.00    -0.340 N 
ATOM     17  H2  UNL     1      16.696  23.086  21.029  1.00  0.00     0.167 HD
BRANCH  16  18
HETATM   18  C7  UNL     1      17.748  21.341  21.215  1.00  0.00     0.038 A 
HETATM   19  C6  UNL     1      17.933  20.566  22.361  1.00  0.00     0.077 A 
HETATM   20  C5  UNL     1      19.093  19.836  22.488  1.00  0.00     0.102 A 
HETATM   21  N10 UNL     1      20.040  19.874  21.508  1.00  0.00    -0.352 N 
HETATM   22  C23 UNL     1      19.897  20.604  20.398  1.00  0.00     0.092 A 
ATOM     23  H10 UNL     1      20.891  19.324  21.626  1.00  0.00     0.166 HD
HETATM   24  C22 UNL     1      18.738  21.343  20.257  1.00  0.00     0.046 A 
BRANCH  20  25
HETATM   25  N1  UNL     1      19.323  19.110  23.503  1.00  0.00    -0.376 N 
ATOM     26  H1  UNL     1      20.134  18.492  23.492  1.00  0.00     0.161 HD
BRANCH  25  27
HETATM   27  C4  UNL     1      18.481  19.129  24.665  1.00  0.00     0.121 C 
BRANCH  27  28
HETATM   28  C3  UNL     1      19.337  19.150  25.927  1.00  0.00     0.019 C 
BRANCH  28  29
HETATM   29  C2  UNL     1      20.362  20.276  25.846  1.00  0.00    -0.003 C 
HETATM   30  C1  UNL     1      20.884  20.626  27.216  1.00  0.00     0.005 C 
ENDBRANCH  28  29
ENDBRANCH  27  28
ENDBRANCH  25  27
ENDBRANCH  20  25
ENDBRANCH  16  18
ENDBRANCH   1  16
BRANCH   5  31
HETATM   31  C10 UNL     1      12.757  24.075  22.848  1.00  0.00     0.137 C 
BRANCH  31  32
HETATM   32  C11 UNL     1      11.922  24.417  24.063  1.00  0.00     0.016 C 
HETATM   33  C12 UNL     1      12.266  25.786  24.606  1.00  0.00     0.006 C 
ENDBRANCH  31  32
ENDBRANCH   5  31
BRANCH  12  34
HETATM   34  N7  UNL     1      15.134  17.489  18.546  1.00  0.00    -0.196 N 
HETATM   35  C15 UNL     1      14.956  17.623  17.125  1.00  0.00     0.175 C 
BRANCH  34  36
HETATM   36  C16 UNL     1      15.677  16.360  19.202  1.00  0.00     0.131 C 
BRANCH  36  37
HETATM   37  C17 UNL     1      15.320  16.001  20.578  1.00  0.00     0.043 C 
HETATM   38  N8  UNL     1      14.711  14.666  20.671  1.00  0.00    -0.105 NA
BRANCH  37  39
HETATM   39  C18 UNL     1      16.159  16.283  21.742  1.00  0.00     0.026 C 
HETATM   40  C19 UNL     1      17.546  16.705  21.130  1.00  0.00     0.016 C 
HETATM   41  C20 UNL     1      15.823  17.414  22.640  1.00  0.00     0.016 C 
ENDBRANCH  37  39
ENDBRANCH  36  37
ENDBRANCH  34  36
ENDBRANCH  12  34
TORSDOF 12
ENDMDL
MODEL 2
REMARK VINA RESULT: -7.695884503      1.439      1.875
REMARK  12 active torsions:
REMARK  status: ('A' for Active; 'I' for Inactive)
REMARK    1  A    between atoms: C2_2  and  C3_3 
REMARK    2  A    between atoms: C3_3  and  C4_4 
REMARK    3  A    between atoms: C4_4  and  N1_5 
REMARK    4  A    between atoms: N1_5  and  C5_7 
REMARK    5  A    between atoms: C7_9  and  N2_10 
REMARK    6  A    between atoms: N2_10  and  C8_12 
REMARK    7  A    between atoms: N4_16  and  C10_18 
REMARK    8  A    between atoms: C10_18  and  C11_19 
REMARK    9  A    between atoms: C14_26  and  N7_27 
REMARK   10  A    between atoms: N7_27  and  C16_29 
REMARK   11  A    between atoms: C16_29  and  C17_30 
REMARK   12  A    between atoms: C17_30  and  C18_32 
ROOT
HETATM    1  C8  UNL     1      14.811  21.660  21.216  1.00  0.00     0.152 A 
HETATM    2  N3  UNL     1      13.946  22.483  21.861  1.00  0.00    -0.174 N 
ATOM      3  H3  UNL     1      14.281  23.377  22.219  1.00  0.00     0.186 HD
HETATM    4  C9  UNL     1      12.658  22.147  22.040  1.00  0.00     0.681 A 
HETATM    5  N4  UNL     1      11.892  22.976  22.661  1.00  0.00    -0.226 N 
ATOM      6  H4  UNL     1      10.909  22.748  22.811  1.00  0.00     0.177 HD
HETATM    7  N5  UNL     1      12.189  20.967  21.576  1.00  0.00    -0.174 N 
ATOM      8  H5  UNL     1      11.209  20.729  21.723  1.00  0.00     0.186 HD
HETATM    9  C13 UNL     1      12.983  20.101  20.928  1.00  0.00     0.167 A 
HETATM   10  N6  UNL     1      12.803  18.888  20.366  1.00  0.00    -0.173 N 
ATOM     11  H6  UNL     1      11.930  18.360  20.337  1.00  0.00     0.186 HD
HETATM   12  C14 UNL     1      13.964  18.508  19.861  1.00  0.00     0.686 A 
HETATM   13  N9  UNL     1      14.887  19.465  20.092  1.00  0.00    -0.184 N 
ATOM     14  H9  UNL     1      15.866  19.424  19.807  1.00  0.00     0.184 HD
HETATM   15  C21 UNL     1      14.315  20.475  20.756  1.00  0.00     0.138 A 
ENDROOT
BRANCH   1  16
HETATM   16  N2  UNL     1      16.013  22.068  21.101  1.00  0.00    -0.340 N 
ATOM     17  H2  UNL     1      16.117  23.064  20.905  1.00  0.00     0.167 HD
BRANCH  16  18
HETATM   18  C7  UNL     1      17.203  21.356  21.205  1.00  0.00     0.038 A 
HETATM   19  C6  UNL     1      17.415  20.558  22.331  1.00  0.00     0.077 A 
HETATM   20  C5  UNL     1      18.591  19.848  22.429  1.00  0.00     0.102 A 
HETATM   21  N10 UNL     1      19.528  19.929  21.440  1.00  0.00    -0.352 N 
HETATM   22  C23 UNL     1      19.359  20.682  20.349  1.00  0.00     0.092 A 
ATOM     23  H10 UNL     1      20.391  19.394  21.537  1.00  0.00     0.166 HD
HETATM   24  C22 UNL     1      18.183  21.400  20.237  1.00  0.00     0.046 A 
BRANCH  20  25
HETATM   25  N1  UNL     1      18.846  19.104  23.423  1.00  0.00    -0.376 N 
ATOM     26  H1  UNL     1      19.525  18.350  23.312  1.00  0.00     0.161 HD
BRANCH  25  27
HETATM   27  C4  UNL     1      18.213  19.285  24.699  1.00  0.00     0.121 C 
BRANCH  27  28
HETATM   28  C3  UNL     1      19.236  19.107  25.816  1.00  0.00     0.019 C 
BRANCH  28  29
HETATM   29  C2  UNL     1      20.303  20.193  25.727  1.00  0.00    -0.003 C 
HETATM   30  C1  UNL     1      20.802  20.568  27.100  1.00  0.00     0.005 C 
ENDBRANCH  28  29
ENDBRANCH  27  28
ENDBRANCH  25  27
ENDBRANCH  20  25
ENDBRANCH  16  18
ENDBRANCH   1  16
BRANCH   5  31
HETATM   31  C10 UNL     1      12.418  24.214  23.138  1.00  0.00     0.137 C 
BRANCH  31  32
HETATM   32  C11 UNL     1      11.802  24.609  24.463  1.00  0.00     0.016 C 
HETATM   33  C12 UNL     1      12.176  26.023  24.850  1.00  0.00     0.006 C 
ENDBRANCH  31  32
ENDBRANCH   5  31
BRANCH  12  34
HETATM   34  N7  UNL     1      14.322  17.286  19.150  1.00  0.00    -0.196 N 
HETATM   35  C15 UNL     1      14.427  17.449  17.725  1.00  0.00     0.175 C 
BRANCH  34  36
HETATM   36  C16 UNL     1      14.530  16.078  19.856  1.00  0.00     0.131 C 
BRANCH  36  37
HETATM   37  C17 UNL     1      13.471  15.426  20.631  1.00  0.00     0.043 C 
HETATM   38  N8  UNL     1      13.270  16.054  21.946  1.00  0.00    -0.105 NA
BRANCH  37  39
HETATM   39  C18 UNL     1      12.204  14.966  20.065  1.00  0.00     0.026 C 
HETATM   40  C19 UNL     1      11.704  13.866  21.073  1.00  0.00     0.016 C 
HETATM   41  C20 UNL     1      11.051  15.895  19.976  1.00  0.00     0.016 C 
ENDBRANCH  37  39
ENDBRANCH  36  37
ENDBRANCH  34  36
ENDBRANCH  12  34
TORSDOF 12
ENDMDL
MODEL 3
REMARK VINA RESULT: -7.635522255      0.806      1.014
REMARK  12 active torsions:
REMARK  status: ('A' for Active; 'I' for Inactive)
REMARK    1  A    between atoms: C2_2  and  C3_3 
REMARK    2  A    between atoms: C3_3  and  C4_4 
REMARK    3  A    between atoms: C4_4  and  N1_5 
REMARK    4  A    between atoms: N1_5  and  C5_7 
REMARK    5  A    between atoms: C7_9  and  N2_10 
REMARK    6  A    between atoms: N2_10  and  C8_12 
REMARK    7  A    between atoms: N4_16  and  C10_18 
REMARK    8  A    between atoms: C10_18  and  C11_19 
REMARK    9  A    between atoms: C14_26  and  N7_27 
REMARK   10  A    between atoms: N7_27  and  C16_29 
REMARK   11  A    between atoms: C16_29  and  C17_30 
REMARK   12  A    between atoms: C17_30  and  C18_32 
ROOT
HETATM    1  C8  UNL     1      14.804  21.662  21.120  1.00  0.00     0.152 A 
HETATM    2  N3  UNL     1      13.946  22.444  21.824  1.00  0.00    -0.174 N 
ATOM      3  H3  UNL     1      14.273  23.339  22.188  1.00  0.00     0.186 HD
HETATM    4  C9  UNL     1      12.677  22.066  22.051  1.00  0.00     0.681 A 
HETATM    5  N4  UNL     1      11.918  22.858  22.727  1.00  0.00    -0.226 N 
ATOM      6  H4  UNL     1      10.950  22.597  22.915  1.00  0.00     0.177 HD
HETATM    7  N5  UNL     1      12.222  20.885  21.580  1.00  0.00    -0.174 N 
ATOM      8  H5  UNL     1      11.256  20.615  21.764  1.00  0.00     0.186 HD
HETATM    9  C13 UNL     1      13.009  20.058  20.874  1.00  0.00     0.167 A 
HETATM   10  N6  UNL     1      12.837  18.854  20.291  1.00  0.00    -0.173 N 
ATOM     11  H6  UNL     1      11.979  18.302  20.287  1.00  0.00     0.186 HD
HETATM   12  C14 UNL     1      13.985  18.521  19.724  1.00  0.00     0.686 A 
HETATM   13  N9  UNL     1      14.890  19.498  19.937  1.00  0.00    -0.184 N 
ATOM     14  H9  UNL     1      15.855  19.492  19.607  1.00  0.00     0.184 HD
HETATM   15  C21 UNL     1      14.321  20.475  20.652  1.00  0.00     0.138 A 
ENDROOT
BRANCH   1  16
HETATM   16  N2  UNL     1      15.988  22.108  20.961  1.00  0.00    -0.340 N 
ATOM     17  H2  UNL     1      16.052  23.101  20.739  1.00  0.00     0.167 HD
BRANCH  16  18
HETATM   18  C7  UNL     1      17.204  21.439  21.047  1.00  0.00     0.038 A 
HETATM   19  C6  UNL     1      17.497  20.719  22.207  1.00  0.00     0.077 A 
HETATM   20  C5  UNL     1      18.699  20.052  22.288  1.00  0.00     0.102 A 
HETATM   21  N10 UNL     1      19.582  20.099  21.250  1.00  0.00    -0.352 N 
HETATM   22  C23 UNL     1      19.335  20.777  20.125  1.00  0.00     0.092 A 
ATOM     23  H10 UNL     1      20.466  19.596  21.335  1.00  0.00     0.166 HD
HETATM   24  C22 UNL     1      18.133  21.451  20.030  1.00  0.00     0.046 A 
BRANCH  20  25
HETATM   25  N1  UNL     1      19.027  19.379  23.311  1.00  0.00    -0.376 N 
ATOM     26  H1  UNL     1      19.861  18.795  23.269  1.00  0.00     0.161 HD
BRANCH  25  27
HETATM   27  C4  UNL     1      18.264  19.413  24.527  1.00  0.00     0.121 C 
BRANCH  27  28
HETATM   28  C3  UNL     1      19.187  19.218  25.726  1.00  0.00     0.019 C 
BRANCH  28  29
HETATM   29  C2  UNL     1      20.323  20.234  25.682  1.00  0.00    -0.003 C 
HETATM   30  C1  UNL     1      20.782  20.586  27.074  1.00  0.00     0.005 C 
ENDBRANCH  28  29
ENDBRANCH  27  28
ENDBRANCH  25  27
ENDBRANCH  20  25
ENDBRANCH  16  18
ENDBRANCH   1  16
BRANCH   5  31
HETATM   31  C10 UNL     1      12.430  24.099  23.211  1.00  0.00     0.137 C 
BRANCH  31  32
HETATM   32  C11 UNL     1      11.687  24.566  24.445  1.00  0.00     0.016 C 
HETATM   33  C12 UNL     1      12.058  25.986  24.811  1.00  0.00     0.006 C 
ENDBRANCH  31  32
ENDBRANCH   5  31
BRANCH  12  34
HETATM   34  N7  UNL     1      14.343  17.327  18.967  1.00  0.00    -0.196 N 
HETATM   35  C15 UNL     1      13.255  16.768  18.210  1.00  0.00     0.175 C 
BRANCH  34  36
HETATM   36  C16 UNL     1      15.659  16.811  19.016  1.00  0.00     0.131 C 
BRANCH  36  37
HETATM   37  C17 UNL     1      16.228  16.217  20.229  1.00  0.00     0.043 C 
HETATM   38  N8  UNL     1      16.684  14.834  20.017  1.00  0.00    -0.105 NA
BRANCH  37  39
HETATM   39  C18 UNL     1      17.106  16.927  21.157  1.00  0.00     0.026 C 
HETATM   40  C19 UNL     1      16.323  16.914  22.522  1.00  0.00     0.016 C 
HETATM   41  C20 UNL     1      18.425  16.353  21.516  1.00  0.00     0.016 C 
ENDBRANCH  37  39
ENDBRANCH  36  37
ENDBRANCH  34  36
ENDBRANCH  12  34
TORSDOF 12
ENDMDL
MODEL 4
REMARK VINA RESULT: -7.628984924      2.444      6.950
REMARK  12 active torsions:
REMARK  status: ('A' for Active; 'I' for Inactive)
REMARK    1  A    between atoms: C2_2  and  C3_3 
REMARK    2  A    between atoms: C3_3  and  C4_4 
REMARK    3  A    between atoms: C4_4  and  N1_5 
REMARK    4  A    between atoms: N1_5  and  C5_7 
REMARK    5  A    between atoms: C7_9  and  N2_10 
REMARK    6  A    between atoms: N2_10  and  C8_12 
REMARK    7  A    between atoms: N4_16  and  C10_18 
REMARK    8  A    between atoms: C10_18  and  C11_19 
REMARK    9  A    between atoms: C14_26  and  N7_27 
REMARK   10  A    between atoms: N7_27  and  C16_29 
REMARK   11  A    between atoms: C16_29  and  C17_30 
REMARK   12  A    between atoms: C17_30  and  C18_32 
ROOT
HETATM    1  C8  UNL     1      15.296  20.646  19.031  1.00  0.00     0.152 A 
HETATM    2  N3  UNL     1      15.406  21.388  17.900  1.00  0.00    -0.174 N 
ATOM      3  H3  UNL     1      14.583  21.531  17.315  1.00  0.00     0.186 HD
HETATM    4  C9  UNL     1      16.575  21.940  17.533  1.00  0.00     0.681 A 
HETATM    5  N4  UNL     1      16.607  22.633  16.448  1.00  0.00    -0.226 N 
ATOM      6  H4  UNL     1      17.480  23.063  16.144  1.00  0.00     0.177 HD
HETATM    7  N5  UNL     1      17.680  21.765  18.290  1.00  0.00    -0.174 N 
ATOM      8  H5  UNL     1      18.558  22.190  17.994  1.00  0.00     0.186 HD
HETATM    9  C13 UNL     1      17.650  21.045  19.423  1.00  0.00     0.167 A 
HETATM   10  N6  UNL     1      18.564  20.710  20.357  1.00  0.00    -0.173 N 
ATOM     11  H6  UNL     1      19.548  20.978  20.361  1.00  0.00     0.186 HD
HETATM   12  C14 UNL     1      17.949  19.972  21.266  1.00  0.00     0.686 A 
HETATM   13  N9  UNL     1      16.651  19.830  20.925  1.00  0.00    -0.184 N 
ATOM     14  H9  UNL     1      15.955  19.307  21.455  1.00  0.00     0.184 HD
HETATM   15  C21 UNL     1      16.425  20.485  19.780  1.00  0.00     0.138 A 
ENDROOT
BRANCH   1  16
HETATM   16  N2  UNL     1      14.145  20.163  19.290  1.00  0.00    -0.340 N 
ATOM     17  H2  UNL     1      13.656  19.754  18.494  1.00  0.00     0.167 HD
BRANCH  16  18
HETATM   18  C7  UNL     1      13.459  20.112  20.499  1.00  0.00     0.038 A 
HETATM   19  C6  UNL     1      12.946  21.295  21.033  1.00  0.00     0.077 A 
HETATM   20  C5  UNL     1      12.262  21.242  22.227  1.00  0.00     0.102 A 
HETATM   21  N10 UNL     1      12.093  20.052  22.870  1.00  0.00    -0.352 N 
HETATM   22  C23 UNL     1      12.570  18.900  22.389  1.00  0.00     0.092 A 
ATOM     23  H10 UNL     1      11.583  20.039  23.753  1.00  0.00     0.166 HD
HETATM   24  C22 UNL     1      13.259  18.938  21.191  1.00  0.00     0.046 A 
BRANCH  20  25
HETATM   25  N1  UNL     1      11.769  22.279  22.766  1.00  0.00    -0.376 N 
ATOM     26  H1  UNL     1      11.918  23.184  22.320  1.00  0.00     0.161 HD
BRANCH  25  27
HETATM   27  C4  UNL     1      11.010  22.221  23.984  1.00  0.00     0.121 C 
BRANCH  27  28
HETATM   28  C3  UNL     1      11.013  23.587  24.662  1.00  0.00     0.019 C 
BRANCH  28  29
HETATM   29  C2  UNL     1      12.014  24.511  23.978  1.00  0.00    -0.003 C 
HETATM   30  C1  UNL     1      12.137  25.816  24.723  1.00  0.00     0.005 C 
ENDBRANCH  28  29
ENDBRANCH  27  28
ENDBRANCH  25  27
ENDBRANCH  20  25
ENDBRANCH  16  18
ENDBRANCH   1  16
BRANCH   5  31
HETATM   31  C10 UNL     1      15.422  22.798  15.670  1.00  0.00     0.137 C 
BRANCH  31  32
HETATM   32  C11 UNL     1      15.505  22.046  14.359  1.00  0.00     0.016 C 
HETATM   33  C12 UNL     1      16.933  21.932  13.874  1.00  0.00     0.006 C 
ENDBRANCH  31  32
ENDBRANCH   5  31
BRANCH  12  34
HETATM   34  N7  UNL     1      18.471  19.354  22.480  1.00  0.00    -0.196 N 
HETATM   35  C15 UNL     1      17.585  18.388  23.070  1.00  0.00     0.175 C 
BRANCH  34  36
HETATM   36  C16 UNL     1      19.742  19.718  22.983  1.00  0.00     0.131 C 
BRANCH  36  37
HETATM   37  C17 UNL     1      20.200  19.331  24.320  1.00  0.00     0.043 C 
HETATM   38  N8  UNL     1      21.640  19.035  24.358  1.00  0.00    -0.105 NA
BRANCH  37  39
HETATM   39  C18 UNL     1      19.760  19.977  25.556  1.00  0.00     0.026 C 
HETATM   40  C19 UNL     1      19.230  18.792  26.447  1.00  0.00     0.016 C 
HETATM   41  C20 UNL     1      20.749  20.647  26.435  1.00  0.00     0.016 C 
ENDBRANCH  37  39
ENDBRANCH  36  37
ENDBRANCH  34  36
ENDBRANCH  12  34
TORSDOF 12
ENDMDL
MODEL 5
REMARK VINA RESULT: -7.536575749      1.953      2.905
REMARK  12 active torsions:
REMARK  status: ('A' for Active; 'I' for Inactive)
REMARK    1  A    between atoms: C2_2  and  C3_3 
REMARK    2  A    between atoms: C3_3  and  C4_4 
REMARK    3  A    between atoms: C4_4  and  N1_5 
REMARK    4  A    between atoms: N1_5  and  C5_7 
REMARK    5  A    between atoms: C7_9  and  N2_10 
REMARK    6  A    between atoms: N2_10  and  C8_12 
REMARK    7  A    between atoms: N4_16  and  C10_18 
REMARK    8  A    between atoms: C10_18  and  C11_19 
REMARK    9  A    between atoms: C14_26  and  N7_27 
REMARK   10  A    between atoms: N7_27  and  C16_29 
REMARK   11  A    between atoms: C16_29  and  C17_30 
REMARK   12  A    between atoms: C17_30  and  C18_32 
ROOT
HETATM    1  C8  UNL     1      13.121  21.378  20.729  1.00  0.00     0.152 A 
HETATM    2  N3  UNL     1      12.671  22.184  21.725  1.00  0.00    -0.174 N 
ATOM      3  H3  UNL     1      12.817  23.191  21.655  1.00  0.00     0.186 HD
HETATM    4  C9  UNL     1      12.037  21.687  22.799  1.00  0.00     0.681 A 
HETATM    5  N4  UNL     1      11.636  22.509  23.706  1.00  0.00    -0.226 N 
ATOM      6  H4  UNL     1      11.152  22.160  24.532  1.00  0.00     0.177 HD
HETATM    7  N5  UNL     1      11.831  20.356  22.915  1.00  0.00    -0.174 N 
ATOM      8  H5  UNL     1      11.349  19.997  23.739  1.00  0.00     0.186 HD
HETATM    9  C13 UNL     1      12.246  19.495  21.972  1.00  0.00     0.167 A 
HETATM   10  N6  UNL     1      12.182  18.157  21.817  1.00  0.00    -0.173 N 
ATOM     11  H6  UNL     1      11.760  17.494  22.467  1.00  0.00     0.186 HD
HETATM   12  C14 UNL     1      12.768  17.863  20.669  1.00  0.00     0.686 A 
HETATM   13  N9  UNL     1      13.206  18.998  20.086  1.00  0.00    -0.184 N 
ATOM     14  H9  UNL     1      13.694  19.053  19.191  1.00  0.00     0.184 HD
HETATM   15  C21 UNL     1      12.900  20.039  20.868  1.00  0.00     0.138 A 
ENDROOT
BRANCH   1  16
HETATM   16  N2  UNL     1      13.713  21.947  19.754  1.00  0.00    -0.340 N 
ATOM     17  H2  UNL     1      13.133  22.577  19.201  1.00  0.00     0.167 HD
BRANCH  16  18
HETATM   18  C7  UNL     1      15.034  21.835  19.335  1.00  0.00     0.038 A 
HETATM   19  C6  UNL     1      16.053  21.921  20.286  1.00  0.00     0.077 A 
HETATM   20  C5  UNL     1      17.360  21.803  19.870  1.00  0.00     0.102 A 
HETATM   21  N10 UNL     1      17.647  21.608  18.551  1.00  0.00    -0.352 N 
HETATM   22  C23 UNL     1      16.699  21.520  17.614  1.00  0.00     0.092 A 
ATOM     23  H10 UNL     1      18.624  21.524  18.269  1.00  0.00     0.166 HD
HETATM   24  C22 UNL     1      15.382  21.636  18.017  1.00  0.00     0.046 A 
BRANCH  20  25
HETATM   25  N1  UNL     1      18.333  21.870  20.681  1.00  0.00    -0.376 N 
ATOM     26  H1  UNL     1      18.933  22.695  20.663  1.00  0.00     0.161 HD
BRANCH  25  27
HETATM   27  C4  UNL     1      18.617  20.826  21.624  1.00  0.00     0.121 C 
BRANCH  27  28
HETATM   28  C3  UNL     1      19.676  19.886  21.055  1.00  0.00     0.019 C 
BRANCH  28  29
HETATM   29  C2  UNL     1      19.822  18.659  21.949  1.00  0.00    -0.003 C 
HETATM   30  C1  UNL     1      19.091  18.856  23.253  1.00  0.00     0.005 C 
ENDBRANCH  28  29
ENDBRANCH  27  28
ENDBRANCH  25  27
ENDBRANCH  20  25
ENDBRANCH  16  18
ENDBRANCH   1  16
BRANCH   5  31
HETATM   31  C10 UNL     1      11.869  23.909  23.553  1.00  0.00     0.137 C 
BRANCH  31  32
HETATM   32  C11 UNL     1      11.448  24.683  24.785  1.00  0.00     0.016 C 
HETATM   33  C12 UNL     1      12.097  26.049  24.831  1.00  0.00     0.006 C 
ENDBRANCH  31  32
ENDBRANCH   5  31
BRANCH  12  34
HETATM   34  N7  UNL     1      12.973  16.569  20.026  1.00  0.00    -0.196 N 
HETATM   35  C15 UNL     1      12.030  16.283  18.978  1.00  0.00     0.175 C 
BRANCH  34  36
HETATM   36  C16 UNL     1      14.020  15.716  20.444  1.00  0.00     0.131 C 
BRANCH  36  37
HETATM   37  C17 UNL     1      15.430  16.005  20.166  1.00  0.00     0.043 C 
HETATM   38  N8  UNL     1      15.652  16.436  18.777  1.00  0.00    -0.105 NA
BRANCH  37  39
HETATM   39  C18 UNL     1      16.320  16.708  21.087  1.00  0.00     0.026 C 
HETATM   40  C19 UNL     1      16.466  18.147  20.465  1.00  0.00     0.016 C 
HETATM   41  C20 UNL     1      15.883  16.981  22.477  1.00  0.00     0.016 C 
ENDBRANCH  37  39
ENDBRANCH  36  37
ENDBRANCH  34  36
ENDBRANCH  12  34
TORSDOF 12
ENDMDL
