MODEL 1
REMARK VINA RESULT: -6.774621855      0.000      0.000
REMARK  14 active torsions:
REMARK  status: ('A' for Active; 'I' for Inactive)
REMARK    1  A    between atoms: C2_2  and  C3_3 
REMARK    2  A    between atoms: C3_3  and  C4_4 
REMARK    3  A    between atoms: C4_4  and  C5_5 
REMARK    4  A    between atoms: C5_5  and  N1_6 
REMARK    5  A    between atoms: N1_6  and  C7_8 
REMARK    6  A    between atoms: C7_8  and  O1_9 
REMARK    7  A    between atoms: O1_9  and  C8_10 
REMARK    8  A    between atoms: C8_10  and  C9_11 
REMARK    9  A    between atoms: C9_11  and  C10_12 
REMARK   10  A    between atoms: C15_17  and  O2_18 
REMARK   11  A    between atoms: C17_21  and  O3_22 
REMARK   12  A    between atoms: C18_24  and  O4_25 
REMARK   13  A    between atoms: C20_28  and  O5_29 
REMARK   14  A    between atoms: C21_31  and  O6_32 
ROOT
HETATM    1  C10 UNL     1      17.260  16.523  20.981  1.00  0.00    -0.012 C 
HETATM    2  C11 UNL     1      16.255  15.701  20.225  1.00  0.00     0.005 C 
HETATM    3  C12 UNL     1      15.071  15.397  21.117  1.00  0.00     0.007 C 
HETATM    4  C13 UNL     1      13.957  16.375  20.955  1.00  0.00     0.016 C 
HETATM    5  C14 UNL     1      12.663  15.709  21.339  1.00  0.00     0.013 C 
HETATM    6  C15 UNL     1      14.213  17.641  21.773  1.00  0.00     0.068 C 
HETATM    7  C16 UNL     1      12.991  18.483  21.653  1.00  0.00     0.073 C 
HETATM    8  C17 UNL     1      13.181  19.682  20.748  1.00  0.00     0.156 C 
HETATM    9  C18 UNL     1      14.300  20.495  21.384  1.00  0.00     0.096 C 
HETATM   10  C19 UNL     1      14.541  21.779  20.663  1.00  0.00     0.075 C 
HETATM   11  C20 UNL     1      16.040  21.816  20.455  1.00  0.00     0.150 C 
HETATM   12  C21 UNL     1      16.368  20.350  20.289  1.00  0.00     0.158 C 
HETATM   13  C22 UNL     1      15.570  19.735  21.448  1.00  0.00     0.024 C 
HETATM   14  C23 UNL     1      16.312  20.107  22.710  1.00  0.00     0.022 C 
HETATM   15  C24 UNL     1      15.461  18.270  21.222  1.00  0.00     0.034 C 
HETATM   16  C25 UNL     1      16.646  17.595  21.831  1.00  0.00     0.013 C 
ENDROOT
BRANCH   1  17
HETATM   17  C9  UNL     1      18.055  15.579  21.853  1.00  0.00     0.031 C 
BRANCH  17  18
HETATM   18  C8  UNL     1      18.005  15.953  23.316  1.00  0.00     0.170 C 
BRANCH  18  19
HETATM   19  O1  UNL     1      19.227  15.849  23.953  1.00  0.00    -0.362 OA
BRANCH  19  20
HETATM   20  C7  UNL     1      19.673  16.979  24.551  1.00  0.00     0.439 C 
BRANCH  20  21
HETATM   21  N1  UNL     1      19.022  18.205  24.329  1.00  0.00     0.107 N 
HETATM   22  C6  UNL     1      18.808  18.851  25.620  1.00  0.00     0.312 C 
BRANCH  21  23
HETATM   23  C5  UNL     1      19.782  19.198  23.543  1.00  0.00     0.274 C 
BRANCH  23  24
HETATM   24  C4  UNL     1      20.277  18.727  22.248  1.00  0.00     0.030 C 
BRANCH  24  25
HETATM   25  C3  UNL     1      19.683  19.403  21.068  1.00  0.00     0.001 C 
BRANCH  25  26
HETATM   26  C2  UNL     1      20.049  20.788  20.742  1.00  0.00    -0.005 C 
HETATM   27  C1  UNL     1      20.038  21.224  19.326  1.00  0.00     0.005 C 
ENDBRANCH  25  26
ENDBRANCH  24  25
ENDBRANCH  23  24
ENDBRANCH  21  23
ENDBRANCH  20  21
ENDBRANCH  19  20
ENDBRANCH  18  19
ENDBRANCH  17  18
ENDBRANCH   1  17
BRANCH   6  28
HETATM   28  O2  UNL     1      14.401  17.343  23.124  1.00  0.00    -0.389 OA
ATOM     29  H2  UNL     1      14.504  18.134  23.641  1.00  0.00     0.210 HD
ENDBRANCH   6  28
BRANCH   9  30
HETATM   30  O4  UNL     1      13.875  20.773  22.694  1.00  0.00    -0.386 OA
ATOM     31  H4  UNL     1      14.208  21.639  22.896  1.00  0.00     0.210 HD
ENDBRANCH   9  30
BRANCH  12  32
HETATM   32  O6  UNL     1      15.765  19.929  19.105  1.00  0.00    -0.392 OA
ATOM     33  H6  UNL     1      16.365  20.138  18.399  1.00  0.00     0.210 HD
ENDBRANCH  12  32
BRANCH   8  34
HETATM   34  O3  UNL     1      12.001  20.432  20.831  1.00  0.00    -0.392 OA
ATOM     35  H3  UNL     1      12.232  21.250  21.256  1.00  0.00     0.210 HD
ENDBRANCH   8  34
BRANCH  11  36
HETATM   36  O5  UNL     1      16.304  22.571  19.339  1.00  0.00    -0.393 OA
ATOM     37  H5  UNL     1      16.255  22.005  18.577  1.00  0.00     0.210 HD
ENDBRANCH  11  36
TORSDOF 14
ENDMDL
MODEL 2
REMARK VINA RESULT: -6.741766432      1.118      2.225
REMARK  14 active torsions:
REMARK  status: ('A' for Active; 'I' for Inactive)
REMARK    1  A    between atoms: C2_2  and  C3_3 
REMARK    2  A    between atoms: C3_3  and  C4_4 
REMARK    3  A    between atoms: C4_4  and  C5_5 
REMARK    4  A    between atoms: C5_5  and  N1_6 
REMARK    5  A    between atoms: N1_6  and  C7_8 
REMARK    6  A    between atoms: C7_8  and  O1_9 
REMARK    7  A    between atoms: O1_9  and  C8_10 
REMARK    8  A    between atoms: C8_10  and  C9_11 
REMARK    9  A    between atoms: C9_11  and  C10_12 
REMARK   10  A    between atoms: C15_17  and  O2_18 
REMARK   11  A    between atoms: C17_21  and  O3_22 
REMARK   12  A    between atoms: C18_24  and  O4_25 
REMARK   13  A    between atoms: C20_28  and  O5_29 
REMARK   14  A    between atoms: C21_31  and  O6_32 
ROOT
HETATM    1  C10 UNL     1      17.391  16.550  20.897  1.00  0.00    -0.012 C 
HETATM    2  C11 UNL     1      16.374  15.705  20.185  1.00  0.00     0.005 C 
HETATM    3  C12 UNL     1      15.233  15.380  21.126  1.00  0.00     0.007 C 
HETATM    4  C13 UNL     1      14.094  16.335  21.007  1.00  0.00     0.016 C 
HETATM    5  C14 UNL     1      12.831  15.644  21.445  1.00  0.00     0.013 C 
HETATM    6  C15 UNL     1      14.357  17.609  21.810  1.00  0.00     0.068 C 
HETATM    7  C16 UNL     1      13.115  18.425  21.738  1.00  0.00     0.073 C 
HETATM    8  C17 UNL     1      13.243  19.625  20.823  1.00  0.00     0.156 C 
HETATM    9  C18 UNL     1      14.370  20.462  21.410  1.00  0.00     0.096 C 
HETATM   10  C19 UNL     1      14.554  21.748  20.676  1.00  0.00     0.075 C 
HETATM   11  C20 UNL     1      16.043  21.815  20.408  1.00  0.00     0.150 C 
HETATM   12  C21 UNL     1      16.394  20.356  20.232  1.00  0.00     0.158 C 
HETATM   13  C22 UNL     1      15.657  19.729  21.424  1.00  0.00     0.024 C 
HETATM   14  C23 UNL     1      16.442  20.120  22.654  1.00  0.00     0.022 C 
HETATM   15  C24 UNL     1      15.568  18.261  21.207  1.00  0.00     0.034 C 
HETATM   16  C25 UNL     1      16.791  17.612  21.769  1.00  0.00     0.013 C 
ENDROOT
BRANCH   1  17
HETATM   17  C9  UNL     1      18.241  15.626  21.739  1.00  0.00     0.031 C 
BRANCH  17  18
HETATM   18  C8  UNL     1      19.691  15.616  21.314  1.00  0.00     0.170 C 
BRANCH  18  19
HETATM   19  O1  UNL     1      20.379  16.757  21.680  1.00  0.00    -0.362 OA
BRANCH  19  20
HETATM   20  C7  UNL     1      20.680  16.862  22.995  1.00  0.00     0.439 C 
BRANCH  20  21
HETATM   21  N1  UNL     1      20.388  18.045  23.697  1.00  0.00     0.107 N 
HETATM   22  C6  UNL     1      20.087  19.092  22.726  1.00  0.00     0.312 C 
BRANCH  21  23
HETATM   23  C5  UNL     1      19.192  17.995  24.564  1.00  0.00     0.274 C 
BRANCH  23  24
HETATM   24  C4  UNL     1      18.930  19.208  25.339  1.00  0.00     0.030 C 
BRANCH  24  25
HETATM   25  C3  UNL     1      19.742  19.349  26.574  1.00  0.00     0.001 C 
BRANCH  25  26
HETATM   26  C2  UNL     1      20.741  20.420  26.688  1.00  0.00    -0.005 C 
HETATM   27  C1  UNL     1      21.970  20.353  25.863  1.00  0.00     0.005 C 
ENDBRANCH  25  26
ENDBRANCH  24  25
ENDBRANCH  23  24
ENDBRANCH  21  23
ENDBRANCH  20  21
ENDBRANCH  19  20
ENDBRANCH  18  19
ENDBRANCH  17  18
ENDBRANCH   1  17
BRANCH   6  28
HETATM   28  O2  UNL     1      14.606  17.320  23.153  1.00  0.00    -0.389 OA
ATOM     29  H2  UNL     1      14.776  18.111  23.652  1.00  0.00     0.210 HD
ENDBRANCH   6  28
BRANCH   9  30
HETATM   30  O4  UNL     1      13.993  20.736  22.736  1.00  0.00    -0.386 OA
ATOM     31  H4  UNL     1      13.648  21.622  22.729  1.00  0.00     0.210 HD
ENDBRANCH   9  30
BRANCH  12  32
HETATM   32  O6  UNL     1      15.752  19.919  19.075  1.00  0.00    -0.392 OA
ATOM     33  H6  UNL     1      15.919  18.986  19.001  1.00  0.00     0.210 HD
ENDBRANCH  12  32
BRANCH   8  34
HETATM   34  O3  UNL     1      12.052  20.351  20.952  1.00  0.00    -0.392 OA
ATOM     35  H3  UNL     1      12.200  21.187  20.527  1.00  0.00     0.210 HD
ENDBRANCH   8  34
BRANCH  11  36
HETATM   36  O5  UNL     1      16.246  22.571  19.279  1.00  0.00    -0.393 OA
ATOM     37  H5  UNL     1      15.798  22.152  18.554  1.00  0.00     0.210 HD
ENDBRANCH  11  36
TORSDOF 14
ENDMDL
MODEL 3
REMARK VINA RESULT: -6.536762977      1.328      2.028
REMARK  14 active torsions:
REMARK  status: ('A' for Active; 'I' for Inactive)
REMARK    1  A    between atoms: C2_2  and  C3_3 
REMARK    2  A    between atoms: C3_3  and  C4_4 
REMARK    3  A    between atoms: C4_4  and  C5_5 
REMARK    4  A    between atoms: C5_5  and  N1_6 
REMARK    5  A    between atoms: N1_6  and  C7_8 
REMARK    6  A    between atoms: C7_8  and  O1_9 
REMARK    7  A    between atoms: O1_9  and  C8_10 
REMARK    8  A    between atoms: C8_10  and  C9_11 
REMARK    9  A    between atoms: C9_11  and  C10_12 
REMARK   10  A    between atoms: C15_17  and  O2_18 
REMARK   11  A    between atoms: C17_21  and  O3_22 
REMARK   12  A    between atoms: C18_24  and  O4_25 
REMARK   13  A    between atoms: C20_28  and  O5_29 
REMARK   14  A    between atoms: C21_31  and  O6_32 
ROOT
HETATM    1  C10 UNL     1      17.385  16.524  21.016  1.00  0.00    -0.012 C 
HETATM    2  C11 UNL     1      16.381  15.676  20.287  1.00  0.00     0.005 C 
HETATM    3  C12 UNL     1      15.216  15.366  21.203  1.00  0.00     0.007 C 
HETATM    4  C13 UNL     1      14.085  16.325  21.046  1.00  0.00     0.016 C 
HETATM    5  C14 UNL     1      12.808  15.644  21.459  1.00  0.00     0.013 C 
HETATM    6  C15 UNL     1      14.334  17.605  21.842  1.00  0.00     0.068 C 
HETATM    7  C16 UNL     1      13.098  18.427  21.730  1.00  0.00     0.073 C 
HETATM    8  C17 UNL     1      13.254  19.616  20.806  1.00  0.00     0.156 C 
HETATM    9  C18 UNL     1      14.371  20.454  21.413  1.00  0.00     0.096 C 
HETATM   10  C19 UNL     1      14.580  21.732  20.670  1.00  0.00     0.075 C 
HETATM   11  C20 UNL     1      16.075  21.789  20.438  1.00  0.00     0.150 C 
HETATM   12  C21 UNL     1      16.423  20.327  20.286  1.00  0.00     0.158 C 
HETATM   13  C22 UNL     1      15.653  19.715  21.466  1.00  0.00     0.024 C 
HETATM   14  C23 UNL     1      16.409  20.116  22.711  1.00  0.00     0.022 C 
HETATM   15  C24 UNL     1      15.563  18.246  21.262  1.00  0.00     0.034 C 
HETATM   16  C25 UNL     1      16.768  17.597  21.861  1.00  0.00     0.013 C 
ENDROOT
BRANCH   1  17
HETATM   17  C9  UNL     1      18.209  15.604  21.888  1.00  0.00     0.031 C 
BRANCH  17  18
HETATM   18  C8  UNL     1      18.314  16.091  23.314  1.00  0.00     0.170 C 
BRANCH  18  19
HETATM   19  O1  UNL     1      19.595  16.464  23.675  1.00  0.00    -0.362 OA
BRANCH  19  20
HETATM   20  C7  UNL     1      19.708  17.087  24.872  1.00  0.00     0.439 C 
BRANCH  20  21
HETATM   21  N1  UNL     1      18.780  18.074  25.249  1.00  0.00     0.107 N 
HETATM   22  C6  UNL     1      18.377  17.820  26.629  1.00  0.00     0.312 C 
BRANCH  21  23
HETATM   23  C5  UNL     1      19.294  19.459  25.266  1.00  0.00     0.274 C 
BRANCH  23  24
HETATM   24  C4  UNL     1      20.012  19.846  26.481  1.00  0.00     0.030 C 
BRANCH  24  25
HETATM   25  C3  UNL     1      21.315  20.518  26.251  1.00  0.00     0.001 C 
BRANCH  25  26
HETATM   26  C2  UNL     1      22.476  19.749  25.784  1.00  0.00    -0.005 C 
HETATM   27  C1  UNL     1      23.379  20.344  24.773  1.00  0.00     0.005 C 
ENDBRANCH  25  26
ENDBRANCH  24  25
ENDBRANCH  23  24
ENDBRANCH  21  23
ENDBRANCH  20  21
ENDBRANCH  19  20
ENDBRANCH  18  19
ENDBRANCH  17  18
ENDBRANCH   1  17
BRANCH   6  28
HETATM   28  O2  UNL     1      14.548  17.330  23.194  1.00  0.00    -0.389 OA
ATOM     29  H2  UNL     1      14.806  18.110  23.670  1.00  0.00     0.210 HD
ENDBRANCH   6  28
BRANCH   9  30
HETATM   30  O4  UNL     1      13.962  20.744  22.725  1.00  0.00    -0.386 OA
ATOM     31  H4  UNL     1      14.701  21.175  23.138  1.00  0.00     0.210 HD
ENDBRANCH   9  30
BRANCH  12  32
HETATM   32  O6  UNL     1      15.808  19.880  19.118  1.00  0.00    -0.392 OA
ATOM     33  H6  UNL     1      15.183  19.210  19.372  1.00  0.00     0.210 HD
ENDBRANCH  12  32
BRANCH   8  34
HETATM   34  O3  UNL     1      12.065  20.349  20.898  1.00  0.00    -0.392 OA
ATOM     35  H3  UNL     1      11.820  20.352  21.816  1.00  0.00     0.210 HD
ENDBRANCH   8  34
BRANCH  11  36
HETATM   36  O5  UNL     1      16.309  22.532  19.307  1.00  0.00    -0.393 OA
ATOM     37  H5  UNL     1      16.706  21.967  18.655  1.00  0.00     0.210 HD
ENDBRANCH  11  36
TORSDOF 14
ENDMDL
MODEL 4
REMARK VINA RESULT: -6.509603757      1.994      4.689
REMARK  14 active torsions:
REMARK  status: ('A' for Active; 'I' for Inactive)
REMARK    1  A    between atoms: C2_2  and  C3_3 
REMARK    2  A    between atoms: C3_3  and  C4_4 
REMARK    3  A    between atoms: C4_4  and  C5_5 
REMARK    4  A    between atoms: C5_5  and  N1_6 
REMARK    5  A    between atoms: N1_6  and  C7_8 
REMARK    6  A    between atoms: C7_8  and  O1_9 
REMARK    7  A    between atoms: O1_9  and  C8_10 
REMARK    8  A    between atoms: C8_10  and  C9_11 
REMARK    9  A    between atoms: C9_11  and  C10_12 
REMARK   10  A    between atoms: C15_17  and  O2_18 
REMARK   11  A    between atoms: C17_21  and  O3_22 
REMARK   12  A    between atoms: C18_24  and  O4_25 
REMARK   13  A    between atoms: C20_28  and  O5_29 
REMARK   14  A    between atoms: C21_31  and  O6_32 
ROOT
HETATM    1  C10 UNL     1      18.035  18.737  22.431  1.00  0.00    -0.012 C 
HETATM    2  C11 UNL     1      17.564  20.069  22.942  1.00  0.00     0.005 C 
HETATM    3  C12 UNL     1      17.261  20.984  21.775  1.00  0.00     0.007 C 
HETATM    4  C13 UNL     1      15.824  20.958  21.376  1.00  0.00     0.016 C 
HETATM    5  C14 UNL     1      15.480  22.262  20.708  1.00  0.00     0.013 C 
HETATM    6  C15 UNL     1      15.525  19.758  20.477  1.00  0.00     0.068 C 
HETATM    7  C16 UNL     1      14.113  19.901  20.027  1.00  0.00     0.073 C 
HETATM    8  C17 UNL     1      13.170  18.935  20.712  1.00  0.00     0.156 C 
HETATM    9  C18 UNL     1      13.681  17.548  20.351  1.00  0.00     0.096 C 
HETATM   10  C19 UNL     1      12.788  16.469  20.867  1.00  0.00     0.075 C 
HETATM   11  C20 UNL     1      13.729  15.502  21.554  1.00  0.00     0.150 C 
HETATM   12  C21 UNL     1      14.799  16.429  22.082  1.00  0.00     0.158 C 
HETATM   13  C22 UNL     1      15.055  17.315  20.854  1.00  0.00     0.024 C 
HETATM   14  C23 UNL     1      15.809  16.454  19.868  1.00  0.00     0.022 C 
HETATM   15  C24 UNL     1      15.799  18.526  21.291  1.00  0.00     0.034 C 
HETATM   16  C25 UNL     1      17.264  18.238  21.246  1.00  0.00     0.013 C 
ENDROOT
BRANCH   1  17
HETATM   17  C9  UNL     1      19.493  18.882  22.060  1.00  0.00     0.031 C 
BRANCH  17  18
HETATM   18  C8  UNL     1      20.411  18.128  22.994  1.00  0.00     0.170 C 
BRANCH  18  19
HETATM   19  O1  UNL     1      21.590  18.796  23.266  1.00  0.00    -0.362 OA
BRANCH  19  20
HETATM   20  C7  UNL     1      22.394  18.213  24.185  1.00  0.00     0.439 C 
BRANCH  20  21
HETATM   21  N1  UNL     1      23.043  18.992  25.159  1.00  0.00     0.107 N 
HETATM   22  C6  UNL     1      23.354  20.292  24.571  1.00  0.00     0.312 C 
BRANCH  21  23
HETATM   23  C5  UNL     1      22.242  19.314  26.357  1.00  0.00     0.274 C 
BRANCH  23  24
HETATM   24  C4  UNL     1      21.296  20.421  26.200  1.00  0.00     0.030 C 
BRANCH  24  25
HETATM   25  C3  UNL     1      19.870  20.018  26.114  1.00  0.00     0.001 C 
BRANCH  25  26
HETATM   26  C2  UNL     1      19.444  18.691  26.577  1.00  0.00    -0.005 C 
HETATM   27  C1  UNL     1      18.164  18.130  26.084  1.00  0.00     0.005 C 
ENDBRANCH  25  26
ENDBRANCH  24  25
ENDBRANCH  23  24
ENDBRANCH  21  23
ENDBRANCH  20  21
ENDBRANCH  19  20
ENDBRANCH  18  19
ENDBRANCH  17  18
ENDBRANCH   1  17
BRANCH   6  28
HETATM   28  O2  UNL     1      16.341  19.757  19.344  1.00  0.00    -0.389 OA
ATOM     29  H2  UNL     1      17.243  19.560  19.567  1.00  0.00     0.210 HD
ENDBRANCH   6  28
BRANCH   9  30
HETATM   30  O4  UNL     1      13.701  17.500  18.948  1.00  0.00    -0.386 OA
ATOM     31  H4  UNL     1      13.662  16.578  18.719  1.00  0.00     0.210 HD
ENDBRANCH   9  30
BRANCH  12  32
HETATM   32  O6  UNL     1      14.200  17.232  23.051  1.00  0.00    -0.392 OA
ATOM     33  H6  UNL     1      14.897  17.561  23.608  1.00  0.00     0.210 HD
ENDBRANCH  12  32
BRANCH   8  34
HETATM   34  O3  UNL     1      11.919  19.106  20.105  1.00  0.00    -0.392 OA
ATOM     35  H3  UNL     1      11.276  19.093  20.804  1.00  0.00     0.210 HD
ENDBRANCH   8  34
BRANCH  11  36
HETATM   36  O5  UNL     1      13.032  14.846  22.540  1.00  0.00    -0.393 OA
ATOM     37  H5  UNL     1      13.613  14.713  23.279  1.00  0.00     0.210 HD
ENDBRANCH  11  36
TORSDOF 14
ENDMDL
MODEL 5
REMARK VINA RESULT: -6.493627482      1.447      2.273
REMARK  14 active torsions:
REMARK  status: ('A' for Active; 'I' for Inactive)
REMARK    1  A    between atoms: C2_2  and  C3_3 
REMARK    2  A    between atoms: C3_3  and  C4_4 
REMARK    3  A    between atoms: C4_4  and  C5_5 
REMARK    4  A    between atoms: C5_5  and  N1_6 
REMARK    5  A    between atoms: N1_6  and  C7_8 
REMARK    6  A    between atoms: C7_8  and  O1_9 
REMARK    7  A    between atoms: O1_9  and  C8_10 
REMARK    8  A    between atoms: C8_10  and  C9_11 
REMARK    9  A    between atoms: C9_11  and  C10_12 
REMARK   10  A    between atoms: C15_17  and  O2_18 
REMARK   11  A    between atoms: C17_21  and  O3_22 
REMARK   12  A    between atoms: C18_24  and  O4_25 
REMARK   13  A    between atoms: C20_28  and  O5_29 
REMARK   14  A    between atoms: C21_31  and  O6_32 
ROOT
HETATM    1  C10 UNL     1      17.320  16.473  20.910  1.00  0.00    -0.012 C 
HETATM    2  C11 UNL     1      16.291  15.651  20.187  1.00  0.00     0.005 C 
HETATM    3  C12 UNL     1      15.136  15.347  21.117  1.00  0.00     0.007 C 
HETATM    4  C13 UNL     1      14.017  16.326  20.989  1.00  0.00     0.016 C 
HETATM    5  C14 UNL     1      12.737  15.660  21.415  1.00  0.00     0.013 C 
HETATM    6  C15 UNL     1      14.300  17.592  21.797  1.00  0.00     0.068 C 
HETATM    7  C16 UNL     1      13.075  18.434  21.716  1.00  0.00     0.073 C 
HETATM    8  C17 UNL     1      13.236  19.632  20.804  1.00  0.00     0.156 C 
HETATM    9  C18 UNL     1      14.375  20.445  21.404  1.00  0.00     0.096 C 
HETATM   10  C19 UNL     1      14.592  21.729  20.675  1.00  0.00     0.075 C 
HETATM   11  C20 UNL     1      16.085  21.765  20.420  1.00  0.00     0.150 C 
HETATM   12  C21 UNL     1      16.407  20.300  20.244  1.00  0.00     0.158 C 
HETATM   13  C22 UNL     1      15.646  19.686  21.428  1.00  0.00     0.024 C 
HETATM   14  C23 UNL     1      16.428  20.059  22.666  1.00  0.00     0.022 C 
HETATM   15  C24 UNL     1      15.529  18.220  21.207  1.00  0.00     0.034 C 
HETATM   16  C25 UNL     1      16.733  17.545  21.779  1.00  0.00     0.013 C 
ENDROOT
BRANCH   1  17
HETATM   17  C9  UNL     1      18.142  15.530  21.757  1.00  0.00     0.031 C 
BRANCH  17  18
HETATM   18  C8  UNL     1      18.794  16.218  22.934  1.00  0.00     0.170 C 
BRANCH  18  19
HETATM   19  O1  UNL     1      18.643  15.534  24.125  1.00  0.00    -0.362 OA
BRANCH  19  20
HETATM   20  C7  UNL     1      17.819  16.111  25.031  1.00  0.00     0.439 C 
BRANCH  20  21
HETATM   21  N1  UNL     1      18.266  16.361  26.340  1.00  0.00     0.107 N 
HETATM   22  C6  UNL     1      19.623  15.838  26.468  1.00  0.00     0.312 C 
BRANCH  21  23
HETATM   23  C5  UNL     1      18.385  17.785  26.714  1.00  0.00     0.274 C 
BRANCH  23  24
HETATM   24  C4  UNL     1      18.252  18.735  25.609  1.00  0.00     0.030 C 
BRANCH  24  25
HETATM   25  C3  UNL     1      19.469  19.536  25.323  1.00  0.00     0.001 C 
BRANCH  25  26
HETATM   26  C2  UNL     1      20.588  19.553  26.274  1.00  0.00    -0.005 C 
HETATM   27  C1  UNL     1      20.834  20.771  27.079  1.00  0.00     0.005 C 
ENDBRANCH  25  26
ENDBRANCH  24  25
ENDBRANCH  23  24
ENDBRANCH  21  23
ENDBRANCH  20  21
ENDBRANCH  19  20
ENDBRANCH  18  19
ENDBRANCH  17  18
ENDBRANCH   1  17
BRANCH   6  28
HETATM   28  O2  UNL     1      14.530  17.295  23.142  1.00  0.00    -0.389 OA
ATOM     29  H2  UNL     1      15.191  17.868  23.515  1.00  0.00     0.210 HD
ENDBRANCH   6  28
BRANCH   9  30
HETATM   30  O4  UNL     1      13.991  20.724  22.726  1.00  0.00    -0.386 OA
ATOM     31  H4  UNL     1      14.497  20.134  23.273  1.00  0.00     0.210 HD
ENDBRANCH   9  30
BRANCH  12  32
HETATM   32  O6  UNL     1      15.767  19.878  19.080  1.00  0.00    -0.392 OA
ATOM     33  H6  UNL     1      16.424  19.456  18.540  1.00  0.00     0.210 HD
ENDBRANCH  12  32
BRANCH   8  34
HETATM   34  O3  UNL     1      12.059  20.383  20.924  1.00  0.00    -0.392 OA
ATOM     35  H3  UNL     1      11.517  20.154  20.179  1.00  0.00     0.210 HD
ENDBRANCH   8  34
BRANCH  11  36
HETATM   36  O5  UNL     1      16.313  22.520  19.295  1.00  0.00    -0.393 OA
ATOM     37  H5  UNL     1      15.585  22.394  18.697  1.00  0.00     0.210 HD
ENDBRANCH  11  36
TORSDOF 14
ENDMDL
