MODEL 1
REMARK VINA RESULT: -6.462429488      0.000      0.000
REMARK  6 active torsions:
REMARK  status: ('A' for Active; 'I' for Inactive)
REMARK    1  A    between atoms: C2_2  and  N1_3 
REMARK    2  A    between atoms: N1_3  and  C4_5 
REMARK    3  A    between atoms: C4_5  and  C5_6 
REMARK    4  A    between atoms: C7_10  and  N3_11 
REMARK    5  A    between atoms: N3_11  and  C8_13 
REMARK    6  A    between atoms: C10_20  and  N6_21 
ROOT
HETATM    1  C8  UNL     1      34.772   4.736  24.259  1.00  0.00     0.683 C 
HETATM    2  N4  UNL     1      34.290   5.796  24.799  1.00  0.00    -0.182 N 
ATOM      3  H4  UNL     1      33.854   5.703  25.716  1.00  0.00     0.181 HD
HETATM    4  C9  UNL     1      34.320   7.111  24.203  1.00  0.00     0.402 C 
HETATM    5  N5  UNL     1      34.669   7.088  22.785  1.00  0.00     0.023 N 
ATOM      6  H51 UNL     1      34.806   8.020  22.393  1.00  0.00     0.287 HD
ATOM      7  H52 UNL     1      33.891   6.806  22.188  1.00  0.00     0.287 HD
HETATM    8  C10 UNL     1      35.833   6.236  22.641  1.00  0.00     0.459 C 
HETATM    9  N7  UNL     1      35.382   4.880  22.978  1.00  0.00    -0.159 N 
ATOM     10  H7  UNL     1      35.498   4.094  22.339  1.00  0.00     0.182 HD
HETATM   11  C11 UNL     1      36.846   6.723  23.604  1.00  0.00     0.319 C 
HETATM   12  O1  UNL     1      37.976   6.191  23.644  1.00  0.00    -0.265 OA
HETATM   13  N8  UNL     1      36.561   7.792  24.491  1.00  0.00    -0.281 N 
ATOM     14  H8  UNL     1      37.307   8.390  24.848  1.00  0.00     0.184 HD
HETATM   15  N9  UNL     1      35.222   8.007  24.865  1.00  0.00    -0.185 NA
HETATM   16  C12 UNL     1      35.039   7.909  26.303  1.00  0.00     0.140 C 
ENDROOT
BRANCH   1  17
HETATM   17  N3  UNL     1      34.713   3.482  24.888  1.00  0.00    -0.162 N 
ATOM     18  H3  UNL     1      33.956   3.273  25.540  1.00  0.00     0.187 HD
BRANCH  17  19
HETATM   19  C7  UNL     1      35.717   2.493  24.616  1.00  0.00     0.190 C 
HETATM   20  N2  UNL     1      35.479   1.294  24.227  1.00  0.00    -0.360 N 
HETATM   21  C6  UNL     1      36.729   0.546  24.041  1.00  0.00     0.149 C 
ATOM     22  H2  UNL     1      34.547   0.911  24.068  1.00  0.00     0.162 HD
HETATM   23  C5  UNL     1      37.717   1.696  23.860  1.00  0.00     0.130 C 
HETATM   24  N10 UNL     1      37.124   2.693  24.738  1.00  0.00    -0.354 N 
ATOM     25  H10 UNL     1      37.607   3.383  25.314  1.00  0.00     0.163 HD
BRANCH  23  26
HETATM   26  C4  UNL     1      37.664   2.229  22.474  1.00  0.00     0.298 C 
BRANCH  26  27
HETATM   27  N1  UNL     1      38.711   3.187  22.148  1.00  0.00     0.085 N 
HETATM   28  C3  UNL     1      39.946   2.383  22.186  1.00  0.00     0.310 C 
BRANCH  27  29
HETATM   29  C2  UNL     1      38.462   3.647  20.791  1.00  0.00     0.267 C 
HETATM   30  C1  UNL     1      38.153   2.551  19.826  1.00  0.00     0.037 C 
ENDBRANCH  27  29
ENDBRANCH  26  27
ENDBRANCH  23  26
ENDBRANCH  17  19
ENDBRANCH   1  17
BRANCH   8  31
HETATM   31  N6  UNL     1      36.338   6.315  21.285  1.00  0.00    -0.017 N 
ATOM     32  H63 UNL     1      35.607   6.568  20.619  1.00  0.00     0.280 HD
ATOM     33  H62 UNL     1      36.947   7.121  21.150  1.00  0.00     0.280 HD
ATOM     34  H61 UNL     1      36.799   5.441  21.034  1.00  0.00     0.280 HD
ENDBRANCH   8  31
TORSDOF 6
ENDMDL
MODEL 2
REMARK VINA RESULT: -6.279665781      1.837      3.634
REMARK  6 active torsions:
REMARK  status: ('A' for Active; 'I' for Inactive)
REMARK    1  A    between atoms: C2_2  and  N1_3 
REMARK    2  A    between atoms: N1_3  and  C4_5 
REMARK    3  A    between atoms: C4_5  and  C5_6 
REMARK    4  A    between atoms: C7_10  and  N3_11 
REMARK    5  A    between atoms: N3_11  and  C8_13 
REMARK    6  A    between atoms: C10_20  and  N6_21 
ROOT
HETATM    1  C8  UNL     1      35.840   6.170  23.133  1.00  0.00     0.683 C 
HETATM    2  N4  UNL     1      36.517   6.954  23.891  1.00  0.00    -0.182 N 
ATOM      3  H4  UNL     1      37.497   7.110  23.656  1.00  0.00     0.181 HD
HETATM    4  C9  UNL     1      35.991   7.634  25.053  1.00  0.00     0.402 C 
HETATM    5  N5  UNL     1      34.699   7.110  25.484  1.00  0.00     0.023 N 
ATOM      6  H51 UNL     1      34.273   7.663  26.228  1.00  0.00     0.287 HD
ATOM      7  H52 UNL     1      34.776   6.232  25.999  1.00  0.00     0.287 HD
HETATM    8  C10 UNL     1      33.860   7.005  24.306  1.00  0.00     0.459 C 
HETATM    9  N7  UNL     1      34.471   5.963  23.471  1.00  0.00    -0.159 N 
ATOM     10  H7  UNL     1      33.950   5.146  23.154  1.00  0.00     0.182 HD
HETATM   11  C11 UNL     1      33.893   8.323  23.634  1.00  0.00     0.319 C 
HETATM   12  O1  UNL     1      33.202   8.520  22.611  1.00  0.00    -0.265 OA
HETATM   13  N8  UNL     1      34.699   9.379  24.129  1.00  0.00    -0.281 N 
ATOM     14  H8  UNL     1      34.449  10.354  23.958  1.00  0.00     0.184 HD
HETATM   15  N9  UNL     1      35.853   9.047  24.861  1.00  0.00    -0.185 NA
HETATM   16  C12 UNL     1      37.057   9.576  24.244  1.00  0.00     0.140 C 
ENDROOT
BRANCH   1  17
HETATM   17  N3  UNL     1      36.407   5.536  22.015  1.00  0.00    -0.162 N 
ATOM     18  H3  UNL     1      36.233   5.903  21.079  1.00  0.00     0.187 HD
BRANCH  17  19
HETATM   19  C7  UNL     1      37.231   4.375  22.188  1.00  0.00     0.190 C 
HETATM   20  N2  UNL     1      38.416   4.382  22.682  1.00  0.00    -0.360 N 
HETATM   21  C6  UNL     1      38.977   3.026  22.718  1.00  0.00     0.149 C 
ATOM     22  H2  UNL     1      38.902   5.218  23.006  1.00  0.00     0.162 HD
HETATM   23  C5  UNL     1      37.697   2.194  22.672  1.00  0.00     0.130 C 
HETATM   24  N10 UNL     1      36.861   3.043  21.838  1.00  0.00    -0.354 N 
ATOM     25  H10 UNL     1      36.164   2.750  21.153  1.00  0.00     0.163 HD
BRANCH  23  26
HETATM   26  C4  UNL     1      37.064   2.120  24.015  1.00  0.00     0.298 C 
BRANCH  26  27
HETATM   27  N1  UNL     1      35.961   1.175  24.118  1.00  0.00     0.085 N 
HETATM   28  C3  UNL     1      36.579  -0.022  24.716  1.00  0.00     0.310 C 
BRANCH  27  29
HETATM   29  C2  UNL     1      34.994   1.748  25.042  1.00  0.00     0.267 C 
HETATM   30  C1  UNL     1      35.242   3.184  25.368  1.00  0.00     0.037 C 
ENDBRANCH  27  29
ENDBRANCH  26  27
ENDBRANCH  23  26
ENDBRANCH  17  19
ENDBRANCH   1  17
BRANCH   8  31
HETATM   31  N6  UNL     1      32.506   6.662  24.692  1.00  0.00    -0.017 N 
ATOM     32  H63 UNL     1      32.360   5.653  24.718  1.00  0.00     0.280 HD
ATOM     33  H62 UNL     1      32.327   6.864  25.675  1.00  0.00     0.280 HD
ATOM     34  H61 UNL     1      31.841   7.129  24.077  1.00  0.00     0.280 HD
ENDBRANCH   8  31
TORSDOF 6
ENDMDL
MODEL 3
REMARK VINA RESULT: -6.196171368      1.853      3.661
REMARK  6 active torsions:
REMARK  status: ('A' for Active; 'I' for Inactive)
REMARK    1  A    between atoms: C2_2  and  N1_3 
REMARK    2  A    between atoms: N1_3  and  C4_5 
REMARK    3  A    between atoms: C4_5  and  C5_6 
REMARK    4  A    between atoms: C7_10  and  N3_11 
REMARK    5  A    between atoms: N3_11  and  C8_13 
REMARK    6  A    between atoms: C10_20  and  N6_21 
ROOT
HETATM    1  C8  UNL     1      35.742   5.485  23.108  1.00  0.00     0.683 C 
HETATM    2  N4  UNL     1      36.051   6.613  22.579  1.00  0.00    -0.182 N 
ATOM      3  H4  UNL     1      36.368   6.610  21.610  1.00  0.00     0.181 HD
HETATM    4  C9  UNL     1      35.982   7.887  23.256  1.00  0.00     0.402 C 
HETATM    5  N5  UNL     1      35.826   7.757  24.702  1.00  0.00     0.023 N 
ATOM      6  H51 UNL     1      35.659   8.650  25.167  1.00  0.00     0.287 HD
ATOM      7  H52 UNL     1      36.699   7.522  25.177  1.00  0.00     0.287 HD
HETATM    8  C10 UNL     1      34.773   6.790  24.939  1.00  0.00     0.459 C 
HETATM    9  N7  UNL     1      35.296   5.503  24.462  1.00  0.00    -0.159 N 
ATOM     10  H7  UNL     1      35.338   4.678  25.059  1.00  0.00     0.182 HD
HETATM   11  C11 UNL     1      33.602   7.224  24.145  1.00  0.00     0.319 C 
HETATM   12  O1  UNL     1      32.529   6.587  24.215  1.00  0.00    -0.265 OA
HETATM   13  N8  UNL     1      33.669   8.360  23.299  1.00  0.00    -0.281 N 
ATOM     14  H8  UNL     1      32.832   8.899  23.078  1.00  0.00     0.184 HD
HETATM   15  N9  UNL     1      34.922   8.723  22.773  1.00  0.00    -0.185 NA
HETATM   16  C12 UNL     1      34.922   8.718  21.320  1.00  0.00     0.140 C 
ENDROOT
BRANCH   1  17
HETATM   17  N3  UNL     1      35.830   4.276  22.397  1.00  0.00    -0.162 N 
ATOM     18  H3  UNL     1      35.019   3.925  21.887  1.00  0.00     0.187 HD
BRANCH  17  19
HETATM   19  C7  UNL     1      37.059   3.536  22.389  1.00  0.00     0.190 C 
HETATM   20  N2  UNL     1      38.171   3.955  22.873  1.00  0.00    -0.360 N 
HETATM   21  C6  UNL     1      39.228   2.951  22.700  1.00  0.00     0.149 C 
ATOM     22  H2  UNL     1      38.303   4.864  23.317  1.00  0.00     0.162 HD
HETATM   23  C5  UNL     1      38.388   1.687  22.536  1.00  0.00     0.130 C 
HETATM   24  N10 UNL     1      37.229   2.229  21.843  1.00  0.00    -0.354 N 
ATOM     25  H10 UNL     1      36.664   1.776  21.126  1.00  0.00     0.163 HD
BRANCH  23  26
HETATM   26  C4  UNL     1      37.926   1.180  23.855  1.00  0.00     0.298 C 
BRANCH  26  27
HETATM   27  N1  UNL     1      36.681   0.427  23.818  1.00  0.00     0.085 N 
HETATM   28  C3  UNL     1      37.122  -0.978  23.757  1.00  0.00     0.310 C 
BRANCH  27  29
HETATM   29  C2  UNL     1      35.994   0.676  25.075  1.00  0.00     0.267 C 
HETATM   30  C1  UNL     1      35.063   1.843  25.039  1.00  0.00     0.037 C 
ENDBRANCH  27  29
ENDBRANCH  26  27
ENDBRANCH  23  26
ENDBRANCH  17  19
ENDBRANCH   1  17
BRANCH   8  31
HETATM   31  N6  UNL     1      34.447   6.749  26.350  1.00  0.00    -0.017 N 
ATOM     32  H63 UNL     1      33.826   5.972  26.577  1.00  0.00     0.280 HD
ATOM     33  H62 UNL     1      35.247   6.471  26.919  1.00  0.00     0.280 HD
ATOM     34  H61 UNL     1      34.061   7.646  26.644  1.00  0.00     0.280 HD
ENDBRANCH   8  31
TORSDOF 6
ENDMDL
MODEL 4
REMARK VINA RESULT: -6.062810462      1.474      1.826
REMARK  6 active torsions:
REMARK  status: ('A' for Active; 'I' for Inactive)
REMARK    1  A    between atoms: C2_2  and  N1_3 
REMARK    2  A    between atoms: N1_3  and  C4_5 
REMARK    3  A    between atoms: C4_5  and  C5_6 
REMARK    4  A    between atoms: C7_10  and  N3_11 
REMARK    5  A    between atoms: N3_11  and  C8_13 
REMARK    6  A    between atoms: C10_20  and  N6_21 
ROOT
HETATM    1  C8  UNL     1      35.739   3.635  24.273  1.00  0.00     0.683 C 
HETATM    2  N4  UNL     1      34.872   4.568  24.436  1.00  0.00    -0.182 N 
ATOM      3  H4  UNL     1      34.263   4.509  25.252  1.00  0.00     0.181 HD
HETATM    4  C9  UNL     1      34.697   5.694  23.550  1.00  0.00     0.402 C 
HETATM    5  N5  UNL     1      35.382   5.527  22.271  1.00  0.00     0.023 N 
ATOM      6  H51 UNL     1      35.358   6.367  21.693  1.00  0.00     0.287 HD
ATOM      7  H52 UNL     1      34.882   4.910  21.630  1.00  0.00     0.287 HD
HETATM    8  C10 UNL     1      36.729   5.075  22.558  1.00  0.00     0.459 C 
HETATM    9  N7  UNL     1      36.587   3.730  23.132  1.00  0.00    -0.159 N 
ATOM     10  H7  UNL     1      37.064   2.919  22.739  1.00  0.00     0.182 HD
HETATM   11  C11 UNL     1      37.302   6.022  23.540  1.00  0.00     0.319 C 
HETATM   12  O1  UNL     1      38.486   5.891  23.918  1.00  0.00    -0.265 OA
HETATM   13  N8  UNL     1      36.530   7.089  24.068  1.00  0.00    -0.281 N 
ATOM     14  H8  UNL     1      36.976   7.945  24.397  1.00  0.00     0.184 HD
HETATM   15  N9  UNL     1      35.133   6.933  24.125  1.00  0.00    -0.185 NA
HETATM   16  C12 UNL     1      34.631   7.045  25.483  1.00  0.00     0.140 C 
ENDROOT
BRANCH   1  17
HETATM   17  N3  UNL     1      35.862   2.562  25.171  1.00  0.00    -0.162 N 
ATOM     18  H3  UNL     1      35.625   2.691  26.156  1.00  0.00     0.187 HD
BRANCH  17  19
HETATM   19  C7  UNL     1      36.322   1.285  24.706  1.00  0.00     0.190 C 
HETATM   20  N2  UNL     1      35.600   0.431  24.074  1.00  0.00    -0.360 N 
HETATM   21  C6  UNL     1      36.379  -0.770  23.745  1.00  0.00     0.149 C 
ATOM     22  H2  UNL     1      34.619   0.569  23.834  1.00  0.00     0.162 HD
HETATM   23  C5  UNL     1      37.798  -0.209  23.813  1.00  0.00     0.130 C 
HETATM   24  N10 UNL     1      37.642   0.772  24.876  1.00  0.00    -0.354 N 
ATOM     25  H10 UNL     1      38.326   1.036  25.585  1.00  0.00     0.163 HD
BRANCH  23  26
HETATM   26  C4  UNL     1      38.139   0.527  22.568  1.00  0.00     0.298 C 
BRANCH  26  27
HETATM   27  N1  UNL     1      39.563   0.746  22.360  1.00  0.00     0.085 N 
HETATM   28  C3  UNL     1      39.848   0.033  21.102  1.00  0.00     0.310 C 
BRANCH  27  29
HETATM   29  C2  UNL     1      39.751   2.176  22.172  1.00  0.00     0.267 C 
HETATM   30  C1  UNL     1      40.178   2.900  23.406  1.00  0.00     0.037 C 
ENDBRANCH  27  29
ENDBRANCH  26  27
ENDBRANCH  23  26
ENDBRANCH  17  19
ENDBRANCH   1  17
BRANCH   8  31
HETATM   31  N6  UNL     1      37.515   5.062  21.342  1.00  0.00    -0.017 N 
ATOM     32  H63 UNL     1      37.688   6.003  20.988  1.00  0.00     0.280 HD
ATOM     33  H62 UNL     1      38.482   4.789  21.515  1.00  0.00     0.280 HD
ATOM     34  H61 UNL     1      37.068   4.467  20.645  1.00  0.00     0.280 HD
ENDBRANCH   8  31
TORSDOF 6
ENDMDL
MODEL 5
REMARK VINA RESULT: -6.057811467      1.954      3.031
REMARK  6 active torsions:
REMARK  status: ('A' for Active; 'I' for Inactive)
REMARK    1  A    between atoms: C2_2  and  N1_3 
REMARK    2  A    between atoms: N1_3  and  C4_5 
REMARK    3  A    between atoms: C4_5  and  C5_6 
REMARK    4  A    between atoms: C7_10  and  N3_11 
REMARK    5  A    between atoms: N3_11  and  C8_13 
REMARK    6  A    between atoms: C10_20  and  N6_21 
ROOT
HETATM    1  C8  UNL     1      34.143   6.609  24.290  1.00  0.00     0.683 C 
HETATM    2  N4  UNL     1      33.955   7.332  25.334  1.00  0.00    -0.182 N 
ATOM      3  H4  UNL     1      34.026   6.876  26.243  1.00  0.00     0.181 HD
HETATM    4  C9  UNL     1      33.651   8.743  25.315  1.00  0.00     0.402 C 
HETATM    5  N5  UNL     1      33.263   9.226  23.993  1.00  0.00     0.023 N 
ATOM      6  H51 UNL     1      33.162  10.241  23.953  1.00  0.00     0.287 HD
ATOM      7  H52 UNL     1      32.301   8.988  23.748  1.00  0.00     0.287 HD
HETATM    8  C10 UNL     1      34.232   8.715  23.044  1.00  0.00     0.459 C 
HETATM    9  N7  UNL     1      34.045   7.258  23.025  1.00  0.00    -0.159 N 
ATOM     10  H7  UNL     1      33.856   6.746  22.163  1.00  0.00     0.182 HD
HETATM   11  C11 UNL     1      35.572   9.079  23.558  1.00  0.00     0.319 C 
HETATM   12  O1  UNL     1      36.593   8.801  22.892  1.00  0.00    -0.265 OA
HETATM   13  N8  UNL     1      35.725   9.744  24.800  1.00  0.00    -0.281 N 
ATOM     14  H8  UNL     1      36.533  10.342  24.979  1.00  0.00     0.184 HD
HETATM   15  N9  UNL     1      34.735   9.557  25.781  1.00  0.00    -0.185 NA
HETATM   16  C12 UNL     1      35.281   8.990  27.002  1.00  0.00     0.140 C 
ENDROOT
BRANCH   1  17
HETATM   17  N3  UNL     1      34.437   5.238  24.371  1.00  0.00    -0.162 N 
ATOM     18  H3  UNL     1      33.887   4.634  24.984  1.00  0.00     0.187 HD
BRANCH  17  19
HETATM   19  C7  UNL     1      35.509   4.685  23.594  1.00  0.00     0.190 C 
HETATM   20  N2  UNL     1      36.702   5.156  23.550  1.00  0.00    -0.360 N 
HETATM   21  C6  UNL     1      37.550   4.353  22.660  1.00  0.00     0.149 C 
ATOM     22  H2  UNL     1      37.019   5.978  24.065  1.00  0.00     0.162 HD
HETATM   23  C5  UNL     1      36.774   3.038  22.649  1.00  0.00     0.130 C 
HETATM   24  N10 UNL     1      35.411   3.535  22.756  1.00  0.00    -0.354 N 
ATOM     25  H10 UNL     1      34.571   3.147  22.328  1.00  0.00     0.163 HD
BRANCH  23  26
HETATM   26  C4  UNL     1      37.060   2.242  23.871  1.00  0.00     0.298 C 
BRANCH  26  27
HETATM   27  N1  UNL     1      37.523   0.885  23.621  1.00  0.00     0.085 N 
HETATM   28  C3  UNL     1      38.825   0.825  24.311  1.00  0.00     0.310 C 
BRANCH  27  29
HETATM   29  C2  UNL     1      36.580  -0.014  24.267  1.00  0.00     0.267 C 
HETATM   30  C1  UNL     1      36.367  -1.298  23.536  1.00  0.00     0.037 C 
ENDBRANCH  27  29
ENDBRANCH  26  27
ENDBRANCH  23  26
ENDBRANCH  17  19
ENDBRANCH   1  17
BRANCH   8  31
HETATM   31  N6  UNL     1      34.007   9.305  21.740  1.00  0.00    -0.017 N 
ATOM     32  H63 UNL     1      33.107   9.029  21.346  1.00  0.00     0.280 HD
ATOM     33  H62 UNL     1      33.841  10.309  21.799  1.00  0.00     0.280 HD
ATOM     34  H61 UNL     1      34.783   9.080  21.118  1.00  0.00     0.280 HD
ENDBRANCH   8  31
TORSDOF 6
ENDMDL
