MODEL 1
REMARK VINA RESULT: -8.161742950      0.000      0.000
REMARK  16 active torsions:
REMARK  status: ('A' for Active; 'I' for Inactive)
REMARK    1  A    between atoms: C2_2  and  C3_3 
REMARK    2  A    between atoms: C3_3  and  C4_4 
REMARK    3  A    between atoms: C4_4  and  C5_5 
REMARK    4  A    between atoms: C5_5  and  C6_6 
REMARK    5  A    between atoms: C6_6  and  C7_7 
REMARK    6  A    between atoms: C7_7  and  C8_8 
REMARK    7  A    between atoms: C8_8  and  C9_9 
REMARK    8  A    between atoms: C9_9  and  C10_10 
REMARK    9  A    between atoms: C10_10  and  C11_11 
REMARK   10  A    between atoms: C11_11  and  C12_12 
REMARK   11  A    between atoms: C12_12  and  N1_13 
REMARK       I    between atoms: N1_13  and  C13_15 
REMARK       I    between atoms: C13_15  and  N2_17 
REMARK   12  A    between atoms: N2_17  and  C14_18 
REMARK   13  A    between atoms: N2_17  and  C15_21 
REMARK   14  A    between atoms: C14_18  and  O2_19 
REMARK   15  A    between atoms: C16_24  and  N4_25 
REMARK   16  A    between atoms: C19_34  and  C20_35 
ROOT
HETATM    1  C15 UNL     1     191.807 125.427  33.157  1.00  0.00     0.158 A 
HETATM    2  N3  UNL     1     190.978 125.889  32.172  1.00  0.00    -0.174 N 
ATOM      3  H3  UNL     1     189.971 125.880  32.334  1.00  0.00     0.186 HD
HETATM    4  C16 UNL     1     191.439 126.355  30.998  1.00  0.00     0.678 A 
HETATM    5  N5  UNL     1     192.753 126.392  30.731  1.00  0.00    -0.189 N 
ATOM      6  H5  UNL     1     193.094 126.748  29.837  1.00  0.00     0.184 HD
HETATM    7  C17 UNL     1     193.615 125.948  31.670  1.00  0.00     0.093 A 
HETATM    8  C18 UNL     1     193.143 125.459  32.899  1.00  0.00     0.107 A 
HETATM    9  N6  UNL     1     194.012 125.020  33.829  1.00  0.00    -0.347 N 
ATOM     10  H6  UNL     1     193.648 124.669  34.715  1.00  0.00     0.166 HD
HETATM   11  C19 UNL     1     195.344 125.028  33.632  1.00  0.00     0.092 A 
HETATM   12  C23 UNL     1     195.797 125.515  32.411  1.00  0.00     0.091 A 
HETATM   13  N10 UNL     1     197.048 125.656  31.906  1.00  0.00    -0.298 N 
ATOM     14  H10 UNL     1     197.905 125.404  32.396  1.00  0.00     0.187 HD
HETATM   15  N11 UNL     1     196.998 126.167  30.691  1.00  0.00    -0.310 N 
ATOM     16  H11 UNL     1     197.806 126.368  30.102  1.00  0.00     0.186 HD
HETATM   17  C24 UNL     1     195.717 126.383  30.352  1.00  0.00     0.123 A 
HETATM   18  C25 UNL     1     194.958 125.977  31.424  1.00  0.00     0.041 A 
ENDROOT
BRANCH   1  19
HETATM   19  N2  UNL     1     191.239 124.954  34.341  1.00  0.00    -0.261 N 
HETATM   20  C13 UNL     1     190.640 123.632  34.297  1.00  0.00     0.325 C 
HETATM   21  N1  UNL     1     190.931 122.800  33.193  1.00  0.00    -0.343 N 
HETATM   22  O1  UNL     1     189.904 123.323  35.249  1.00  0.00    -0.247 OA
ATOM     23  H1  UNL     1     191.573 123.149  32.480  1.00  0.00     0.164 HD
BRANCH  21  24
HETATM   24  C12 UNL     1     190.372 121.489  33.021  1.00  0.00     0.124 C 
BRANCH  24  25
HETATM   25  C11 UNL     1     190.623 120.870  31.677  1.00  0.00     0.020 C 
BRANCH  25  26
HETATM   26  C10 UNL     1     189.360 120.686  30.904  1.00  0.00     0.002 C 
BRANCH  26  27
HETATM   27  C9  UNL     1     188.076 121.093  31.449  1.00  0.00     0.000 C 
BRANCH  27  28
HETATM   28  C8  UNL     1     187.036 120.141  31.856  1.00  0.00     0.000 C 
BRANCH  28  29
HETATM   29  C7  UNL     1     185.786 120.704  32.367  1.00  0.00     0.000 C 
BRANCH  29  30
HETATM   30  C6  UNL     1     184.641 120.744  31.331  1.00  0.00     0.000 C 
BRANCH  30  31
HETATM   31  C5  UNL     1     184.262 122.161  31.041  1.00  0.00     0.000 C 
BRANCH  31  32
HETATM   32  C4  UNL     1     184.613 123.013  32.269  1.00  0.00     0.000 C 
BRANCH  32  33
HETATM   33  C3  UNL     1     184.635 124.482  31.857  1.00  0.00    -0.000 C 
BRANCH  33  34
HETATM   34  C2  UNL     1     183.845 125.264  32.861  1.00  0.00    -0.005 C 
HETATM   35  C1  UNL     1     183.554 124.479  34.110  1.00  0.00     0.005 C 
ENDBRANCH  33  34
ENDBRANCH  32  33
ENDBRANCH  31  32
ENDBRANCH  30  31
ENDBRANCH  29  30
ENDBRANCH  28  29
ENDBRANCH  27  28
ENDBRANCH  26  27
ENDBRANCH  25  26
ENDBRANCH  24  25
ENDBRANCH  21  24
BRANCH  19  36
HETATM   36  C14 UNL     1     191.223 125.657  35.592  1.00  0.00     0.302 C 
BRANCH  36  37
HETATM   37  O2  UNL     1     192.245 125.225  36.434  1.00  0.00    -0.382 OA
ATOM     38  H2  UNL     1     192.906 125.897  36.554  1.00  0.00     0.211 HD
ENDBRANCH  36  37
ENDBRANCH  19  36
ENDBRANCH   1  19
BRANCH   4  39
HETATM   39  N4  UNL     1     190.565 126.777  30.111  1.00  0.00    -0.234 N 
ATOM     40  H42 UNL     1     190.709 126.599  29.117  1.00  0.00     0.174 HD
ATOM     41  H41 UNL     1     189.745 127.283  30.446  1.00  0.00     0.174 HD
ENDBRANCH   4  39
BRANCH  11  42
HETATM   42  C20 UNL     1     196.298 124.555  34.629  1.00  0.00     0.095 A 
HETATM   43  C21 UNL     1     196.946 125.204  35.634  1.00  0.00     0.144 A 
HETATM   44  N7  UNL     1     197.729 124.339  36.296  1.00  0.00    -0.291 N 
HETATM   45  C22 UNL     1     198.598 124.579  37.437  1.00  0.00     0.178 C 
HETATM   46  N8  UNL     1     197.563 123.161  35.704  1.00  0.00    -0.241 N 
HETATM   47  N9  UNL     1     196.716 123.273  34.711  1.00  0.00    -0.283 N 
ATOM     48  H8  UNL     1     198.028 122.296  35.982  1.00  0.00     0.208 HD
ATOM     49  H9  UNL     1     196.419 122.514  34.098  1.00  0.00     0.188 HD
ENDBRANCH  11  42
TORSDOF 16
ENDMDL
MODEL 2
REMARK VINA RESULT: -8.089440570      2.766      6.845
REMARK  16 active torsions:
REMARK  status: ('A' for Active; 'I' for Inactive)
REMARK    1  A    between atoms: C2_2  and  C3_3 
REMARK    2  A    between atoms: C3_3  and  C4_4 
REMARK    3  A    between atoms: C4_4  and  C5_5 
REMARK    4  A    between atoms: C5_5  and  C6_6 
REMARK    5  A    between atoms: C6_6  and  C7_7 
REMARK    6  A    between atoms: C7_7  and  C8_8 
REMARK    7  A    between atoms: C8_8  and  C9_9 
REMARK    8  A    between atoms: C9_9  and  C10_10 
REMARK    9  A    between atoms: C10_10  and  C11_11 
REMARK   10  A    between atoms: C11_11  and  C12_12 
REMARK   11  A    between atoms: C12_12  and  N1_13 
REMARK       I    between atoms: N1_13  and  C13_15 
REMARK       I    between atoms: C13_15  and  N2_17 
REMARK   12  A    between atoms: N2_17  and  C14_18 
REMARK   13  A    between atoms: N2_17  and  C15_21 
REMARK   14  A    between atoms: C14_18  and  O2_19 
REMARK   15  A    between atoms: C16_24  and  N4_25 
REMARK   16  A    between atoms: C19_34  and  C20_35 
ROOT
HETATM    1  C15 UNL     1     196.525 125.743  35.762  1.00  0.00     0.158 A 
HETATM    2  N3  UNL     1     197.565 126.466  36.276  1.00  0.00    -0.174 N 
ATOM      3  H3  UNL     1     198.513 126.101  36.176  1.00  0.00     0.186 HD
HETATM    4  C16 UNL     1     197.387 127.639  36.909  1.00  0.00     0.678 A 
HETATM    5  N5  UNL     1     196.164 128.167  37.069  1.00  0.00    -0.189 N 
ATOM      6  H5  UNL     1     196.040 129.058  37.550  1.00  0.00     0.184 HD
HETATM    7  C17 UNL     1     195.103 127.493  36.578  1.00  0.00     0.093 A 
HETATM    8  C18 UNL     1     195.278 126.267  35.916  1.00  0.00     0.107 A 
HETATM    9  N6  UNL     1     194.212 125.605  35.430  1.00  0.00    -0.347 N 
ATOM     10  H6  UNL     1     194.361 124.716  34.953  1.00  0.00     0.166 HD
HETATM   11  C19 UNL     1     192.955 126.072  35.551  1.00  0.00     0.092 A 
HETATM   12  C23 UNL     1     192.796 127.287  36.208  1.00  0.00     0.091 A 
HETATM   13  N10 UNL     1     191.691 128.020  36.493  1.00  0.00    -0.298 N 
ATOM     14  H10 UNL     1     190.738 127.758  36.241  1.00  0.00     0.187 HD
HETATM   15  N11 UNL     1     192.022 129.119  37.142  1.00  0.00    -0.310 N 
ATOM     16  H11 UNL     1     191.369 129.832  37.467  1.00  0.00     0.186 HD
HETATM   17  C24 UNL     1     193.355 129.153  37.307  1.00  0.00     0.123 A 
HETATM   18  C25 UNL     1     193.847 128.009  36.725  1.00  0.00     0.041 A 
ENDROOT
BRANCH   1  19
HETATM   19  N2  UNL     1     196.803 124.531  35.128  1.00  0.00    -0.261 N 
HETATM   20  C13 UNL     1     196.610 124.484  33.691  1.00  0.00     0.325 C 
HETATM   21  N1  UNL     1     196.462 125.704  32.994  1.00  0.00    -0.343 N 
HETATM   22  O1  UNL     1     196.588 123.357  33.168  1.00  0.00    -0.247 OA
ATOM     23  H1  UNL     1     196.523 126.574  33.523  1.00  0.00     0.164 HD
BRANCH  21  24
HETATM   24  C12 UNL     1     196.230 125.784  31.579  1.00  0.00     0.124 C 
BRANCH  24  25
HETATM   25  C11 UNL     1     194.828 125.462  31.151  1.00  0.00     0.020 C 
BRANCH  25  26
HETATM   26  C10 UNL     1     194.756 125.093  29.708  1.00  0.00     0.002 C 
BRANCH  26  27
HETATM   27  C9  UNL     1     193.638 124.329  29.180  1.00  0.00     0.000 C 
BRANCH  27  28
HETATM   28  C8  UNL     1     193.674 122.874  28.993  1.00  0.00     0.000 C 
BRANCH  28  29
HETATM   29  C7  UNL     1     193.680 122.050  30.203  1.00  0.00     0.000 C 
BRANCH  29  30
HETATM   30  C6  UNL     1     192.536 122.369  31.189  1.00  0.00     0.000 C 
BRANCH  30  31
HETATM   31  C5  UNL     1     191.221 121.987  30.589  1.00  0.00     0.000 C 
BRANCH  31  32
HETATM   32  C4  UNL     1     190.672 120.781  31.366  1.00  0.00     0.000 C 
BRANCH  32  33
HETATM   33  C3  UNL     1     189.265 120.472  30.862  1.00  0.00    -0.000 C 
BRANCH  33  34
HETATM   34  C2  UNL     1     188.286 120.877  31.920  1.00  0.00    -0.005 C 
HETATM   35  C1  UNL     1     186.997 120.104  31.846  1.00  0.00     0.005 C 
ENDBRANCH  33  34
ENDBRANCH  32  33
ENDBRANCH  31  32
ENDBRANCH  30  31
ENDBRANCH  29  30
ENDBRANCH  28  29
ENDBRANCH  27  28
ENDBRANCH  26  27
ENDBRANCH  25  26
ENDBRANCH  24  25
ENDBRANCH  21  24
BRANCH  19  36
HETATM   36  C14 UNL     1     197.283 123.346  35.780  1.00  0.00     0.302 C 
BRANCH  36  37
HETATM   37  O2  UNL     1     196.391 122.285  35.637  1.00  0.00    -0.382 OA
ATOM     38  H2  UNL     1     196.775 121.570  35.144  1.00  0.00     0.211 HD
ENDBRANCH  36  37
ENDBRANCH  19  36
ENDBRANCH   1  19
BRANCH   4  39
HETATM   39  N4  UNL     1     198.449 128.262  37.372  1.00  0.00    -0.234 N 
ATOM     40  H42 UNL     1     199.383 127.999  37.057  1.00  0.00     0.174 HD
ATOM     41  H41 UNL     1     198.309 129.011  38.051  1.00  0.00     0.174 HD
ENDBRANCH   4  39
BRANCH  11  42
HETATM   42  C20 UNL     1     191.790 125.366  35.031  1.00  0.00     0.095 A 
HETATM   43  C21 UNL     1     191.070 125.535  33.887  1.00  0.00     0.144 A 
HETATM   44  N7  UNL     1     190.078 124.634  33.845  1.00  0.00    -0.291 N 
HETATM   45  C22 UNL     1     189.065 124.436  32.819  1.00  0.00     0.178 C 
HETATM   46  N8  UNL     1     190.184 123.911  34.955  1.00  0.00    -0.241 N 
HETATM   47  N9  UNL     1     191.197 124.335  35.670  1.00  0.00    -0.283 N 
ATOM     48  H8  UNL     1     189.568 123.140  35.212  1.00  0.00     0.208 HD
ATOM     49  H9  UNL     1     191.491 123.947  36.567  1.00  0.00     0.188 HD
ENDBRANCH  11  42
TORSDOF 16
ENDMDL
MODEL 3
REMARK VINA RESULT: -8.023221778      3.861      7.311
REMARK  16 active torsions:
REMARK  status: ('A' for Active; 'I' for Inactive)
REMARK    1  A    between atoms: C2_2  and  C3_3 
REMARK    2  A    between atoms: C3_3  and  C4_4 
REMARK    3  A    between atoms: C4_4  and  C5_5 
REMARK    4  A    between atoms: C5_5  and  C6_6 
REMARK    5  A    between atoms: C6_6  and  C7_7 
REMARK    6  A    between atoms: C7_7  and  C8_8 
REMARK    7  A    between atoms: C8_8  and  C9_9 
REMARK    8  A    between atoms: C9_9  and  C10_10 
REMARK    9  A    between atoms: C10_10  and  C11_11 
REMARK   10  A    between atoms: C11_11  and  C12_12 
REMARK   11  A    between atoms: C12_12  and  N1_13 
REMARK       I    between atoms: N1_13  and  C13_15 
REMARK       I    between atoms: C13_15  and  N2_17 
REMARK   12  A    between atoms: N2_17  and  C14_18 
REMARK   13  A    between atoms: N2_17  and  C15_21 
REMARK   14  A    between atoms: C14_18  and  O2_19 
REMARK   15  A    between atoms: C16_24  and  N4_25 
REMARK   16  A    between atoms: C19_34  and  C20_35 
ROOT
HETATM    1  C15 UNL     1     190.648 124.875  31.807  1.00  0.00     0.158 A 
HETATM    2  N3  UNL     1     191.087 124.574  33.066  1.00  0.00    -0.174 N 
ATOM      3  H3  UNL     1     191.916 123.987  33.170  1.00  0.00     0.186 HD
HETATM    4  C16 UNL     1     190.469 125.020  34.174  1.00  0.00     0.678 A 
HETATM    5  N5  UNL     1     189.377 125.795  34.098  1.00  0.00    -0.189 N 
ATOM      6  H5  UNL     1     188.915 126.129  34.945  1.00  0.00     0.184 HD
HETATM    7  C17 UNL     1     188.903 126.123  32.878  1.00  0.00     0.093 A 
HETATM    8  C18 UNL     1     189.541 125.662  31.715  1.00  0.00     0.107 A 
HETATM    9  N6  UNL     1     189.059 125.997  30.504  1.00  0.00    -0.347 N 
ATOM     10  H6  UNL     1     189.538 125.651  29.672  1.00  0.00     0.166 HD
HETATM   11  C19 UNL     1     187.969 126.771  30.349  1.00  0.00     0.092 A 
HETATM   12  C23 UNL     1     187.347 127.221  31.509  1.00  0.00     0.091 A 
HETATM   13  N10 UNL     1     186.254 128.000  31.701  1.00  0.00    -0.298 N 
ATOM     14  H10 UNL     1     185.686 128.401  30.954  1.00  0.00     0.187 HD
HETATM   15  N11 UNL     1     186.028 128.168  32.989  1.00  0.00    -0.310 N 
ATOM     16  H11 UNL     1     185.264 128.713  33.388  1.00  0.00     0.186 HD
HETATM   17  C24 UNL     1     186.963 127.508  33.693  1.00  0.00     0.123 A 
HETATM   18  C25 UNL     1     187.793 126.913  32.773  1.00  0.00     0.041 A 
ENDROOT
BRANCH   1  19
HETATM   19  N2  UNL     1     191.348 124.361  30.715  1.00  0.00    -0.261 N 
HETATM   20  C13 UNL     1     191.272 122.927  30.504  1.00  0.00     0.325 C 
HETATM   21  N1  UNL     1     190.280 122.199  31.200  1.00  0.00    -0.343 N 
HETATM   22  O1  UNL     1     192.097 122.435  29.717  1.00  0.00    -0.247 OA
ATOM     23  H1  UNL     1     189.637 122.712  31.803  1.00  0.00     0.164 HD
BRANCH  21  24
HETATM   24  C12 UNL     1     190.130 120.774  31.102  1.00  0.00     0.124 C 
BRANCH  24  25
HETATM   25  C11 UNL     1     188.713 120.299  30.962  1.00  0.00     0.020 C 
BRANCH  25  26
HETATM   26  C10 UNL     1     187.806 120.950  31.951  1.00  0.00     0.002 C 
BRANCH  26  27
HETATM   27  C9  UNL     1     186.552 120.331  32.346  1.00  0.00     0.000 C 
BRANCH  27  28
HETATM   28  C8  UNL     1     185.248 120.990  32.201  1.00  0.00     0.000 C 
BRANCH  28  29
HETATM   29  C7  UNL     1     184.512 120.738  30.962  1.00  0.00     0.000 C 
BRANCH  29  30
HETATM   30  C6  UNL     1     183.958 122.011  30.287  1.00  0.00     0.000 C 
BRANCH  30  31
HETATM   31  C5  UNL     1     185.025 123.053  30.202  1.00  0.00     0.000 C 
BRANCH  31  32
HETATM   32  C4  UNL     1     184.447 124.376  30.722  1.00  0.00     0.000 C 
BRANCH  32  33
HETATM   33  C3  UNL     1     184.955 124.611  32.141  1.00  0.00    -0.000 C 
BRANCH  33  34
HETATM   34  C2  UNL     1     183.845 125.212  32.947  1.00  0.00    -0.005 C 
HETATM   35  C1  UNL     1     183.512 124.403  34.171  1.00  0.00     0.005 C 
ENDBRANCH  33  34
ENDBRANCH  32  33
ENDBRANCH  31  32
ENDBRANCH  30  31
ENDBRANCH  29  30
ENDBRANCH  28  29
ENDBRANCH  27  28
ENDBRANCH  26  27
ENDBRANCH  25  26
ENDBRANCH  24  25
ENDBRANCH  21  24
BRANCH  19  36
HETATM   36  C14 UNL     1     192.109 125.137  29.777  1.00  0.00     0.302 C 
BRANCH  36  37
HETATM   37  O2  UNL     1     193.478 124.986  29.980  1.00  0.00    -0.382 OA
ATOM     38  H2  UNL     1     193.937 125.813  29.898  1.00  0.00     0.211 HD
ENDBRANCH  36  37
ENDBRANCH  19  36
ENDBRANCH   1  19
BRANCH   4  39
HETATM   39  N4  UNL     1     190.964 124.676  35.343  1.00  0.00    -0.234 N 
ATOM     40  H42 UNL     1     191.330 123.736  35.494  1.00  0.00     0.174 HD
ATOM     41  H41 UNL     1     190.970 125.374  36.087  1.00  0.00     0.174 HD
ENDBRANCH   4  39
BRANCH  11  42
HETATM   42  C20 UNL     1     187.435 127.142  29.044  1.00  0.00     0.095 A 
HETATM   43  C21 UNL     1     186.586 126.492  28.201  1.00  0.00     0.144 A 
HETATM   44  N7  UNL     1     186.381 127.239  27.106  1.00  0.00    -0.291 N 
HETATM   45  C22 UNL     1     185.552 126.954  25.945  1.00  0.00     0.178 C 
HETATM   46  N8  UNL     1     187.097 128.346  27.273  1.00  0.00    -0.241 N 
HETATM   47  N9  UNL     1     187.730 128.302  28.420  1.00  0.00    -0.283 N 
ATOM     48  H8  UNL     1     187.148 129.116  26.606  1.00  0.00     0.208 HD
ATOM     49  H9  UNL     1     188.346 129.029  28.783  1.00  0.00     0.188 HD
ENDBRANCH  11  42
TORSDOF 16
ENDMDL
MODEL 4
REMARK VINA RESULT: -8.009012027      3.122      4.463
REMARK  16 active torsions:
REMARK  status: ('A' for Active; 'I' for Inactive)
REMARK    1  A    between atoms: C2_2  and  C3_3 
REMARK    2  A    between atoms: C3_3  and  C4_4 
REMARK    3  A    between atoms: C4_4  and  C5_5 
REMARK    4  A    between atoms: C5_5  and  C6_6 
REMARK    5  A    between atoms: C6_6  and  C7_7 
REMARK    6  A    between atoms: C7_7  and  C8_8 
REMARK    7  A    between atoms: C8_8  and  C9_9 
REMARK    8  A    between atoms: C9_9  and  C10_10 
REMARK    9  A    between atoms: C10_10  and  C11_11 
REMARK   10  A    between atoms: C11_11  and  C12_12 
REMARK   11  A    between atoms: C12_12  and  N1_13 
REMARK       I    between atoms: N1_13  and  C13_15 
REMARK       I    between atoms: C13_15  and  N2_17 
REMARK   12  A    between atoms: N2_17  and  C14_18 
REMARK   13  A    between atoms: N2_17  and  C15_21 
REMARK   14  A    between atoms: C14_18  and  O2_19 
REMARK   15  A    between atoms: C16_24  and  N4_25 
REMARK   16  A    between atoms: C19_34  and  C20_35 
ROOT
HETATM    1  C15 UNL     1     190.069 126.739  33.685  1.00  0.00     0.158 A 
HETATM    2  N3  UNL     1     188.868 127.211  34.138  1.00  0.00    -0.174 N 
ATOM      3  H3  UNL     1     188.577 126.981  35.088  1.00  0.00     0.186 HD
HETATM    4  C16 UNL     1     188.055 127.967  33.379  1.00  0.00     0.678 A 
HETATM    5  N5  UNL     1     188.386 128.302  32.122  1.00  0.00    -0.189 N 
ATOM      6  H5  UNL     1     187.763 128.876  31.554  1.00  0.00     0.184 HD
HETATM    7  C17 UNL     1     189.562 127.862  31.627  1.00  0.00     0.093 A 
HETATM    8  C18 UNL     1     190.418 127.072  32.412  1.00  0.00     0.107 A 
HETATM    9  N6  UNL     1     191.588 126.640  31.907  1.00  0.00    -0.347 N 
ATOM     10  H6  UNL     1     192.195 126.068  32.494  1.00  0.00     0.166 HD
HETATM   11  C19 UNL     1     191.988 126.937  30.656  1.00  0.00     0.092 A 
HETATM   12  C23 UNL     1     191.132 127.720  29.891  1.00  0.00     0.091 A 
HETATM   13  N10 UNL     1     191.231 128.188  28.621  1.00  0.00    -0.298 N 
ATOM     14  H10 UNL     1     192.019 128.015  27.998  1.00  0.00     0.187 HD
HETATM   15  N11 UNL     1     190.165 128.898  28.308  1.00  0.00    -0.310 N 
ATOM     16  H11 UNL     1     190.003 129.354  27.410  1.00  0.00     0.186 HD
HETATM   17  C24 UNL     1     189.326 128.926  29.356  1.00  0.00     0.123 A 
HETATM   18  C25 UNL     1     189.924 128.190  30.352  1.00  0.00     0.041 A 
ENDROOT
BRANCH   1  19
HETATM   19  N2  UNL     1     190.843 125.955  34.540  1.00  0.00    -0.261 N 
HETATM   20  C13 UNL     1     190.551 124.533  34.570  1.00  0.00     0.325 C 
HETATM   21  N1  UNL     1     189.745 123.993  33.543  1.00  0.00    -0.343 N 
HETATM   22  O1  UNL     1     191.037 123.884  35.511  1.00  0.00    -0.247 OA
ATOM     23  H1  UNL     1     189.421 124.617  32.804  1.00  0.00     0.164 HD
BRANCH  21  24
HETATM   24  C12 UNL     1     189.358 122.612  33.485  1.00  0.00     0.124 C 
BRANCH  24  25
HETATM   25  C11 UNL     1     187.876 122.374  33.451  1.00  0.00     0.020 C 
BRANCH  25  26
HETATM   26  C10 UNL     1     187.544 120.920  33.433  1.00  0.00     0.002 C 
BRANCH  26  27
HETATM   27  C9  UNL     1     186.821 120.325  32.322  1.00  0.00     0.000 C 
BRANCH  27  28
HETATM   28  C8  UNL     1     185.785 121.036  31.562  1.00  0.00     0.000 C 
BRANCH  28  29
HETATM   29  C7  UNL     1     184.396 120.655  31.818  1.00  0.00     0.000 C 
BRANCH  29  30
HETATM   30  C6  UNL     1     183.494 121.824  32.270  1.00  0.00     0.000 C 
BRANCH  30  31
HETATM   31  C5  UNL     1     184.315 123.055  32.477  1.00  0.00     0.000 C 
BRANCH  31  32
HETATM   32  C4  UNL     1     183.802 123.769  33.736  1.00  0.00     0.000 C 
BRANCH  32  33
HETATM   33  C3  UNL     1     183.748 125.269  33.463  1.00  0.00    -0.000 C 
BRANCH  33  34
HETATM   34  C2  UNL     1     184.134 125.502  32.035  1.00  0.00    -0.005 C 
HETATM   35  C1  UNL     1     183.820 126.898  31.569  1.00  0.00     0.005 C 
ENDBRANCH  33  34
ENDBRANCH  32  33
ENDBRANCH  31  32
ENDBRANCH  30  31
ENDBRANCH  29  30
ENDBRANCH  28  29
ENDBRANCH  27  28
ENDBRANCH  26  27
ENDBRANCH  25  26
ENDBRANCH  24  25
ENDBRANCH  21  24
BRANCH  19  36
HETATM   36  C14 UNL     1     191.914 126.437  35.365  1.00  0.00     0.302 C 
BRANCH  36  37
HETATM   37  O2  UNL     1     191.527 126.535  36.700  1.00  0.00    -0.382 OA
ATOM     38  H2  UNL     1     192.147 127.046  37.207  1.00  0.00     0.211 HD
ENDBRANCH  36  37
ENDBRANCH  19  36
ENDBRANCH   1  19
BRANCH   4  39
HETATM   39  N4  UNL     1     186.918 128.374  33.900  1.00  0.00    -0.234 N 
ATOM     40  H42 UNL     1     186.492 129.249  33.595  1.00  0.00     0.174 HD
ATOM     41  H41 UNL     1     186.480 127.790  34.613  1.00  0.00     0.174 HD
ENDBRANCH   4  39
BRANCH  11  42
HETATM   42  C20 UNL     1     193.253 126.476  30.095  1.00  0.00     0.095 A 
HETATM   43  C21 UNL     1     194.434 127.120  29.886  1.00  0.00     0.144 A 
HETATM   44  N7  UNL     1     195.319 126.271  29.342  1.00  0.00    -0.291 N 
HETATM   45  C22 UNL     1     196.699 126.513  28.953  1.00  0.00     0.178 C 
HETATM   46  N8  UNL     1     194.688 125.108  29.218  1.00  0.00    -0.241 N 
HETATM   47  N9  UNL     1     193.459 125.214  29.660  1.00  0.00    -0.283 N 
ATOM     48  H8  UNL     1     195.100 124.257  28.834  1.00  0.00     0.208 HD
ATOM     49  H9  UNL     1     192.769 124.464  29.674  1.00  0.00     0.188 HD
ENDBRANCH  11  42
TORSDOF 16
ENDMDL
MODEL 5
REMARK VINA RESULT: -8.006208823      3.764      7.120
REMARK  16 active torsions:
REMARK  status: ('A' for Active; 'I' for Inactive)
REMARK    1  A    between atoms: C2_2  and  C3_3 
REMARK    2  A    between atoms: C3_3  and  C4_4 
REMARK    3  A    between atoms: C4_4  and  C5_5 
REMARK    4  A    between atoms: C5_5  and  C6_6 
REMARK    5  A    between atoms: C6_6  and  C7_7 
REMARK    6  A    between atoms: C7_7  and  C8_8 
REMARK    7  A    between atoms: C8_8  and  C9_9 
REMARK    8  A    between atoms: C9_9  and  C10_10 
REMARK    9  A    between atoms: C10_10  and  C11_11 
REMARK   10  A    between atoms: C11_11  and  C12_12 
REMARK   11  A    between atoms: C12_12  and  N1_13 
REMARK       I    between atoms: N1_13  and  C13_15 
REMARK       I    between atoms: C13_15  and  N2_17 
REMARK   12  A    between atoms: N2_17  and  C14_18 
REMARK   13  A    between atoms: N2_17  and  C15_21 
REMARK   14  A    between atoms: C14_18  and  O2_19 
REMARK   15  A    between atoms: C16_24  and  N4_25 
REMARK   16  A    between atoms: C19_34  and  C20_35 
ROOT
HETATM    1  C15 UNL     1     191.014 124.905  31.993  1.00  0.00     0.158 A 
HETATM    2  N3  UNL     1     191.282 124.369  33.222  1.00  0.00    -0.174 N 
ATOM      3  H3  UNL     1     191.997 123.645  33.296  1.00  0.00     0.186 HD
HETATM    4  C16 UNL     1     190.640 124.761  34.337  1.00  0.00     0.678 A 
HETATM    5  N5  UNL     1     189.693 125.710  34.299  1.00  0.00    -0.189 N 
ATOM      6  H5  UNL     1     189.211 126.001  35.151  1.00  0.00     0.184 HD
HETATM    7  C17 UNL     1     189.390 126.272  33.110  1.00  0.00     0.093 A 
HETATM    8  C18 UNL     1     190.055 125.869  31.939  1.00  0.00     0.107 A 
HETATM    9  N6  UNL     1     189.745 126.438  30.759  1.00  0.00    -0.347 N 
ATOM     10  H6  UNL     1     190.240 126.131  29.922  1.00  0.00     0.166 HD
HETATM   11  C19 UNL     1     188.807 127.396  30.644  1.00  0.00     0.092 A 
HETATM   12  C23 UNL     1     188.158 127.785  31.810  1.00  0.00     0.091 A 
HETATM   13  N10 UNL     1     187.184 128.703  32.037  1.00  0.00    -0.298 N 
ATOM     14  H10 UNL     1     186.757 129.287  31.319  1.00  0.00     0.187 HD
HETATM   15  N11 UNL     1     186.869 128.732  33.317  1.00  0.00    -0.310 N 
ATOM     16  H11 UNL     1     186.165 129.339  33.737  1.00  0.00     0.186 HD
HETATM   17  C24 UNL     1     187.621 127.839  33.980  1.00  0.00     0.123 A 
HETATM   18  C25 UNL     1     188.431 127.241  33.044  1.00  0.00     0.041 A 
ENDROOT
BRANCH   1  19
HETATM   19  N2  UNL     1     191.723 124.431  30.889  1.00  0.00    -0.261 N 
HETATM   20  C13 UNL     1     191.272 123.181  30.307  1.00  0.00     0.325 C 
HETATM   21  N1  UNL     1     189.998 122.691  30.675  1.00  0.00    -0.343 N 
HETATM   22  O1  UNL     1     192.049 122.622  29.515  1.00  0.00    -0.247 OA
ATOM     23  H1  UNL     1     189.433 123.248  31.316  1.00  0.00     0.164 HD
BRANCH  21  24
HETATM   24  C12 UNL     1     189.458 121.450  30.195  1.00  0.00     0.124 C 
BRANCH  24  25
HETATM   25  C11 UNL     1     189.158 120.439  31.263  1.00  0.00     0.020 C 
BRANCH  25  26
HETATM   26  C10 UNL     1     187.762 120.566  31.774  1.00  0.00     0.002 C 
BRANCH  26  27
HETATM   27  C9  UNL     1     187.491 121.067  33.111  1.00  0.00     0.000 C 
BRANCH  27  28
HETATM   28  C8  UNL     1     187.850 122.419  33.553  1.00  0.00     0.000 C 
BRANCH  28  29
HETATM   29  C7  UNL     1     186.811 123.445  33.458  1.00  0.00     0.000 C 
BRANCH  29  30
HETATM   30  C6  UNL     1     186.674 124.078  32.056  1.00  0.00     0.000 C 
BRANCH  30  31
HETATM   31  C5  UNL     1     185.424 123.594  31.395  1.00  0.00     0.000 C 
BRANCH  31  32
HETATM   32  C4  UNL     1     184.431 123.182  32.491  1.00  0.00     0.000 C 
BRANCH  32  33
HETATM   33  C3  UNL     1     183.872 121.803  32.154  1.00  0.00    -0.000 C 
BRANCH  33  34
HETATM   34  C2  UNL     1     184.314 121.441  30.769  1.00  0.00    -0.005 C 
HETATM   35  C1  UNL     1     183.373 120.482  30.092  1.00  0.00     0.005 C 
ENDBRANCH  33  34
ENDBRANCH  32  33
ENDBRANCH  31  32
ENDBRANCH  30  31
ENDBRANCH  29  30
ENDBRANCH  28  29
ENDBRANCH  27  28
ENDBRANCH  26  27
ENDBRANCH  25  26
ENDBRANCH  24  25
ENDBRANCH  21  24
BRANCH  19  36
HETATM   36  C14 UNL     1     192.840 125.092  30.275  1.00  0.00     0.302 C 
BRANCH  36  37
HETATM   37  O2  UNL     1     192.499 125.628  29.035  1.00  0.00    -0.382 OA
ATOM     38  H2  UNL     1     191.562 125.592  28.884  1.00  0.00     0.211 HD
ENDBRANCH  36  37
ENDBRANCH  19  36
ENDBRANCH   1  19
BRANCH   4  39
HETATM   39  N4  UNL     1     190.965 124.187  35.475  1.00  0.00    -0.234 N 
ATOM     40  H42 UNL     1     190.999 123.170  35.551  1.00  0.00     0.174 HD
ATOM     41  H41 UNL     1     191.181 124.787  36.272  1.00  0.00     0.174 HD
ENDBRANCH   4  39
BRANCH  11  42
HETATM   42  C20 UNL     1     188.460 128.020  29.372  1.00  0.00     0.095 A 
HETATM   43  C21 UNL     1     187.401 127.834  28.536  1.00  0.00     0.144 A 
HETATM   44  N7  UNL     1     187.516 128.649  27.477  1.00  0.00    -0.291 N 
HETATM   45  C22 UNL     1     186.626 128.798  26.337  1.00  0.00     0.178 C 
HETATM   46  N8  UNL     1     188.638 129.337  27.659  1.00  0.00    -0.241 N 
HETATM   47  N9  UNL     1     189.211 128.974  28.781  1.00  0.00    -0.283 N 
ATOM     48  H8  UNL     1     189.001 130.044  27.019  1.00  0.00     0.208 HD
ATOM     49  H9  UNL     1     190.084 129.352  29.148  1.00  0.00     0.188 HD
ENDBRANCH  11  42
TORSDOF 16
ENDMDL
