MODEL 1
REMARK VINA RESULT: -5.944299407      0.000      0.000
REMARK  9 active torsions:
REMARK  status: ('A' for Active; 'I' for Inactive)
REMARK    1  A    between atoms: C2_2  and  C3_3 
REMARK    2  A    between atoms: C3_3  and  C4_4 
REMARK    3  A    between atoms: C4_4  and  N1_5 
REMARK    4  A    between atoms: N1_5  and  C5_7 
REMARK    5  A    between atoms: C5_7  and  N2_9 
REMARK    6  A    between atoms: N2_9  and  N3_11 
REMARK    7  A    between atoms: N3_11  and  C6_13 
REMARK    8  A    between atoms: C6_13  and  N4_15 
REMARK    9  A    between atoms: N4_15  and  C7_17 
ROOT
HETATM    1  C6  UNL     1      43.798  -0.260  32.936  1.00  0.00     0.190 C 
HETATM    2  S2  UNL     1      42.506  -0.883  33.646  1.00  0.00    -0.039 SA
ENDROOT
BRANCH   1   3
HETATM    3  N3  UNL     1      44.160  -0.788  31.651  1.00  0.00    -0.274 N 
ATOM      4  H3  UNL     1      45.118  -1.098  31.487  1.00  0.00     0.189 HD
BRANCH   3   5
HETATM    5  N2  UNL     1      43.226  -0.883  30.628  1.00  0.00    -0.274 N 
ATOM      6  H2  UNL     1      42.388  -0.306  30.696  1.00  0.00     0.189 HD
BRANCH   5   7
HETATM    7  C5  UNL     1      43.351  -1.707  29.519  1.00  0.00     0.186 C 
HETATM    8  S1  UNL     1      43.422  -3.369  29.767  1.00  0.00    -0.040 SA
BRANCH   7   9
HETATM    9  N1  UNL     1      43.426  -1.306  28.187  1.00  0.00    -0.366 N 
ATOM     10  H1  UNL     1      42.548  -1.208  27.677  1.00  0.00     0.161 HD
BRANCH   9  11
HETATM   11  C4  UNL     1      44.629  -1.021  27.477  1.00  0.00     0.122 C 
BRANCH  11  12
HETATM   12  C3  UNL     1      44.451  -1.444  26.004  1.00  0.00     0.019 C 
BRANCH  12  13
HETATM   13  C2  UNL     1      44.185  -2.926  26.004  1.00  0.00    -0.003 C 
HETATM   14  C1  UNL     1      44.172  -3.409  24.573  1.00  0.00     0.005 C 
ENDBRANCH  12  13
ENDBRANCH  11  12
ENDBRANCH   9  11
ENDBRANCH   7   9
ENDBRANCH   5   7
ENDBRANCH   3   5
ENDBRANCH   1   3
BRANCH   1  15
HETATM   15  N4  UNL     1      44.575   0.744  33.497  1.00  0.00    -0.339 N 
ATOM     16  H4  UNL     1      45.036   1.326  32.799  1.00  0.00     0.168 HD
BRANCH  15  17
HETATM   17  C7  UNL     1      44.869   1.139  34.824  1.00  0.00    -0.003 C 
HETATM   18  C8  UNL     1      43.950   2.041  35.552  1.00  0.00     0.032 C 
HETATM   19  C9  UNL     1      43.053   1.462  36.588  1.00  0.00     0.015 C 
HETATM   20  C13 UNL     1      44.920   2.949  36.393  1.00  0.00     0.015 C 
HETATM   21  C10 UNL     1      43.787   0.543  37.567  1.00  0.00    -0.013 C 
HETATM   22  C11 UNL     1      44.755   1.398  38.363  1.00  0.00     0.009 C 
HETATM   23  C16 UNL     1      44.504  -0.491  36.740  1.00  0.00     0.015 C 
HETATM   24  C12 UNL     1      45.673   2.053  37.344  1.00  0.00    -0.013 C 
HETATM   25  C14 UNL     1      46.420   0.950  36.651  1.00  0.00     0.015 C 
HETATM   26  C15 UNL     1      45.449   0.130  35.754  1.00  0.00     0.032 C 
ENDBRANCH  15  17
ENDBRANCH   1  15
TORSDOF 9
ENDMDL
MODEL 2
REMARK VINA RESULT: -5.877699748      0.785      1.398
REMARK  9 active torsions:
REMARK  status: ('A' for Active; 'I' for Inactive)
REMARK    1  A    between atoms: C2_2  and  C3_3 
REMARK    2  A    between atoms: C3_3  and  C4_4 
REMARK    3  A    between atoms: C4_4  and  N1_5 
REMARK    4  A    between atoms: N1_5  and  C5_7 
REMARK    5  A    between atoms: C5_7  and  N2_9 
REMARK    6  A    between atoms: N2_9  and  N3_11 
REMARK    7  A    between atoms: N3_11  and  C6_13 
REMARK    8  A    between atoms: C6_13  and  N4_15 
REMARK    9  A    between atoms: N4_15  and  C7_17 
ROOT
HETATM    1  C6  UNL     1      43.528  -0.639  33.324  1.00  0.00     0.190 C 
HETATM    2  S2  UNL     1      41.945  -0.752  33.525  1.00  0.00    -0.039 SA
ENDROOT
BRANCH   1   3
HETATM    3  N3  UNL     1      44.030  -0.751  31.984  1.00  0.00    -0.274 N 
ATOM      4  H3  UNL     1      45.034  -0.840  31.829  1.00  0.00     0.189 HD
BRANCH   3   5
HETATM    5  N2  UNL     1      43.169  -0.740  30.895  1.00  0.00    -0.274 N 
ATOM      6  H2  UNL     1      42.336  -0.154  30.955  1.00  0.00     0.189 HD
BRANCH   5   7
HETATM    7  C5  UNL     1      43.359  -1.469  29.730  1.00  0.00     0.186 C 
HETATM    8  S1  UNL     1      43.452  -3.144  29.847  1.00  0.00    -0.040 SA
BRANCH   7   9
HETATM    9  N1  UNL     1      43.485  -0.960  28.439  1.00  0.00    -0.366 N 
ATOM     10  H1  UNL     1      42.654  -0.547  28.016  1.00  0.00     0.161 HD
BRANCH   9  11
HETATM   11  C4  UNL     1      44.680  -0.970  27.662  1.00  0.00     0.122 C 
BRANCH  11  12
HETATM   12  C3  UNL     1      44.322  -1.326  26.203  1.00  0.00     0.019 C 
BRANCH  12  13
HETATM   13  C2  UNL     1      44.294  -2.828  26.113  1.00  0.00    -0.003 C 
HETATM   14  C1  UNL     1      44.183  -3.217  24.658  1.00  0.00     0.005 C 
ENDBRANCH  12  13
ENDBRANCH  11  12
ENDBRANCH   9  11
ENDBRANCH   7   9
ENDBRANCH   5   7
ENDBRANCH   3   5
ENDBRANCH   1   3
BRANCH   1  15
HETATM   15  N4  UNL     1      44.424  -0.448  34.367  1.00  0.00    -0.339 N 
ATOM     16  H4  UNL     1      45.221  -1.083  34.326  1.00  0.00     0.168 HD
BRANCH  15  17
HETATM   17  C7  UNL     1      44.478   0.431  35.474  1.00  0.00    -0.003 C 
HETATM   18  C8  UNL     1      43.874   0.039  36.766  1.00  0.00     0.032 C 
HETATM   19  C9  UNL     1      44.770  -0.402  37.868  1.00  0.00     0.015 C 
HETATM   20  C13 UNL     1      43.276   1.386  37.314  1.00  0.00     0.015 C 
HETATM   21  C10 UNL     1      45.948   0.547  38.097  1.00  0.00    -0.013 C 
HETATM   22  C11 UNL     1      45.385   1.866  38.592  1.00  0.00     0.009 C 
HETATM   23  C16 UNL     1      46.647   0.699  36.772  1.00  0.00     0.015 C 
HETATM   24  C12 UNL     1      44.423   2.343  37.517  1.00  0.00    -0.013 C 
HETATM   25  C14 UNL     1      45.231   2.570  36.272  1.00  0.00     0.015 C 
HETATM   26  C15 UNL     1      45.728   1.211  35.703  1.00  0.00     0.032 C 
ENDBRANCH  15  17
ENDBRANCH   1  15
TORSDOF 9
ENDMDL
MODEL 3
REMARK VINA RESULT: -5.858815709      2.412      3.721
REMARK  9 active torsions:
REMARK  status: ('A' for Active; 'I' for Inactive)
REMARK    1  A    between atoms: C2_2  and  C3_3 
REMARK    2  A    between atoms: C3_3  and  C4_4 
REMARK    3  A    between atoms: C4_4  and  N1_5 
REMARK    4  A    between atoms: N1_5  and  C5_7 
REMARK    5  A    between atoms: C5_7  and  N2_9 
REMARK    6  A    between atoms: N2_9  and  N3_11 
REMARK    7  A    between atoms: N3_11  and  C6_13 
REMARK    8  A    between atoms: C6_13  and  N4_15 
REMARK    9  A    between atoms: N4_15  and  C7_17 
ROOT
HETATM    1  C6  UNL     1      45.554   0.707  34.261  1.00  0.00     0.190 C 
HETATM    2  S2  UNL     1      44.392   1.563  34.951  1.00  0.00    -0.039 SA
ENDROOT
BRANCH   1   3
HETATM    3  N3  UNL     1      45.296   0.186  32.948  1.00  0.00    -0.274 N 
ATOM      4  H3  UNL     1      46.073   0.045  32.302  1.00  0.00     0.189 HD
BRANCH   3   5
HETATM    5  N2  UNL     1      44.006  -0.128  32.544  1.00  0.00    -0.274 N 
ATOM      6  H2  UNL     1      43.245   0.453  32.896  1.00  0.00     0.189 HD
BRANCH   5   7
HETATM    7  C5  UNL     1      43.677  -1.176  31.697  1.00  0.00     0.186 C 
HETATM    8  S1  UNL     1      42.975  -2.550  32.367  1.00  0.00    -0.040 SA
BRANCH   7   9
HETATM    9  N1  UNL     1      43.864  -1.222  30.317  1.00  0.00    -0.366 N 
ATOM     10  H1  UNL     1      44.794  -0.998  29.963  1.00  0.00     0.161 HD
BRANCH   9  11
HETATM   11  C4  UNL     1      42.863  -1.558  29.359  1.00  0.00     0.122 C 
BRANCH  11  12
HETATM   12  C3  UNL     1      43.522  -2.339  28.203  1.00  0.00     0.019 C 
BRANCH  12  13
HETATM   13  C2  UNL     1      44.317  -1.344  27.401  1.00  0.00    -0.003 C 
HETATM   14  C1  UNL     1      44.614  -1.950  26.049  1.00  0.00     0.005 C 
ENDBRANCH  12  13
ENDBRANCH  11  12
ENDBRANCH   9  11
ENDBRANCH   7   9
ENDBRANCH   5   7
ENDBRANCH   3   5
ENDBRANCH   1   3
BRANCH   1  15
HETATM   15  N4  UNL     1      46.775   0.441  34.865  1.00  0.00    -0.339 N 
ATOM     16  H4  UNL     1      47.527   1.034  34.516  1.00  0.00     0.168 HD
BRANCH  15  17
HETATM   17  C7  UNL     1      47.209  -0.470  35.857  1.00  0.00    -0.003 C 
HETATM   18  C8  UNL     1      48.616  -0.923  35.887  1.00  0.00     0.032 C 
HETATM   19  C9  UNL     1      49.531  -0.344  36.907  1.00  0.00     0.015 C 
HETATM   20  C13 UNL     1      48.506  -2.430  36.325  1.00  0.00     0.015 C 
HETATM   21  C10 UNL     1      48.937  -0.356  38.317  1.00  0.00    -0.013 C 
HETATM   22  C11 UNL     1      48.790  -1.804  38.742  1.00  0.00     0.009 C 
HETATM   23  C16 UNL     1      47.605   0.341  38.233  1.00  0.00     0.015 C 
HETATM   24  C12 UNL     1      47.895  -2.458  37.703  1.00  0.00    -0.013 C 
HETATM   25  C14 UNL     1      46.562  -1.770  37.773  1.00  0.00     0.015 C 
HETATM   26  C15 UNL     1      46.686  -0.313  37.244  1.00  0.00     0.032 C 
ENDBRANCH  15  17
ENDBRANCH   1  15
TORSDOF 9
ENDMDL
MODEL 4
REMARK VINA RESULT: -5.817457530      4.986      6.646
REMARK  9 active torsions:
REMARK  status: ('A' for Active; 'I' for Inactive)
REMARK    1  A    between atoms: C2_2  and  C3_3 
REMARK    2  A    between atoms: C3_3  and  C4_4 
REMARK    3  A    between atoms: C4_4  and  N1_5 
REMARK    4  A    between atoms: N1_5  and  C5_7 
REMARK    5  A    between atoms: C5_7  and  N2_9 
REMARK    6  A    between atoms: N2_9  and  N3_11 
REMARK    7  A    between atoms: N3_11  and  C6_13 
REMARK    8  A    between atoms: C6_13  and  N4_15 
REMARK    9  A    between atoms: N4_15  and  C7_17 
ROOT
HETATM    1  C6  UNL     1      42.691  -1.218  29.738  1.00  0.00     0.190 C 
HETATM    2  S2  UNL     1      43.402  -1.781  31.056  1.00  0.00    -0.039 SA
ENDROOT
BRANCH   1   3
HETATM    3  N3  UNL     1      43.368  -1.422  28.489  1.00  0.00    -0.274 N 
ATOM      4  H3  UNL     1      43.373  -0.676  27.793  1.00  0.00     0.189 HD
BRANCH   3   5
HETATM    5  N2  UNL     1      44.018  -2.618  28.214  1.00  0.00    -0.274 N 
ATOM      6  H2  UNL     1      44.919  -2.781  28.663  1.00  0.00     0.189 HD
BRANCH   5   7
HETATM    7  C5  UNL     1      43.529  -3.607  27.373  1.00  0.00     0.186 C 
HETATM    8  S1  UNL     1      44.056  -3.623  25.776  1.00  0.00    -0.040 SA
BRANCH   7   9
HETATM    9  N1  UNL     1      42.628  -4.615  27.707  1.00  0.00    -0.366 N 
ATOM     10  H1  UNL     1      42.274  -5.198  26.949  1.00  0.00     0.161 HD
BRANCH   9  11
HETATM   11  C4  UNL     1      42.161  -4.900  29.024  1.00  0.00     0.122 C 
BRANCH  11  12
HETATM   12  C3  UNL     1      42.902  -6.144  29.557  1.00  0.00     0.019 C 
BRANCH  12  13
HETATM   13  C2  UNL     1      43.902  -5.656  30.572  1.00  0.00    -0.003 C 
HETATM   14  C1  UNL     1      43.198  -5.506  31.900  1.00  0.00     0.005 C 
ENDBRANCH  12  13
ENDBRANCH  11  12
ENDBRANCH   9  11
ENDBRANCH   7   9
ENDBRANCH   5   7
ENDBRANCH   3   5
ENDBRANCH   1   3
BRANCH   1  15
HETATM   15  N4  UNL     1      41.476  -0.547  29.747  1.00  0.00    -0.339 N 
ATOM     16  H4  UNL     1      41.501   0.324  29.219  1.00  0.00     0.168 HD
BRANCH  15  17
HETATM   17  C7  UNL     1      40.210  -0.805  30.325  1.00  0.00    -0.003 C 
HETATM   18  C8  UNL     1      39.550  -2.112  30.117  1.00  0.00     0.032 C 
HETATM   19  C9  UNL     1      39.562  -3.103  31.225  1.00  0.00     0.015 C 
HETATM   20  C13 UNL     1      38.027  -1.736  29.995  1.00  0.00     0.015 C 
HETATM   21  C10 UNL     1      39.143  -2.501  32.568  1.00  0.00    -0.013 C 
HETATM   22  C11 UNL     1      37.685  -2.100  32.457  1.00  0.00     0.009 C 
HETATM   23  C16 UNL     1      40.034  -1.312  32.809  1.00  0.00     0.015 C 
HETATM   24  C12 UNL     1      37.607  -1.115  31.303  1.00  0.00    -0.013 C 
HETATM   25  C14 UNL     1      38.435   0.078  31.684  1.00  0.00     0.015 C 
HETATM   26  C15 UNL     1      39.943  -0.304  31.703  1.00  0.00     0.032 C 
ENDBRANCH  15  17
ENDBRANCH   1  15
TORSDOF 9
ENDMDL
MODEL 5
REMARK VINA RESULT: -5.813311793      1.140      1.259
REMARK  9 active torsions:
REMARK  status: ('A' for Active; 'I' for Inactive)
REMARK    1  A    between atoms: C2_2  and  C3_3 
REMARK    2  A    between atoms: C3_3  and  C4_4 
REMARK    3  A    between atoms: C4_4  and  N1_5 
REMARK    4  A    between atoms: N1_5  and  C5_7 
REMARK    5  A    between atoms: C5_7  and  N2_9 
REMARK    6  A    between atoms: N2_9  and  N3_11 
REMARK    7  A    between atoms: N3_11  and  C6_13 
REMARK    8  A    between atoms: C6_13  and  N4_15 
REMARK    9  A    between atoms: N4_15  and  C7_17 
ROOT
HETATM    1  C6  UNL     1      44.082  -0.164  33.422  1.00  0.00     0.190 C 
HETATM    2  S2  UNL     1      42.942  -1.049  34.113  1.00  0.00    -0.039 SA
ENDROOT
BRANCH   1   3
HETATM    3  N3  UNL     1      44.316  -0.372  32.021  1.00  0.00    -0.274 N 
ATOM      4  H3  UNL     1      45.016   0.192  31.539  1.00  0.00     0.189 HD
BRANCH   3   5
HETATM    5  N2  UNL     1      43.606  -1.331  31.312  1.00  0.00    -0.274 N 
ATOM      6  H2  UNL     1      43.615  -2.287  31.668  1.00  0.00     0.189 HD
BRANCH   5   7
HETATM    7  C5  UNL     1      42.883  -1.083  30.154  1.00  0.00     0.186 C 
HETATM    8  S1  UNL     1      41.204  -1.125  30.241  1.00  0.00    -0.040 SA
BRANCH   7   9
HETATM    9  N1  UNL     1      43.402  -0.795  28.894  1.00  0.00    -0.366 N 
ATOM     10  H1  UNL     1      43.179   0.117  28.493  1.00  0.00     0.161 HD
BRANCH   9  11
HETATM   11  C4  UNL     1      44.218  -1.669  28.118  1.00  0.00     0.122 C 
BRANCH  11  12
HETATM   12  C3  UNL     1      44.245  -1.163  26.660  1.00  0.00     0.019 C 
BRANCH  12  13
HETATM   13  C2  UNL     1      44.595  -2.343  25.794  1.00  0.00    -0.003 C 
HETATM   14  C1  UNL     1      43.897  -3.564  26.345  1.00  0.00     0.005 C 
ENDBRANCH  12  13
ENDBRANCH  11  12
ENDBRANCH   9  11
ENDBRANCH   7   9
ENDBRANCH   5   7
ENDBRANCH   3   5
ENDBRANCH   1   3
BRANCH   1  15
HETATM   15  N4  UNL     1      44.846   0.774  34.103  1.00  0.00    -0.339 N 
ATOM     16  H4  UNL     1      45.725   0.987  33.632  1.00  0.00     0.168 HD
BRANCH  15  17
HETATM   17  C7  UNL     1      44.677   1.501  35.305  1.00  0.00    -0.003 C 
HETATM   18  C8  UNL     1      43.527   2.418  35.464  1.00  0.00     0.032 C 
HETATM   19  C9  UNL     1      42.375   1.982  36.297  1.00  0.00     0.015 C 
HETATM   20  C13 UNL     1      44.127   3.616  36.288  1.00  0.00     0.015 C 
HETATM   21  C10 UNL     1      42.800   1.419  37.655  1.00  0.00    -0.013 C 
HETATM   22  C11 UNL     1      43.414   2.555  38.451  1.00  0.00     0.009 C 
HETATM   23  C16 UNL     1      43.797   0.325  37.380  1.00  0.00     0.015 C 
HETATM   24  C12 UNL     1      44.577   3.070  37.620  1.00  0.00    -0.013 C 
HETATM   25  C14 UNL     1      45.563   1.944  37.495  1.00  0.00     0.015 C 
HETATM   26  C15 UNL     1      44.976   0.819  36.596  1.00  0.00     0.032 C 
ENDBRANCH  15  17
ENDBRANCH   1  15
TORSDOF 9
ENDMDL
