MODEL 1
REMARK VINA RESULT: -6.696803111      0.000      0.000
REMARK  8 active torsions:
REMARK  status: ('A' for Active; 'I' for Inactive)
REMARK    1  A    between atoms: C2_2  and  N2_6 
REMARK       I    between atoms: N2_6  and  C5_8 
REMARK       I    between atoms: C5_8  and  N3_10 
REMARK    2  A    between atoms: N3_10  and  C6_12 
REMARK    3  A    between atoms: C6_12  and  C7_13 
REMARK    4  A    between atoms: C7_13  and  C8_14 
REMARK    5  A    between atoms: C8_14  and  N4_15 
REMARK    6  A    between atoms: N4_15  and  C9_17 
REMARK    7  A    between atoms: C9_17  and  N5_19 
REMARK    8  A    between atoms: N5_19  and  C10_21 
ROOT
HETATM    1  C1  UNL     1      50.857  -1.124  36.169  1.00  0.00     0.055 C 
HETATM    2  C2  UNL     1      49.415  -1.035  36.593  1.00  0.00     0.116 C 
HETATM    3  C3  UNL     1      49.246  -0.280  37.889  1.00  0.00     0.055 C 
HETATM    4  C4  UNL     1      48.841  -2.396  36.728  1.00  0.00     0.090 C 
HETATM    5  N1  UNL     1      48.385  -3.452  36.845  1.00  0.00    -0.195 NA
ENDROOT
BRANCH   2   6
HETATM    6  N2  UNL     1      48.657  -0.339  35.584  1.00  0.00    -0.322 N 
HETATM    7  C5  UNL     1      47.261  -0.085  35.846  1.00  0.00     0.317 C 
HETATM    8  O1  UNL     1      46.788  -0.486  36.941  1.00  0.00    -0.247 OA
HETATM    9  N3  UNL     1      46.533   0.598  34.852  1.00  0.00    -0.343 N 
ATOM     10  H3  UNL     1      47.004   0.878  33.991  1.00  0.00     0.164 HD
ATOM     11  H2  UNL     1      49.092  -0.036  34.713  1.00  0.00     0.166 HD
BRANCH   9  12
HETATM   12  C6  UNL     1      45.145   0.907  35.026  1.00  0.00     0.126 C 
BRANCH  12  13
HETATM   13  C7  UNL     1      44.440   0.894  33.712  1.00  0.00     0.039 C 
BRANCH  13  14
HETATM   14  C8  UNL     1      44.001  -0.518  33.369  1.00  0.00     0.123 C 
BRANCH  14  15
HETATM   15  N4  UNL     1      44.530  -0.916  32.070  1.00  0.00    -0.367 N 
ATOM     16  H4  UNL     1      45.424  -0.558  31.732  1.00  0.00     0.161 HD
BRANCH  15  17
HETATM   17  C9  UNL     1      43.760  -1.816  31.296  1.00  0.00     0.167 C 
HETATM   18  S1  UNL     1      43.232  -3.169  32.039  1.00  0.00    -0.041 SA
BRANCH  17  19
HETATM   19  N5  UNL     1      43.468  -1.540  29.934  1.00  0.00    -0.363 N 
ATOM     20  H5  UNL     1      42.655  -0.959  29.730  1.00  0.00     0.162 HD
BRANCH  19  21
HETATM   21  C10 UNL     1      44.238  -2.022  28.833  1.00  0.00     0.083 C 
HETATM   22  C11 UNL     1      44.100  -1.113  27.651  1.00  0.00     0.025 C 
HETATM   23  C12 UNL     1      45.011  -1.582  26.531  1.00  0.00     0.002 C 
HETATM   24  C13 UNL     1      44.719  -3.007  26.137  1.00  0.00     0.000 C 
HETATM   25  C14 UNL     1      43.686  -3.657  27.017  1.00  0.00     0.002 C 
HETATM   26  C15 UNL     1      43.987  -3.466  28.497  1.00  0.00     0.025 C 
ENDBRANCH  19  21
ENDBRANCH  17  19
ENDBRANCH  15  17
ENDBRANCH  14  15
ENDBRANCH  13  14
ENDBRANCH  12  13
ENDBRANCH   9  12
ENDBRANCH   2   6
TORSDOF 8
ENDMDL
MODEL 2
REMARK VINA RESULT: -6.438720039      1.096      1.819
REMARK  8 active torsions:
REMARK  status: ('A' for Active; 'I' for Inactive)
REMARK    1  A    between atoms: C2_2  and  N2_6 
REMARK       I    between atoms: N2_6  and  C5_8 
REMARK       I    between atoms: C5_8  and  N3_10 
REMARK    2  A    between atoms: N3_10  and  C6_12 
REMARK    3  A    between atoms: C6_12  and  C7_13 
REMARK    4  A    between atoms: C7_13  and  C8_14 
REMARK    5  A    between atoms: C8_14  and  N4_15 
REMARK    6  A    between atoms: N4_15  and  C9_17 
REMARK    7  A    between atoms: C9_17  and  N5_19 
REMARK    8  A    between atoms: N5_19  and  C10_21 
ROOT
HETATM    1  C1  UNL     1      48.448  -2.361  36.330  1.00  0.00     0.055 C 
HETATM    2  C2  UNL     1      48.904  -0.932  36.466  1.00  0.00     0.116 C 
HETATM    3  C3  UNL     1      50.404  -0.800  36.362  1.00  0.00     0.055 C 
HETATM    4  C4  UNL     1      48.441  -0.373  37.759  1.00  0.00     0.090 C 
HETATM    5  N1  UNL     1      48.093   0.072  38.768  1.00  0.00    -0.195 NA
ENDROOT
BRANCH   2   6
HETATM    6  N2  UNL     1      48.326  -0.137  35.412  1.00  0.00    -0.322 N 
HETATM    7  C5  UNL     1      46.893  -0.176  35.249  1.00  0.00     0.317 C 
HETATM    8  O1  UNL     1      46.233  -0.902  36.037  1.00  0.00    -0.247 OA
HETATM    9  N3  UNL     1      46.341   0.607  34.216  1.00  0.00    -0.343 N 
ATOM     10  H3  UNL     1      46.960   1.159  33.622  1.00  0.00     0.164 HD
ATOM     11  H2  UNL     1      48.910   0.435  34.802  1.00  0.00     0.166 HD
BRANCH   9  12
HETATM   12  C6  UNL     1      44.927   0.644  33.984  1.00  0.00     0.126 C 
BRANCH  12  13
HETATM   13  C7  UNL     1      44.506  -0.519  33.151  1.00  0.00     0.039 C 
BRANCH  13  14
HETATM   14  C8  UNL     1      43.025  -0.425  32.833  1.00  0.00     0.123 C 
BRANCH  14  15
HETATM   15  N4  UNL     1      42.803  -0.531  31.396  1.00  0.00    -0.367 N 
ATOM     16  H4  UNL     1      42.395   0.240  30.866  1.00  0.00     0.161 HD
BRANCH  15  17
HETATM   17  C9  UNL     1      43.174  -1.741  30.763  1.00  0.00     0.167 C 
HETATM   18  S1  UNL     1      42.456  -3.107  31.295  1.00  0.00    -0.041 SA
BRANCH  17  19
HETATM   19  N5  UNL     1      44.129  -1.751  29.713  1.00  0.00    -0.363 N 
ATOM     20  H5  UNL     1      45.088  -1.486  29.939  1.00  0.00     0.162 HD
BRANCH  19  21
HETATM   21  C10 UNL     1      43.837  -2.108  28.362  1.00  0.00     0.083 C 
HETATM   22  C11 UNL     1      44.325  -3.491  28.060  1.00  0.00     0.025 C 
HETATM   23  C12 UNL     1      43.906  -3.891  26.657  1.00  0.00     0.002 C 
HETATM   24  C13 UNL     1      44.415  -2.915  25.627  1.00  0.00     0.000 C 
HETATM   25  C14 UNL     1      45.107  -1.727  26.237  1.00  0.00     0.002 C 
HETATM   26  C15 UNL     1      44.287  -1.090  27.350  1.00  0.00     0.025 C 
ENDBRANCH  19  21
ENDBRANCH  17  19
ENDBRANCH  15  17
ENDBRANCH  14  15
ENDBRANCH  13  14
ENDBRANCH  12  13
ENDBRANCH   9  12
ENDBRANCH   2   6
TORSDOF 8
ENDMDL
MODEL 3
REMARK VINA RESULT: -6.437193010      2.350      8.694
REMARK  8 active torsions:
REMARK  status: ('A' for Active; 'I' for Inactive)
REMARK    1  A    between atoms: C2_2  and  N2_6 
REMARK       I    between atoms: N2_6  and  C5_8 
REMARK       I    between atoms: C5_8  and  N3_10 
REMARK    2  A    between atoms: N3_10  and  C6_12 
REMARK    3  A    between atoms: C6_12  and  C7_13 
REMARK    4  A    between atoms: C7_13  and  C8_14 
REMARK    5  A    between atoms: C8_14  and  N4_15 
REMARK    6  A    between atoms: N4_15  and  C9_17 
REMARK    7  A    between atoms: C9_17  and  N5_19 
REMARK    8  A    between atoms: N5_19  and  C10_21 
ROOT
HETATM    1  C1  UNL     1      44.313  -4.264  29.237  1.00  0.00     0.055 C 
HETATM    2  C2  UNL     1      43.801  -2.918  28.794  1.00  0.00     0.116 C 
HETATM    3  C3  UNL     1      42.293  -2.851  28.798  1.00  0.00     0.055 C 
HETATM    4  C4  UNL     1      44.312  -2.603  27.438  1.00  0.00     0.090 C 
HETATM    5  N1  UNL     1      44.697  -2.349  26.378  1.00  0.00    -0.195 NA
ENDROOT
BRANCH   2   6
HETATM    6  N2  UNL     1      44.282  -1.898  29.691  1.00  0.00    -0.322 N 
HETATM    7  C5  UNL     1      43.823  -1.934  31.058  1.00  0.00     0.317 C 
HETATM    8  O1  UNL     1      43.030  -2.854  31.386  1.00  0.00    -0.247 OA
HETATM    9  N3  UNL     1      44.302  -0.932  31.925  1.00  0.00    -0.343 N 
ATOM     10  H3  UNL     1      44.939  -0.221  31.563  1.00  0.00     0.164 HD
ATOM     11  H2  UNL     1      44.925  -1.175  29.371  1.00  0.00     0.166 HD
BRANCH   9  12
HETATM   12  C6  UNL     1      43.913  -0.891  33.304  1.00  0.00     0.126 C 
BRANCH  12  13
HETATM   13  C7  UNL     1      43.913   0.513  33.803  1.00  0.00     0.039 C 
BRANCH  13  14
HETATM   14  C8  UNL     1      45.336   1.029  33.914  1.00  0.00     0.123 C 
BRANCH  14  15
HETATM   15  N4  UNL     1      45.679   1.286  35.307  1.00  0.00    -0.367 N 
ATOM     16  H4  UNL     1      45.418   2.161  35.763  1.00  0.00     0.161 HD
BRANCH  15  17
HETATM   17  C9  UNL     1      46.386   0.278  36.006  1.00  0.00     0.167 C 
HETATM   18  S1  UNL     1      45.526  -0.652  37.035  1.00  0.00    -0.041 SA
BRANCH  17  19
HETATM   19  N5  UNL     1      47.780   0.097  35.811  1.00  0.00    -0.363 N 
ATOM     20  H5  UNL     1      48.241   0.676  35.108  1.00  0.00     0.162 HD
BRANCH  19  21
HETATM   21  C10 UNL     1      48.579  -0.840  36.532  1.00  0.00     0.083 C 
HETATM   22  C11 UNL     1      49.199  -0.196  37.733  1.00  0.00     0.025 C 
HETATM   23  C12 UNL     1      49.952  -1.235  38.544  1.00  0.00     0.002 C 
HETATM   24  C13 UNL     1      51.002  -1.930  37.717  1.00  0.00     0.000 C 
HETATM   25  C14 UNL     1      50.976  -1.519  36.271  1.00  0.00     0.002 C 
HETATM   26  C15 UNL     1      49.574  -1.578  35.680  1.00  0.00     0.025 C 
ENDBRANCH  19  21
ENDBRANCH  17  19
ENDBRANCH  15  17
ENDBRANCH  14  15
ENDBRANCH  13  14
ENDBRANCH  12  13
ENDBRANCH   9  12
ENDBRANCH   2   6
TORSDOF 8
ENDMDL
MODEL 4
REMARK VINA RESULT: -6.348426625      2.102      2.986
REMARK  8 active torsions:
REMARK  status: ('A' for Active; 'I' for Inactive)
REMARK    1  A    between atoms: C2_2  and  N2_6 
REMARK       I    between atoms: N2_6  and  C5_8 
REMARK       I    between atoms: C5_8  and  N3_10 
REMARK    2  A    between atoms: N3_10  and  C6_12 
REMARK    3  A    between atoms: C6_12  and  C7_13 
REMARK    4  A    between atoms: C7_13  and  C8_14 
REMARK    5  A    between atoms: C8_14  and  N4_15 
REMARK    6  A    between atoms: N4_15  and  C9_17 
REMARK    7  A    between atoms: C9_17  and  N5_19 
REMARK    8  A    between atoms: N5_19  and  C10_21 
ROOT
HETATM    1  C1  UNL     1      45.539  -0.560  38.378  1.00  0.00     0.055 C 
HETATM    2  C2  UNL     1      46.494   0.591  38.199  1.00  0.00     0.116 C 
HETATM    3  C3  UNL     1      47.935   0.147  38.237  1.00  0.00     0.055 C 
HETATM    4  C4  UNL     1      46.257   1.613  39.247  1.00  0.00     0.090 C 
HETATM    5  N1  UNL     1      46.088   2.414  40.063  1.00  0.00    -0.195 NA
ENDROOT
BRANCH   2   6
HETATM    6  N2  UNL     1      46.266   1.213  36.920  1.00  0.00    -0.322 N 
HETATM    7  C5  UNL     1      46.022   0.354  35.787  1.00  0.00     0.317 C 
HETATM    8  O1  UNL     1      46.022  -0.888  35.984  1.00  0.00    -0.247 OA
HETATM    9  N3  UNL     1      45.799   0.977  34.543  1.00  0.00    -0.343 N 
ATOM     10  H3  UNL     1      45.827   1.995  34.481  1.00  0.00     0.164 HD
ATOM     11  H2  UNL     1      46.277   2.228  36.818  1.00  0.00     0.166 HD
BRANCH   9  12
HETATM   12  C6  UNL     1      45.536   0.208  33.362  1.00  0.00     0.126 C 
BRANCH  12  13
HETATM   13  C7  UNL     1      44.093  -0.160  33.293  1.00  0.00     0.039 C 
BRANCH  13  14
HETATM   14  C8  UNL     1      43.871  -1.202  32.210  1.00  0.00     0.123 C 
BRANCH  14  15
HETATM   15  N4  UNL     1      42.937  -0.705  31.208  1.00  0.00    -0.367 N 
ATOM     16  H4  UNL     1      42.636   0.269  31.203  1.00  0.00     0.161 HD
BRANCH  15  17
HETATM   17  C9  UNL     1      42.462  -1.624  30.241  1.00  0.00     0.167 C 
HETATM   18  S1  UNL     1      40.850  -1.677  29.998  1.00  0.00    -0.041 SA
BRANCH  17  19
HETATM   19  N5  UNL     1      43.361  -2.455  29.523  1.00  0.00    -0.363 N 
ATOM     20  H5  UNL     1      44.009  -3.032  30.060  1.00  0.00     0.162 HD
BRANCH  19  21
HETATM   21  C10 UNL     1      43.419  -2.538  28.099  1.00  0.00     0.083 C 
HETATM   22  C11 UNL     1      44.081  -3.810  27.667  1.00  0.00     0.025 C 
HETATM   23  C12 UNL     1      44.032  -3.929  26.154  1.00  0.00     0.002 C 
HETATM   24  C13 UNL     1      44.677  -2.744  25.483  1.00  0.00     0.000 C 
HETATM   25  C14 UNL     1      45.105  -1.681  26.457  1.00  0.00     0.002 C 
HETATM   26  C15 UNL     1      43.999  -1.318  27.439  1.00  0.00     0.025 C 
ENDBRANCH  19  21
ENDBRANCH  17  19
ENDBRANCH  15  17
ENDBRANCH  14  15
ENDBRANCH  13  14
ENDBRANCH  12  13
ENDBRANCH   9  12
ENDBRANCH   2   6
TORSDOF 8
ENDMDL
MODEL 5
REMARK VINA RESULT: -6.272735453      2.756      4.043
REMARK  8 active torsions:
REMARK  status: ('A' for Active; 'I' for Inactive)
REMARK    1  A    between atoms: C2_2  and  N2_6 
REMARK       I    between atoms: N2_6  and  C5_8 
REMARK       I    between atoms: C5_8  and  N3_10 
REMARK    2  A    between atoms: N3_10  and  C6_12 
REMARK    3  A    between atoms: C6_12  and  C7_13 
REMARK    4  A    between atoms: C7_13  and  C8_14 
REMARK    5  A    between atoms: C8_14  and  N4_15 
REMARK    6  A    between atoms: N4_15  and  C9_17 
REMARK    7  A    between atoms: C9_17  and  N5_19 
REMARK    8  A    between atoms: N5_19  and  C10_21 
ROOT
HETATM    1  C1  UNL     1      43.830   4.694  37.825  1.00  0.00     0.055 C 
HETATM    2  C2  UNL     1      44.180   3.232  37.733  1.00  0.00     0.116 C 
HETATM    3  C3  UNL     1      42.958   2.349  37.778  1.00  0.00     0.055 C 
HETATM    4  C4  UNL     1      45.106   2.863  38.831  1.00  0.00     0.090 C 
HETATM    5  N1  UNL     1      45.820   2.560  39.688  1.00  0.00    -0.195 NA
ENDROOT
BRANCH   2   6
HETATM    6  N2  UNL     1      44.855   2.974  36.486  1.00  0.00    -0.322 N 
HETATM    7  C5  UNL     1      45.018   1.600  36.080  1.00  0.00     0.317 C 
HETATM    8  O1  UNL     1      44.559   0.707  36.839  1.00  0.00    -0.247 OA
HETATM    9  N3  UNL     1      45.678   1.362  34.859  1.00  0.00    -0.343 N 
ATOM     10  H3  UNL     1      46.022   2.154  34.314  1.00  0.00     0.164 HD
ATOM     11  H2  UNL     1      45.207   3.738  35.910  1.00  0.00     0.166 HD
BRANCH   9  12
HETATM   12  C6  UNL     1      45.876   0.031  34.365  1.00  0.00     0.126 C 
BRANCH  12  13
HETATM   13  C7  UNL     1      45.196  -0.142  33.050  1.00  0.00     0.039 C 
BRANCH  13  14
HETATM   14  C8  UNL     1      43.856  -0.831  33.241  1.00  0.00     0.123 C 
BRANCH  14  15
HETATM   15  N4  UNL     1      43.678  -1.885  32.251  1.00  0.00    -0.367 N 
ATOM     16  H4  UNL     1      43.803  -2.867  32.496  1.00  0.00     0.161 HD
BRANCH  15  17
HETATM   17  C9  UNL     1      43.325  -1.497  30.936  1.00  0.00     0.167 C 
HETATM   18  S1  UNL     1      41.826  -0.889  30.720  1.00  0.00    -0.041 SA
BRANCH  17  19
HETATM   19  N5  UNL     1      44.244  -1.637  29.864  1.00  0.00    -0.363 N 
ATOM     20  H5  UNL     1      45.227  -1.439  30.050  1.00  0.00     0.162 HD
BRANCH  19  21
HETATM   21  C10 UNL     1      43.884  -2.038  28.542  1.00  0.00     0.083 C 
HETATM   22  C11 UNL     1      44.320  -3.445  28.275  1.00  0.00     0.025 C 
HETATM   23  C12 UNL     1      43.831  -3.888  26.908  1.00  0.00     0.002 C 
HETATM   24  C13 UNL     1      44.321  -2.968  25.819  1.00  0.00     0.000 C 
HETATM   25  C14 UNL     1      45.071  -1.778  26.352  1.00  0.00     0.002 C 
HETATM   26  C15 UNL     1      44.317  -1.074  27.471  1.00  0.00     0.025 C 
ENDBRANCH  19  21
ENDBRANCH  17  19
ENDBRANCH  15  17
ENDBRANCH  14  15
ENDBRANCH  13  14
ENDBRANCH  12  13
ENDBRANCH   9  12
ENDBRANCH   2   6
TORSDOF 8
ENDMDL
