MODEL 1
REMARK VINA RESULT: -5.978546925      0.000      0.000
REMARK  6 active torsions:
REMARK  status: ('A' for Active; 'I' for Inactive)
REMARK       I    between atoms: C2_5  and  N3_6 
REMARK       I    between atoms: C2_5  and  N6_16 
REMARK    1  A    between atoms: N3_6  and  C3_8 
REMARK    2  A    between atoms: C3_8  and  C4_9 
REMARK    3  A    between atoms: C4_9  and  C5_10 
REMARK    4  A    between atoms: C5_10  and  N4_11 
REMARK    5  A    between atoms: N4_11  and  C6_13 
REMARK    6  A    between atoms: N6_16  and  C7_18 
ROOT
HETATM    1  N1  UNL     1      42.873  -0.147  32.175  1.00  0.00    -0.171 NA
HETATM    2  C1  UNL     1      43.911  -0.149  32.666  1.00  0.00     0.196 C 
HETATM    3  N2  UNL     1      45.173  -0.166  33.239  1.00  0.00    -0.126 N 
ATOM      4  H2  UNL     1      45.929  -0.605  32.714  1.00  0.00     0.197 HD
HETATM    5  C2  UNL     1      45.451   0.332  34.382  1.00  0.00     0.683 C 
HETATM    6  N3  UNL     1      44.431   0.955  35.150  1.00  0.00    -0.226 N 
ATOM      7  H3  UNL     1      44.022   0.433  35.924  1.00  0.00     0.177 HD
HETATM    8  N6  UNL     1      46.754   0.296  34.935  1.00  0.00    -0.220 N 
ATOM      9  H6  UNL     1      47.441   1.001  34.665  1.00  0.00     0.178 HD
ENDROOT
BRANCH   6  10
HETATM   10  C3  UNL     1      43.941   2.291  34.890  1.00  0.00     0.139 C 
BRANCH  10  11
HETATM   11  C4  UNL     1      43.923   3.133  36.143  1.00  0.00     0.040 C 
BRANCH  11  12
HETATM   12  C5  UNL     1      45.074   2.890  37.064  1.00  0.00     0.123 C 
BRANCH  12  13
HETATM   13  N4  UNL     1      44.857   3.241  38.434  1.00  0.00    -0.369 N 
ATOM     14  H4  UNL     1      44.800   4.231  38.674  1.00  0.00     0.161 HD
BRANCH  13  15
HETATM   15  C6  UNL     1      44.719   2.292  39.473  1.00  0.00     0.180 C 
HETATM   16  N5  UNL     1      45.407   2.480  40.699  1.00  0.00    -0.070 NA
HETATM   17  S1  UNL     1      43.783   0.971  39.339  1.00  0.00    -0.044 SA
ENDBRANCH  13  15
ENDBRANCH  12  13
ENDBRANCH  11  12
ENDBRANCH  10  11
ENDBRANCH   6  10
BRANCH   8  18
HETATM   18  C7  UNL     1      47.106  -0.722  35.865  1.00  0.00     0.107 C 
HETATM   19  C8  UNL     1      48.538  -1.182  35.792  1.00  0.00     0.010 C 
HETATM   20  C9  UNL     1      48.595  -2.554  36.477  1.00  0.00     0.011 C 
HETATM   21  C13 UNL     1      49.458  -0.252  36.548  1.00  0.00     0.011 C 
HETATM   22  C10 UNL     1      48.082  -2.433  37.885  1.00  0.00    -0.013 C 
HETATM   23  C11 UNL     1      49.042  -1.552  38.652  1.00  0.00     0.009 C 
HETATM   24  C16 UNL     1      46.716  -1.824  37.984  1.00  0.00     0.011 C 
HETATM   25  C12 UNL     1      49.046  -0.208  37.992  1.00  0.00    -0.013 C 
HETATM   26  C14 UNL     1      47.650   0.426  38.042  1.00  0.00     0.011 C 
HETATM   27  C15 UNL     1      46.710  -0.456  37.288  1.00  0.00     0.010 C 
ENDBRANCH   8  18
TORSDOF 6
ENDMDL
MODEL 2
REMARK VINA RESULT: -5.931262974      1.354      1.859
REMARK  6 active torsions:
REMARK  status: ('A' for Active; 'I' for Inactive)
REMARK       I    between atoms: C2_5  and  N3_6 
REMARK       I    between atoms: C2_5  and  N6_16 
REMARK    1  A    between atoms: N3_6  and  C3_8 
REMARK    2  A    between atoms: C3_8  and  C4_9 
REMARK    3  A    between atoms: C4_9  and  C5_10 
REMARK    4  A    between atoms: C5_10  and  N4_11 
REMARK    5  A    between atoms: N4_11  and  C6_13 
REMARK    6  A    between atoms: N6_16  and  C7_18 
ROOT
HETATM    1  N1  UNL     1      44.643   0.214  32.954  1.00  0.00    -0.171 NA
HETATM    2  C1  UNL     1      45.496   0.230  33.724  1.00  0.00     0.196 C 
HETATM    3  N2  UNL     1      46.542   0.246  34.632  1.00  0.00    -0.126 N 
ATOM      4  H2  UNL     1      47.493   0.232  34.264  1.00  0.00     0.197 HD
HETATM    5  C2  UNL     1      46.393   0.279  35.901  1.00  0.00     0.683 C 
HETATM    6  N3  UNL     1      45.087   0.302  36.459  1.00  0.00    -0.226 N 
ATOM      7  H3  UNL     1      44.709  -0.565  36.840  1.00  0.00     0.177 HD
HETATM    8  N6  UNL     1      47.488   0.296  36.798  1.00  0.00    -0.220 N 
ATOM      9  H6  UNL     1      47.955   1.177  37.016  1.00  0.00     0.178 HD
ENDROOT
BRANCH   6  10
HETATM   10  C3  UNL     1      44.265   1.491  36.516  1.00  0.00     0.139 C 
BRANCH  10  11
HETATM   11  C4  UNL     1      45.082   2.721  36.829  1.00  0.00     0.040 C 
BRANCH  11  12
HETATM   12  C5  UNL     1      45.021   3.151  38.259  1.00  0.00     0.123 C 
BRANCH  12  13
HETATM   13  N4  UNL     1      45.893   2.452  39.153  1.00  0.00    -0.369 N 
ATOM     14  H4  UNL     1      46.899   2.533  39.006  1.00  0.00     0.161 HD
BRANCH  13  15
HETATM   15  C6  UNL     1      45.436   1.655  40.228  1.00  0.00     0.180 C 
HETATM   16  N5  UNL     1      45.020   2.270  41.437  1.00  0.00    -0.070 NA
HETATM   17  S1  UNL     1      45.349   0.035  40.148  1.00  0.00    -0.044 SA
ENDBRANCH  13  15
ENDBRANCH  12  13
ENDBRANCH  11  12
ENDBRANCH  10  11
ENDBRANCH   6  10
BRANCH   8  18
HETATM   18  C7  UNL     1      47.937  -0.915  37.398  1.00  0.00     0.107 C 
HETATM   19  C8  UNL     1      48.384  -1.976  36.429  1.00  0.00     0.010 C 
HETATM   20  C9  UNL     1      48.353  -3.308  37.189  1.00  0.00     0.011 C 
HETATM   21  C13 UNL     1      49.804  -1.743  35.968  1.00  0.00     0.011 C 
HETATM   22  C10 UNL     1      49.227  -3.211  38.408  1.00  0.00    -0.013 C 
HETATM   23  C11 UNL     1      50.655  -3.042  37.938  1.00  0.00     0.009 C 
HETATM   24  C16 UNL     1      48.895  -2.057  39.304  1.00  0.00     0.011 C 
HETATM   25  C12 UNL     1      50.724  -1.767  37.156  1.00  0.00    -0.013 C 
HETATM   26  C14 UNL     1      50.351  -0.568  38.037  1.00  0.00     0.011 C 
HETATM   27  C15 UNL     1      48.942  -0.750  38.500  1.00  0.00     0.010 C 
ENDBRANCH   8  18
TORSDOF 6
ENDMDL
MODEL 3
REMARK VINA RESULT: -5.889559187      8.207     10.914
REMARK  6 active torsions:
REMARK  status: ('A' for Active; 'I' for Inactive)
REMARK       I    between atoms: C2_5  and  N3_6 
REMARK       I    between atoms: C2_5  and  N6_16 
REMARK    1  A    between atoms: N3_6  and  C3_8 
REMARK    2  A    between atoms: C3_8  and  C4_9 
REMARK    3  A    between atoms: C4_9  and  C5_10 
REMARK    4  A    between atoms: C5_10  and  N4_11 
REMARK    5  A    between atoms: N4_11  and  C6_13 
REMARK    6  A    between atoms: N6_16  and  C7_18 
ROOT
HETATM    1  N1  UNL     1      43.372  -2.983  31.683  1.00  0.00    -0.171 NA
HETATM    2  C1  UNL     1      43.432  -4.112  31.888  1.00  0.00     0.196 C 
HETATM    3  N2  UNL     1      43.505  -5.469  32.163  1.00  0.00    -0.126 N 
ATOM      4  H2  UNL     1      43.527  -5.757  33.141  1.00  0.00     0.197 HD
HETATM    5  C2  UNL     1      43.546  -6.382  31.270  1.00  0.00     0.683 C 
HETATM    6  N3  UNL     1      43.517  -6.029  29.894  1.00  0.00    -0.226 N 
ATOM      7  H3  UNL     1      44.393  -6.040  29.374  1.00  0.00     0.177 HD
HETATM    8  N6  UNL     1      43.620  -7.759  31.590  1.00  0.00    -0.220 N 
ATOM      9  H6  UNL     1      42.769  -8.276  31.816  1.00  0.00     0.178 HD
ENDROOT
BRANCH   6  10
HETATM   10  C3  UNL     1      42.308  -5.654  29.193  1.00  0.00     0.139 C 
BRANCH  10  11
HETATM   11  C4  UNL     1      42.506  -4.408  28.364  1.00  0.00     0.040 C 
BRANCH  11  12
HETATM   12  C5  UNL     1      43.910  -4.198  27.898  1.00  0.00     0.123 C 
BRANCH  12  13
HETATM   13  N4  UNL     1      44.093  -4.164  26.480  1.00  0.00    -0.369 N 
ATOM     14  H4  UNL     1      43.944  -5.025  25.954  1.00  0.00     0.161 HD
BRANCH  13  15
HETATM   15  C6  UNL     1      44.471  -3.002  25.766  1.00  0.00     0.180 C 
HETATM   16  N5  UNL     1      44.502  -3.022  24.348  1.00  0.00    -0.070 NA
HETATM   17  S1  UNL     1      44.872  -1.610  26.501  1.00  0.00    -0.044 SA
ENDBRANCH  13  15
ENDBRANCH  12  13
ENDBRANCH  11  12
ENDBRANCH  10  11
ENDBRANCH   6  10
BRANCH   8  18
HETATM   18  C7  UNL     1      44.879  -8.423  31.596  1.00  0.00     0.107 C 
HETATM   19  C8  UNL     1      45.265  -9.043  32.912  1.00  0.00     0.010 C 
HETATM   20  C9  UNL     1      46.783  -9.257  32.870  1.00  0.00     0.011 C 
HETATM   21  C13 UNL     1      44.614 -10.394  33.101  1.00  0.00     0.011 C 
HETATM   22  C10 UNL     1      47.136 -10.114  31.686  1.00  0.00    -0.013 C 
HETATM   23  C11 UNL     1      46.535 -11.483  31.912  1.00  0.00     0.009 C 
HETATM   24  C16 UNL     1      46.617  -9.590  30.381  1.00  0.00     0.011 C 
HETATM   25  C12 UNL     1      45.050 -11.315  31.997  1.00  0.00    -0.013 C 
HETATM   26  C14 UNL     1      44.492 -10.743  30.688  1.00  0.00     0.011 C 
HETATM   27  C15 UNL     1      45.097  -9.395  30.473  1.00  0.00     0.010 C 
ENDBRANCH   8  18
TORSDOF 6
ENDMDL
MODEL 4
REMARK VINA RESULT: -5.792062941      6.447      8.923
REMARK  6 active torsions:
REMARK  status: ('A' for Active; 'I' for Inactive)
REMARK       I    between atoms: C2_5  and  N3_6 
REMARK       I    between atoms: C2_5  and  N6_16 
REMARK    1  A    between atoms: N3_6  and  C3_8 
REMARK    2  A    between atoms: C3_8  and  C4_9 
REMARK    3  A    between atoms: C4_9  and  C5_10 
REMARK    4  A    between atoms: C5_10  and  N4_11 
REMARK    5  A    between atoms: N4_11  and  C6_13 
REMARK    6  A    between atoms: N6_16  and  C7_18 
ROOT
HETATM    1  N1  UNL     1      45.519  -1.572  26.442  1.00  0.00    -0.171 NA
HETATM    2  C1  UNL     1      44.713  -1.258  27.198  1.00  0.00     0.196 C 
HETATM    3  N2  UNL     1      43.745  -0.854  28.103  1.00  0.00    -0.126 N 
ATOM      4  H2  UNL     1      43.487   0.133  28.116  1.00  0.00     0.197 HD
HETATM    5  C2  UNL     1      43.154  -1.637  28.922  1.00  0.00     0.683 C 
HETATM    6  N3  UNL     1      43.479  -3.019  28.939  1.00  0.00    -0.226 N 
ATOM      7  H3  UNL     1      44.093  -3.362  29.678  1.00  0.00     0.177 HD
HETATM    8  N6  UNL     1      42.167  -1.186  29.832  1.00  0.00    -0.220 N 
ATOM      9  H6  UNL     1      41.201  -1.078  29.523  1.00  0.00     0.178 HD
ENDROOT
BRANCH   6  10
HETATM   10  C3  UNL     1      42.987  -3.966  27.963  1.00  0.00     0.139 C 
BRANCH  10  11
HETATM   11  C4  UNL     1      42.749  -5.327  28.574  1.00  0.00     0.040 C 
BRANCH  11  12
HETATM   12  C5  UNL     1      41.845  -5.316  29.764  1.00  0.00     0.123 C 
BRANCH  12  13
HETATM   13  N4  UNL     1      40.444  -5.343  29.477  1.00  0.00    -0.369 N 
ATOM     14  H4  UNL     1      40.072  -6.144  28.967  1.00  0.00     0.161 HD
BRANCH  13  15
HETATM   15  C6  UNL     1      39.546  -4.319  29.860  1.00  0.00     0.180 C 
HETATM   16  N5  UNL     1      39.710  -3.006  29.349  1.00  0.00    -0.070 NA
HETATM   17  S1  UNL     1      38.299  -4.575  30.870  1.00  0.00    -0.044 SA
ENDBRANCH  13  15
ENDBRANCH  12  13
ENDBRANCH  11  12
ENDBRANCH  10  11
ENDBRANCH   6  10
BRANCH   8  18
HETATM   18  C7  UNL     1      42.523  -0.883  31.177  1.00  0.00     0.107 C 
HETATM   19  C8  UNL     1      41.376  -0.873  32.151  1.00  0.00     0.010 C 
HETATM   20  C9  UNL     1      41.844  -0.076  33.375  1.00  0.00     0.011 C 
HETATM   21  C13 UNL     1      41.032  -2.269  32.616  1.00  0.00     0.011 C 
HETATM   22  C10 UNL     1      43.092  -0.701  33.934  1.00  0.00    -0.013 C 
HETATM   23  C11 UNL     1      42.726  -2.073  34.455  1.00  0.00     0.009 C 
HETATM   24  C16 UNL     1      44.192  -0.866  32.930  1.00  0.00     0.011 C 
HETATM   25  C12 UNL     1      42.226  -2.877  33.295  1.00  0.00    -0.013 C 
HETATM   26  C14 UNL     1      43.319  -3.031  32.229  1.00  0.00     0.011 C 
HETATM   27  C15 UNL     1      43.676  -1.670  31.728  1.00  0.00     0.010 C 
ENDBRANCH   8  18
TORSDOF 6
ENDMDL
MODEL 5
REMARK VINA RESULT: -5.727870122      1.958      4.787
REMARK  6 active torsions:
REMARK  status: ('A' for Active; 'I' for Inactive)
REMARK       I    between atoms: C2_5  and  N3_6 
REMARK       I    between atoms: C2_5  and  N6_16 
REMARK    1  A    between atoms: N3_6  and  C3_8 
REMARK    2  A    between atoms: C3_8  and  C4_9 
REMARK    3  A    between atoms: C4_9  and  C5_10 
REMARK    4  A    between atoms: C5_10  and  N4_11 
REMARK    5  A    between atoms: N4_11  and  C6_13 
REMARK    6  A    between atoms: N6_16  and  C7_18 
ROOT
HETATM    1  N1  UNL     1      44.840   3.460  38.893  1.00  0.00    -0.171 NA
HETATM    2  C1  UNL     1      45.270   2.409  38.716  1.00  0.00     0.196 C 
HETATM    3  N2  UNL     1      45.788   1.138  38.529  1.00  0.00    -0.126 N 
ATOM      4  H2  UNL     1      45.916   0.549  39.352  1.00  0.00     0.197 HD
HETATM    5  C2  UNL     1      46.117   0.655  37.393  1.00  0.00     0.683 C 
HETATM    6  N3  UNL     1      45.957   1.438  36.218  1.00  0.00    -0.226 N 
ATOM      7  H3  UNL     1      46.782   1.883  35.818  1.00  0.00     0.177 HD
HETATM    8  N6  UNL     1      46.644  -0.651  37.241  1.00  0.00    -0.220 N 
ATOM      9  H6  UNL     1      46.014  -1.452  37.192  1.00  0.00     0.178 HD
ENDROOT
BRANCH   6  10
HETATM   10  C3  UNL     1      44.684   1.636  35.560  1.00  0.00     0.139 C 
BRANCH  10  11
HETATM   11  C4  UNL     1      44.789   1.434  34.067  1.00  0.00     0.040 C 
BRANCH  11  12
HETATM   12  C5  UNL     1      45.558   0.217  33.665  1.00  0.00     0.123 C 
BRANCH  12  13
HETATM   13  N4  UNL     1      45.011  -0.529  32.574  1.00  0.00    -0.369 N 
ATOM     14  H4  UNL     1      45.639  -0.819  31.825  1.00  0.00     0.161 HD
BRANCH  13  15
HETATM   15  C6  UNL     1      43.645  -0.885  32.477  1.00  0.00     0.180 C 
HETATM   16  N5  UNL     1      42.815  -0.249  31.519  1.00  0.00    -0.070 NA
HETATM   17  S1  UNL     1      42.962  -2.019  33.419  1.00  0.00    -0.044 SA
ENDBRANCH  13  15
ENDBRANCH  12  13
ENDBRANCH  11  12
ENDBRANCH  10  11
ENDBRANCH   6  10
BRANCH   8  18
HETATM   18  C7  UNL     1      48.052  -0.846  37.157  1.00  0.00     0.107 C 
HETATM   19  C8  UNL     1      48.776  -0.826  38.476  1.00  0.00     0.010 C 
HETATM   20  C9  UNL     1      50.254  -0.559  38.162  1.00  0.00     0.011 C 
HETATM   21  C13 UNL     1      48.689  -2.163  39.176  1.00  0.00     0.011 C 
HETATM   22  C10 UNL     1      50.766  -1.612  37.220  1.00  0.00    -0.013 C 
HETATM   23  C11 UNL     1      50.736  -2.937  37.950  1.00  0.00     0.009 C 
HETATM   24  C16 UNL     1      49.954  -1.755  35.968  1.00  0.00     0.011 C 
HETATM   25  C12 UNL     1      49.311  -3.221  38.309  1.00  0.00    -0.013 C 
HETATM   26  C14 UNL     1      48.444  -3.334  37.048  1.00  0.00     0.011 C 
HETATM   27  C15 UNL     1      48.487  -2.023  36.334  1.00  0.00     0.010 C 
ENDBRANCH   8  18
TORSDOF 6
ENDMDL
