MODEL 1
REMARK VINA RESULT: -7.659930857      0.000      0.000
REMARK  8 active torsions:
REMARK  status: ('A' for Active; 'I' for Inactive)
REMARK    1  A    between atoms: C1_2  and  C2_3 
REMARK       I    between atoms: C1_2  and  N1_11 
REMARK    2  A    between atoms: C2_3  and  C3_4 
REMARK    3  A    between atoms: C3_4  and  C4_5 
REMARK    4  A    between atoms: N1_11  and  N2_12 
REMARK    5  A    between atoms: N2_12  and  C10_13 
REMARK    6  A    between atoms: C10_13  and  N3_15 
REMARK    7  A    between atoms: N3_15  and  N4_17 
REMARK       I    between atoms: N4_17  and  C11_19 
REMARK    8  A    between atoms: C11_19  and  C12_21 
ROOT
HETATM    1  C10 UNL     1      44.347   1.307  34.064  1.00  0.00     0.302 C 
HETATM    2  S1  UNL     1      43.513   2.409  35.040  1.00  0.00    -0.020 SA
ENDROOT
BRANCH   1   3
HETATM    3  N2  UNL     1      43.755   0.651  33.118  1.00  0.00    -0.213 NA
BRANCH   3   4
HETATM    4  N1  UNL     1      43.161  -0.003  32.189  1.00  0.00    -0.207 NA
HETATM    5  C1  UNL     1      42.485  -0.622  31.204  1.00  0.00     0.331 C 
HETATM    6  O1  UNL     1      41.484  -0.334  30.578  1.00  0.00    -0.254 OA
BRANCH   5   7
HETATM    7  C2  UNL     1      43.134  -1.997  30.716  1.00  0.00     0.150 C 
BRANCH   7   8
HETATM    8  C3  UNL     1      42.414  -2.406  29.528  1.00  0.00    -0.005 C 
BRANCH   8   9
HETATM    9  C4  UNL     1      43.093  -2.623  28.266  1.00  0.00    -0.040 A 
HETATM   10  C5  UNL     1      43.548  -1.415  27.650  1.00  0.00     0.011 A 
HETATM   11  C6  UNL     1      44.102  -1.425  26.440  1.00  0.00     0.001 A 
HETATM   12  C7  UNL     1      44.293  -2.566  25.668  1.00  0.00     0.000 A 
HETATM   13  C8  UNL     1      43.864  -3.753  26.241  1.00  0.00     0.001 A 
HETATM   14  C9  UNL     1      43.266  -3.750  27.546  1.00  0.00     0.011 A 
ENDBRANCH   8   9
ENDBRANCH   7   8
ENDBRANCH   5   7
ENDBRANCH   3   4
ENDBRANCH   1   3
BRANCH   1  15
HETATM   15  N3  UNL     1      45.766   1.271  34.293  1.00  0.00    -0.259 N 
ATOM     16  H3  UNL     1      46.470   1.261  33.554  1.00  0.00     0.190 HD
BRANCH  15  17
HETATM   17  N4  UNL     1      46.067   1.251  35.714  1.00  0.00    -0.263 N 
HETATM   18  C11 UNL     1      47.169   0.235  35.825  1.00  0.00     0.270 C 
HETATM   19  O2  UNL     1      47.490  -0.283  34.791  1.00  0.00    -0.266 OA
ATOM     20  H4  UNL     1      45.633   1.796  36.459  1.00  0.00     0.190 HD
BRANCH  18  21
HETATM   21  C12 UNL     1      47.720  -0.033  37.121  1.00  0.00     0.033 A 
HETATM   22  C13 UNL     1      49.104  -0.371  37.134  1.00  0.00     0.019 A 
HETATM   23  C14 UNL     1      49.733  -0.674  38.321  1.00  0.00     0.025 A 
HETATM   24  C15 UNL     1      49.060  -0.658  39.520  1.00  0.00     0.034 A 
HETATM   25 CL1  UNL     1      49.904  -1.093  41.023  1.00  0.00    -0.084 Cl
HETATM   26  C16 UNL     1      47.729  -0.330  39.528  1.00  0.00     0.025 A 
HETATM   27  C17 UNL     1      47.096  -0.027  38.315  1.00  0.00     0.019 A 
ENDBRANCH  18  21
ENDBRANCH  15  17
ENDBRANCH   1  15
TORSDOF 8
ENDMDL
MODEL 2
REMARK VINA RESULT: -7.628249865      1.442      1.939
REMARK  8 active torsions:
REMARK  status: ('A' for Active; 'I' for Inactive)
REMARK    1  A    between atoms: C1_2  and  C2_3 
REMARK       I    between atoms: C1_2  and  N1_11 
REMARK    2  A    between atoms: C2_3  and  C3_4 
REMARK    3  A    between atoms: C3_4  and  C4_5 
REMARK    4  A    between atoms: N1_11  and  N2_12 
REMARK    5  A    between atoms: N2_12  and  C10_13 
REMARK    6  A    between atoms: C10_13  and  N3_15 
REMARK    7  A    between atoms: N3_15  and  N4_17 
REMARK       I    between atoms: N4_17  and  C11_19 
REMARK    8  A    between atoms: C11_19  and  C12_21 
ROOT
HETATM    1  C10 UNL     1      43.398   0.761  33.885  1.00  0.00     0.302 C 
HETATM    2  S1  UNL     1      42.283   0.723  35.156  1.00  0.00    -0.020 SA
ENDROOT
BRANCH   1   3
HETATM    3  N2  UNL     1      43.160   0.183  32.751  1.00  0.00    -0.213 NA
BRANCH   3   4
HETATM    4  N1  UNL     1      42.914  -0.384  31.628  1.00  0.00    -0.207 NA
HETATM    5  C1  UNL     1      42.577  -0.944  30.451  1.00  0.00     0.331 C 
HETATM    6  O1  UNL     1      41.537  -0.993  29.824  1.00  0.00    -0.254 OA
BRANCH   5   7
HETATM    7  C2  UNL     1      43.782  -1.664  29.691  1.00  0.00     0.150 C 
BRANCH   7   8
HETATM    8  C3  UNL     1      43.926  -1.005  28.409  1.00  0.00    -0.005 C 
BRANCH   8   9
HETATM    9  C4  UNL     1      43.846  -1.742  27.164  1.00  0.00    -0.040 A 
HETATM   10  C5  UNL     1      43.813  -3.161  27.343  1.00  0.00     0.011 A 
HETATM   11  C6  UNL     1      43.842  -3.987  26.301  1.00  0.00     0.001 A 
HETATM   12  C7  UNL     1      43.905  -3.583  24.972  1.00  0.00     0.000 A 
HETATM   13  C8  UNL     1      43.934  -2.212  24.767  1.00  0.00     0.001 A 
HETATM   14  C9  UNL     1      43.905  -1.313  25.886  1.00  0.00     0.011 A 
ENDBRANCH   8   9
ENDBRANCH   7   8
ENDBRANCH   5   7
ENDBRANCH   3   4
ENDBRANCH   1   3
BRANCH   1  15
HETATM   15  N3  UNL     1      44.547   1.589  34.132  1.00  0.00    -0.259 N 
ATOM     16  H3  UNL     1      44.534   2.609  34.136  1.00  0.00     0.190 HD
BRANCH  15  17
HETATM   17  N4  UNL     1      45.731   0.782  34.374  1.00  0.00    -0.263 N 
HETATM   18  C11 UNL     1      46.112   1.133  35.785  1.00  0.00     0.270 C 
HETATM   19  O2  UNL     1      45.407   1.948  36.315  1.00  0.00    -0.266 OA
ATOM     20  H4  UNL     1      46.193   0.132  33.739  1.00  0.00     0.190 HD
BRANCH  18  21
HETATM   21  C12 UNL     1      47.259   0.495  36.360  1.00  0.00     0.033 A 
HETATM   22  C13 UNL     1      48.051  -0.265  35.453  1.00  0.00     0.019 A 
HETATM   23  C14 UNL     1      49.163  -0.942  35.901  1.00  0.00     0.025 A 
HETATM   24  C15 UNL     1      49.547  -0.907  37.222  1.00  0.00     0.034 A 
HETATM   25 CL1  UNL     1      50.968  -1.827  37.762  1.00  0.00    -0.084 Cl
HETATM   26  C16 UNL     1      48.800  -0.176  38.109  1.00  0.00     0.025 A 
HETATM   27  C17 UNL     1      47.667   0.506  37.645  1.00  0.00     0.019 A 
ENDBRANCH  18  21
ENDBRANCH  15  17
ENDBRANCH   1  15
TORSDOF 8
ENDMDL
MODEL 3
REMARK VINA RESULT: -7.559541736      4.330     10.294
REMARK  8 active torsions:
REMARK  status: ('A' for Active; 'I' for Inactive)
REMARK    1  A    between atoms: C1_2  and  C2_3 
REMARK       I    between atoms: C1_2  and  N1_11 
REMARK    2  A    between atoms: C2_3  and  C3_4 
REMARK    3  A    between atoms: C3_4  and  C4_5 
REMARK    4  A    between atoms: N1_11  and  N2_12 
REMARK    5  A    between atoms: N2_12  and  C10_13 
REMARK    6  A    between atoms: C10_13  and  N3_15 
REMARK    7  A    between atoms: N3_15  and  N4_17 
REMARK       I    between atoms: N4_17  and  C11_19 
REMARK    8  A    between atoms: C11_19  and  C12_21 
ROOT
HETATM    1  C10 UNL     1      42.960  -0.580  31.371  1.00  0.00     0.302 C 
HETATM    2  S1  UNL     1      42.651  -2.240  31.476  1.00  0.00    -0.020 SA
ENDROOT
BRANCH   1   3
HETATM    3  N2  UNL     1      43.263   0.124  32.414  1.00  0.00    -0.213 NA
BRANCH   3   4
HETATM    4  N1  UNL     1      43.573   0.817  33.447  1.00  0.00    -0.207 NA
HETATM    5  C1  UNL     1      43.850   1.609  34.500  1.00  0.00     0.331 C 
HETATM    6  O1  UNL     1      43.605   2.772  34.750  1.00  0.00    -0.254 OA
BRANCH   5   7
HETATM    7  C2  UNL     1      44.626   0.880  35.691  1.00  0.00     0.150 C 
BRANCH   7   8
HETATM    8  C3  UNL     1      45.849   0.343  35.131  1.00  0.00    -0.005 C 
BRANCH   8   9
HETATM    9  C4  UNL     1      47.016   0.095  35.955  1.00  0.00    -0.040 A 
HETATM   10  C5  UNL     1      46.885   0.590  37.291  1.00  0.00     0.011 A 
HETATM   11  C6  UNL     1      47.900   0.535  38.148  1.00  0.00     0.001 A 
HETATM   12  C7  UNL     1      49.155   0.012  37.856  1.00  0.00     0.000 A 
HETATM   13  C8  UNL     1      49.311  -0.479  36.569  1.00  0.00     0.001 A 
HETATM   14  C9  UNL     1      48.220  -0.423  35.637  1.00  0.00     0.011 A 
ENDBRANCH   8   9
ENDBRANCH   7   8
ENDBRANCH   5   7
ENDBRANCH   3   4
ENDBRANCH   1   3
BRANCH   1  15
HETATM   15  N3  UNL     1      42.986  -0.068  30.027  1.00  0.00    -0.259 N 
ATOM     16  H3  UNL     1      43.225   0.892  29.781  1.00  0.00     0.190 HD
BRANCH  15  17
HETATM   17  N4  UNL     1      42.626  -1.098  29.068  1.00  0.00    -0.263 N 
HETATM   18  C11 UNL     1      43.752  -1.060  28.074  1.00  0.00     0.270 C 
HETATM   19  O2  UNL     1      44.596  -0.236  28.292  1.00  0.00    -0.266 OA
ATOM     20  H4  UNL     1      41.805  -1.703  29.069  1.00  0.00     0.190 HD
BRANCH  18  21
HETATM   21  C12 UNL     1      43.719  -1.975  26.971  1.00  0.00     0.033 A 
HETATM   22  C13 UNL     1      43.379  -3.318  27.305  1.00  0.00     0.019 A 
HETATM   23  C14 UNL     1      43.343  -4.288  26.328  1.00  0.00     0.025 A 
HETATM   24  C15 UNL     1      43.624  -4.000  25.013  1.00  0.00     0.034 A 
HETATM   25 CL1  UNL     1      43.602  -5.293  23.793  1.00  0.00    -0.084 Cl
HETATM   26  C16 UNL     1      43.948  -2.713  24.672  1.00  0.00     0.025 A 
HETATM   27  C17 UNL     1      43.987  -1.733  25.673  1.00  0.00     0.019 A 
ENDBRANCH  18  21
ENDBRANCH  15  17
ENDBRANCH   1  15
TORSDOF 8
ENDMDL
MODEL 4
REMARK VINA RESULT: -7.457772916      1.355      1.810
REMARK  8 active torsions:
REMARK  status: ('A' for Active; 'I' for Inactive)
REMARK    1  A    between atoms: C1_2  and  C2_3 
REMARK       I    between atoms: C1_2  and  N1_11 
REMARK    2  A    between atoms: C2_3  and  C3_4 
REMARK    3  A    between atoms: C3_4  and  C4_5 
REMARK    4  A    between atoms: N1_11  and  N2_12 
REMARK    5  A    between atoms: N2_12  and  C10_13 
REMARK    6  A    between atoms: C10_13  and  N3_15 
REMARK    7  A    between atoms: N3_15  and  N4_17 
REMARK       I    between atoms: N4_17  and  C11_19 
REMARK    8  A    between atoms: C11_19  and  C12_21 
ROOT
HETATM    1  C10 UNL     1      43.383   0.813  33.964  1.00  0.00     0.302 C 
HETATM    2  S1  UNL     1      42.301   0.777  35.265  1.00  0.00    -0.020 SA
ENDROOT
BRANCH   1   3
HETATM    3  N2  UNL     1      43.105   0.253  32.831  1.00  0.00    -0.213 NA
BRANCH   3   4
HETATM    4  N1  UNL     1      42.822  -0.310  31.714  1.00  0.00    -0.207 NA
HETATM    5  C1  UNL     1      42.453  -0.854  30.540  1.00  0.00     0.331 C 
HETATM    6  O1  UNL     1      41.442  -0.775  29.871  1.00  0.00    -0.254 OA
BRANCH   5   7
HETATM    7  C2  UNL     1      43.571  -1.762  29.849  1.00  0.00     0.150 C 
BRANCH   7   8
HETATM    8  C3  UNL     1      43.839  -1.185  28.548  1.00  0.00    -0.005 C 
BRANCH   8   9
HETATM    9  C4  UNL     1      43.970  -2.012  27.365  1.00  0.00    -0.040 A 
HETATM   10  C5  UNL     1      43.990  -1.263  26.146  1.00  0.00     0.011 A 
HETATM   11  C6  UNL     1      44.004  -1.872  24.964  1.00  0.00     0.001 A 
HETATM   12  C7  UNL     1      44.000  -3.251  24.784  1.00  0.00     0.000 A 
HETATM   13  C8  UNL     1      43.984  -4.004  25.948  1.00  0.00     0.001 A 
HETATM   14  C9  UNL     1      43.969  -3.355  27.229  1.00  0.00     0.011 A 
ENDBRANCH   8   9
ENDBRANCH   7   8
ENDBRANCH   5   7
ENDBRANCH   3   4
ENDBRANCH   1   3
BRANCH   1  15
HETATM   15  N3  UNL     1      44.552   1.619  34.190  1.00  0.00    -0.259 N 
ATOM     16  H3  UNL     1      44.548   2.638  34.248  1.00  0.00     0.190 HD
BRANCH  15  17
HETATM   17  N4  UNL     1      45.739   0.793  34.324  1.00  0.00    -0.263 N 
HETATM   18  C11 UNL     1      46.156   1.007  35.752  1.00  0.00     0.270 C 
HETATM   19  O2  UNL     1      45.467   1.767  36.375  1.00  0.00    -0.266 OA
ATOM     20  H4  UNL     1      46.184   0.206  33.618  1.00  0.00     0.190 HD
BRANCH  18  21
HETATM   21  C12 UNL     1      47.316   0.317  36.234  1.00  0.00     0.033 A 
HETATM   22  C13 UNL     1      47.592   0.488  37.621  1.00  0.00     0.019 A 
HETATM   23  C14 UNL     1      48.697  -0.108  38.187  1.00  0.00     0.025 A 
HETATM   24  C15 UNL     1      49.559  -0.883  37.447  1.00  0.00     0.034 A 
HETATM   25 CL1  UNL     1      50.993  -1.602  38.212  1.00  0.00    -0.084 Cl
HETATM   26  C16 UNL     1      49.306  -1.063  36.112  1.00  0.00     0.025 A 
HETATM   27  C17 UNL     1      48.183  -0.449  35.543  1.00  0.00     0.019 A 
ENDBRANCH  18  21
ENDBRANCH  15  17
ENDBRANCH   1  15
TORSDOF 8
ENDMDL
MODEL 5
REMARK VINA RESULT: -7.291364650      4.002     10.163
REMARK  8 active torsions:
REMARK  status: ('A' for Active; 'I' for Inactive)
REMARK    1  A    between atoms: C1_2  and  C2_3 
REMARK       I    between atoms: C1_2  and  N1_11 
REMARK    2  A    between atoms: C2_3  and  C3_4 
REMARK    3  A    between atoms: C3_4  and  C4_5 
REMARK    4  A    between atoms: N1_11  and  N2_12 
REMARK    5  A    between atoms: N2_12  and  C10_13 
REMARK    6  A    between atoms: C10_13  and  N3_15 
REMARK    7  A    between atoms: N3_15  and  N4_17 
REMARK       I    between atoms: N4_17  and  C11_19 
REMARK    8  A    between atoms: C11_19  and  C12_21 
ROOT
HETATM    1  C10 UNL     1      43.074  -1.164  33.441  1.00  0.00     0.302 C 
HETATM    2  S1  UNL     1      41.949  -2.427  33.469  1.00  0.00    -0.020 SA
ENDROOT
BRANCH   1   3
HETATM    3  N2  UNL     1      43.744  -0.825  34.495  1.00  0.00    -0.213 NA
BRANCH   3   4
HETATM    4  N1  UNL     1      44.398  -0.484  35.544  1.00  0.00    -0.207 NA
HETATM    5  C1  UNL     1      45.044  -0.191  36.688  1.00  0.00     0.331 C 
HETATM    6  O1  UNL     1      44.945  -0.605  37.825  1.00  0.00    -0.254 OA
BRANCH   5   7
HETATM    7  C2  UNL     1      46.207   0.893  36.533  1.00  0.00     0.150 C 
BRANCH   7   8
HETATM    8  C3  UNL     1      47.024   0.808  37.725  1.00  0.00    -0.005 C 
BRANCH   8   9
HETATM    9  C4  UNL     1      48.352   0.227  37.694  1.00  0.00    -0.040 A 
HETATM   10  C5  UNL     1      48.830  -0.031  36.371  1.00  0.00     0.011 A 
HETATM   11  C6  UNL     1      49.987  -0.654  36.165  1.00  0.00     0.001 A 
HETATM   12  C7  UNL     1      50.830  -1.108  37.173  1.00  0.00     0.000 A 
HETATM   13  C8  UNL     1      50.395  -0.869  38.467  1.00  0.00     0.001 A 
HETATM   14  C9  UNL     1      49.147  -0.198  38.698  1.00  0.00     0.011 A 
ENDBRANCH   8   9
ENDBRANCH   7   8
ENDBRANCH   5   7
ENDBRANCH   3   4
ENDBRANCH   1   3
BRANCH   1  15
HETATM   15  N3  UNL     1      43.306  -0.608  32.135  1.00  0.00    -0.259 N 
ATOM     16  H3  UNL     1      43.277   0.389  31.919  1.00  0.00     0.190 HD
BRANCH  15  17
HETATM   17  N4  UNL     1      43.585  -1.651  31.163  1.00  0.00    -0.263 N 
HETATM   18  C11 UNL     1      43.255  -1.003  29.849  1.00  0.00     0.270 C 
HETATM   19  O2  UNL     1      42.854   0.126  29.924  1.00  0.00    -0.266 OA
ATOM     20  H4  UNL     1      43.924  -2.598  31.333  1.00  0.00     0.190 HD
BRANCH  18  21
HETATM   21  C12 UNL     1      43.429  -1.768  28.649  1.00  0.00     0.033 A 
HETATM   22  C13 UNL     1      43.882  -1.031  27.517  1.00  0.00     0.019 A 
HETATM   23  C14 UNL     1      44.058  -1.659  26.305  1.00  0.00     0.025 A 
HETATM   24  C15 UNL     1      43.812  -3.003  26.144  1.00  0.00     0.034 A 
HETATM   25 CL1  UNL     1      44.018  -3.763  24.551  1.00  0.00    -0.084 Cl
HETATM   26  C16 UNL     1      43.380  -3.730  27.223  1.00  0.00     0.025 A 
HETATM   27  C17 UNL     1      43.199  -3.082  28.453  1.00  0.00     0.019 A 
ENDBRANCH  18  21
ENDBRANCH  15  17
ENDBRANCH   1  15
TORSDOF 8
ENDMDL
