MODEL 1
REMARK VINA RESULT: -5.251928899      0.000      0.000
REMARK  6 active torsions:
REMARK  status: ('A' for Active; 'I' for Inactive)
REMARK    1  A    between atoms: C2_2  and  N1_3 
REMARK       I    between atoms: N1_3  and  C3_5 
REMARK       I    between atoms: C3_5  and  N3_12 
REMARK       I    between atoms: N2_6  and  C4_8 
REMARK    2  A    between atoms: C4_8  and  O2_10 
REMARK    3  A    between atoms: N3_12  and  N4_14 
REMARK    4  A    between atoms: N4_14  and  C6_16 
REMARK    5  A    between atoms: C6_16  and  N5_18 
REMARK    6  A    between atoms: N5_18  and  C7_20 
ROOT
HETATM    1  N1  UNL     1      43.781  -2.671  28.934  1.00  0.00    -0.225 N 
ATOM      2  H1  UNL     1      44.558  -3.192  29.340  1.00  0.00     0.177 HD
HETATM    3  C3  UNL     1      42.442  -2.902  29.363  1.00  0.00     0.697 C 
HETATM    4  N2  UNL     1      41.873  -2.287  30.326  1.00  0.00    -0.134 N 
ATOM      5  H2  UNL     1      40.909  -2.513  30.572  1.00  0.00     0.189 HD
HETATM    6  C4  UNL     1      42.575  -1.290  31.058  1.00  0.00     0.378 C 
HETATM    7  O1  UNL     1      42.395  -0.097  30.780  1.00  0.00    -0.238 OA
HETATM    8  N3  UNL     1      41.720  -3.895  28.651  1.00  0.00    -0.130 N 
ATOM      9  H3  UNL     1      40.838  -3.689  28.181  1.00  0.00     0.205 HD
ENDROOT
BRANCH   1  10
HETATM   10  C2  UNL     1      44.009  -1.684  27.916  1.00  0.00     0.134 C 
HETATM   11  C1  UNL     1      44.356  -2.283  26.583  1.00  0.00     0.027 C 
ENDBRANCH   1  10
BRANCH   8  12
HETATM   12  N4  UNL     1      42.299  -5.190  28.632  1.00  0.00    -0.262 N 
ATOM     13  H4  UNL     1      42.912  -5.475  27.869  1.00  0.00     0.190 HD
BRANCH  12  14
HETATM   14  C6  UNL     1      42.011  -6.069  29.683  1.00  0.00     0.187 C 
HETATM   15  S1  UNL     1      40.469  -6.343  30.100  1.00  0.00    -0.040 SA
BRANCH  14  16
HETATM   16  N5  UNL     1      43.032  -6.722  30.385  1.00  0.00    -0.362 N 
ATOM     17  H5  UNL     1      43.091  -7.740  30.366  1.00  0.00     0.162 HD
BRANCH  16  18
HETATM   18  C7  UNL     1      44.004  -5.955  31.139  1.00  0.00     0.076 C 
HETATM   19  C8  UNL     1      43.267  -5.223  32.253  1.00  0.00     0.032 C 
HETATM   20  C9  UNL     1      44.992  -6.944  31.752  1.00  0.00     0.032 C 
ENDBRANCH  16  18
ENDBRANCH  14  16
ENDBRANCH  12  14
ENDBRANCH   8  12
BRANCH   6  21
HETATM   21  O2  UNL     1      43.454  -1.645  32.075  1.00  0.00    -0.308 OA
HETATM   22  C5  UNL     1      44.137  -0.660  32.823  1.00  0.00     0.215 C 
ENDBRANCH   6  21
TORSDOF 6
ENDMDL
MODEL 2
REMARK VINA RESULT: -5.165934342      2.961      4.746
REMARK  6 active torsions:
REMARK  status: ('A' for Active; 'I' for Inactive)
REMARK    1  A    between atoms: C2_2  and  N1_3 
REMARK       I    between atoms: N1_3  and  C3_5 
REMARK       I    between atoms: C3_5  and  N3_12 
REMARK       I    between atoms: N2_6  and  C4_8 
REMARK    2  A    between atoms: C4_8  and  O2_10 
REMARK    3  A    between atoms: N3_12  and  N4_14 
REMARK    4  A    between atoms: N4_14  and  C6_16 
REMARK    5  A    between atoms: C6_16  and  N5_18 
REMARK    6  A    between atoms: N5_18  and  C7_20 
ROOT
HETATM    1  N1  UNL     1      42.487  -1.194  31.777  1.00  0.00    -0.225 N 
ATOM      2  H1  UNL     1      42.395  -2.162  32.084  1.00  0.00     0.177 HD
HETATM    3  C3  UNL     1      42.222  -0.827  30.426  1.00  0.00     0.697 C 
HETATM    4  N2  UNL     1      41.078  -0.475  29.982  1.00  0.00    -0.134 N 
ATOM      5  H2  UNL     1      40.971  -0.228  28.998  1.00  0.00     0.189 HD
HETATM    6  C4  UNL     1      39.953  -0.425  30.850  1.00  0.00     0.378 C 
HETATM    7  O1  UNL     1      39.606   0.663  31.329  1.00  0.00    -0.238 OA
HETATM    8  N3  UNL     1      43.328  -0.871  29.537  1.00  0.00    -0.130 N 
ATOM      9  H3  UNL     1      43.631  -0.052  29.011  1.00  0.00     0.205 HD
ENDROOT
BRANCH   1  10
HETATM   10  C2  UNL     1      42.888  -0.166  32.696  1.00  0.00     0.134 C 
HETATM   11  C1  UNL     1      44.321  -0.289  33.129  1.00  0.00     0.027 C 
ENDBRANCH   1  10
BRANCH   8  12
HETATM   12  N4  UNL     1      43.985  -2.123  29.426  1.00  0.00    -0.262 N 
ATOM     13  H4  UNL     1      44.902  -2.269  29.848  1.00  0.00     0.190 HD
BRANCH  12  14
HETATM   14  C6  UNL     1      43.350  -3.155  28.725  1.00  0.00     0.187 C 
HETATM   15  S1  UNL     1      42.869  -4.485  29.516  1.00  0.00    -0.040 SA
BRANCH  14  16
HETATM   16  N5  UNL     1      43.118  -3.062  27.346  1.00  0.00    -0.362 N 
ATOM     17  H5  UNL     1      42.164  -3.098  26.988  1.00  0.00     0.162 HD
BRANCH  16  18
HETATM   18  C7  UNL     1      44.231  -2.917  26.428  1.00  0.00     0.076 C 
HETATM   19  C8  UNL     1      43.969  -3.813  25.224  1.00  0.00     0.032 C 
HETATM   20  C9  UNL     1      44.263  -1.460  25.974  1.00  0.00     0.032 C 
ENDBRANCH  16  18
ENDBRANCH  14  16
ENDBRANCH  12  14
ENDBRANCH   8  12
BRANCH   6  21
HETATM   21  O2  UNL     1      39.248  -1.581  31.162  1.00  0.00    -0.308 OA
HETATM   22  C5  UNL     1      38.974  -2.555  30.176  1.00  0.00     0.215 C 
ENDBRANCH   6  21
TORSDOF 6
ENDMDL
MODEL 3
REMARK VINA RESULT: -5.029145760      2.628      4.131
REMARK  6 active torsions:
REMARK  status: ('A' for Active; 'I' for Inactive)
REMARK    1  A    between atoms: C2_2  and  N1_3 
REMARK       I    between atoms: N1_3  and  C3_5 
REMARK       I    between atoms: C3_5  and  N3_12 
REMARK       I    between atoms: N2_6  and  C4_8 
REMARK    2  A    between atoms: C4_8  and  O2_10 
REMARK    3  A    between atoms: N3_12  and  N4_14 
REMARK    4  A    between atoms: N4_14  and  C6_16 
REMARK    5  A    between atoms: C6_16  and  N5_18 
REMARK    6  A    between atoms: N5_18  and  C7_20 
ROOT
HETATM    1  N1  UNL     1      42.371  -1.243  31.685  1.00  0.00    -0.225 N 
ATOM      2  H1  UNL     1      42.238  -2.214  31.969  1.00  0.00     0.177 HD
HETATM    3  C3  UNL     1      42.082  -0.824  30.354  1.00  0.00     0.697 C 
HETATM    4  N2  UNL     1      40.945  -0.400  29.959  1.00  0.00    -0.134 N 
ATOM      5  H2  UNL     1      40.819  -0.120  28.986  1.00  0.00     0.189 HD
HETATM    6  C4  UNL     1      39.853  -0.316  30.866  1.00  0.00     0.378 C 
HETATM    7  O1  UNL     1      39.580   0.774  31.385  1.00  0.00    -0.238 OA
HETATM    8  N3  UNL     1      43.154  -0.901  29.427  1.00  0.00    -0.130 N 
ATOM      9  H3  UNL     1      43.484  -0.084  28.913  1.00  0.00     0.205 HD
ENDROOT
BRANCH   1  10
HETATM   10  C2  UNL     1      42.856  -0.264  32.616  1.00  0.00     0.134 C 
HETATM   11  C1  UNL     1      44.298  -0.466  32.986  1.00  0.00     0.027 C 
ENDBRANCH   1  10
BRANCH   8  12
HETATM   12  N4  UNL     1      43.740  -2.182  29.260  1.00  0.00    -0.262 N 
ATOM     13  H4  UNL     1      44.496  -2.492  29.869  1.00  0.00     0.190 HD
BRANCH  12  14
HETATM   14  C6  UNL     1      43.259  -3.013  28.241  1.00  0.00     0.187 C 
HETATM   15  S1  UNL     1      43.942  -2.959  26.772  1.00  0.00    -0.040 SA
BRANCH  14  16
HETATM   16  N5  UNL     1      42.194  -3.895  28.464  1.00  0.00    -0.362 N 
ATOM     17  H5  UNL     1      41.536  -4.098  27.711  1.00  0.00     0.162 HD
BRANCH  16  18
HETATM   18  C7  UNL     1      42.023  -4.520  29.761  1.00  0.00     0.076 C 
HETATM   19  C8  UNL     1      40.569  -4.346  30.180  1.00  0.00     0.032 C 
HETATM   20  C9  UNL     1      42.327  -6.006  29.598  1.00  0.00     0.032 C 
ENDBRANCH  16  18
ENDBRANCH  14  16
ENDBRANCH  12  14
ENDBRANCH   8  12
BRANCH   6  21
HETATM   21  O2  UNL     1      39.098  -1.442  31.171  1.00  0.00    -0.308 OA
HETATM   22  C5  UNL     1      37.879  -1.704  30.505  1.00  0.00     0.215 C 
ENDBRANCH   6  21
TORSDOF 6
ENDMDL
MODEL 4
REMARK VINA RESULT: -4.957281646      1.657      2.252
REMARK  6 active torsions:
REMARK  status: ('A' for Active; 'I' for Inactive)
REMARK    1  A    between atoms: C2_2  and  N1_3 
REMARK       I    between atoms: N1_3  and  C3_5 
REMARK       I    between atoms: C3_5  and  N3_12 
REMARK       I    between atoms: N2_6  and  C4_8 
REMARK    2  A    between atoms: C4_8  and  O2_10 
REMARK    3  A    between atoms: N3_12  and  N4_14 
REMARK    4  A    between atoms: N4_14  and  C6_16 
REMARK    5  A    between atoms: C6_16  and  N5_18 
REMARK    6  A    between atoms: N5_18  and  C7_20 
ROOT
HETATM    1  N1  UNL     1      43.846  -2.519  28.969  1.00  0.00    -0.225 N 
ATOM      2  H1  UNL     1      44.581  -3.068  29.415  1.00  0.00     0.177 HD
HETATM    3  C3  UNL     1      42.475  -2.733  29.294  1.00  0.00     0.697 C 
HETATM    4  N2  UNL     1      41.850  -2.133  30.230  1.00  0.00    -0.134 N 
ATOM      5  H2  UNL     1      40.866  -2.344  30.400  1.00  0.00     0.189 HD
HETATM    6  C4  UNL     1      42.515  -1.170  31.039  1.00  0.00     0.378 C 
HETATM    7  O1  UNL     1      42.379   0.033  30.782  1.00  0.00    -0.238 OA
HETATM    8  N3  UNL     1      41.788  -3.691  28.504  1.00  0.00    -0.130 N 
ATOM      9  H3  UNL     1      40.947  -3.455  27.977  1.00  0.00     0.205 HD
ENDROOT
BRANCH   1  10
HETATM   10  C2  UNL     1      44.166  -1.511  27.998  1.00  0.00     0.134 C 
HETATM   11  C1  UNL     1      44.475  -2.077  26.642  1.00  0.00     0.027 C 
ENDBRANCH   1  10
BRANCH   8  12
HETATM   12  N4  UNL     1      42.341  -4.997  28.490  1.00  0.00    -0.262 N 
ATOM     13  H4  UNL     1      43.018  -5.268  27.777  1.00  0.00     0.190 HD
BRANCH  12  14
HETATM   14  C6  UNL     1      41.940  -5.907  29.476  1.00  0.00     0.187 C 
HETATM   15  S1  UNL     1      43.058  -6.675  30.362  1.00  0.00    -0.040 SA
BRANCH  14  16
HETATM   16  N5  UNL     1      40.585  -6.170  29.714  1.00  0.00    -0.362 N 
ATOM     17  H5  UNL     1      40.044  -6.705  29.035  1.00  0.00     0.162 HD
BRANCH  16  18
HETATM   18  C7  UNL     1      39.948  -5.682  30.922  1.00  0.00     0.076 C 
HETATM   19  C8  UNL     1      38.934  -4.618  30.524  1.00  0.00     0.032 C 
HETATM   20  C9  UNL     1      39.220  -6.859  31.564  1.00  0.00     0.032 C 
ENDBRANCH  16  18
ENDBRANCH  14  16
ENDBRANCH  12  14
ENDBRANCH   8  12
BRANCH   6  21
HETATM   21  O2  UNL     1      43.311  -1.571  32.106  1.00  0.00    -0.308 OA
HETATM   22  C5  UNL     1      44.123  -0.644  32.796  1.00  0.00     0.215 C 
ENDBRANCH   6  21
TORSDOF 6
ENDMDL
MODEL 5
REMARK VINA RESULT: -4.930015484      2.683      4.244
REMARK  6 active torsions:
REMARK  status: ('A' for Active; 'I' for Inactive)
REMARK    1  A    between atoms: C2_2  and  N1_3 
REMARK       I    between atoms: N1_3  and  C3_5 
REMARK       I    between atoms: C3_5  and  N3_12 
REMARK       I    between atoms: N2_6  and  C4_8 
REMARK    2  A    between atoms: C4_8  and  O2_10 
REMARK    3  A    between atoms: N3_12  and  N4_14 
REMARK    4  A    between atoms: N4_14  and  C6_16 
REMARK    5  A    between atoms: C6_16  and  N5_18 
REMARK    6  A    between atoms: N5_18  and  C7_20 
ROOT
HETATM    1  N1  UNL     1      42.198  -0.460  30.801  1.00  0.00    -0.225 N 
ATOM      2  H1  UNL     1      42.642   0.202  30.164  1.00  0.00     0.177 HD
HETATM    3  C3  UNL     1      42.970  -1.435  31.497  1.00  0.00     0.697 C 
HETATM    4  N2  UNL     1      43.504  -1.255  32.641  1.00  0.00    -0.134 N 
ATOM      5  H2  UNL     1      44.044  -2.005  33.073  1.00  0.00     0.189 HD
HETATM    6  C4  UNL     1      43.351  -0.013  33.319  1.00  0.00     0.378 C 
HETATM    7  O1  UNL     1      42.488   0.091  34.201  1.00  0.00    -0.238 OA
HETATM    8  N3  UNL     1      43.140  -2.682  30.840  1.00  0.00    -0.130 N 
ATOM      9  H3  UNL     1      42.851  -3.562  31.268  1.00  0.00     0.205 HD
ENDROOT
BRANCH   1  10
HETATM   10  C2  UNL     1      40.779  -0.433  31.018  1.00  0.00     0.134 C 
HETATM   11  C1  UNL     1      40.035  -1.426  30.172  1.00  0.00     0.027 C 
ENDBRANCH   1  10
BRANCH   8  12
HETATM   12  N4  UNL     1      43.738  -2.631  29.555  1.00  0.00    -0.262 N 
ATOM     13  H4  UNL     1      44.289  -1.822  29.269  1.00  0.00     0.190 HD
BRANCH  12  14
HETATM   14  C6  UNL     1      43.557  -3.714  28.686  1.00  0.00     0.187 C 
HETATM   15  S1  UNL     1      42.572  -4.928  29.113  1.00  0.00    -0.040 SA
BRANCH  14  16
HETATM   16  N5  UNL     1      44.212  -3.772  27.449  1.00  0.00    -0.362 N 
ATOM     17  H5  UNL     1      44.944  -4.465  27.294  1.00  0.00     0.162 HD
BRANCH  16  18
HETATM   18  C7  UNL     1      43.853  -2.849  26.390  1.00  0.00     0.076 C 
HETATM   19  C8  UNL     1      44.836  -1.687  26.423  1.00  0.00     0.032 C 
HETATM   20  C9  UNL     1      43.996  -3.594  25.066  1.00  0.00     0.032 C 
ENDBRANCH  16  18
ENDBRANCH  14  16
ENDBRANCH  12  14
ENDBRANCH   8  12
BRANCH   6  21
HETATM   21  O2  UNL     1      44.158   1.072  32.999  1.00  0.00    -0.308 OA
HETATM   22  C5  UNL     1      45.239   1.445  33.829  1.00  0.00     0.215 C 
ENDBRANCH   6  21
TORSDOF 6
ENDMDL
