MODEL 1
REMARK VINA RESULT: -6.380776416      0.000      0.000
REMARK  8 active torsions:
REMARK  status: ('A' for Active; 'I' for Inactive)
REMARK    1  A    between atoms: C2_2  and  N1_4 
REMARK    2  A    between atoms: N1_4  and  C4_6 
REMARK    3  A    between atoms: C4_6  and  C5_7 
REMARK    4  A    between atoms: C4_6  and  N6_17 
REMARK    5  A    between atoms: C5_7  and  N2_8 
REMARK    6  A    between atoms: N2_8  and  C6_10 
REMARK    7  A    between atoms: C6_10  and  N3_12 
REMARK       I    between atoms: N6_17  and  C8_19 
REMARK    8  A    between atoms: C8_19  and  C9_21 
ROOT
HETATM    1  C4  UNL     1      40.265  -2.434  30.558  1.00  0.00     0.197 C 
ENDROOT
BRANCH   1   2
HETATM    2  N1  UNL     1      41.157  -1.414  30.269  1.00  0.00    -0.397 N 
ATOM      3  H1  UNL     1      41.182  -1.095  29.301  1.00  0.00     0.155 HD
BRANCH   2   4
HETATM    4  C2  UNL     1      42.013  -0.780  31.148  1.00  0.00     0.070 C 
HETATM    5  C1  UNL     1      43.304  -1.476  31.436  1.00  0.00     0.031 C 
HETATM    6  C3  UNL     1      41.335  -0.553  32.502  1.00  0.00     0.031 C 
ENDBRANCH   2   4
ENDBRANCH   1   2
BRANCH   1   7
HETATM    7  C5  UNL     1      40.731  -3.811  30.209  1.00  0.00     0.168 C 
BRANCH   7   8
HETATM    8  N2  UNL     1      41.314  -3.850  28.871  1.00  0.00    -0.363 N 
ATOM      9  H2  UNL     1      40.775  -3.536  28.064  1.00  0.00     0.162 HD
BRANCH   8  10
HETATM   10  C6  UNL     1      42.634  -4.329  28.710  1.00  0.00     0.173 C 
HETATM   11  S1  UNL     1      43.406  -5.045  29.984  1.00  0.00    -0.041 SA
BRANCH  10  12
HETATM   12  N3  UNL     1      43.313  -4.204  27.452  1.00  0.00    -0.310 N 
HETATM   13  C7  UNL     1      43.654  -3.008  27.063  1.00  0.00     0.203 C 
HETATM   14  N4  UNL     1      44.327  -2.789  25.832  1.00  0.00    -0.066 NA
HETATM   15  N5  UNL     1      43.376  -1.843  27.842  1.00  0.00    -0.066 NA
ATOM     16  H3  UNL     1      43.521  -5.024  26.882  1.00  0.00     0.170 HD
ENDBRANCH  10  12
ENDBRANCH   8  10
ENDBRANCH   7   8
ENDBRANCH   1   7
BRANCH   1  17
HETATM   17  N6  UNL     1      38.952  -2.225  29.887  1.00  0.00    -0.338 N 
HETATM   18  C8  UNL     1      37.861  -1.610  30.498  1.00  0.00     0.224 C 
HETATM   19  O1  UNL     1      38.087  -1.232  31.718  1.00  0.00    -0.273 OA
ATOM     20  H6  UNL     1      38.845  -2.550  28.926  1.00  0.00     0.164 HD
BRANCH  18  21
HETATM   21  C9  UNL     1      36.537  -1.334  29.980  1.00  0.00     0.086 C 
HETATM   22  C10 UNL     1      35.389  -1.420  30.939  1.00  0.00    -0.001 C 
HETATM   23  C11 UNL     1      34.845  -2.788  31.180  1.00  0.00     0.010 C 
HETATM   24  C15 UNL     1      34.233  -0.665  30.234  1.00  0.00     0.010 C 
HETATM   25  C12 UNL     1      34.517  -3.466  29.879  1.00  0.00    -0.013 C 
HETATM   26  C13 UNL     1      33.433  -2.724  29.120  1.00  0.00     0.009 C 
HETATM   27  C18 UNL     1      35.740  -3.481  29.011  1.00  0.00     0.010 C 
HETATM   28  C14 UNL     1      33.904  -1.319  28.909  1.00  0.00    -0.013 C 
HETATM   29  C16 UNL     1      35.109  -1.327  28.022  1.00  0.00     0.010 C 
HETATM   30  C17 UNL     1      36.226  -2.094  28.733  1.00  0.00    -0.001 C 
ENDBRANCH  18  21
ENDBRANCH   1  17
TORSDOF 8
ENDMDL
MODEL 2
REMARK VINA RESULT: -6.362895830      3.459      7.625
REMARK  8 active torsions:
REMARK  status: ('A' for Active; 'I' for Inactive)
REMARK    1  A    between atoms: C2_2  and  N1_4 
REMARK    2  A    between atoms: N1_4  and  C4_6 
REMARK    3  A    between atoms: C4_6  and  C5_7 
REMARK    4  A    between atoms: C4_6  and  N6_17 
REMARK    5  A    between atoms: C5_7  and  N2_8 
REMARK    6  A    between atoms: N2_8  and  C6_10 
REMARK    7  A    between atoms: C6_10  and  N3_12 
REMARK       I    between atoms: N6_17  and  C8_19 
REMARK    8  A    between atoms: C8_19  and  C9_21 
ROOT
HETATM    1  C4  UNL     1      42.675  -1.136  30.663  1.00  0.00     0.197 C 
ENDROOT
BRANCH   1   2
HETATM    2  N1  UNL     1      41.719  -2.121  30.850  1.00  0.00    -0.397 N 
ATOM      3  H1  UNL     1      42.060  -3.030  31.161  1.00  0.00     0.155 HD
BRANCH   2   4
HETATM    4  C2  UNL     1      40.356  -2.007  30.662  1.00  0.00     0.070 C 
HETATM    5  C1  UNL     1      39.747  -2.914  29.643  1.00  0.00     0.031 C 
HETATM    6  C3  UNL     1      39.980  -0.581  30.250  1.00  0.00     0.031 C 
ENDBRANCH   2   4
ENDBRANCH   1   2
BRANCH   1   7
HETATM    7  C5  UNL     1      43.612  -1.360  29.519  1.00  0.00     0.168 C 
BRANCH   7   8
HETATM    8  N2  UNL     1      42.915  -1.923  28.366  1.00  0.00    -0.363 N 
ATOM      9  H2  UNL     1      42.149  -1.413  27.926  1.00  0.00     0.162 HD
BRANCH   8  10
HETATM   10  C6  UNL     1      43.317  -3.184  27.869  1.00  0.00     0.173 C 
HETATM   11  S1  UNL     1      43.696  -4.397  28.924  1.00  0.00    -0.041 SA
BRANCH  10  12
HETATM   12  N3  UNL     1      43.398  -3.424  26.457  1.00  0.00    -0.310 N 
HETATM   13  C7  UNL     1      44.251  -2.718  25.769  1.00  0.00     0.203 C 
HETATM   14  N4  UNL     1      44.398  -2.887  24.367  1.00  0.00    -0.066 NA
HETATM   15  N5  UNL     1      45.090  -1.732  26.374  1.00  0.00    -0.066 NA
ATOM     16  H3  UNL     1      42.807  -4.124  26.007  1.00  0.00     0.170 HD
ENDBRANCH  10  12
ENDBRANCH   8  10
ENDBRANCH   7   8
ENDBRANCH   1   7
BRANCH   1  17
HETATM   17  N6  UNL     1      43.504  -0.933  31.884  1.00  0.00    -0.338 N 
HETATM   18  C8  UNL     1      43.015  -0.378  33.066  1.00  0.00     0.224 C 
HETATM   19  O1  UNL     1      41.763  -0.046  33.011  1.00  0.00    -0.273 OA
ATOM     20  H6  UNL     1      44.483  -1.215  31.854  1.00  0.00     0.164 HD
BRANCH  18  21
HETATM   21  C9  UNL     1      43.689  -0.123  34.322  1.00  0.00     0.086 C 
HETATM   22  C10 UNL     1      42.859   0.392  35.458  1.00  0.00    -0.001 C 
HETATM   23  C11 UNL     1      42.612   1.864  35.467  1.00  0.00     0.010 C 
HETATM   24  C15 UNL     1      43.722   0.140  36.720  1.00  0.00     0.010 C 
HETATM   25  C12 UNL     1      43.907   2.620  35.353  1.00  0.00    -0.013 C 
HETATM   26  C13 UNL     1      44.815   2.352  36.538  1.00  0.00     0.009 C 
HETATM   27  C18 UNL     1      44.633   2.168  34.121  1.00  0.00     0.010 C 
HETATM   28  C14 UNL     1      45.042   0.874  36.614  1.00  0.00    -0.013 C 
HETATM   29  C16 UNL     1      45.790   0.423  35.399  1.00  0.00     0.010 C 
HETATM   30  C17 UNL     1      44.924   0.701  34.169  1.00  0.00    -0.001 C 
ENDBRANCH  18  21
ENDBRANCH   1  17
TORSDOF 8
ENDMDL
MODEL 3
REMARK VINA RESULT: -6.278250172      1.805      2.499
REMARK  8 active torsions:
REMARK  status: ('A' for Active; 'I' for Inactive)
REMARK    1  A    between atoms: C2_2  and  N1_4 
REMARK    2  A    between atoms: N1_4  and  C4_6 
REMARK    3  A    between atoms: C4_6  and  C5_7 
REMARK    4  A    between atoms: C4_6  and  N6_17 
REMARK    5  A    between atoms: C5_7  and  N2_8 
REMARK    6  A    between atoms: N2_8  and  C6_10 
REMARK    7  A    between atoms: C6_10  and  N3_12 
REMARK       I    between atoms: N6_17  and  C8_19 
REMARK    8  A    between atoms: C8_19  and  C9_21 
ROOT
HETATM    1  C4  UNL     1      39.117  -1.165  31.411  1.00  0.00     0.197 C 
ENDROOT
BRANCH   1   2
HETATM    2  N1  UNL     1      39.355   0.137  31.819  1.00  0.00    -0.397 N 
ATOM      3  H1  UNL     1      39.871   0.728  31.167  1.00  0.00     0.155 HD
BRANCH   2   4
HETATM    4  C2  UNL     1      38.970   0.723  33.008  1.00  0.00     0.070 C 
HETATM    5  C1  UNL     1      38.764  -0.197  34.167  1.00  0.00     0.031 C 
HETATM    6  C3  UNL     1      37.661   1.499  32.834  1.00  0.00     0.031 C 
ENDBRANCH   2   4
ENDBRANCH   1   2
BRANCH   1   7
HETATM    7  C5  UNL     1      40.294  -1.882  30.830  1.00  0.00     0.168 C 
BRANCH   7   8
HETATM    8  N2  UNL     1      41.077  -1.000  29.969  1.00  0.00    -0.363 N 
ATOM      9  H2  UNL     1      40.613  -0.342  29.344  1.00  0.00     0.162 HD
BRANCH   8  10
HETATM   10  C6  UNL     1      42.489  -1.073  30.015  1.00  0.00     0.173 C 
HETATM   11  S1  UNL     1      43.244  -1.460  31.433  1.00  0.00    -0.041 SA
BRANCH  10  12
HETATM   12  N3  UNL     1      43.275  -0.819  28.842  1.00  0.00    -0.310 N 
HETATM   13  C7  UNL     1      43.303  -1.739  27.919  1.00  0.00     0.203 C 
HETATM   14  N4  UNL     1      44.055  -1.575  26.726  1.00  0.00    -0.066 NA
HETATM   15  N5  UNL     1      42.585  -2.968  28.044  1.00  0.00    -0.066 NA
ATOM     16  H3  UNL     1      43.794   0.053  28.734  1.00  0.00     0.170 HD
ENDBRANCH  10  12
ENDBRANCH   8  10
ENDBRANCH   7   8
ENDBRANCH   1   7
BRANCH   1  17
HETATM   17  N6  UNL     1      38.014  -1.238  30.413  1.00  0.00    -0.338 N 
HETATM   18  C8  UNL     1      36.688  -1.515  30.745  1.00  0.00     0.224 C 
HETATM   19  O1  UNL     1      36.495  -1.709  32.012  1.00  0.00    -0.273 OA
ATOM     20  H6  UNL     1      38.241  -1.076  29.432  1.00  0.00     0.164 HD
BRANCH  18  21
HETATM   21  C9  UNL     1      35.518  -1.614  29.897  1.00  0.00     0.086 C 
HETATM   22  C10 UNL     1      34.461  -2.599  30.293  1.00  0.00    -0.001 C 
HETATM   23  C11 UNL     1      34.698  -4.010  29.872  1.00  0.00     0.010 C 
HETATM   24  C15 UNL     1      33.205  -2.166  29.495  1.00  0.00     0.010 C 
HETATM   25  C12 UNL     1      34.985  -4.085  28.398  1.00  0.00    -0.013 C 
HETATM   26  C13 UNL     1      33.803  -3.607  27.576  1.00  0.00     0.009 C 
HETATM   27  C18 UNL     1      36.145  -3.189  28.078  1.00  0.00     0.010 C 
HETATM   28  C14 UNL     1      33.482  -2.211  28.008  1.00  0.00    -0.013 C 
HETATM   29  C16 UNL     1      34.625  -1.308  27.665  1.00  0.00     0.010 C 
HETATM   30  C17 UNL     1      35.854  -1.770  28.451  1.00  0.00    -0.001 C 
ENDBRANCH  18  21
ENDBRANCH   1  17
TORSDOF 8
ENDMDL
MODEL 4
REMARK VINA RESULT: -6.216929426      3.245      7.529
REMARK  8 active torsions:
REMARK  status: ('A' for Active; 'I' for Inactive)
REMARK    1  A    between atoms: C2_2  and  N1_4 
REMARK    2  A    between atoms: N1_4  and  C4_6 
REMARK    3  A    between atoms: C4_6  and  C5_7 
REMARK    4  A    between atoms: C4_6  and  N6_17 
REMARK    5  A    between atoms: C5_7  and  N2_8 
REMARK    6  A    between atoms: N2_8  and  C6_10 
REMARK    7  A    between atoms: C6_10  and  N3_12 
REMARK       I    between atoms: N6_17  and  C8_19 
REMARK    8  A    between atoms: C8_19  and  C9_21 
ROOT
HETATM    1  C4  UNL     1      41.257  -0.603  31.029  1.00  0.00     0.197 C 
ENDROOT
BRANCH   1   2
HETATM    2  N1  UNL     1      39.979  -0.092  30.875  1.00  0.00    -0.397 N 
ATOM      3  H1  UNL     1      39.827   0.509  30.066  1.00  0.00     0.155 HD
BRANCH   2   4
HETATM    4  C2  UNL     1      38.889  -0.306  31.696  1.00  0.00     0.070 C 
HETATM    5  C1  UNL     1      37.743  -1.054  31.096  1.00  0.00     0.031 C 
HETATM    6  C3  UNL     1      38.320   1.021  32.204  1.00  0.00     0.031 C 
ENDBRANCH   2   4
ENDBRANCH   1   2
BRANCH   1   7
HETATM    7  C5  UNL     1      41.429  -2.034  30.631  1.00  0.00     0.168 C 
BRANCH   7   8
HETATM    8  N2  UNL     1      41.791  -2.150  29.221  1.00  0.00    -0.363 N 
ATOM      9  H2  UNL     1      41.285  -1.619  28.512  1.00  0.00     0.162 HD
BRANCH   8  10
HETATM   10  C6  UNL     1      42.851  -3.010  28.853  1.00  0.00     0.173 C 
HETATM   11  S1  UNL     1      43.371  -4.168  29.910  1.00  0.00    -0.041 SA
BRANCH  10  12
HETATM   12  N3  UNL     1      43.481  -2.890  27.569  1.00  0.00    -0.310 N 
HETATM   13  C7  UNL     1      44.237  -1.849  27.359  1.00  0.00     0.203 C 
HETATM   14  N4  UNL     1      44.899  -1.647  26.119  1.00  0.00    -0.066 NA
HETATM   15  N5  UNL     1      44.449  -0.846  28.354  1.00  0.00    -0.066 NA
ATOM     16  H3  UNL     1      43.342  -3.596  26.846  1.00  0.00     0.170 HD
ENDBRANCH  10  12
ENDBRANCH   8  10
ENDBRANCH   7   8
ENDBRANCH   1   7
BRANCH   1  17
HETATM   17  N6  UNL     1      41.738  -0.471  32.433  1.00  0.00    -0.338 N 
HETATM   18  C8  UNL     1      43.083  -0.361  32.782  1.00  0.00     0.224 C 
HETATM   19  O1  UNL     1      43.891  -0.387  31.769  1.00  0.00    -0.273 OA
ATOM     20  H6  UNL     1      41.045  -0.460  33.181  1.00  0.00     0.164 HD
BRANCH  18  21
HETATM   21  C9  UNL     1      43.698  -0.224  34.086  1.00  0.00     0.086 C 
HETATM   22  C10 UNL     1      42.791   0.010  35.255  1.00  0.00    -0.001 C 
HETATM   23  C11 UNL     1      42.365   1.423  35.475  1.00  0.00     0.010 C 
HETATM   24  C15 UNL     1      43.657  -0.327  36.495  1.00  0.00     0.010 C 
HETATM   25  C12 UNL     1      43.558   2.336  35.522  1.00  0.00    -0.013 C 
HETATM   26  C13 UNL     1      44.472   2.000  36.686  1.00  0.00     0.009 C 
HETATM   27  C18 UNL     1      44.356   2.167  34.263  1.00  0.00     0.010 C 
HETATM   28  C14 UNL     1      44.877   0.567  36.548  1.00  0.00    -0.013 C 
HETATM   29  C16 UNL     1      45.697   0.398  35.307  1.00  0.00     0.010 C 
HETATM   30  C17 UNL     1      44.825   0.756  34.102  1.00  0.00    -0.001 C 
ENDBRANCH  18  21
ENDBRANCH   1  17
TORSDOF 8
ENDMDL
MODEL 5
REMARK VINA RESULT: -6.203315764      1.946      3.184
REMARK  8 active torsions:
REMARK  status: ('A' for Active; 'I' for Inactive)
REMARK    1  A    between atoms: C2_2  and  N1_4 
REMARK    2  A    between atoms: N1_4  and  C4_6 
REMARK    3  A    between atoms: C4_6  and  C5_7 
REMARK    4  A    between atoms: C4_6  and  N6_17 
REMARK    5  A    between atoms: C5_7  and  N2_8 
REMARK    6  A    between atoms: N2_8  and  C6_10 
REMARK    7  A    between atoms: C6_10  and  N3_12 
REMARK       I    between atoms: N6_17  and  C8_19 
REMARK    8  A    between atoms: C8_19  and  C9_21 
ROOT
HETATM    1  C4  UNL     1      39.105  -0.942  31.598  1.00  0.00     0.197 C 
ENDROOT
BRANCH   1   2
HETATM    2  N1  UNL     1      38.554  -0.343  32.718  1.00  0.00    -0.397 N 
ATOM      3  H1  UNL     1      38.466  -0.929  33.548  1.00  0.00     0.155 HD
BRANCH   2   4
HETATM    4  C2  UNL     1      38.110   0.959  32.836  1.00  0.00     0.070 C 
HETATM    5  C1  UNL     1      38.425   1.656  34.119  1.00  0.00     0.031 C 
HETATM    6  C3  UNL     1      36.590   1.034  32.666  1.00  0.00     0.031 C 
ENDBRANCH   2   4
ENDBRANCH   1   2
BRANCH   1   7
HETATM    7  C5  UNL     1      40.094  -0.110  30.846  1.00  0.00     0.168 C 
BRANCH   7   8
HETATM    8  N2  UNL     1      40.872  -0.924  29.916  1.00  0.00    -0.363 N 
ATOM      9  H2  UNL     1      40.412  -1.417  29.151  1.00  0.00     0.162 HD
BRANCH   8  10
HETATM   10  C6  UNL     1      42.272  -1.020  30.092  1.00  0.00     0.173 C 
HETATM   11  S1  UNL     1      42.883  -1.486  31.555  1.00  0.00    -0.041 SA
BRANCH  10  12
HETATM   12  N3  UNL     1      43.169  -0.720  29.014  1.00  0.00    -0.310 N 
HETATM   13  C7  UNL     1      43.297  -1.606  28.066  1.00  0.00     0.203 C 
HETATM   14  N4  UNL     1      44.163  -1.395  26.961  1.00  0.00    -0.066 NA
HETATM   15  N5  UNL     1      42.579  -2.841  28.075  1.00  0.00    -0.066 NA
ATOM     16  H3  UNL     1      43.690   0.157  28.990  1.00  0.00     0.170 HD
ENDBRANCH  10  12
ENDBRANCH   8  10
ENDBRANCH   7   8
ENDBRANCH   1   7
BRANCH   1  17
HETATM   17  N6  UNL     1      38.057  -1.372  30.630  1.00  0.00    -0.338 N 
HETATM   18  C8  UNL     1      37.015  -2.238  30.954  1.00  0.00     0.224 C 
HETATM   19  O1  UNL     1      37.035  -2.646  32.185  1.00  0.00    -0.273 OA
ATOM     20  H6  UNL     1      38.106  -1.013  29.677  1.00  0.00     0.164 HD
BRANCH  18  21
HETATM   21  C9  UNL     1      35.931  -2.739  30.134  1.00  0.00     0.086 C 
HETATM   22  C10 UNL     1      36.045  -2.550  28.652  1.00  0.00    -0.001 C 
HETATM   23  C11 UNL     1      35.621  -1.218  28.132  1.00  0.00     0.010 C 
HETATM   24  C15 UNL     1      35.016  -3.542  28.052  1.00  0.00     0.010 C 
HETATM   25  C12 UNL     1      34.241  -0.872  28.619  1.00  0.00    -0.013 C 
HETATM   26  C13 UNL     1      33.206  -1.857  28.109  1.00  0.00     0.009 C 
HETATM   27  C18 UNL     1      34.219  -0.936  30.118  1.00  0.00     0.010 C 
HETATM   28  C14 UNL     1      33.622  -3.225  28.550  1.00  0.00    -0.013 C 
HETATM   29  C16 UNL     1      33.576  -3.302  30.044  1.00  0.00     0.010 C 
HETATM   30  C17 UNL     1      34.586  -2.301  30.610  1.00  0.00    -0.001 C 
ENDBRANCH  18  21
ENDBRANCH   1  17
TORSDOF 8
ENDMDL
