MODEL 1
REMARK VINA RESULT: -7.332437396      0.000      0.000
REMARK  6 active torsions:
REMARK  status: ('A' for Active; 'I' for Inactive)
REMARK    1  A    between atoms: C2_2  and  N1_4 
REMARK    2  A    between atoms: N1_4  and  N2_5 
REMARK       I    between atoms: N2_5  and  C3_7 
REMARK       I    between atoms: C3_7  and  N4_16 
REMARK       I    between atoms: N3_8  and  C4_10 
REMARK    3  A    between atoms: C4_10  and  C5_12 
REMARK    4  A    between atoms: N4_16  and  N5_18 
REMARK       I    between atoms: N5_18  and  C9_20 
REMARK       I    between atoms: C9_20  and  N6_22 
REMARK    5  A    between atoms: N6_22  and  C10_24 
REMARK    6  A    between atoms: C10_24  and  C11_25 
ROOT
HETATM    1  N2  UNL     1       7.716   7.154  25.252  1.00  0.00    -0.063 N 
ATOM      2  H2  UNL     1       7.962   8.144  25.261  1.00  0.00     0.221 HD
HETATM    3  C3  UNL     1       7.190   6.911  23.982  1.00  0.00     0.724 C 
HETATM    4  N3  UNL     1       5.934   7.117  23.765  1.00  0.00    -0.156 N 
ATOM      5  H3  UNL     1       5.568   6.931  22.832  1.00  0.00     0.187 HD
HETATM    6  C4  UNL     1       5.041   7.586  24.755  1.00  0.00     0.243 C 
HETATM    7  O1  UNL     1       5.112   7.217  25.921  1.00  0.00    -0.272 OA
HETATM    8  N4  UNL     1       8.091   6.556  22.964  1.00  0.00    -0.126 N 
ATOM      9  H4  UNL     1       8.565   7.364  22.563  1.00  0.00     0.206 HD
ENDROOT
BRANCH   8  10
HETATM   10  N5  UNL     1       8.480   5.385  22.386  1.00  0.00    -0.237 N 
HETATM   11  C9  UNL     1       9.251   4.397  23.066  1.00  0.00     0.339 C 
HETATM   12  O2  UNL     1       9.749   4.624  24.235  1.00  0.00    -0.245 OA
HETATM   13  N6  UNL     1       9.481   3.113  22.495  1.00  0.00    -0.317 N 
ATOM     14  H6  UNL     1       9.084   2.901  21.579  1.00  0.00     0.170 HD
ATOM     15  H5  UNL     1       8.207   5.206  21.419  1.00  0.00     0.192 HD
BRANCH  13  16
HETATM   16  C10 UNL     1      10.237   2.127  23.155  1.00  0.00     0.104 C 
BRANCH  16  17
HETATM   17  C11 UNL     1       9.564   1.179  24.053  1.00  0.00    -0.021 A 
HETATM   18  C12 UNL     1       9.154  -0.073  23.545  1.00  0.00     0.013 A 
HETATM   19  C13 UNL     1       8.355  -0.926  24.302  1.00  0.00     0.007 A 
HETATM   20  C14 UNL     1       7.940  -0.590  25.567  1.00  0.00    -0.062 A 
HETATM   21  C15 UNL     1       7.008  -1.485  26.327  1.00  0.00     0.048 C 
HETATM   22  C16 UNL     1       8.358   0.640  26.064  1.00  0.00     0.007 A 
HETATM   23  C17 UNL     1       9.147   1.499  25.326  1.00  0.00     0.013 A 
ENDBRANCH  16  17
ENDBRANCH  13  16
ENDBRANCH   8  10
BRANCH   1  24
HETATM   24  N1  UNL     1       8.026   6.721  26.385  1.00  0.00    -0.303 NA
BRANCH  24  25
HETATM   25  C2  UNL     1       8.314   6.303  27.449  1.00  0.00     0.174 C 
HETATM   26  C1  UNL     1       7.969   7.136  28.690  1.00  0.00     0.101 C 
HETATM   27 CL1  UNL     1       9.107   4.771  27.856  1.00  0.00    -0.052 Cl
ENDBRANCH  24  25
ENDBRANCH   1  24
BRANCH   6  28
HETATM   28  C5  UNL     1       3.983   8.564  24.351  1.00  0.00     0.031 C 
HETATM   29  C6  UNL     1       2.718   8.232  25.063  1.00  0.00     0.025 C 
HETATM   30  C7  UNL     1       4.468   9.970  24.704  1.00  0.00     0.025 C 
HETATM   31  C8  UNL     1       3.743   8.478  22.850  1.00  0.00     0.025 C 
ENDBRANCH   6  28
TORSDOF 6
ENDMDL
MODEL 2
REMARK VINA RESULT: -7.134417363      5.535      8.046
REMARK  6 active torsions:
REMARK  status: ('A' for Active; 'I' for Inactive)
REMARK    1  A    between atoms: C2_2  and  N1_4 
REMARK    2  A    between atoms: N1_4  and  N2_5 
REMARK       I    between atoms: N2_5  and  C3_7 
REMARK       I    between atoms: C3_7  and  N4_16 
REMARK       I    between atoms: N3_8  and  C4_10 
REMARK    3  A    between atoms: C4_10  and  C5_12 
REMARK    4  A    between atoms: N4_16  and  N5_18 
REMARK       I    between atoms: N5_18  and  C9_20 
REMARK       I    between atoms: C9_20  and  N6_22 
REMARK    5  A    between atoms: N6_22  and  C10_24 
REMARK    6  A    between atoms: C10_24  and  C11_25 
ROOT
HETATM    1  N2  UNL     1       9.258   4.458  24.970  1.00  0.00    -0.063 N 
ATOM      2  H2  UNL     1       9.137   4.657  25.963  1.00  0.00     0.221 HD
HETATM    3  C3  UNL     1       9.263   5.702  24.337  1.00  0.00     0.724 C 
HETATM    4  N3  UNL     1       8.144   6.240  23.986  1.00  0.00    -0.156 N 
ATOM      5  H3  UNL     1       8.168   7.148  23.522  1.00  0.00     0.187 HD
HETATM    6  C4  UNL     1       6.887   5.634  24.209  1.00  0.00     0.243 C 
HETATM    7  O1  UNL     1       6.717   4.427  24.091  1.00  0.00    -0.272 OA
HETATM    8  N4  UNL     1      10.497   6.363  24.215  1.00  0.00    -0.126 N 
ATOM      9  H4  UNL     1      10.767   6.847  25.071  1.00  0.00     0.206 HD
ENDROOT
BRANCH   8  10
HETATM   10  N5  UNL     1      11.419   6.508  23.222  1.00  0.00    -0.237 N 
HETATM   11  C9  UNL     1      11.471   7.647  22.367  1.00  0.00     0.339 C 
HETATM   12  O2  UNL     1      10.548   8.548  22.394  1.00  0.00    -0.245 OA
HETATM   13  N6  UNL     1      12.556   7.850  21.467  1.00  0.00    -0.317 N 
ATOM     14  H6  UNL     1      13.309   7.161  21.437  1.00  0.00     0.170 HD
ATOM     15  H5  UNL     1      12.106   5.766  23.084  1.00  0.00     0.192 HD
BRANCH  13  16
HETATM   16  C10 UNL     1      12.624   8.970  20.618  1.00  0.00     0.104 C 
BRANCH  16  17
HETATM   17  C11 UNL     1      13.668   9.980  20.833  1.00  0.00    -0.021 A 
HETATM   18  C12 UNL     1      13.908  10.942  19.828  1.00  0.00     0.013 A 
HETATM   19  C13 UNL     1      15.001  11.801  19.904  1.00  0.00     0.007 A 
HETATM   20  C14 UNL     1      15.884  11.751  20.956  1.00  0.00    -0.062 A 
HETATM   21  C15 UNL     1      17.101  12.625  20.971  1.00  0.00     0.048 C 
HETATM   22  C16 UNL     1      15.634  10.808  21.947  1.00  0.00     0.007 A 
HETATM   23  C17 UNL     1      14.556   9.947  21.885  1.00  0.00     0.013 A 
ENDBRANCH  16  17
ENDBRANCH  13  16
ENDBRANCH   8  10
BRANCH   1  24
HETATM   24  N1  UNL     1       9.333   3.211  24.884  1.00  0.00    -0.303 NA
BRANCH  24  25
HETATM   25  C2  UNL     1       9.394   2.036  24.799  1.00  0.00     0.174 C 
HETATM   26  C1  UNL     1       8.591   1.180  25.785  1.00  0.00     0.101 C 
HETATM   27 CL1  UNL     1      10.302   1.060  23.631  1.00  0.00    -0.052 Cl
ENDBRANCH  24  25
ENDBRANCH   1  24
BRANCH   6  28
HETATM   28  C5  UNL     1       5.737   6.508  24.603  1.00  0.00     0.031 C 
HETATM   29  C6  UNL     1       4.466   5.760  24.397  1.00  0.00     0.025 C 
HETATM   30  C7  UNL     1       5.917   6.907  26.068  1.00  0.00     0.025 C 
HETATM   31  C8  UNL     1       5.719   7.762  23.741  1.00  0.00     0.025 C 
ENDBRANCH   6  28
TORSDOF 6
ENDMDL
MODEL 3
REMARK VINA RESULT: -7.056840825      2.903      4.122
REMARK  6 active torsions:
REMARK  status: ('A' for Active; 'I' for Inactive)
REMARK    1  A    between atoms: C2_2  and  N1_4 
REMARK    2  A    between atoms: N1_4  and  N2_5 
REMARK       I    between atoms: N2_5  and  C3_7 
REMARK       I    between atoms: C3_7  and  N4_16 
REMARK       I    between atoms: N3_8  and  C4_10 
REMARK    3  A    between atoms: C4_10  and  C5_12 
REMARK    4  A    between atoms: N4_16  and  N5_18 
REMARK       I    between atoms: N5_18  and  C9_20 
REMARK       I    between atoms: C9_20  and  N6_22 
REMARK    5  A    between atoms: N6_22  and  C10_24 
REMARK    6  A    between atoms: C10_24  and  C11_25 
ROOT
HETATM    1  N2  UNL     1       6.853   8.225  24.574  1.00  0.00    -0.063 N 
ATOM      2  H2  UNL     1       6.667   9.098  25.066  1.00  0.00     0.221 HD
HETATM    3  C3  UNL     1       8.242   8.149  24.458  1.00  0.00     0.724 C 
HETATM    4  N3  UNL     1       8.827   8.716  23.456  1.00  0.00    -0.156 N 
ATOM      5  H3  UNL     1       9.842   8.648  23.387  1.00  0.00     0.187 HD
HETATM    6  C4  UNL     1       8.132   9.426  22.450  1.00  0.00     0.243 C 
HETATM    7  O1  UNL     1       7.048   9.051  22.022  1.00  0.00    -0.272 OA
HETATM    8  N4  UNL     1       8.949   7.546  25.511  1.00  0.00    -0.126 N 
ATOM      9  H4  UNL     1       9.095   8.180  26.296  1.00  0.00     0.206 HD
ENDROOT
BRANCH   8  10
HETATM   10  N5  UNL     1       9.487   6.314  25.731  1.00  0.00    -0.237 N 
HETATM   11  C9  UNL     1       8.698   5.145  25.943  1.00  0.00     0.339 C 
HETATM   12  O2  UNL     1       7.417   5.217  26.081  1.00  0.00    -0.245 OA
HETATM   13  N6  UNL     1       9.289   3.849  25.985  1.00  0.00    -0.317 N 
ATOM     14  H6  UNL     1      10.297   3.762  25.861  1.00  0.00     0.170 HD
ATOM     15  H5  UNL     1      10.503   6.222  25.745  1.00  0.00     0.192 HD
BRANCH  13  16
HETATM   16  C10 UNL     1       8.524   2.686  26.190  1.00  0.00     0.104 C 
BRANCH  16  17
HETATM   17  C11 UNL     1       8.708   1.533  25.300  1.00  0.00    -0.021 A 
HETATM   18  C12 UNL     1       9.079   1.757  23.956  1.00  0.00     0.013 A 
HETATM   19  C13 UNL     1       9.086   0.716  23.032  1.00  0.00     0.007 A 
HETATM   20  C14 UNL     1       8.740  -0.565  23.387  1.00  0.00    -0.062 A 
HETATM   21  C15 UNL     1       8.670  -1.650  22.355  1.00  0.00     0.048 C 
HETATM   22  C16 UNL     1       8.386  -0.779  24.715  1.00  0.00     0.007 A 
HETATM   23  C17 UNL     1       8.371   0.242  25.643  1.00  0.00     0.013 A 
ENDBRANCH  16  17
ENDBRANCH  13  16
ENDBRANCH   8  10
BRANCH   1  24
HETATM   24  N1  UNL     1       5.730   7.718  24.354  1.00  0.00    -0.303 NA
BRANCH  24  25
HETATM   25  C2  UNL     1       4.676   7.230  24.147  1.00  0.00     0.174 C 
HETATM   26  C1  UNL     1       3.541   8.116  23.618  1.00  0.00     0.101 C 
HETATM   27 CL1  UNL     1       4.184   5.538  24.345  1.00  0.00    -0.052 Cl
ENDBRANCH  24  25
ENDBRANCH   1  24
BRANCH   6  28
HETATM   28  C5  UNL     1       8.753  10.673  21.903  1.00  0.00     0.031 C 
HETATM   29  C6  UNL     1       8.094  11.017  20.613  1.00  0.00     0.025 C 
HETATM   30  C7  UNL     1       8.578  11.789  22.933  1.00  0.00     0.025 C 
HETATM   31  C8  UNL     1      10.238  10.447  21.656  1.00  0.00     0.025 C 
ENDBRANCH   6  28
TORSDOF 6
ENDMDL
MODEL 4
REMARK VINA RESULT: -6.964799408      2.923      3.678
REMARK  6 active torsions:
REMARK  status: ('A' for Active; 'I' for Inactive)
REMARK    1  A    between atoms: C2_2  and  N1_4 
REMARK    2  A    between atoms: N1_4  and  N2_5 
REMARK       I    between atoms: N2_5  and  C3_7 
REMARK       I    between atoms: C3_7  and  N4_16 
REMARK       I    between atoms: N3_8  and  C4_10 
REMARK    3  A    between atoms: C4_10  and  C5_12 
REMARK    4  A    between atoms: N4_16  and  N5_18 
REMARK       I    between atoms: N5_18  and  C9_20 
REMARK       I    between atoms: C9_20  and  N6_22 
REMARK    5  A    between atoms: N6_22  and  C10_24 
REMARK    6  A    between atoms: C10_24  and  C11_25 
ROOT
HETATM    1  N2  UNL     1       6.603   8.008  23.731  1.00  0.00    -0.063 N 
ATOM      2  H2  UNL     1       6.932   8.542  24.535  1.00  0.00     0.221 HD
HETATM    3  C3  UNL     1       7.706   7.885  22.885  1.00  0.00     0.724 C 
HETATM    4  N3  UNL     1       7.957   8.818  22.029  1.00  0.00    -0.156 N 
ATOM      5  H3  UNL     1       8.766   8.709  21.418  1.00  0.00     0.187 HD
HETATM    6  C4  UNL     1       7.167   9.982  21.896  1.00  0.00     0.243 C 
HETATM    7  O1  UNL     1       5.947   9.954  21.995  1.00  0.00    -0.272 OA
HETATM    8  N4  UNL     1       8.561   6.788  23.089  1.00  0.00    -0.126 N 
ATOM      9  H4  UNL     1       9.219   6.944  23.852  1.00  0.00     0.206 HD
ENDROOT
BRANCH   8  10
HETATM   10  N5  UNL     1       8.717   5.566  22.508  1.00  0.00    -0.237 N 
HETATM   11  C9  UNL     1       9.472   4.512  23.100  1.00  0.00     0.339 C 
HETATM   12  O2  UNL     1      10.176   4.707  24.163  1.00  0.00    -0.245 OA
HETATM   13  N6  UNL     1       9.460   3.195  22.556  1.00  0.00    -0.317 N 
ATOM     14  H6  UNL     1       8.898   3.009  21.726  1.00  0.00     0.170 HD
ATOM     15  H5  UNL     1       8.271   5.396  21.606  1.00  0.00     0.192 HD
BRANCH  13  16
HETATM   16  C10 UNL     1      10.198   2.143  23.130  1.00  0.00     0.104 C 
BRANCH  16  17
HETATM   17  C11 UNL     1       9.533   1.208  24.045  1.00  0.00    -0.021 A 
HETATM   18  C12 UNL     1       9.156  -0.067  23.568  1.00  0.00     0.013 A 
HETATM   19  C13 UNL     1       8.365  -0.916  24.337  1.00  0.00     0.007 A 
HETATM   20  C14 UNL     1       7.924  -0.553  25.587  1.00  0.00    -0.062 A 
HETATM   21  C15 UNL     1       7.001  -1.447  26.359  1.00  0.00     0.048 C 
HETATM   22  C16 UNL     1       8.309   0.699  26.054  1.00  0.00     0.007 A 
HETATM   23  C17 UNL     1       9.090   1.554  25.303  1.00  0.00     0.013 A 
ENDBRANCH  16  17
ENDBRANCH  13  16
ENDBRANCH   8  10
BRANCH   1  24
HETATM   24  N1  UNL     1       5.396   7.767  23.960  1.00  0.00    -0.303 NA
BRANCH  24  25
HETATM   25  C2  UNL     1       4.257   7.537  24.166  1.00  0.00     0.174 C 
HETATM   26  C1  UNL     1       3.869   6.168  24.737  1.00  0.00     0.101 C 
HETATM   27 CL1  UNL     1       2.856   8.596  23.922  1.00  0.00    -0.052 Cl
ENDBRANCH  24  25
ENDBRANCH   1  24
BRANCH   6  28
HETATM   28  C5  UNL     1       7.859  11.282  21.624  1.00  0.00     0.031 C 
HETATM   29  C6  UNL     1       7.640  11.660  20.200  1.00  0.00     0.025 C 
HETATM   30  C7  UNL     1       7.290  12.336  22.574  1.00  0.00     0.025 C 
HETATM   31  C8  UNL     1       9.353  11.137  21.873  1.00  0.00     0.025 C 
ENDBRANCH   6  28
TORSDOF 6
ENDMDL
MODEL 5
REMARK VINA RESULT: -6.947309098      5.361      8.790
REMARK  6 active torsions:
REMARK  status: ('A' for Active; 'I' for Inactive)
REMARK    1  A    between atoms: C2_2  and  N1_4 
REMARK    2  A    between atoms: N1_4  and  N2_5 
REMARK       I    between atoms: N2_5  and  C3_7 
REMARK       I    between atoms: C3_7  and  N4_16 
REMARK       I    between atoms: N3_8  and  C4_10 
REMARK    3  A    between atoms: C4_10  and  C5_12 
REMARK    4  A    between atoms: N4_16  and  N5_18 
REMARK       I    between atoms: N5_18  and  C9_20 
REMARK       I    between atoms: C9_20  and  N6_22 
REMARK    5  A    between atoms: N6_22  and  C10_24 
REMARK    6  A    between atoms: C10_24  and  C11_25 
ROOT
HETATM    1  N2  UNL     1       7.607   5.090  23.238  1.00  0.00    -0.063 N 
ATOM      2  H2  UNL     1       7.263   4.650  22.385  1.00  0.00     0.221 HD
HETATM    3  C3  UNL     1       8.999   5.054  23.143  1.00  0.00     0.724 C 
HETATM    4  N3  UNL     1       9.636   4.008  23.551  1.00  0.00    -0.156 N 
ATOM      5  H3  UNL     1      10.653   4.001  23.476  1.00  0.00     0.187 HD
HETATM    6  C4  UNL     1       8.996   2.872  24.097  1.00  0.00     0.243 C 
HETATM    7  O1  UNL     1       8.024   2.967  24.835  1.00  0.00    -0.272 OA
HETATM    8  N4  UNL     1       9.633   6.129  22.498  1.00  0.00    -0.126 N 
ATOM      9  H4  UNL     1       9.607   6.043  21.482  1.00  0.00     0.206 HD
ENDROOT
BRANCH   8  10
HETATM   10  N5  UNL     1      10.275   7.258  22.908  1.00  0.00    -0.237 N 
HETATM   11  C9  UNL     1      11.691   7.345  23.044  1.00  0.00     0.339 C 
HETATM   12  O2  UNL     1      12.441   6.302  22.920  1.00  0.00    -0.245 OA
HETATM   13  N6  UNL     1      12.337   8.589  23.296  1.00  0.00    -0.317 N 
ATOM     14  H6  UNL     1      11.769   9.432  23.382  1.00  0.00     0.170 HD
ATOM     15  H5  UNL     1       9.715   8.082  23.130  1.00  0.00     0.192 HD
BRANCH  13  16
HETATM   16  C10 UNL     1      13.734   8.692  23.430  1.00  0.00     0.104 C 
BRANCH  16  17
HETATM   17  C11 UNL     1      14.486   9.564  22.518  1.00  0.00    -0.021 A 
HETATM   18  C12 UNL     1      15.629  10.237  23.001  1.00  0.00     0.013 A 
HETATM   19  C13 UNL     1      16.265  11.210  22.235  1.00  0.00     0.007 A 
HETATM   20  C14 UNL     1      15.813  11.550  20.983  1.00  0.00    -0.062 A 
HETATM   21  C15 UNL     1      16.461  12.662  20.215  1.00  0.00     0.048 C 
HETATM   22  C16 UNL     1      14.693  10.875  20.510  1.00  0.00     0.007 A 
HETATM   23  C17 UNL     1      14.049   9.910  21.258  1.00  0.00     0.013 A 
ENDBRANCH  16  17
ENDBRANCH  13  16
ENDBRANCH   8  10
BRANCH   1  24
HETATM   24  N1  UNL     1       6.584   5.412  23.885  1.00  0.00    -0.303 NA
BRANCH  24  25
HETATM   25  C2  UNL     1       5.617   5.719  24.486  1.00  0.00     0.174 C 
HETATM   26  C1  UNL     1       5.726   6.812  25.556  1.00  0.00     0.101 C 
HETATM   27 CL1  UNL     1       3.967   5.093  24.317  1.00  0.00    -0.052 Cl
ENDBRANCH  24  25
ENDBRANCH   1  24
BRANCH   6  28
HETATM   28  C5  UNL     1       9.536   1.519  23.753  1.00  0.00     0.031 C 
HETATM   29  C6  UNL     1      10.996   1.634  23.483  1.00  0.00     0.025 C 
HETATM   30  C7  UNL     1       9.259   0.578  24.926  1.00  0.00     0.025 C 
HETATM   31  C8  UNL     1       8.843   0.985  22.507  1.00  0.00     0.025 C 
ENDBRANCH   6  28
TORSDOF 6
ENDMDL
