MODEL 1
REMARK VINA RESULT: -8.028777069      0.000      0.000
REMARK  7 active torsions:
REMARK  status: ('A' for Active; 'I' for Inactive)
REMARK    1  A    between atoms: O1_2  and  C2_3 
REMARK    2  A    between atoms: C6_9  and  C7_10 
REMARK    3  A    between atoms: C7_10  and  N2_12 
REMARK    4  A    between atoms: N2_12  and  N3_13 
REMARK    5  A    between atoms: N3_13  and  C9_15 
REMARK    6  A    between atoms: C9_15  and  N4_17 
REMARK       I    between atoms: N4_17  and  C10_19 
REMARK    7  A    between atoms: C10_19  and  C11_21 
ROOT
HETATM    1  N3  UNL     1      16.257 -12.558  18.512  1.00  0.00    -0.279 N 
ATOM      2  H3  UNL     1      15.356 -12.455  18.045  1.00  0.00     0.184 HD
ENDROOT
BRANCH   1   3
HETATM    3  N2  UNL     1      16.419 -12.117  19.876  1.00  0.00    -0.128 NA
BRANCH   3   4
HETATM    4  C7  UNL     1      15.519 -12.934  20.671  1.00  0.00     0.148 C 
HETATM    5  C8  UNL     1      16.334 -13.624  21.768  1.00  0.00     0.036 C 
BRANCH   4   6
HETATM    6  C6  UNL     1      14.458 -12.131  21.344  1.00  0.00     0.064 A 
HETATM    7  C2  UNL     1      13.337 -12.522  22.034  1.00  0.00     0.099 A 
HETATM    8  C3  UNL     1      12.631 -11.397  22.495  1.00  0.00    -0.011 A 
HETATM    9  C4  UNL     1      11.362 -11.423  23.282  1.00  0.00     0.052 C 
HETATM   10  C5  UNL     1      13.363 -10.321  22.061  1.00  0.00     0.097 A 
HETATM   11  N1  UNL     1      14.434 -10.755  21.386  1.00  0.00    -0.365 N 
ATOM     12  H1  UNL     1      15.136 -10.150  20.961  1.00  0.00     0.165 HD
BRANCH   7  13
HETATM   13  O1  UNL     1      12.907 -13.808  22.281  1.00  0.00    -0.353 OA
HETATM   14  C1  UNL     1      12.318 -14.578  21.258  1.00  0.00     0.210 C 
ENDBRANCH   7  13
ENDBRANCH   4   6
ENDBRANCH   3   4
ENDBRANCH   1   3
BRANCH   1  15
HETATM   15  C9  UNL     1      17.341 -13.129  17.830  1.00  0.00     0.190 C 
HETATM   16  S1  UNL     1      18.641 -13.652  18.739  1.00  0.00    -0.039 SA
BRANCH  15  17
HETATM   17  N4  UNL     1      17.425 -13.291  16.453  1.00  0.00    -0.302 N 
HETATM   18  C10 UNL     1      17.470 -12.253  15.486  1.00  0.00     0.235 C 
HETATM   19  O2  UNL     1      17.432 -11.058  15.837  1.00  0.00    -0.272 OA
ATOM     20  H4  UNL     1      17.457 -14.249  16.102  1.00  0.00     0.171 HD
BRANCH  18  21
HETATM   21  C11 UNL     1      17.563 -12.647  14.049  1.00  0.00     0.068 A 
HETATM   22  C12 UNL     1      16.543 -13.702  13.641  1.00  0.00     0.028 C 
HETATM   23  C13 UNL     1      19.014 -12.907  13.632  1.00  0.00    -0.008 A 
HETATM   24  C14 UNL     1      19.246 -14.226  12.927  1.00  0.00     0.018 C 
HETATM   25  C15 UNL     1      20.140 -12.464  14.502  1.00  0.00     0.018 C 
HETATM   26  C16 UNL     1      18.182 -11.853  13.004  1.00  0.00     0.058 A 
HETATM   27  C17 UNL     1      18.623 -10.428  13.123  1.00  0.00     0.034 C 
HETATM   28 CL1  UNL     1      17.587 -12.220  11.333  1.00  0.00    -0.117 Cl
ENDBRANCH  18  21
ENDBRANCH  15  17
ENDBRANCH   1  15
TORSDOF 7
ENDMDL
MODEL 2
REMARK VINA RESULT: -7.739132852      0.935      1.857
REMARK  7 active torsions:
REMARK  status: ('A' for Active; 'I' for Inactive)
REMARK    1  A    between atoms: O1_2  and  C2_3 
REMARK    2  A    between atoms: C6_9  and  C7_10 
REMARK    3  A    between atoms: C7_10  and  N2_12 
REMARK    4  A    between atoms: N2_12  and  N3_13 
REMARK    5  A    between atoms: N3_13  and  C9_15 
REMARK    6  A    between atoms: C9_15  and  N4_17 
REMARK       I    between atoms: N4_17  and  C10_19 
REMARK    7  A    between atoms: C10_19  and  C11_21 
ROOT
HETATM    1  N3  UNL     1      16.250 -12.544  18.771  1.00  0.00    -0.279 N 
ATOM      2  H3  UNL     1      15.412 -12.548  18.189  1.00  0.00     0.184 HD
ENDROOT
BRANCH   1   3
HETATM    3  N2  UNL     1      16.205 -11.980  20.098  1.00  0.00    -0.128 NA
BRANCH   3   4
HETATM    4  C7  UNL     1      15.202 -12.740  20.823  1.00  0.00     0.148 C 
HETATM    5  C8  UNL     1      15.908 -13.565  21.902  1.00  0.00     0.036 C 
BRANCH   4   6
HETATM    6  C6  UNL     1      14.207 -11.869  21.511  1.00  0.00     0.064 A 
HETATM    7  C2  UNL     1      13.138 -12.185  22.313  1.00  0.00     0.099 A 
HETATM    8  C3  UNL     1      12.483 -11.016  22.737  1.00  0.00    -0.011 A 
HETATM    9  C4  UNL     1      11.279 -10.958  23.618  1.00  0.00     0.052 C 
HETATM   10  C5  UNL     1      13.192  -9.990  22.166  1.00  0.00     0.097 A 
HETATM   11  N1  UNL     1      14.202 -10.493  21.446  1.00  0.00    -0.365 N 
ATOM     12  H1  UNL     1      14.876  -9.935  20.922  1.00  0.00     0.165 HD
BRANCH   7  13
HETATM   13  O1  UNL     1      12.713 -13.440  22.692  1.00  0.00    -0.353 OA
HETATM   14  C1  UNL     1      12.224 -14.353  21.736  1.00  0.00     0.210 C 
ENDBRANCH   7  13
ENDBRANCH   4   6
ENDBRANCH   3   4
ENDBRANCH   1   3
BRANCH   1  15
HETATM   15  C9  UNL     1      17.447 -13.088  18.285  1.00  0.00     0.190 C 
HETATM   16  S1  UNL     1      18.532 -13.697  19.399  1.00  0.00    -0.039 SA
BRANCH  15  17
HETATM   17  N4  UNL     1      17.809 -13.157  16.945  1.00  0.00    -0.302 N 
HETATM   18  C10 UNL     1      17.736 -12.101  15.999  1.00  0.00     0.235 C 
HETATM   19  O2  UNL     1      17.313 -10.978  16.335  1.00  0.00    -0.272 OA
ATOM     20  H4  UNL     1      18.161 -14.054  16.608  1.00  0.00     0.171 HD
BRANCH  18  21
HETATM   21  C11 UNL     1      18.179 -12.388  14.604  1.00  0.00     0.068 A 
HETATM   22  C12 UNL     1      19.555 -11.825  14.275  1.00  0.00     0.028 C 
HETATM   23  C13 UNL     1      17.066 -12.099  13.591  1.00  0.00    -0.008 A 
HETATM   24  C14 UNL     1      17.478 -11.222  12.428  1.00  0.00     0.018 C 
HETATM   25  C15 UNL     1      15.662 -11.900  14.050  1.00  0.00     0.018 C 
HETATM   26  C16 UNL     1      17.655 -13.449  13.762  1.00  0.00     0.058 A 
HETATM   27  C17 UNL     1      16.764 -14.566  14.205  1.00  0.00     0.034 C 
HETATM   28 CL1  UNL     1      18.777 -13.984  12.445  1.00  0.00    -0.117 Cl
ENDBRANCH  18  21
ENDBRANCH  15  17
ENDBRANCH   1  15
TORSDOF 7
ENDMDL
MODEL 3
REMARK VINA RESULT: -7.677350516      1.610      2.094
REMARK  7 active torsions:
REMARK  status: ('A' for Active; 'I' for Inactive)
REMARK    1  A    between atoms: O1_2  and  C2_3 
REMARK    2  A    between atoms: C6_9  and  C7_10 
REMARK    3  A    between atoms: C7_10  and  N2_12 
REMARK    4  A    between atoms: N2_12  and  N3_13 
REMARK    5  A    between atoms: N3_13  and  C9_15 
REMARK    6  A    between atoms: C9_15  and  N4_17 
REMARK       I    between atoms: N4_17  and  C10_19 
REMARK    7  A    between atoms: C10_19  and  C11_21 
ROOT
HETATM    1  N3  UNL     1      15.837 -12.316  17.435  1.00  0.00    -0.279 N 
ATOM      2  H3  UNL     1      15.032 -11.763  17.141  1.00  0.00     0.184 HD
ENDROOT
BRANCH   1   3
HETATM    3  N2  UNL     1      16.252 -12.311  18.816  1.00  0.00    -0.128 NA
BRANCH   3   4
HETATM    4  C7  UNL     1      15.338 -13.199  19.512  1.00  0.00     0.148 C 
HETATM    5  C8  UNL     1      16.163 -14.214  20.308  1.00  0.00     0.036 C 
BRANCH   4   6
HETATM    6  C6  UNL     1      14.465 -12.479  20.484  1.00  0.00     0.064 A 
HETATM    7  C2  UNL     1      13.194 -12.754  20.925  1.00  0.00     0.099 A 
HETATM    8  C3  UNL     1      12.779 -11.783  21.852  1.00  0.00    -0.011 A 
HETATM    9  C4  UNL     1      11.457 -11.745  22.547  1.00  0.00     0.052 C 
HETATM   10  C5  UNL     1      13.839 -10.918  21.953  1.00  0.00     0.097 A 
HETATM   11  N1  UNL     1      14.826 -11.329  21.149  1.00  0.00    -0.365 N 
ATOM     12  H1  UNL     1      15.723 -10.856  21.043  1.00  0.00     0.165 HD
BRANCH   7  13
HETATM   13  O1  UNL     1      12.387 -13.811  20.560  1.00  0.00    -0.353 OA
HETATM   14  C1  UNL     1      12.472 -15.046  21.236  1.00  0.00     0.210 C 
ENDBRANCH   7  13
ENDBRANCH   4   6
ENDBRANCH   3   4
ENDBRANCH   1   3
BRANCH   1  15
HETATM   15  C9  UNL     1      16.542 -13.085  16.498  1.00  0.00     0.190 C 
HETATM   16  S1  UNL     1      16.148 -14.702  16.366  1.00  0.00    -0.039 SA
BRANCH  15  17
HETATM   17  N4  UNL     1      17.550 -12.608  15.668  1.00  0.00    -0.302 N 
HETATM   18  C10 UNL     1      17.426 -12.304  14.287  1.00  0.00     0.235 C 
HETATM   19  O2  UNL     1      16.339 -12.458  13.699  1.00  0.00    -0.272 OA
ATOM     20  H4  UNL     1      18.467 -12.464  16.091  1.00  0.00     0.171 HD
BRANCH  18  21
HETATM   21  C11 UNL     1      18.638 -11.798  13.577  1.00  0.00     0.068 A 
HETATM   22  C12 UNL     1      18.456 -10.411  12.976  1.00  0.00     0.028 C 
HETATM   23  C13 UNL     1      19.234 -12.867  12.655  1.00  0.00    -0.008 A 
HETATM   24  C14 UNL     1      19.494 -12.408  11.236  1.00  0.00     0.018 C 
HETATM   25  C15 UNL     1      18.809 -14.291  12.777  1.00  0.00     0.018 C 
HETATM   26  C16 UNL     1      19.991 -12.281  13.787  1.00  0.00     0.058 A 
HETATM   27  C17 UNL     1      20.443 -13.187  14.890  1.00  0.00     0.034 C 
HETATM   28 CL1  UNL     1      21.287 -11.101  13.332  1.00  0.00    -0.117 Cl
ENDBRANCH  18  21
ENDBRANCH  15  17
ENDBRANCH   1  15
TORSDOF 7
ENDMDL
MODEL 4
REMARK VINA RESULT: -7.631980588      1.266      1.962
REMARK  7 active torsions:
REMARK  status: ('A' for Active; 'I' for Inactive)
REMARK    1  A    between atoms: O1_2  and  C2_3 
REMARK    2  A    between atoms: C6_9  and  C7_10 
REMARK    3  A    between atoms: C7_10  and  N2_12 
REMARK    4  A    between atoms: N2_12  and  N3_13 
REMARK    5  A    between atoms: N3_13  and  C9_15 
REMARK    6  A    between atoms: C9_15  and  N4_17 
REMARK       I    between atoms: N4_17  and  C10_19 
REMARK    7  A    between atoms: C10_19  and  C11_21 
ROOT
HETATM    1  N3  UNL     1      15.388 -12.577  18.433  1.00  0.00    -0.279 N 
ATOM      2  H3  UNL     1      14.582 -12.024  18.140  1.00  0.00     0.184 HD
ENDROOT
BRANCH   1   3
HETATM    3  N2  UNL     1      16.108 -12.227  19.633  1.00  0.00    -0.128 NA
BRANCH   3   4
HETATM    4  C7  UNL     1      15.454 -12.942  20.715  1.00  0.00     0.148 C 
HETATM    5  C8  UNL     1      16.508 -13.292  21.769  1.00  0.00     0.036 C 
BRANCH   4   6
HETATM    6  C6  UNL     1      14.404 -12.128  21.391  1.00  0.00     0.064 A 
HETATM    7  C2  UNL     1      13.290 -12.506  22.100  1.00  0.00     0.099 A 
HETATM    8  C3  UNL     1      12.594 -11.374  22.555  1.00  0.00    -0.011 A 
HETATM    9  C4  UNL     1      11.334 -11.385  23.357  1.00  0.00     0.052 C 
HETATM   10  C5  UNL     1      13.323 -10.306  22.098  1.00  0.00     0.097 A 
HETATM   11  N1  UNL     1      14.384 -10.751  21.415  1.00  0.00    -0.365 N 
ATOM     12  H1  UNL     1      15.083 -10.154  20.973  1.00  0.00     0.165 HD
BRANCH   7  13
HETATM   13  O1  UNL     1      12.861 -13.788  22.369  1.00  0.00    -0.353 OA
HETATM   14  C1  UNL     1      12.304 -14.588  21.351  1.00  0.00     0.210 C 
ENDBRANCH   7  13
ENDBRANCH   4   6
ENDBRANCH   3   4
ENDBRANCH   1   3
BRANCH   1  15
HETATM   15  C9  UNL     1      15.798 -13.679  17.670  1.00  0.00     0.190 C 
HETATM   16  S1  UNL     1      15.069 -15.150  17.977  1.00  0.00    -0.039 SA
BRANCH  15  17
HETATM   17  N4  UNL     1      16.770 -13.649  16.677  1.00  0.00    -0.302 N 
HETATM   18  C10 UNL     1      17.419 -12.492  16.173  1.00  0.00     0.235 C 
HETATM   19  O2  UNL     1      17.136 -11.362  16.616  1.00  0.00    -0.272 OA
ATOM     20  H4  UNL     1      17.043 -14.544  16.271  1.00  0.00     0.171 HD
BRANCH  18  21
HETATM   21  C11 UNL     1      18.441 -12.681  15.102  1.00  0.00     0.068 A 
HETATM   22  C12 UNL     1      19.874 -12.546  15.598  1.00  0.00     0.028 C 
HETATM   23  C13 UNL     1      18.082 -11.893  13.838  1.00  0.00    -0.008 A 
HETATM   24  C14 UNL     1      19.194 -11.022  13.295  1.00  0.00     0.018 C 
HETATM   25  C15 UNL     1      16.713 -11.328  13.665  1.00  0.00     0.018 C 
HETATM   26  C16 UNL     1      18.215 -13.369  13.844  1.00  0.00     0.058 A 
HETATM   27  C17 UNL     1      17.017 -14.196  13.494  1.00  0.00     0.034 C 
HETATM   28 CL1  UNL     1      19.715 -14.021  13.065  1.00  0.00    -0.117 Cl
ENDBRANCH  18  21
ENDBRANCH  15  17
ENDBRANCH   1  15
TORSDOF 7
ENDMDL
MODEL 5
REMARK VINA RESULT: -7.501515285      1.864      2.641
REMARK  7 active torsions:
REMARK  status: ('A' for Active; 'I' for Inactive)
REMARK    1  A    between atoms: O1_2  and  C2_3 
REMARK    2  A    between atoms: C6_9  and  C7_10 
REMARK    3  A    between atoms: C7_10  and  N2_12 
REMARK    4  A    between atoms: N2_12  and  N3_13 
REMARK    5  A    between atoms: N3_13  and  C9_15 
REMARK    6  A    between atoms: C9_15  and  N4_17 
REMARK       I    between atoms: N4_17  and  C10_19 
REMARK    7  A    between atoms: C10_19  and  C11_21 
ROOT
HETATM    1  N3  UNL     1      17.486 -12.465  21.083  1.00  0.00    -0.279 N 
ATOM      2  H3  UNL     1      17.538 -12.367  22.097  1.00  0.00     0.184 HD
ENDROOT
BRANCH   1   3
HETATM    3  N2  UNL     1      16.355 -11.936  20.361  1.00  0.00    -0.128 NA
BRANCH   3   4
HETATM    4  C7  UNL     1      15.208 -12.720  20.784  1.00  0.00     0.148 C 
HETATM    5  C8  UNL     1      15.695 -13.808  21.745  1.00  0.00     0.036 C 
BRANCH   4   6
HETATM    6  C6  UNL     1      14.192 -11.907  21.511  1.00  0.00     0.064 A 
HETATM    7  C2  UNL     1      13.091 -12.286  22.239  1.00  0.00     0.099 A 
HETATM    8  C3  UNL     1      12.428 -11.155  22.745  1.00  0.00    -0.011 A 
HETATM    9  C4  UNL     1      11.190 -11.168  23.581  1.00  0.00     0.052 C 
HETATM   10  C5  UNL     1      13.164 -10.087  22.299  1.00  0.00     0.097 A 
HETATM   11  N1  UNL     1      14.199 -10.532  21.575  1.00  0.00    -0.365 N 
ATOM     12  H1  UNL     1      14.896  -9.934  21.131  1.00  0.00     0.165 HD
BRANCH   7  13
HETATM   13  O1  UNL     1      12.644 -13.567  22.483  1.00  0.00    -0.353 OA
HETATM   14  C1  UNL     1      12.017 -14.316  21.467  1.00  0.00     0.210 C 
ENDBRANCH   7  13
ENDBRANCH   4   6
ENDBRANCH   3   4
ENDBRANCH   1   3
BRANCH   1  15
HETATM   15  C9  UNL     1      18.516 -13.115  20.387  1.00  0.00     0.190 C 
HETATM   16  S1  UNL     1      19.491 -14.164  21.245  1.00  0.00    -0.039 SA
BRANCH  15  17
HETATM   17  N4  UNL     1      18.794 -12.953  19.035  1.00  0.00    -0.302 N 
HETATM   18  C10 UNL     1      18.213 -13.683  17.965  1.00  0.00     0.235 C 
HETATM   19  O2  UNL     1      17.367 -14.571  18.189  1.00  0.00    -0.272 OA
ATOM     20  H4  UNL     1      19.482 -12.242  18.787  1.00  0.00     0.171 HD
BRANCH  18  21
HETATM   21  C11 UNL     1      18.652 -13.349  16.579  1.00  0.00     0.068 A 
HETATM   22  C12 UNL     1      20.164 -13.252  16.426  1.00  0.00     0.028 C 
HETATM   23  C13 UNL     1      17.834 -12.191  15.995  1.00  0.00    -0.008 A 
HETATM   24  C14 UNL     1      18.657 -11.065  15.407  1.00  0.00     0.018 C 
HETATM   25  C15 UNL     1      16.569 -11.755  16.652  1.00  0.00     0.018 C 
HETATM   26  C16 UNL     1      17.854 -13.540  15.381  1.00  0.00     0.058 A 
HETATM   27  C17 UNL     1      16.570 -14.303  15.290  1.00  0.00     0.034 C 
HETATM   28 CL1  UNL     1      18.818 -13.689  13.855  1.00  0.00    -0.117 Cl
ENDBRANCH  18  21
ENDBRANCH  15  17
ENDBRANCH   1  15
TORSDOF 7
ENDMDL
