MODEL 1
REMARK VINA RESULT: -9.895902040      0.000      0.000
REMARK  11 active torsions:
REMARK  status: ('A' for Active; 'I' for Inactive)
REMARK    1  A    between atoms: C2_2  and  C3_4 
REMARK    2  A    between atoms: N1_6  and  C5_7 
REMARK    3  A    between atoms: C5_7  and  C6_8 
REMARK    4  A    between atoms: C6_8  and  O2_9 
REMARK    5  A    between atoms: C6_8  and  N2_11 
REMARK    6  A    between atoms: N2_11  and  C7_13 
REMARK    7  A    between atoms: C8_16  and  C9_17 
REMARK    8  A    between atoms: C9_17  and  O3_18 
REMARK    9  A    between atoms: C9_17  and  O4_20 
REMARK   10  A    between atoms: C13_31  and  N7_32 
REMARK   11  A    between atoms: C14_39  and  C15_40 
ROOT
HETATM    1  C5  UNL     1       3.809   8.604  49.444  1.00  0.00     0.297 C 
HETATM    2  C12 UNL     1       3.162   9.838  50.231  1.00  0.00     0.308 C 
HETATM    3  N6  UNL     1       1.766   9.663  50.010  1.00  0.00    -0.017 N 
ATOM      4  H61 UNL     1       1.419   9.952  49.095  1.00  0.00     0.281 HD
ATOM      5  H62 UNL     1       1.150  10.289  50.530  1.00  0.00     0.281 HD
HETATM    6  C13 UNL     1       1.646   8.267  50.315  1.00  0.00     0.581 C 
HETATM    7  N8  UNL     1       2.814   7.669  49.763  1.00  0.00     0.015 N 
ATOM      8  H81 UNL     1       3.179   6.945  50.381  1.00  0.00     0.285 HD
ATOM      9  H82 UNL     1       2.580   7.095  48.953  1.00  0.00     0.285 HD
ENDROOT
BRANCH   1  10
HETATM   10  N1  UNL     1       5.129   8.538  49.985  1.00  0.00    -0.294 N 
HETATM   11  C4  UNL     1       5.476   7.643  50.976  1.00  0.00     0.129 A 
HETATM   12  C3  UNL     1       6.765   7.911  51.398  1.00  0.00     0.095 A 
HETATM   13  N10 UNL     1       7.145   8.952  50.661  1.00  0.00    -0.334 N 
HETATM   14  C14 UNL     1       6.161   9.328  49.797  1.00  0.00     0.177 A 
ATOM     15  H10 UNL     1       8.054   9.408  50.733  1.00  0.00     0.168 HD
BRANCH  12  16
HETATM   16  C2  UNL     1       7.439   7.262  52.526  1.00  0.00     0.173 C 
HETATM   17  C1  UNL     1       8.448   7.920  53.367  1.00  0.00     0.098 C 
HETATM   18  O1  UNL     1       7.095   6.058  52.778  1.00  0.00    -0.291 OA
ENDBRANCH  12  16
BRANCH  14  19
HETATM   19  C15 UNL     1       6.426  10.366  48.836  1.00  0.00     0.299 C 
HETATM   20  N9  UNL     1       6.849  11.690  49.257  1.00  0.00    -0.054 NA
HETATM   21  O5  UNL     1       6.362  10.311  47.584  1.00  0.00    -0.268 OA
ENDBRANCH  14  19
ENDBRANCH   1  10
BRANCH   1  22
HETATM   22  C6  UNL     1       3.761   9.082  48.052  1.00  0.00     0.178 C 
BRANCH  22  23
HETATM   23  O2  UNL     1       4.109   8.195  47.131  1.00  0.00    -0.346 OA
ATOM     24  H2  UNL     1       4.691   7.504  47.426  1.00  0.00     0.219 HD
ENDBRANCH  22  23
BRANCH  22  25
HETATM   25  N2  UNL     1       3.394  10.340  47.620  1.00  0.00    -0.321 N 
ATOM     26  H2  UNL     1       3.167  11.010  48.354  1.00  0.00     0.169 HD
BRANCH  25  27
HETATM   27  C7  UNL     1       3.290  10.833  46.276  1.00  0.00     0.134 A 
HETATM   28  N3  UNL     1       3.368  10.086  45.202  1.00  0.00    -0.326 N 
HETATM   29  C8  UNL     1       3.172  10.685  43.971  1.00  0.00     0.139 A 
ATOM     30  H3  UNL     1       3.567   9.088  45.272  1.00  0.00     0.169 HD
HETATM   31  N4  UNL     1       2.909  11.997  43.860  1.00  0.00    -0.350 N 
HETATM   32  C10 UNL     1       2.819  12.800  44.926  1.00  0.00     0.120 A 
ATOM     33  H4  UNL     1       2.773  12.395  42.931  1.00  0.00     0.166 HD
HETATM   34  C11 UNL     1       3.013  12.214  46.154  1.00  0.00     0.105 A 
HETATM   35  N5  UNL     1       2.897  13.057  47.275  1.00  0.00    -0.097 NA
BRANCH  29  36
HETATM   36  C9  UNL     1       3.232   9.898  42.709  1.00  0.00     0.323 C 
BRANCH  36  37
HETATM   37  O3  UNL     1       3.422  10.709  41.624  1.00  0.00    -0.365 OA
ATOM     38  H3  UNL     1       3.081  10.312  40.831  1.00  0.00     0.213 HD
ENDBRANCH  36  37
BRANCH  36  39
HETATM   39  O4  UNL     1       4.237   8.917  42.827  1.00  0.00    -0.365 OA
ATOM     40  H4  UNL     1       4.597   8.737  41.967  1.00  0.00     0.213 HD
ENDBRANCH  36  39
ENDBRANCH  29  36
ENDBRANCH  25  27
ENDBRANCH  22  25
ENDBRANCH   1  22
BRANCH   6  41
HETATM   41  N7  UNL     1       1.439   7.950  51.699  1.00  0.00    -0.026 N 
ATOM     42  H73 UNL     1       2.255   7.465  52.071  1.00  0.00     0.278 HD
ATOM     43  H72 UNL     1       1.462   8.802  52.259  1.00  0.00     0.278 HD
ATOM     44  H71 UNL     1       0.593   7.418  51.908  1.00  0.00     0.278 HD
ENDBRANCH   6  41
TORSDOF 11
ENDMDL
MODEL 2
REMARK VINA RESULT: -9.807259786      1.671      1.976
REMARK  11 active torsions:
REMARK  status: ('A' for Active; 'I' for Inactive)
REMARK    1  A    between atoms: C2_2  and  C3_4 
REMARK    2  A    between atoms: N1_6  and  C5_7 
REMARK    3  A    between atoms: C5_7  and  C6_8 
REMARK    4  A    between atoms: C6_8  and  O2_9 
REMARK    5  A    between atoms: C6_8  and  N2_11 
REMARK    6  A    between atoms: N2_11  and  C7_13 
REMARK    7  A    between atoms: C8_16  and  C9_17 
REMARK    8  A    between atoms: C9_17  and  O3_18 
REMARK    9  A    between atoms: C9_17  and  O4_20 
REMARK   10  A    between atoms: C13_31  and  N7_32 
REMARK   11  A    between atoms: C14_39  and  C15_40 
ROOT
HETATM    1  C5  UNL     1       4.083   8.987  49.206  1.00  0.00     0.297 C 
HETATM    2  C12 UNL     1       3.318   7.906  50.105  1.00  0.00     0.308 C 
HETATM    3  N6  UNL     1       2.509   7.216  49.158  1.00  0.00    -0.017 N 
ATOM      4  H61 UNL     1       1.660   7.698  48.861  1.00  0.00     0.281 HD
ATOM      5  H62 UNL     1       2.015   6.394  49.507  1.00  0.00     0.281 HD
HETATM    6  C13 UNL     1       3.485   6.976  48.135  1.00  0.00     0.581 C 
HETATM    7  N8  UNL     1       4.264   8.166  48.085  1.00  0.00     0.015 N 
ATOM      8  H81 UNL     1       5.251   7.949  47.947  1.00  0.00     0.285 HD
ATOM      9  H82 UNL     1       4.085   8.682  47.223  1.00  0.00     0.285 HD
ENDROOT
BRANCH   1  10
HETATM   10  N1  UNL     1       5.164   9.392  50.047  1.00  0.00    -0.294 N 
HETATM   11  C4  UNL     1       5.286   8.959  51.351  1.00  0.00     0.129 A 
HETATM   12  C3  UNL     1       6.336   9.627  51.955  1.00  0.00     0.095 A 
HETATM   13  N10 UNL     1       6.802  10.436  51.007  1.00  0.00    -0.334 N 
HETATM   14  C14 UNL     1       6.101  10.289  49.847  1.00  0.00     0.177 A 
ATOM     15  H10 UNL     1       7.581  11.081  51.131  1.00  0.00     0.168 HD
BRANCH  12  16
HETATM   16  C2  UNL     1       6.693   9.536  53.373  1.00  0.00     0.173 C 
HETATM   17  C1  UNL     1       6.751   8.275  54.125  1.00  0.00     0.098 C 
HETATM   18  O1  UNL     1       6.984  10.634  53.958  1.00  0.00    -0.291 OA
ENDBRANCH  12  16
BRANCH  14  19
HETATM   19  C15 UNL     1       6.531  10.999  48.671  1.00  0.00     0.299 C 
HETATM   20  N9  UNL     1       7.333  12.206  48.772  1.00  0.00    -0.054 NA
HETATM   21  O5  UNL     1       6.322  10.719  47.466  1.00  0.00    -0.268 OA
ENDBRANCH  14  19
ENDBRANCH   1  10
BRANCH   1  22
HETATM   22  C6  UNL     1       3.045  10.018  49.036  1.00  0.00     0.178 C 
BRANCH  22  23
HETATM   23  O2  UNL     1       1.901   9.788  49.665  1.00  0.00    -0.346 OA
ATOM     24  H2  UNL     1       1.485   8.957  49.467  1.00  0.00     0.219 HD
ENDBRANCH  22  23
BRANCH  22  25
HETATM   25  N2  UNL     1       3.146  11.182  48.301  1.00  0.00    -0.321 N 
ATOM     26  H2  UNL     1       3.259  12.038  48.843  1.00  0.00     0.169 HD
BRANCH  25  27
HETATM   27  C7  UNL     1       3.113  11.349  46.876  1.00  0.00     0.134 A 
HETATM   28  N3  UNL     1       3.291  10.382  46.010  1.00  0.00    -0.326 N 
HETATM   29  C8  UNL     1       3.155  10.674  44.665  1.00  0.00     0.139 A 
ATOM     30  H3  UNL     1       3.523   9.439  46.320  1.00  0.00     0.169 HD
HETATM   31  N4  UNL     1       2.851  11.910  44.239  1.00  0.00    -0.350 N 
HETATM   32  C10 UNL     1       2.659  12.929  45.084  1.00  0.00     0.120 A 
ATOM     33  H4  UNL     1       2.762  12.077  43.237  1.00  0.00     0.166 HD
HETATM   34  C11 UNL     1       2.792  12.649  46.424  1.00  0.00     0.105 A 
HETATM   35  N5  UNL     1       2.569  13.718  47.311  1.00  0.00    -0.097 NA
BRANCH  29  36
HETATM   36  C9  UNL     1       3.330   9.624  43.624  1.00  0.00     0.323 C 
BRANCH  36  37
HETATM   37  O3  UNL     1       3.321  10.162  42.366  1.00  0.00    -0.365 OA
ATOM     38  H3  UNL     1       2.435  10.248  42.033  1.00  0.00     0.213 HD
ENDBRANCH  36  37
BRANCH  36  39
HETATM   39  O4  UNL     1       4.513   8.905  43.891  1.00  0.00    -0.365 OA
ATOM     40  H4  UNL     1       5.126   9.041  43.178  1.00  0.00     0.213 HD
ENDBRANCH  36  39
ENDBRANCH  29  36
ENDBRANCH  25  27
ENDBRANCH  22  25
ENDBRANCH   1  22
BRANCH   6  41
HETATM   41  N7  UNL     1       4.267   5.784  48.292  1.00  0.00    -0.026 N 
ATOM     42  H73 UNL     1       4.402   5.584  49.283  1.00  0.00     0.278 HD
ATOM     43  H72 UNL     1       3.720   4.968  48.014  1.00  0.00     0.278 HD
ATOM     44  H71 UNL     1       5.167   5.781  47.811  1.00  0.00     0.278 HD
ENDBRANCH   6  41
TORSDOF 11
ENDMDL
MODEL 3
REMARK VINA RESULT: -9.772727661      2.156      2.824
REMARK  11 active torsions:
REMARK  status: ('A' for Active; 'I' for Inactive)
REMARK    1  A    between atoms: C2_2  and  C3_4 
REMARK    2  A    between atoms: N1_6  and  C5_7 
REMARK    3  A    between atoms: C5_7  and  C6_8 
REMARK    4  A    between atoms: C6_8  and  O2_9 
REMARK    5  A    between atoms: C6_8  and  N2_11 
REMARK    6  A    between atoms: N2_11  and  C7_13 
REMARK    7  A    between atoms: C8_16  and  C9_17 
REMARK    8  A    between atoms: C9_17  and  O3_18 
REMARK    9  A    between atoms: C9_17  and  O4_20 
REMARK   10  A    between atoms: C13_31  and  N7_32 
REMARK   11  A    between atoms: C14_39  and  C15_40 
ROOT
HETATM    1  C5  UNL     1       4.136   8.681  48.810  1.00  0.00     0.297 C 
HETATM    2  C12 UNL     1       3.029   8.518  49.954  1.00  0.00     0.308 C 
HETATM    3  N6  UNL     1       2.116   7.583  49.386  1.00  0.00    -0.017 N 
ATOM      4  H61 UNL     1       1.469   7.956  48.691  1.00  0.00     0.281 HD
ATOM      5  H62 UNL     1       1.380   7.244  50.006  1.00  0.00     0.281 HD
HETATM    6  C13 UNL     1       3.044   6.596  48.913  1.00  0.00     0.581 C 
HETATM    7  N8  UNL     1       4.141   7.342  48.397  1.00  0.00     0.015 N 
ATOM      8  H81 UNL     1       5.027   6.892  48.627  1.00  0.00     0.285 HD
ATOM      9  H82 UNL     1       4.179   7.274  47.380  1.00  0.00     0.285 HD
ENDROOT
BRANCH   1  10
HETATM   10  N1  UNL     1       5.230   9.275  49.509  1.00  0.00    -0.294 N 
HETATM   11  C4  UNL     1       5.565   8.914  50.798  1.00  0.00     0.129 A 
HETATM   12  C3  UNL     1       6.561   9.755  51.260  1.00  0.00     0.095 A 
HETATM   13  N10 UNL     1       6.785  10.589  50.249  1.00  0.00    -0.334 N 
HETATM   14  C14 UNL     1       5.989  10.296  49.183  1.00  0.00     0.177 A 
ATOM     15  H10 UNL     1       7.465  11.349  50.268  1.00  0.00     0.168 HD
BRANCH  12  16
HETATM   16  C2  UNL     1       7.087   9.772  52.628  1.00  0.00     0.173 C 
HETATM   17  C1  UNL     1       8.199   8.928  53.089  1.00  0.00     0.098 C 
HETATM   18  O1  UNL     1       6.538  10.590  53.439  1.00  0.00    -0.291 OA
ENDBRANCH  12  16
BRANCH  14  19
HETATM   19  C15 UNL     1       6.167  11.019  47.951  1.00  0.00     0.299 C 
HETATM   20  N9  UNL     1       6.183  12.471  47.927  1.00  0.00    -0.054 NA
HETATM   21  O5  UNL     1       6.339  10.566  46.794  1.00  0.00    -0.268 OA
ENDBRANCH  14  19
ENDBRANCH   1  10
BRANCH   1  22
HETATM   22  C6  UNL     1       3.462   9.597  47.874  1.00  0.00     0.178 C 
BRANCH  22  23
HETATM   23  O2  UNL     1       2.756  10.569  48.434  1.00  0.00    -0.346 OA
ATOM     24  H2  UNL     1       1.812  10.475  48.377  1.00  0.00     0.219 HD
ENDBRANCH  22  23
BRANCH  22  25
HETATM   25  N2  UNL     1       3.495   9.545  46.495  1.00  0.00    -0.321 N 
ATOM     26  H2  UNL     1       3.741   8.640  46.094  1.00  0.00     0.169 HD
BRANCH  25  27
HETATM   27  C7  UNL     1       3.230  10.592  45.551  1.00  0.00     0.134 A 
HETATM   28  N3  UNL     1       2.608  11.710  45.835  1.00  0.00    -0.326 N 
HETATM   29  C8  UNL     1       2.490  12.666  44.842  1.00  0.00     0.139 A 
ATOM     30  H3  UNL     1       2.220  11.871  46.765  1.00  0.00     0.169 HD
HETATM   31  N4  UNL     1       2.993  12.471  43.613  1.00  0.00    -0.350 N 
HETATM   32  C10 UNL     1       3.637  11.348  43.275  1.00  0.00     0.120 A 
ATOM     33  H4  UNL     1       2.881  13.204  42.913  1.00  0.00     0.166 HD
HETATM   34  C11 UNL     1       3.759  10.391  44.255  1.00  0.00     0.105 A 
HETATM   35  N5  UNL     1       4.454   9.220  43.903  1.00  0.00    -0.097 NA
BRANCH  29  36
HETATM   36  C9  UNL     1       1.808  13.964  45.096  1.00  0.00     0.323 C 
BRANCH  36  37
HETATM   37  O3  UNL     1       2.321  14.590  46.199  1.00  0.00    -0.365 OA
ATOM     38  H3  UNL     1       3.263  14.484  46.250  1.00  0.00     0.213 HD
ENDBRANCH  36  37
BRANCH  36  39
HETATM   39  O4  UNL     1       1.894  14.763  43.938  1.00  0.00    -0.365 OA
ATOM     40  H4  UNL     1       2.464  15.502  44.113  1.00  0.00     0.213 HD
ENDBRANCH  36  39
ENDBRANCH  29  36
ENDBRANCH  25  27
ENDBRANCH  22  25
ENDBRANCH   1  22
BRANCH   6  41
HETATM   41  N7  UNL     1       3.428   5.598  49.869  1.00  0.00    -0.026 N 
ATOM     42  H73 UNL     1       3.695   4.739  49.388  1.00  0.00     0.278 HD
ATOM     43  H72 UNL     1       4.319   5.851  50.299  1.00  0.00     0.278 HD
ATOM     44  H71 UNL     1       2.739   5.391  50.593  1.00  0.00     0.278 HD
ENDBRANCH   6  41
TORSDOF 11
ENDMDL
MODEL 4
REMARK VINA RESULT: -9.648970554      1.697      2.356
REMARK  11 active torsions:
REMARK  status: ('A' for Active; 'I' for Inactive)
REMARK    1  A    between atoms: C2_2  and  C3_4 
REMARK    2  A    between atoms: N1_6  and  C5_7 
REMARK    3  A    between atoms: C5_7  and  C6_8 
REMARK    4  A    between atoms: C6_8  and  O2_9 
REMARK    5  A    between atoms: C6_8  and  N2_11 
REMARK    6  A    between atoms: N2_11  and  C7_13 
REMARK    7  A    between atoms: C8_16  and  C9_17 
REMARK    8  A    between atoms: C9_17  and  O3_18 
REMARK    9  A    between atoms: C9_17  and  O4_20 
REMARK   10  A    between atoms: C13_31  and  N7_32 
REMARK   11  A    between atoms: C14_39  and  C15_40 
ROOT
HETATM    1  C5  UNL     1       3.619   8.995  49.309  1.00  0.00     0.297 C 
HETATM    2  C12 UNL     1       2.893   9.728  50.532  1.00  0.00     0.308 C 
HETATM    3  N6  UNL     1       1.511   9.552  50.236  1.00  0.00    -0.017 N 
ATOM      4  H61 UNL     1       1.124  10.170  49.523  1.00  0.00     0.281 HD
ATOM      5  H62 UNL     1       0.857   9.849  50.962  1.00  0.00     0.281 HD
HETATM    6  C13 UNL     1       1.507   8.152  49.923  1.00  0.00     0.581 C 
HETATM    7  N8  UNL     1       2.707   7.938  49.189  1.00  0.00     0.015 N 
ATOM      8  H81 UNL     1       3.140   7.052  49.450  1.00  0.00     0.285 HD
ATOM      9  H82 UNL     1       2.504   7.741  48.209  1.00  0.00     0.285 HD
ENDROOT
BRANCH   1  10
HETATM   10  N1  UNL     1       4.950   8.813  49.793  1.00  0.00    -0.294 N 
HETATM   11  C4  UNL     1       5.261   7.884  50.764  1.00  0.00     0.129 A 
HETATM   12  C3  UNL     1       6.585   8.038  51.132  1.00  0.00     0.095 A 
HETATM   13  N10 UNL     1       7.021   9.048  50.384  1.00  0.00    -0.334 N 
HETATM   14  C14 UNL     1       6.037   9.514  49.564  1.00  0.00     0.177 A 
ATOM     15  H10 UNL     1       7.968   9.425  50.419  1.00  0.00     0.168 HD
BRANCH  12  16
HETATM   16  C2  UNL     1       7.248   7.324  52.226  1.00  0.00     0.173 C 
HETATM   17  C1  UNL     1       8.368   7.874  53.004  1.00  0.00     0.098 C 
HETATM   18  O1  UNL     1       6.792   6.165  52.509  1.00  0.00    -0.291 OA
ENDBRANCH  12  16
BRANCH  14  19
HETATM   19  C15 UNL     1       6.350  10.533  48.597  1.00  0.00     0.299 C 
HETATM   20  N9  UNL     1       6.805  11.849  49.012  1.00  0.00    -0.054 NA
HETATM   21  O5  UNL     1       6.304  10.466  47.345  1.00  0.00    -0.268 OA
ENDBRANCH  14  19
ENDBRANCH   1  10
BRANCH   1  22
HETATM   22  C6  UNL     1       3.507  10.010  48.247  1.00  0.00     0.178 C 
BRANCH  22  23
HETATM   23  O2  UNL     1       3.415  11.265  48.663  1.00  0.00    -0.346 OA
ATOM     24  H2  UNL     1       2.960  11.858  48.077  1.00  0.00     0.219 HD
ENDBRANCH  22  23
BRANCH  22  25
HETATM   25  N2  UNL     1       3.491   9.786  46.885  1.00  0.00    -0.321 N 
ATOM     26  H2  UNL     1       3.698   8.831  46.593  1.00  0.00     0.169 HD
BRANCH  25  27
HETATM   27  C7  UNL     1       3.221  10.715  45.826  1.00  0.00     0.134 A 
HETATM   28  N3  UNL     1       2.601  11.859  45.980  1.00  0.00    -0.326 N 
HETATM   29  C8  UNL     1       2.479  12.692  44.883  1.00  0.00     0.139 A 
ATOM     30  H3  UNL     1       2.220  12.129  46.887  1.00  0.00     0.169 HD
HETATM   31  N4  UNL     1       2.974  12.353  43.683  1.00  0.00    -0.350 N 
HETATM   32  C10 UNL     1       3.615  11.198  43.475  1.00  0.00     0.120 A 
ATOM     33  H4  UNL     1       2.859  13.000  42.902  1.00  0.00     0.166 HD
HETATM   34  C11 UNL     1       3.742  10.362  44.560  1.00  0.00     0.105 A 
HETATM   35  N5  UNL     1       4.434   9.157  44.343  1.00  0.00    -0.097 NA
BRANCH  29  36
HETATM   36  C9  UNL     1       1.799  14.012  44.986  1.00  0.00     0.323 C 
BRANCH  36  37
HETATM   37  O3  UNL     1       2.244  14.719  46.070  1.00  0.00    -0.365 OA
ATOM     38  H3  UNL     1       3.136  14.482  46.295  1.00  0.00     0.213 HD
ENDBRANCH  36  37
BRANCH  36  39
HETATM   39  O4  UNL     1       1.977  14.716  43.778  1.00  0.00    -0.365 OA
ATOM     40  H4  UNL     1       1.307  15.387  43.709  1.00  0.00     0.213 HD
ENDBRANCH  36  39
ENDBRANCH  29  36
ENDBRANCH  25  27
ENDBRANCH  22  25
ENDBRANCH   1  22
BRANCH   6  41
HETATM   41  N7  UNL     1       1.352   7.266  51.041  1.00  0.00    -0.026 N 
ATOM     42  H73 UNL     1       2.228   7.203  51.559  1.00  0.00     0.278 HD
ATOM     43  H72 UNL     1       0.753   7.697  51.746  1.00  0.00     0.278 HD
ATOM     44  H71 UNL     1       1.011   6.331  50.818  1.00  0.00     0.278 HD
ENDBRANCH   6  41
TORSDOF 11
ENDMDL
MODEL 5
REMARK VINA RESULT: -9.630902683      2.055      2.734
REMARK  11 active torsions:
REMARK  status: ('A' for Active; 'I' for Inactive)
REMARK    1  A    between atoms: C2_2  and  C3_4 
REMARK    2  A    between atoms: N1_6  and  C5_7 
REMARK    3  A    between atoms: C5_7  and  C6_8 
REMARK    4  A    between atoms: C6_8  and  O2_9 
REMARK    5  A    between atoms: C6_8  and  N2_11 
REMARK    6  A    between atoms: N2_11  and  C7_13 
REMARK    7  A    between atoms: C8_16  and  C9_17 
REMARK    8  A    between atoms: C9_17  and  O3_18 
REMARK    9  A    between atoms: C9_17  and  O4_20 
REMARK   10  A    between atoms: C13_31  and  N7_32 
REMARK   11  A    between atoms: C14_39  and  C15_40 
ROOT
HETATM    1  C5  UNL     1       5.075   8.322  50.241  1.00  0.00     0.297 C 
HETATM    2  C12 UNL     1       3.623   8.368  50.910  1.00  0.00     0.308 C 
HETATM    3  N6  UNL     1       2.752   8.422  49.784  1.00  0.00    -0.017 N 
ATOM      4  H61 UNL     1       2.667   9.331  49.329  1.00  0.00     0.281 HD
ATOM      5  H62 UNL     1       1.755   8.340  49.986  1.00  0.00     0.281 HD
HETATM    6  C13 UNL     1       3.321   7.373  48.988  1.00  0.00     0.581 C 
HETATM    7  N8  UNL     1       4.728   7.508  49.155  1.00  0.00     0.015 N 
ATOM      8  H81 UNL     1       5.175   6.595  49.226  1.00  0.00     0.285 HD
ATOM      9  H82 UNL     1       5.165   7.841  48.295  1.00  0.00     0.285 HD
ENDROOT
BRANCH   1  10
HETATM   10  N1  UNL     1       5.904   7.867  51.311  1.00  0.00    -0.294 N 
HETATM   11  C4  UNL     1       5.451   7.784  52.611  1.00  0.00     0.129 A 
HETATM   12  C3  UNL     1       6.507   7.456  53.441  1.00  0.00     0.095 A 
HETATM   13  N10 UNL     1       7.552   7.360  52.623  1.00  0.00    -0.334 N 
HETATM   14  C14 UNL     1       7.189   7.598  51.331  1.00  0.00     0.177 A 
ATOM     15  H10 UNL     1       8.501   7.138  52.923  1.00  0.00     0.168 HD
BRANCH  12  16
HETATM   16  C2  UNL     1       6.451   7.406  54.904  1.00  0.00     0.173 C 
HETATM   17  C1  UNL     1       7.341   8.175  55.785  1.00  0.00     0.098 C 
HETATM   18  O1  UNL     1       5.554   6.654  55.414  1.00  0.00    -0.291 OA
ENDBRANCH  12  16
BRANCH  14  19
HETATM   19  C15 UNL     1       8.162   7.428  50.284  1.00  0.00     0.299 C 
HETATM   20  N9  UNL     1       9.585   7.535  50.556  1.00  0.00    -0.054 NA
HETATM   21  O5  UNL     1       7.972   7.168  49.071  1.00  0.00    -0.268 OA
ENDBRANCH  14  19
ENDBRANCH   1  10
BRANCH   1  22
HETATM   22  C6  UNL     1       5.285   9.737  49.890  1.00  0.00     0.178 C 
BRANCH  22  23
HETATM   23  O2  UNL     1       4.905  10.616  50.807  1.00  0.00    -0.346 OA
ATOM     24  H2  UNL     1       5.373  11.443  50.800  1.00  0.00     0.219 HD
ENDBRANCH  22  23
BRANCH  22  25
HETATM   25  N2  UNL     1       5.829  10.229  48.721  1.00  0.00    -0.321 N 
ATOM     26  H2  UNL     1       6.815  10.487  48.768  1.00  0.00     0.169 HD
BRANCH  25  27
HETATM   27  C7  UNL     1       5.194  10.427  47.449  1.00  0.00     0.134 A 
HETATM   28  N3  UNL     1       5.748  10.160  46.292  1.00  0.00    -0.326 N 
HETATM   29  C8  UNL     1       4.990  10.327  45.148  1.00  0.00     0.139 A 
ATOM     30  H3  UNL     1       6.714   9.836  46.237  1.00  0.00     0.169 HD
HETATM   31  N4  UNL     1       3.718  10.753  45.201  1.00  0.00    -0.350 N 
HETATM   32  C10 UNL     1       3.109  11.037  46.358  1.00  0.00     0.120 A 
ATOM     33  H4  UNL     1       3.199  10.862  44.331  1.00  0.00     0.166 HD
HETATM   34  C11 UNL     1       3.854  10.875  47.501  1.00  0.00     0.105 A 
HETATM   35  N5  UNL     1       3.204  11.155  48.717  1.00  0.00    -0.097 NA
BRANCH  29  36
HETATM   36  C9  UNL     1       5.548  10.031  43.800  1.00  0.00     0.323 C 
BRANCH  36  37
HETATM   37  O3  UNL     1       6.916   9.995  43.823  1.00  0.00    -0.365 OA
ATOM     38  H3  UNL     1       7.239   9.102  43.839  1.00  0.00     0.213 HD
ENDBRANCH  36  37
BRANCH  36  39
HETATM   39  O4  UNL     1       4.989   8.828  43.325  1.00  0.00    -0.365 OA
ATOM     40  H4  UNL     1       5.216   8.720  42.409  1.00  0.00     0.213 HD
ENDBRANCH  36  39
ENDBRANCH  29  36
ENDBRANCH  25  27
ENDBRANCH  22  25
ENDBRANCH   1  22
BRANCH   6  41
HETATM   41  N7  UNL     1       2.834   6.052  49.265  1.00  0.00    -0.026 N 
ATOM     42  H73 UNL     1       2.113   6.090  49.986  1.00  0.00     0.278 HD
ATOM     43  H72 UNL     1       2.286   5.710  48.476  1.00  0.00     0.278 HD
ATOM     44  H71 UNL     1       3.545   5.365  49.520  1.00  0.00     0.278 HD
ENDBRANCH   6  41
TORSDOF 11
ENDMDL
