MODEL 1
REMARK VINA RESULT: -9.560383827      0.000      0.000
REMARK  12 active torsions:
REMARK  status: ('A' for Active; 'I' for Inactive)
REMARK    1  A    between atoms: C2_3  and  N2_4 
REMARK    2  A    between atoms: N5_12  and  C4_13 
REMARK    3  A    between atoms: C4_13  and  C5_14 
REMARK    4  A    between atoms: C5_14  and  C6_15 
REMARK    5  A    between atoms: N8_20  and  C7_21 
REMARK    6  A    between atoms: C7_21  and  C8_22 
REMARK    7  A    between atoms: C9_25  and  N10_26 
REMARK    8  A    between atoms: C10_31  and  N12_32 
REMARK    9  A    between atoms: N12_32  and  N13_34 
REMARK   10  A    between atoms: C11_41  and  C12_42 
REMARK   11  A    between atoms: C12_42  and  N16_43 
REMARK   12  A    between atoms: C12_42  and  O1_47 
ROOT
HETATM    1  C6  UNL     1       4.079   9.201  48.812  1.00  0.00     0.114 A 
HETATM    2  N6  UNL     1       2.951   9.659  49.385  1.00  0.00    -0.272 N 
ATOM      3  H6  UNL     1       2.346  10.390  49.012  1.00  0.00     0.190 HD
HETATM    4  N7  UNL     1       2.763   9.002  50.505  1.00  0.00    -0.224 N 
ATOM      5  H7  UNL     1       1.985   9.141  51.148  1.00  0.00     0.210 HD
HETATM    6  N8  UNL     1       3.741   8.134  50.665  1.00  0.00    -0.211 N 
HETATM    7  N15 UNL     1       4.550   8.247  49.637  1.00  0.00    -0.270 N 
ATOM      8  H15 UNL     1       5.398   7.700  49.487  1.00  0.00     0.190 HD
ENDROOT
BRANCH   1   9
HETATM    9  C5  UNL     1       4.615   9.699  47.536  1.00  0.00     0.101 C 
BRANCH   9  10
HETATM   10  C4  UNL     1       3.855   9.212  46.341  1.00  0.00     0.157 C 
BRANCH  10  11
HETATM   11  N5  UNL     1       3.502  10.383  45.542  1.00  0.00    -0.288 N 
HETATM   12  N4  UNL     1       2.812  11.438  45.901  1.00  0.00    -0.281 N 
HETATM   13  C3  UNL     1       2.682  12.316  44.911  1.00  0.00     0.165 A 
ATOM     14  H4  UNL     1       2.419  11.570  46.834  1.00  0.00     0.189 HD
HETATM   15  N3  UNL     1       2.187  13.496  44.519  1.00  0.00    -0.173 N 
HETATM   16  C13 UNL     1       3.361  11.755  43.821  1.00  0.00     0.125 A 
HETATM   17  C2  UNL     1       2.532  13.672  43.255  1.00  0.00     0.680 A 
ATOM     18  H3  UNL     1       1.643  14.141  45.091  1.00  0.00     0.186 HD
HETATM   19  N1  UNL     1       3.259  12.614  42.792  1.00  0.00    -0.182 N 
HETATM   20  C1  UNL     1       3.810  12.467  41.453  1.00  0.00     0.176 C 
HETATM   21  C11 UNL     1       3.868  10.543  44.236  1.00  0.00     0.115 A 
BRANCH  17  22
HETATM   22  N2  UNL     1       2.241  14.691  42.525  1.00  0.00    -0.234 N 
ATOM     23  H22 UNL     1       2.515  14.831  41.552  1.00  0.00     0.174 HD
ATOM     24  H21 UNL     1       1.690  15.477  42.868  1.00  0.00     0.174 HD
ENDBRANCH  17  22
BRANCH  21  25
HETATM   25  C12 UNL     1       4.639   9.594  43.428  1.00  0.00     0.371 C 
BRANCH  25  26
HETATM   26  N16 UNL     1       4.073   9.331  42.117  1.00  0.00    -0.047 N 
ATOM     27 3H16 UNL     1       4.737   8.815  41.539  1.00  0.00     0.277 HD
ATOM     28 2H16 UNL     1       3.326   8.641  42.183  1.00  0.00     0.277 HD
ATOM     29 1H16 UNL     1       3.748  10.164  41.627  1.00  0.00     0.277 HD
ENDBRANCH  25  26
BRANCH  25  30
HETATM   30  O1  UNL     1       5.989   9.933  43.339  1.00  0.00    -0.365 OA
ATOM     31  H1  UNL     1       6.131  10.760  42.893  1.00  0.00     0.212 HD
ENDBRANCH  25  30
ENDBRANCH  21  25
ENDBRANCH  10  11
ENDBRANCH   9  10
ENDBRANCH   1   9
BRANCH   6  32
HETATM   32  C7  UNL     1       3.855   7.235  51.797  1.00  0.00     0.248 C 
BRANCH  32  33
HETATM   33  C8  UNL     1       4.951   7.665  52.715  1.00  0.00     0.134 A 
HETATM   34  N9  UNL     1       5.687   8.759  52.497  1.00  0.00    -0.178 N 
HETATM   35  C9  UNL     1       6.665   9.125  53.335  1.00  0.00     0.691 A 
ATOM     36  H9  UNL     1       5.499   9.329  51.671  1.00  0.00     0.185 HD
HETATM   37  N11 UNL     1       6.910   8.361  54.432  1.00  0.00    -0.021 N 
HETATM   38  C10 UNL     1       6.183   7.251  54.679  1.00  0.00     0.712 A 
ATOM     39  H11 UNL     1       7.652   8.630  55.078  1.00  0.00     0.203 HD
HETATM   40  N14 UNL     1       5.229   6.938  53.815  1.00  0.00    -0.176 N 
ATOM     41  H14 UNL     1       4.674   6.101  53.992  1.00  0.00     0.185 HD
BRANCH  35  42
HETATM   42  N10 UNL     1       7.369  10.184  53.111  1.00  0.00    -0.234 N 
ATOM     43 2H10 UNL     1       7.732  10.733  53.890  1.00  0.00     0.174 HD
ATOM     44 1H10 UNL     1       7.572  10.486  52.158  1.00  0.00     0.174 HD
ENDBRANCH  35  42
BRANCH  38  45
HETATM   45  N12 UNL     1       6.450   6.564  55.728  1.00  0.00    -0.138 N 
ATOM     46  H12 UNL     1       7.419   6.512  56.040  1.00  0.00     0.205 HD
BRANCH  45  47
HETATM   47  N13 UNL     1       5.481   5.885  56.464  1.00  0.00    -0.331 N 
ATOM     48 2H13 UNL     1       5.578   4.872  56.544  1.00  0.00     0.177 HD
ATOM     49 1H13 UNL     1       4.693   6.349  56.916  1.00  0.00     0.177 HD
ENDBRANCH  45  47
ENDBRANCH  38  45
ENDBRANCH  32  33
ENDBRANCH   6  32
TORSDOF 12
ENDMDL
MODEL 2
REMARK VINA RESULT: -9.554061282      0.870      1.058
REMARK  12 active torsions:
REMARK  status: ('A' for Active; 'I' for Inactive)
REMARK    1  A    between atoms: C2_3  and  N2_4 
REMARK    2  A    between atoms: N5_12  and  C4_13 
REMARK    3  A    between atoms: C4_13  and  C5_14 
REMARK    4  A    between atoms: C5_14  and  C6_15 
REMARK    5  A    between atoms: N8_20  and  C7_21 
REMARK    6  A    between atoms: C7_21  and  C8_22 
REMARK    7  A    between atoms: C9_25  and  N10_26 
REMARK    8  A    between atoms: C10_31  and  N12_32 
REMARK    9  A    between atoms: N12_32  and  N13_34 
REMARK   10  A    between atoms: C11_41  and  C12_42 
REMARK   11  A    between atoms: C12_42  and  N16_43 
REMARK   12  A    between atoms: C12_42  and  O1_47 
ROOT
HETATM    1  C6  UNL     1       4.211   8.649  48.749  1.00  0.00     0.114 A 
HETATM    2  N6  UNL     1       4.234   7.323  48.520  1.00  0.00    -0.272 N 
ATOM      3  H6  UNL     1       4.338   6.876  47.610  1.00  0.00     0.190 HD
HETATM    4  N7  UNL     1       4.101   6.706  49.670  1.00  0.00    -0.224 N 
ATOM      5  H7  UNL     1       4.083   5.695  49.799  1.00  0.00     0.210 HD
HETATM    6  N8  UNL     1       3.993   7.601  50.630  1.00  0.00    -0.211 N 
HETATM    7  N15 UNL     1       4.060   8.790  50.079  1.00  0.00    -0.270 N 
ATOM      8  H15 UNL     1       4.005   9.679  50.577  1.00  0.00     0.190 HD
ENDROOT
BRANCH   1   9
HETATM    9  C5  UNL     1       4.336   9.668  47.696  1.00  0.00     0.101 C 
BRANCH   9  10
HETATM   10  C4  UNL     1       3.885   9.191  46.350  1.00  0.00     0.157 C 
BRANCH  10  11
HETATM   11  N5  UNL     1       3.523  10.372  45.568  1.00  0.00    -0.288 N 
HETATM   12  N4  UNL     1       2.856  11.432  45.954  1.00  0.00    -0.281 N 
HETATM   13  C3  UNL     1       2.708  12.317  44.973  1.00  0.00     0.165 A 
ATOM     14  H4  UNL     1       2.492  11.562  46.898  1.00  0.00     0.189 HD
HETATM   15  N3  UNL     1       2.215  13.505  44.603  1.00  0.00    -0.173 N 
HETATM   16  C13 UNL     1       3.347  11.756  43.860  1.00  0.00     0.125 A 
HETATM   17  C2  UNL     1       2.525  13.685  43.330  1.00  0.00     0.680 A 
ATOM     18  H3  UNL     1       1.696  14.154  45.194  1.00  0.00     0.186 HD
HETATM   19  N1  UNL     1       3.226  12.622  42.840  1.00  0.00    -0.182 N 
HETATM   20  C1  UNL     1       3.736  12.477  41.485  1.00  0.00     0.176 C 
HETATM   21  C11 UNL     1       3.852  10.536  44.253  1.00  0.00     0.115 A 
BRANCH  17  22
HETATM   22  N2  UNL     1       2.225  14.712  42.615  1.00  0.00    -0.234 N 
ATOM     23  H22 UNL     1       2.823  15.154  41.917  1.00  0.00     0.174 HD
ATOM     24  H21 UNL     1       1.328  15.193  42.687  1.00  0.00     0.174 HD
ENDBRANCH  17  22
BRANCH  21  25
HETATM   25  C12 UNL     1       4.588   9.582  43.417  1.00  0.00     0.371 C 
BRANCH  25  26
HETATM   26  N16 UNL     1       3.980   9.333  42.123  1.00  0.00    -0.047 N 
ATOM     27 3H16 UNL     1       3.074   9.798  42.058  1.00  0.00     0.277 HD
ATOM     28 2H16 UNL     1       4.484   9.831  41.390  1.00  0.00     0.277 HD
ATOM     29 1H16 UNL     1       3.891   8.345  41.886  1.00  0.00     0.277 HD
ENDBRANCH  25  26
BRANCH  25  30
HETATM   30  O1  UNL     1       5.939   9.908  43.288  1.00  0.00    -0.365 OA
ATOM     31  H1  UNL     1       6.498   9.141  43.239  1.00  0.00     0.212 HD
ENDBRANCH  25  30
ENDBRANCH  21  25
ENDBRANCH  10  11
ENDBRANCH   9  10
ENDBRANCH   1   9
BRANCH   6  32
HETATM   32  C7  UNL     1       3.832   7.274  52.034  1.00  0.00     0.248 C 
BRANCH  32  33
HETATM   33  C8  UNL     1       5.147   7.275  52.739  1.00  0.00     0.134 A 
HETATM   34  N9  UNL     1       6.303   7.508  52.109  1.00  0.00    -0.178 N 
HETATM   35  C9  UNL     1       7.472   7.504  52.763  1.00  0.00     0.691 A 
ATOM     36  H9  UNL     1       6.294   7.694  51.105  1.00  0.00     0.185 HD
HETATM   37  N11 UNL     1       7.475   7.256  54.100  1.00  0.00    -0.021 N 
HETATM   38  C10 UNL     1       6.324   7.017  54.763  1.00  0.00     0.712 A 
ATOM     39  H11 UNL     1       8.359   7.251  54.609  1.00  0.00     0.203 HD
HETATM   40  N14 UNL     1       5.198   7.033  54.063  1.00  0.00    -0.176 N 
ATOM     41  H14 UNL     1       4.323   6.854  54.554  1.00  0.00     0.185 HD
BRANCH  35  42
HETATM   42  N10 UNL     1       8.580   7.730  52.142  1.00  0.00    -0.234 N 
ATOM     43 2H10 UNL     1       8.763   7.288  51.241  1.00  0.00     0.174 HD
ATOM     44 1H10 UNL     1       9.285   8.352  52.538  1.00  0.00     0.174 HD
ENDBRANCH  35  42
BRANCH  38  45
HETATM   45  N12 UNL     1       6.378   6.790  56.023  1.00  0.00    -0.138 N 
ATOM     46  H12 UNL     1       7.093   7.268  56.571  1.00  0.00     0.205 HD
BRANCH  45  47
HETATM   47  N13 UNL     1       5.508   5.925  56.682  1.00  0.00    -0.331 N 
ATOM     48 2H13 UNL     1       4.547   5.879  56.344  1.00  0.00     0.177 HD
ATOM     49 1H13 UNL     1       5.787   5.346  57.475  1.00  0.00     0.177 HD
ENDBRANCH  45  47
ENDBRANCH  38  45
ENDBRANCH  32  33
ENDBRANCH   6  32
TORSDOF 12
ENDMDL
MODEL 3
REMARK VINA RESULT: -9.228035106      2.138      9.738
REMARK  12 active torsions:
REMARK  status: ('A' for Active; 'I' for Inactive)
REMARK    1  A    between atoms: C2_3  and  N2_4 
REMARK    2  A    between atoms: N5_12  and  C4_13 
REMARK    3  A    between atoms: C4_13  and  C5_14 
REMARK    4  A    between atoms: C5_14  and  C6_15 
REMARK    5  A    between atoms: N8_20  and  C7_21 
REMARK    6  A    between atoms: C7_21  and  C8_22 
REMARK    7  A    between atoms: C9_25  and  N10_26 
REMARK    8  A    between atoms: C10_31  and  N12_32 
REMARK    9  A    between atoms: N12_32  and  N13_34 
REMARK   10  A    between atoms: C11_41  and  C12_42 
REMARK   11  A    between atoms: C12_42  and  N16_43 
REMARK   12  A    between atoms: C12_42  and  O1_47 
ROOT
HETATM    1  C6  UNL     1       3.496   8.338  49.022  1.00  0.00     0.114 A 
HETATM    2  N6  UNL     1       3.811   7.762  47.848  1.00  0.00    -0.272 N 
ATOM      3  H6  UNL     1       3.664   6.783  47.604  1.00  0.00     0.190 HD
HETATM    4  N7  UNL     1       4.342   8.677  47.072  1.00  0.00    -0.224 N 
ATOM      5  H7  UNL     1       4.676   8.523  46.120  1.00  0.00     0.210 HD
HETATM    6  N8  UNL     1       4.374   9.824  47.716  1.00  0.00    -0.211 N 
HETATM    7  N15 UNL     1       3.859   9.629  48.908  1.00  0.00    -0.270 N 
ATOM      8  H15 UNL     1       3.752  10.340  49.632  1.00  0.00     0.190 HD
ENDROOT
BRANCH   1   9
HETATM    9  C5  UNL     1       2.876   7.624  50.149  1.00  0.00     0.101 C 
BRANCH   9  10
HETATM   10  C4  UNL     1       2.794   8.442  51.400  1.00  0.00     0.157 C 
BRANCH  10  11
HETATM   11  N5  UNL     1       4.031   8.222  52.147  1.00  0.00    -0.288 N 
HETATM   12  N4  UNL     1       4.446   7.125  52.731  1.00  0.00    -0.281 N 
HETATM   13  C3  UNL     1       5.626   7.285  53.323  1.00  0.00     0.165 A 
ATOM     14  H4  UNL     1       3.923   6.248  52.733  1.00  0.00     0.189 HD
HETATM   15  N3  UNL     1       6.605   6.720  54.039  1.00  0.00    -0.173 N 
HETATM   16  C13 UNL     1       5.987   8.617  53.084  1.00  0.00     0.125 A 
HETATM   17  C2  UNL     1       7.532   7.640  54.241  1.00  0.00     0.680 A 
ATOM     18  H3  UNL     1       6.631   5.755  54.368  1.00  0.00     0.186 HD
HETATM   19  N1  UNL     1       7.182   8.825  53.664  1.00  0.00    -0.182 N 
HETATM   20  C1  UNL     1       7.962  10.054  53.677  1.00  0.00     0.176 C 
HETATM   21  C11 UNL     1       4.975   9.188  52.345  1.00  0.00     0.115 A 
BRANCH  17  22
HETATM   22  N2  UNL     1       8.632   7.478  54.890  1.00  0.00    -0.234 N 
ATOM     23  H22 UNL     1       8.732   7.453  55.905  1.00  0.00     0.174 HD
ATOM     24  H21 UNL     1       9.533   7.357  54.429  1.00  0.00     0.174 HD
ENDBRANCH  17  22
BRANCH  21  25
HETATM   25  C12 UNL     1       4.910  10.575  51.874  1.00  0.00     0.371 C 
BRANCH  25  26
HETATM   26  N16 UNL     1       4.935  11.566  52.935  1.00  0.00    -0.047 N 
ATOM     27 3H16 UNL     1       4.053  11.562  53.448  1.00  0.00     0.277 HD
ATOM     28 2H16 UNL     1       5.569  11.276  53.678  1.00  0.00     0.277 HD
ATOM     29 1H16 UNL     1       5.159  12.509  52.621  1.00  0.00     0.277 HD
ENDBRANCH  25  26
BRANCH  25  30
HETATM   30  O1  UNL     1       5.862  10.858  50.894  1.00  0.00    -0.365 OA
ATOM     31  H1  UNL     1       5.473  11.041  50.047  1.00  0.00     0.212 HD
ENDBRANCH  25  30
ENDBRANCH  21  25
ENDBRANCH  10  11
ENDBRANCH   9  10
ENDBRANCH   1   9
BRANCH   6  32
HETATM   32  C7  UNL     1       4.897  11.057  47.160  1.00  0.00     0.248 C 
BRANCH  32  33
HETATM   33  C8  UNL     1       4.034  11.551  46.046  1.00  0.00     0.134 A 
HETATM   34  N9  UNL     1       3.038  12.422  46.238  1.00  0.00    -0.178 N 
HETATM   35  C9  UNL     1       2.278  12.852  45.222  1.00  0.00     0.691 A 
ATOM     36  H9  UNL     1       2.854  12.768  47.180  1.00  0.00     0.185 HD
HETATM   37  N11 UNL     1       2.530  12.386  43.970  1.00  0.00    -0.021 N 
HETATM   38  C10 UNL     1       3.528  11.505  43.746  1.00  0.00     0.712 A 
ATOM     39  H11 UNL     1       1.957  12.706  43.189  1.00  0.00     0.203 HD
HETATM   40  N14 UNL     1       4.248  11.116  44.789  1.00  0.00    -0.176 N 
ATOM     41  H14 UNL     1       5.004  10.451  44.631  1.00  0.00     0.185 HD
BRANCH  35  42
HETATM   42  N10 UNL     1       1.319  13.693  45.422  1.00  0.00    -0.234 N 
ATOM     43 2H10 UNL     1       0.395  13.361  45.699  1.00  0.00     0.174 HD
ATOM     44 1H10 UNL     1       1.470  14.695  45.307  1.00  0.00     0.174 HD
ENDBRANCH  35  42
BRANCH  38  45
HETATM   45  N12 UNL     1       3.729  11.097  42.548  1.00  0.00    -0.138 N 
ATOM     46  H12 UNL     1       3.529  10.121  42.329  1.00  0.00     0.205 HD
BRANCH  45  47
HETATM   47  N13 UNL     1       4.207  11.920  41.530  1.00  0.00    -0.331 N 
ATOM     48 2H13 UNL     1       4.652  12.795  41.806  1.00  0.00     0.177 HD
ATOM     49 1H13 UNL     1       4.131  11.686  40.540  1.00  0.00     0.177 HD
ENDBRANCH  45  47
ENDBRANCH  38  45
ENDBRANCH  32  33
ENDBRANCH   6  32
TORSDOF 12
ENDMDL
MODEL 4
REMARK VINA RESULT: -9.213165799      1.705      2.119
REMARK  12 active torsions:
REMARK  status: ('A' for Active; 'I' for Inactive)
REMARK    1  A    between atoms: C2_3  and  N2_4 
REMARK    2  A    between atoms: N5_12  and  C4_13 
REMARK    3  A    between atoms: C4_13  and  C5_14 
REMARK    4  A    between atoms: C5_14  and  C6_15 
REMARK    5  A    between atoms: N8_20  and  C7_21 
REMARK    6  A    between atoms: C7_21  and  C8_22 
REMARK    7  A    between atoms: C9_25  and  N10_26 
REMARK    8  A    between atoms: C10_31  and  N12_32 
REMARK    9  A    between atoms: N12_32  and  N13_34 
REMARK   10  A    between atoms: C11_41  and  C12_42 
REMARK   11  A    between atoms: C12_42  and  N16_43 
REMARK   12  A    between atoms: C12_42  and  O1_47 
ROOT
HETATM    1  C6  UNL     1       2.279   9.544  49.961  1.00  0.00     0.114 A 
HETATM    2  N6  UNL     1       1.184   8.782  50.133  1.00  0.00    -0.272 N 
ATOM      3  H6  UNL     1       0.300   8.886  49.635  1.00  0.00     0.190 HD
HETATM    4  N7  UNL     1       1.449   7.884  51.052  1.00  0.00    -0.224 N 
ATOM      5  H7  UNL     1       0.801   7.172  51.386  1.00  0.00     0.210 HD
HETATM    6  N8  UNL     1       2.685   8.050  51.473  1.00  0.00    -0.211 N 
HETATM    7  N15 UNL     1       3.202   9.060  50.813  1.00  0.00    -0.270 N 
ATOM      8  H15 UNL     1       4.149   9.421  50.927  1.00  0.00     0.190 HD
ENDROOT
BRANCH   1   9
HETATM    9  C5  UNL     1       2.363  10.661  49.007  1.00  0.00     0.101 C 
BRANCH   9  10
HETATM   10  C4  UNL     1       3.505  10.537  48.046  1.00  0.00     0.157 C 
BRANCH  10  11
HETATM   11  N5  UNL     1       3.201  11.388  46.897  1.00  0.00    -0.288 N 
HETATM   12  N4  UNL     1       2.510  12.501  46.867  1.00  0.00    -0.281 N 
HETATM   13  C3  UNL     1       2.435  13.013  45.641  1.00  0.00     0.165 A 
ATOM     14  H4  UNL     1       2.080  12.926  47.689  1.00  0.00     0.189 HD
HETATM   15  N3  UNL     1       1.972  14.003  44.869  1.00  0.00    -0.173 N 
HETATM   16  C13 UNL     1       3.151  12.132  44.822  1.00  0.00     0.125 A 
HETATM   17  C2  UNL     1       2.372  13.763  43.633  1.00  0.00     0.680 A 
ATOM     18  H3  UNL     1       1.412  14.798  45.178  1.00  0.00     0.186 HD
HETATM   19  N1  UNL     1       3.104  12.614  43.567  1.00  0.00    -0.182 N 
HETATM   20  C1  UNL     1       3.710  12.043  42.373  1.00  0.00     0.176 C 
HETATM   21  C11 UNL     1       3.624  11.119  45.627  1.00  0.00     0.115 A 
BRANCH  17  22
HETATM   22  N2  UNL     1       2.125  14.492  42.601  1.00  0.00    -0.234 N 
ATOM     23  H22 UNL     1       1.608  14.203  41.771  1.00  0.00     0.174 HD
ATOM     24  H21 UNL     1       2.438  15.459  42.520  1.00  0.00     0.174 HD
ENDBRANCH  17  22
BRANCH  21  25
HETATM   25  C12 UNL     1       4.416   9.961  45.202  1.00  0.00     0.371 C 
BRANCH  25  26
HETATM   26  N16 UNL     1       5.815  10.023  45.583  1.00  0.00    -0.047 N 
ATOM     27 3H16 UNL     1       6.408  10.078  44.755  1.00  0.00     0.277 HD
ATOM     28 2H16 UNL     1       6.029  10.924  46.010  1.00  0.00     0.277 HD
ATOM     29 1H16 UNL     1       6.118   9.261  46.188  1.00  0.00     0.277 HD
ENDBRANCH  25  26
BRANCH  25  30
HETATM   30  O1  UNL     1       3.841   8.747  45.581  1.00  0.00    -0.365 OA
ATOM     31  H1  UNL     1       4.322   8.314  46.276  1.00  0.00     0.212 HD
ENDBRANCH  25  30
ENDBRANCH  21  25
ENDBRANCH  10  11
ENDBRANCH   9  10
ENDBRANCH   1   9
BRANCH   6  32
HETATM   32  C7  UNL     1       3.317   7.230  52.489  1.00  0.00     0.248 C 
BRANCH  32  33
HETATM   33  C8  UNL     1       4.804   7.267  52.361  1.00  0.00     0.134 A 
HETATM   34  N9  UNL     1       5.424   7.326  51.178  1.00  0.00    -0.178 N 
HETATM   35  C9  UNL     1       6.760   7.359  51.088  1.00  0.00     0.691 A 
ATOM     36  H9  UNL     1       4.866   7.346  50.324  1.00  0.00     0.185 HD
HETATM   37  N11 UNL     1       7.496   7.332  52.230  1.00  0.00    -0.021 N 
HETATM   38  C10 UNL     1       6.897   7.272  53.439  1.00  0.00     0.712 A 
ATOM     39  H11 UNL     1       8.514   7.357  52.174  1.00  0.00     0.203 HD
HETATM   40  N14 UNL     1       5.572   7.242  53.466  1.00  0.00    -0.176 N 
ATOM     41  H14 UNL     1       5.110   7.197  54.374  1.00  0.00     0.185 HD
BRANCH  35  42
HETATM   42  N10 UNL     1       7.346   7.415  49.939  1.00  0.00    -0.234 N 
ATOM     43 2H10 UNL     1       7.491   8.314  49.480  1.00  0.00     0.174 HD
ATOM     44 1H10 UNL     1       7.672   6.567  49.476  1.00  0.00     0.174 HD
ENDBRANCH  35  42
BRANCH  38  45
HETATM   45  N12 UNL     1       7.634   7.251  54.488  1.00  0.00    -0.138 N 
ATOM     46  H12 UNL     1       7.358   6.645  55.261  1.00  0.00     0.205 HD
BRANCH  45  47
HETATM   47  N13 UNL     1       8.791   8.015  54.625  1.00  0.00    -0.331 N 
ATOM     48 2H13 UNL     1       8.821   8.686  55.392  1.00  0.00     0.177 HD
ATOM     49 1H13 UNL     1       9.594   7.931  54.001  1.00  0.00     0.177 HD
ENDBRANCH  45  47
ENDBRANCH  38  45
ENDBRANCH  32  33
ENDBRANCH   6  32
TORSDOF 12
ENDMDL
MODEL 5
REMARK VINA RESULT: -9.204973214      0.334      1.844
REMARK  12 active torsions:
REMARK  status: ('A' for Active; 'I' for Inactive)
REMARK    1  A    between atoms: C2_3  and  N2_4 
REMARK    2  A    between atoms: N5_12  and  C4_13 
REMARK    3  A    between atoms: C4_13  and  C5_14 
REMARK    4  A    between atoms: C5_14  and  C6_15 
REMARK    5  A    between atoms: N8_20  and  C7_21 
REMARK    6  A    between atoms: C7_21  and  C8_22 
REMARK    7  A    between atoms: C9_25  and  N10_26 
REMARK    8  A    between atoms: C10_31  and  N12_32 
REMARK    9  A    between atoms: N12_32  and  N13_34 
REMARK   10  A    between atoms: C11_41  and  C12_42 
REMARK   11  A    between atoms: C12_42  and  N16_43 
REMARK   12  A    between atoms: C12_42  and  O1_47 
ROOT
HETATM    1  C6  UNL     1       3.940   9.160  48.797  1.00  0.00     0.114 A 
HETATM    2  N6  UNL     1       2.747   9.566  49.266  1.00  0.00    -0.272 N 
ATOM      3  H6  UNL     1       2.132  10.248  48.824  1.00  0.00     0.190 HD
HETATM    4  N7  UNL     1       2.512   8.933  50.391  1.00  0.00    -0.224 N 
ATOM      5  H7  UNL     1       1.679   9.044  50.969  1.00  0.00     0.210 HD
HETATM    6  N8  UNL     1       3.523   8.132  50.655  1.00  0.00    -0.211 N 
HETATM    7  N15 UNL     1       4.400   8.262  49.687  1.00  0.00    -0.270 N 
ATOM      8  H15 UNL     1       5.288   7.763  49.620  1.00  0.00     0.190 HD
ENDROOT
BRANCH   1   9
HETATM    9  C5  UNL     1       4.544   9.650  47.548  1.00  0.00     0.101 C 
BRANCH   9  10
HETATM   10  C4  UNL     1       3.833   9.177  46.318  1.00  0.00     0.157 C 
BRANCH  10  11
HETATM   11  N5  UNL     1       3.492  10.359  45.529  1.00  0.00    -0.288 N 
HETATM   12  N4  UNL     1       2.823  11.423  45.901  1.00  0.00    -0.281 N 
HETATM   13  C3  UNL     1       2.699  12.309  44.918  1.00  0.00     0.165 A 
ATOM     14  H4  UNL     1       2.440  11.555  46.838  1.00  0.00     0.189 HD
HETATM   15  N3  UNL     1       2.220  13.500  44.538  1.00  0.00    -0.173 N 
HETATM   16  C13 UNL     1       3.358  11.744  43.818  1.00  0.00     0.125 A 
HETATM   17  C2  UNL     1       2.557  13.678  43.272  1.00  0.00     0.680 A 
ATOM     18  H3  UNL     1       1.692  14.150  45.119  1.00  0.00     0.186 HD
HETATM   19  N1  UNL     1       3.262  12.612  42.796  1.00  0.00    -0.182 N 
HETATM   20  C1  UNL     1       3.799  12.464  41.451  1.00  0.00     0.176 C 
HETATM   21  C11 UNL     1       3.849  10.522  44.221  1.00  0.00     0.115 A 
BRANCH  17  22
HETATM   22  N2  UNL     1       2.276  14.707  42.551  1.00  0.00    -0.234 N 
ATOM     23  H22 UNL     1       2.603  15.660  42.710  1.00  0.00     0.174 HD
ATOM     24  H21 UNL     1       1.678  14.657  41.727  1.00  0.00     0.174 HD
ENDBRANCH  17  22
BRANCH  21  25
HETATM   25  C12 UNL     1       4.597   9.565  43.400  1.00  0.00     0.371 C 
BRANCH  25  26
HETATM   26  N16 UNL     1       4.027   9.336  42.084  1.00  0.00    -0.047 N 
ATOM     27 3H16 UNL     1       3.008   9.350  42.130  1.00  0.00     0.277 HD
ATOM     28 2H16 UNL     1       4.185  10.144  41.482  1.00  0.00     0.277 HD
ATOM     29 1H16 UNL     1       4.352   8.483  41.630  1.00  0.00     0.277 HD
ENDBRANCH  25  26
BRANCH  25  30
HETATM   30  O1  UNL     1       5.956   9.871  43.318  1.00  0.00    -0.365 OA
ATOM     31  H1  UNL     1       6.116  10.797  43.177  1.00  0.00     0.212 HD
ENDBRANCH  25  30
ENDBRANCH  21  25
ENDBRANCH  10  11
ENDBRANCH   9  10
ENDBRANCH   1   9
BRANCH   6  32
HETATM   32  C7  UNL     1       3.601   7.276  51.823  1.00  0.00     0.248 C 
BRANCH  32  33
HETATM   33  C8  UNL     1       4.762   7.648  52.684  1.00  0.00     0.134 A 
HETATM   34  N9  UNL     1       5.155   6.906  53.724  1.00  0.00    -0.178 N 
HETATM   35  C9  UNL     1       6.201   7.259  54.482  1.00  0.00     0.691 A 
ATOM     36  H9  UNL     1       4.646   6.050  53.946  1.00  0.00     0.185 HD
HETATM   37  N11 UNL     1       6.874   8.401  54.181  1.00  0.00    -0.021 N 
HETATM   38  C10 UNL     1       6.501   9.171  53.137  1.00  0.00     0.712 A 
ATOM     39  H11 UNL     1       7.673   8.680  54.751  1.00  0.00     0.203 HD
HETATM   40  N14 UNL     1       5.458   8.771  52.422  1.00  0.00    -0.176 N 
ATOM     41  H14 UNL     1       5.168   9.344  51.631  1.00  0.00     0.185 HD
BRANCH  35  42
HETATM   42  N10 UNL     1       6.569   6.534  55.485  1.00  0.00    -0.234 N 
ATOM     43 2H10 UNL     1       6.379   6.842  56.438  1.00  0.00     0.174 HD
ATOM     44 1H10 UNL     1       7.050   5.646  55.340  1.00  0.00     0.174 HD
ENDBRANCH  35  42
BRANCH  38  45
HETATM   45  N12 UNL     1       7.168  10.237  52.890  1.00  0.00    -0.138 N 
ATOM     46  H12 UNL     1       6.940  10.767  52.050  1.00  0.00     0.205 HD
BRANCH  45  47
HETATM   47  N13 UNL     1       8.189  10.707  53.714  1.00  0.00    -0.331 N 
ATOM     48 2H13 UNL     1       9.100  10.255  53.635  1.00  0.00     0.177 HD
ATOM     49 1H13 UNL     1       8.064  11.470  54.380  1.00  0.00     0.177 HD
ENDBRANCH  45  47
ENDBRANCH  38  45
ENDBRANCH  32  33
ENDBRANCH   6  32
TORSDOF 12
ENDMDL
