MODEL 1
REMARK VINA RESULT: -9.909346629      0.000      0.000
REMARK  8 active torsions:
REMARK  status: ('A' for Active; 'I' for Inactive)
REMARK    1  A    between atoms: C2_8  and  N4_9 
REMARK    2  A    between atoms: N5_13  and  C3_14 
REMARK    3  A    between atoms: N10_28  and  C8_29 
REMARK    4  A    between atoms: C8_29  and  C9_30 
REMARK    5  A    between atoms: C8_29  and  C10_33 
REMARK    6  A    between atoms: C9_30  and  O1_31 
REMARK    7  A    between atoms: C10_33  and  N11_34 
REMARK    8  A    between atoms: C12_36  and  C13_37 
ROOT
HETATM    1  C3  UNL     1       3.690  10.820  45.499  1.00  0.00     0.159 A 
HETATM    2  N6  UNL     1       3.230  12.067  45.749  1.00  0.00    -0.174 N 
ATOM      3  H6  UNL     1       3.163  12.739  44.985  1.00  0.00     0.186 HD
HETATM    4  C4  UNL     1       2.853  12.441  47.007  1.00  0.00     0.679 A 
HETATM    5  N7  UNL     1       2.436  13.650  47.123  1.00  0.00    -0.234 N 
ATOM      6  H71 UNL     1       2.154  13.930  48.062  1.00  0.00     0.174 HD
ATOM      7  H72 UNL     1       2.388  14.287  46.328  1.00  0.00     0.174 HD
HETATM    8  N8  UNL     1       2.917  11.601  48.056  1.00  0.00    -0.174 N 
ATOM      9  H8  UNL     1       2.627  11.910  48.984  1.00  0.00     0.186 HD
HETATM   10  C5  UNL     1       3.365  10.354  47.864  1.00  0.00     0.155 A 
HETATM   11  C6  UNL     1       3.746   9.972  46.596  1.00  0.00     0.124 A 
HETATM   12  N9  UNL     1       4.149   8.701  46.685  1.00  0.00    -0.346 N 
ATOM     13  H9  UNL     1       4.494   8.121  45.920  1.00  0.00     0.167 HD
HETATM   14  C7  UNL     1       4.012   8.327  47.977  1.00  0.00     0.185 A 
HETATM   15  N10 UNL     1       3.534   9.331  48.702  1.00  0.00    -0.318 N 
ENDROOT
BRANCH  15  16
HETATM   16  C8  UNL     1       3.269   9.257  50.153  1.00  0.00     0.136 C 
BRANCH  16  17
HETATM   17  C9  UNL     1       1.823   9.528  50.416  1.00  0.00     0.191 C 
BRANCH  17  18
HETATM   18  O1  UNL     1       1.072   8.408  50.141  1.00  0.00    -0.399 OA
ATOM     19  H1  UNL     1       0.362   8.328  50.766  1.00  0.00     0.209 HD
ENDBRANCH  17  18
ENDBRANCH  16  17
BRANCH  16  20
HETATM   20  C10 UNL     1       4.156  10.267  50.781  1.00  0.00     0.177 C 
BRANCH  20  21
HETATM   21  N11 UNL     1       5.369   9.820  51.396  1.00  0.00    -0.285 N 
HETATM   22  C11 UNL     1       6.082   8.704  51.149  1.00  0.00     0.149 A 
HETATM   23  C12 UNL     1       7.192   8.634  51.960  1.00  0.00     0.143 A 
HETATM   24  N12 UNL     1       7.122   9.763  52.714  1.00  0.00    -0.279 N 
HETATM   25  N13 UNL     1       6.052  10.450  52.377  1.00  0.00    -0.240 N 
ATOM     26  H12 UNL     1       7.796  10.035  53.431  1.00  0.00     0.189 HD
ATOM     27  H13 UNL     1       5.776  11.336  52.799  1.00  0.00     0.208 HD
BRANCH  23  28
HETATM   28  C13 UNL     1       8.213   7.607  52.013  1.00  0.00     0.229 C 
HETATM   29  O2  UNL     1       9.150   7.616  51.196  1.00  0.00    -0.643 OA
HETATM   30  O3  UNL     1       8.134   6.625  52.970  1.00  0.00    -0.643 OA
ENDBRANCH  23  28
ENDBRANCH  20  21
ENDBRANCH  16  20
ENDBRANCH  15  16
BRANCH   1  31
HETATM   31  N5  UNL     1       4.105  10.389  44.212  1.00  0.00    -0.257 N 
HETATM   32  C1  UNL     1       3.486  10.647  42.962  1.00  0.00     0.196 C 
HETATM   33  N1  UNL     1       2.793  11.677  42.626  1.00  0.00    -0.370 N 
HETATM   34  N2  UNL     1       3.780   9.538  42.084  1.00  0.00    -0.271 N 
ATOM     35  H12 UNL     1       2.349  11.863  41.726  1.00  0.00     0.159 HD
ATOM     36  H11 UNL     1       2.586  12.460  43.245  1.00  0.00     0.159 HD
HETATM   37  N3  UNL     1       4.967   8.993  42.557  1.00  0.00    -0.083 NA
ATOM     38  H2  UNL     1       3.230   9.221  41.286  1.00  0.00     0.185 HD
HETATM   39  C2  UNL     1       5.258   9.555  43.839  1.00  0.00     0.407 C 
BRANCH  39  40
HETATM   40  N4  UNL     1       6.468  10.312  43.749  1.00  0.00    -0.042 N 
ATOM     41  H43 UNL     1       6.731  10.733  44.640  1.00  0.00     0.278 HD
ATOM     42  H42 UNL     1       7.290   9.720  43.624  1.00  0.00     0.278 HD
ATOM     43  H41 UNL     1       6.370  11.004  43.006  1.00  0.00     0.278 HD
ENDBRANCH  39  40
ENDBRANCH   1  31
TORSDOF 8
ENDMDL
MODEL 2
REMARK VINA RESULT: -9.836589090      3.355      8.327
REMARK  8 active torsions:
REMARK  status: ('A' for Active; 'I' for Inactive)
REMARK    1  A    between atoms: C2_8  and  N4_9 
REMARK    2  A    between atoms: N5_13  and  C3_14 
REMARK    3  A    between atoms: N10_28  and  C8_29 
REMARK    4  A    between atoms: C8_29  and  C9_30 
REMARK    5  A    between atoms: C8_29  and  C10_33 
REMARK    6  A    between atoms: C9_30  and  O1_31 
REMARK    7  A    between atoms: C10_33  and  N11_34 
REMARK    8  A    between atoms: C12_36  and  C13_37 
ROOT
HETATM    1  C3  UNL     1       4.595   8.953  51.014  1.00  0.00     0.159 A 
HETATM    2  N6  UNL     1       3.283   8.630  51.082  1.00  0.00    -0.174 N 
ATOM      3  H6  UNL     1       2.935   8.119  51.893  1.00  0.00     0.186 HD
HETATM    4  C4  UNL     1       2.417   8.976  50.084  1.00  0.00     0.679 A 
HETATM    5  N7  UNL     1       1.198   8.612  50.259  1.00  0.00    -0.234 N 
ATOM      6  H71 UNL     1       0.551   8.871  49.513  1.00  0.00     0.174 HD
ATOM      7  H72 UNL     1       0.897   8.101  51.088  1.00  0.00     0.174 HD
HETATM    8  N8  UNL     1       2.815   9.650  48.990  1.00  0.00    -0.174 N 
ATOM      9  H8  UNL     1       2.145   9.895  48.262  1.00  0.00     0.186 HD
HETATM   10  C5  UNL     1       4.104   9.995  48.871  1.00  0.00     0.155 A 
HETATM   11  C6  UNL     1       4.981   9.649  49.876  1.00  0.00     0.124 A 
HETATM   12  N9  UNL     1       6.182  10.104  49.509  1.00  0.00    -0.346 N 
ATOM     13  H9  UNL     1       7.051  10.011  50.035  1.00  0.00     0.167 HD
HETATM   14  C7  UNL     1       6.031  10.712  48.310  1.00  0.00     0.185 A 
HETATM   15  N10 UNL     1       4.765  10.649  47.916  1.00  0.00    -0.318 N 
ENDROOT
BRANCH  15  16
HETATM   16  C8  UNL     1       4.260  11.215  46.649  1.00  0.00     0.136 C 
BRANCH  16  17
HETATM   17  C9  UNL     1       2.980  11.945  46.897  1.00  0.00     0.191 C 
BRANCH  17  18
HETATM   18  O1  UNL     1       3.239  13.198  47.407  1.00  0.00    -0.399 OA
ATOM     19  H1  UNL     1       2.448  13.724  47.400  1.00  0.00     0.209 HD
ENDBRANCH  17  18
ENDBRANCH  16  17
BRANCH  16  20
HETATM   20  C10 UNL     1       4.083  10.062  45.730  1.00  0.00     0.177 C 
BRANCH  20  21
HETATM   21  N11 UNL     1       3.891  10.326  44.337  1.00  0.00    -0.285 N 
HETATM   22  C11 UNL     1       3.374  11.421  43.745  1.00  0.00     0.149 A 
HETATM   23  C12 UNL     1       3.356  11.285  42.377  1.00  0.00     0.143 A 
HETATM   24  N12 UNL     1       3.888  10.053  42.159  1.00  0.00    -0.279 N 
HETATM   25  N13 UNL     1       4.198   9.500  43.312  1.00  0.00    -0.240 N 
ATOM     26  H12 UNL     1       4.027   9.624  41.244  1.00  0.00     0.189 HD
ATOM     27  H13 UNL     1       4.613   8.574  43.418  1.00  0.00     0.208 HD
BRANCH  23  28
HETATM   28  C13 UNL     1       2.886  12.224  41.377  1.00  0.00     0.229 C 
HETATM   29  O2  UNL     1       2.225  11.821  40.405  1.00  0.00    -0.643 OA
HETATM   30  O3  UNL     1       3.179  13.559  41.515  1.00  0.00    -0.643 OA
ENDBRANCH  23  28
ENDBRANCH  20  21
ENDBRANCH  16  20
ENDBRANCH  15  16
BRANCH   1  31
HETATM   31  N5  UNL     1       5.534   8.605  52.019  1.00  0.00    -0.257 N 
HETATM   32  C1  UNL     1       6.411   9.462  52.730  1.00  0.00     0.196 C 
HETATM   33  N1  UNL     1       6.229  10.699  53.032  1.00  0.00    -0.370 N 
HETATM   34  N2  UNL     1       7.583   8.697  53.091  1.00  0.00    -0.271 N 
ATOM     35  H12 UNL     1       6.861  11.316  53.544  1.00  0.00     0.159 HD
ATOM     36  H11 UNL     1       5.403  11.239  52.777  1.00  0.00     0.159 HD
HETATM   37  N3  UNL     1       7.162   7.374  53.145  1.00  0.00    -0.083 NA
ATOM     38  H2  UNL     1       8.521   9.054  53.269  1.00  0.00     0.185 HD
HETATM   39  C2  UNL     1       5.857   7.279  52.569  1.00  0.00     0.407 C 
BRANCH  39  40
HETATM   40  N4  UNL     1       4.932   6.872  53.582  1.00  0.00    -0.042 N 
ATOM     41  H43 UNL     1       5.220   6.012  54.048  1.00  0.00     0.278 HD
ATOM     42  H42 UNL     1       4.950   7.488  54.395  1.00  0.00     0.278 HD
ATOM     43  H41 UNL     1       4.002   6.799  53.169  1.00  0.00     0.278 HD
ENDBRANCH  39  40
ENDBRANCH   1  31
TORSDOF 8
ENDMDL
MODEL 3
REMARK VINA RESULT: -9.802155944      1.319      1.570
REMARK  8 active torsions:
REMARK  status: ('A' for Active; 'I' for Inactive)
REMARK    1  A    between atoms: C2_8  and  N4_9 
REMARK    2  A    between atoms: N5_13  and  C3_14 
REMARK    3  A    between atoms: N10_28  and  C8_29 
REMARK    4  A    between atoms: C8_29  and  C9_30 
REMARK    5  A    between atoms: C8_29  and  C10_33 
REMARK    6  A    between atoms: C9_30  and  O1_31 
REMARK    7  A    between atoms: C10_33  and  N11_34 
REMARK    8  A    between atoms: C12_36  and  C13_37 
ROOT
HETATM    1  C3  UNL     1       3.678  10.864  45.430  1.00  0.00     0.159 A 
HETATM    2  N6  UNL     1       3.209  12.113  45.650  1.00  0.00    -0.174 N 
ATOM      3  H6  UNL     1       3.150  12.771  44.872  1.00  0.00     0.186 HD
HETATM    4  C4  UNL     1       2.813  12.510  46.895  1.00  0.00     0.679 A 
HETATM    5  N7  UNL     1       2.389  13.719  46.981  1.00  0.00    -0.234 N 
ATOM      6  H71 UNL     1       2.092  14.015  47.911  1.00  0.00     0.174 HD
ATOM      7  H72 UNL     1       2.349  14.341  46.174  1.00  0.00     0.174 HD
HETATM    8  N8  UNL     1       2.865  11.690  47.960  1.00  0.00    -0.174 N 
ATOM      9  H8  UNL     1       2.561  12.016  48.878  1.00  0.00     0.186 HD
HETATM   10  C5  UNL     1       3.322  10.442  47.799  1.00  0.00     0.155 A 
HETATM   11  C6  UNL     1       3.722  10.037  46.544  1.00  0.00     0.124 A 
HETATM   12  N9  UNL     1       4.130   8.770  46.662  1.00  0.00    -0.346 N 
ATOM     13  H9  UNL     1       4.489   8.177  45.914  1.00  0.00     0.167 HD
HETATM   14  C7  UNL     1       3.977   8.420  47.960  1.00  0.00     0.185 A 
HETATM   15  N10 UNL     1       3.484   9.436  48.658  1.00  0.00    -0.318 N 
ENDROOT
BRANCH  15  16
HETATM   16  C8  UNL     1       3.199   9.388  50.106  1.00  0.00     0.136 C 
BRANCH  16  17
HETATM   17  C9  UNL     1       4.140  10.293  50.836  1.00  0.00     0.191 C 
BRANCH  17  18
HETATM   18  O1  UNL     1       3.483  10.932  51.863  1.00  0.00    -0.399 OA
ATOM     19  H1  UNL     1       3.587  11.873  51.782  1.00  0.00     0.209 HD
ENDBRANCH  17  18
ENDBRANCH  16  17
BRANCH  16  20
HETATM   20  C10 UNL     1       3.360   7.968  50.506  1.00  0.00     0.177 C 
BRANCH  20  21
HETATM   21  N11 UNL     1       4.431   7.627  51.392  1.00  0.00    -0.285 N 
HETATM   22  C11 UNL     1       5.747   7.512  51.125  1.00  0.00     0.149 A 
HETATM   23  C12 UNL     1       6.454   7.161  52.251  1.00  0.00     0.143 A 
HETATM   24  N12 UNL     1       5.506   7.068  53.221  1.00  0.00    -0.279 N 
HETATM   25  N13 UNL     1       4.326   7.342  52.708  1.00  0.00    -0.240 N 
ATOM     26  H12 UNL     1       5.682   6.823  54.196  1.00  0.00     0.189 HD
ATOM     27  H13 UNL     1       3.451   7.339  53.233  1.00  0.00     0.208 HD
BRANCH  23  28
HETATM   28  C13 UNL     1       7.879   6.939  52.396  1.00  0.00     0.229 C 
HETATM   29  O2  UNL     1       8.301   6.120  53.229  1.00  0.00    -0.643 OA
HETATM   30  O3  UNL     1       8.755   7.644  51.606  1.00  0.00    -0.643 OA
ENDBRANCH  23  28
ENDBRANCH  20  21
ENDBRANCH  16  20
ENDBRANCH  15  16
BRANCH   1  31
HETATM   31  N5  UNL     1       4.113  10.410  44.157  1.00  0.00    -0.257 N 
HETATM   32  C1  UNL     1       3.533  10.674  42.890  1.00  0.00     0.196 C 
HETATM   33  N1  UNL     1       2.877  11.719  42.528  1.00  0.00    -0.370 N 
HETATM   34  N2  UNL     1       3.818   9.549  42.029  1.00  0.00    -0.271 N 
ATOM     35  H12 UNL     1       2.460  11.909  41.616  1.00  0.00     0.159 HD
ATOM     36  H11 UNL     1       2.675  12.513  43.135  1.00  0.00     0.159 HD
HETATM   37  N3  UNL     1       4.978   8.977  42.536  1.00  0.00    -0.083 NA
ATOM     38  H2  UNL     1       3.280   9.241  41.220  1.00  0.00     0.185 HD
HETATM   39  C2  UNL     1       5.252   9.543  43.820  1.00  0.00     0.407 C 
BRANCH  39  40
HETATM   40  N4  UNL     1       6.484  10.266  43.754  1.00  0.00    -0.042 N 
ATOM     41  H43 UNL     1       6.808  10.567  44.673  1.00  0.00     0.278 HD
ATOM     42  H42 UNL     1       7.275   9.668  43.514  1.00  0.00     0.278 HD
ATOM     43  H41 UNL     1       6.375  11.046  43.106  1.00  0.00     0.278 HD
ENDBRANCH  39  40
ENDBRANCH   1  31
TORSDOF 8
ENDMDL
MODEL 4
REMARK VINA RESULT: -9.782972221      2.466      3.301
REMARK  8 active torsions:
REMARK  status: ('A' for Active; 'I' for Inactive)
REMARK    1  A    between atoms: C2_8  and  N4_9 
REMARK    2  A    between atoms: N5_13  and  C3_14 
REMARK    3  A    between atoms: N10_28  and  C8_29 
REMARK    4  A    between atoms: C8_29  and  C9_30 
REMARK    5  A    between atoms: C8_29  and  C10_33 
REMARK    6  A    between atoms: C9_30  and  O1_31 
REMARK    7  A    between atoms: C10_33  and  N11_34 
REMARK    8  A    between atoms: C12_36  and  C13_37 
ROOT
HETATM    1  C3  UNL     1       4.497  11.150  46.826  1.00  0.00     0.159 A 
HETATM    2  N6  UNL     1       5.592  11.885  47.125  1.00  0.00    -0.174 N 
ATOM      3  H6  UNL     1       5.779  12.742  46.605  1.00  0.00     0.186 HD
HETATM    4  C4  UNL     1       6.454  11.499  48.113  1.00  0.00     0.679 A 
HETATM    5  N7  UNL     1       7.459  12.274  48.304  1.00  0.00    -0.234 N 
ATOM      6  H71 UNL     1       8.102  11.986  49.042  1.00  0.00     0.174 HD
ATOM      7  H72 UNL     1       7.603  13.123  47.757  1.00  0.00     0.174 HD
HETATM    8  N8  UNL     1       6.263  10.380  48.834  1.00  0.00    -0.174 N 
ATOM      9  H8  UNL     1       6.924  10.118  49.566  1.00  0.00     0.186 HD
HETATM   10  C5  UNL     1       5.194   9.614  48.579  1.00  0.00     0.155 A 
HETATM   11  C6  UNL     1       4.322  10.001  47.584  1.00  0.00     0.124 A 
HETATM   12  N9  UNL     1       3.361   9.074  47.536  1.00  0.00    -0.346 N 
ATOM     13  H9  UNL     1       2.560   9.064  46.904  1.00  0.00     0.167 HD
HETATM   14  C7  UNL     1       3.648   8.151  48.482  1.00  0.00     0.185 A 
HETATM   15  N10 UNL     1       4.765   8.476  49.122  1.00  0.00    -0.318 N 
ENDROOT
BRANCH  15  16
HETATM   16  C8  UNL     1       5.360   7.678  50.213  1.00  0.00     0.136 C 
BRANCH  16  17
HETATM   17  C9  UNL     1       5.054   6.229  50.003  1.00  0.00     0.191 C 
BRANCH  17  18
HETATM   18  O1  UNL     1       6.002   5.658  49.185  1.00  0.00    -0.399 OA
ATOM     19  H1  UNL     1       5.656   5.548  48.308  1.00  0.00     0.209 HD
ENDBRANCH  17  18
ENDBRANCH  16  17
BRANCH  16  20
HETATM   20  C10 UNL     1       4.769   8.202  51.469  1.00  0.00     0.177 C 
BRANCH  20  21
HETATM   21  N11 UNL     1       5.398   7.865  52.710  1.00  0.00    -0.285 N 
HETATM   22  C11 UNL     1       6.517   8.376  53.259  1.00  0.00     0.149 A 
HETATM   23  C12 UNL     1       6.796   7.780  54.466  1.00  0.00     0.143 A 
HETATM   24  N12 UNL     1       5.792   6.878  54.630  1.00  0.00    -0.279 N 
HETATM   25  N13 UNL     1       4.979   6.936  53.597  1.00  0.00    -0.240 N 
ATOM     26  H12 UNL     1       5.685   6.255  55.431  1.00  0.00     0.189 HD
ATOM     27  H13 UNL     1       4.147   6.357  53.482  1.00  0.00     0.208 HD
BRANCH  23  28
HETATM   28  C13 UNL     1       7.898   8.038  55.373  1.00  0.00     0.229 C 
HETATM   29  O2  UNL     1       9.040   7.637  55.095  1.00  0.00    -0.643 OA
HETATM   30  O3  UNL     1       7.665   8.726  56.539  1.00  0.00    -0.643 OA
ENDBRANCH  23  28
ENDBRANCH  20  21
ENDBRANCH  16  20
ENDBRANCH  15  16
BRANCH   1  31
HETATM   31  N5  UNL     1       3.581  11.504  45.801  1.00  0.00    -0.257 N 
HETATM   32  C1  UNL     1       2.613  12.540  45.814  1.00  0.00     0.196 C 
HETATM   33  N1  UNL     1       2.667  13.660  46.442  1.00  0.00    -0.370 N 
HETATM   34  N2  UNL     1       1.517  12.132  44.964  1.00  0.00    -0.271 N 
ATOM     35  H12 UNL     1       1.970  14.405  46.452  1.00  0.00     0.159 HD
ATOM     36  H11 UNL     1       3.440  13.947  47.042  1.00  0.00     0.159 HD
HETATM   37  N3  UNL     1       2.065  11.241  44.050  1.00  0.00    -0.083 NA
ATOM     38  H2  UNL     1       0.545  12.435  45.024  1.00  0.00     0.185 HD
HETATM   39  C2  UNL     1       3.382  10.887  44.480  1.00  0.00     0.407 C 
BRANCH  39  40
HETATM   40  N4  UNL     1       4.327  11.358  43.514  1.00  0.00    -0.042 N 
ATOM     41  H43 UNL     1       4.108  11.040  42.570  1.00  0.00     0.278 HD
ATOM     42  H42 UNL     1       4.246  12.362  43.348  1.00  0.00     0.278 HD
ATOM     43  H41 UNL     1       5.264  11.086  43.809  1.00  0.00     0.278 HD
ENDBRANCH  39  40
ENDBRANCH   1  31
TORSDOF 8
ENDMDL
MODEL 5
REMARK VINA RESULT: -9.667340718      2.468      3.403
REMARK  8 active torsions:
REMARK  status: ('A' for Active; 'I' for Inactive)
REMARK    1  A    between atoms: C2_8  and  N4_9 
REMARK    2  A    between atoms: N5_13  and  C3_14 
REMARK    3  A    between atoms: N10_28  and  C8_29 
REMARK    4  A    between atoms: C8_29  and  C9_30 
REMARK    5  A    between atoms: C8_29  and  C10_33 
REMARK    6  A    between atoms: C9_30  and  O1_31 
REMARK    7  A    between atoms: C10_33  and  N11_34 
REMARK    8  A    between atoms: C12_36  and  C13_37 
ROOT
HETATM    1  C3  UNL     1       4.624  11.251  46.810  1.00  0.00     0.159 A 
HETATM    2  N6  UNL     1       5.725  11.955  47.157  1.00  0.00    -0.174 N 
ATOM      3  H6  UNL     1       5.945  12.819  46.661  1.00  0.00     0.186 HD
HETATM    4  C4  UNL     1       6.548  11.529  48.161  1.00  0.00     0.679 A 
HETATM    5  N7  UNL     1       7.563  12.279  48.399  1.00  0.00    -0.234 N 
ATOM      6  H71 UNL     1       8.178  11.961  49.149  1.00  0.00     0.174 HD
ATOM      7  H72 UNL     1       7.742  13.135  47.874  1.00  0.00     0.174 HD
HETATM    8  N8  UNL     1       6.312  10.400  48.852  1.00  0.00    -0.174 N 
ATOM      9  H8  UNL     1       6.945  10.108  49.597  1.00  0.00     0.186 HD
HETATM   10  C5  UNL     1       5.235   9.663  48.549  1.00  0.00     0.155 A 
HETATM   11  C6  UNL     1       4.402  10.090  47.537  1.00  0.00     0.124 A 
HETATM   12  N9  UNL     1       3.423   9.185  47.441  1.00  0.00    -0.346 N 
ATOM     13  H9  UNL     1       2.642   9.206  46.786  1.00  0.00     0.167 HD
HETATM   14  C7  UNL     1       3.663   8.236  48.375  1.00  0.00     0.185 A 
HETATM   15  N10 UNL     1       4.767   8.523  49.054  1.00  0.00    -0.318 N 
ENDROOT
BRANCH  15  16
HETATM   16  C8  UNL     1       5.311   7.689  50.145  1.00  0.00     0.136 C 
BRANCH  16  17
HETATM   17  C9  UNL     1       4.950   6.257  49.913  1.00  0.00     0.191 C 
BRANCH  17  18
HETATM   18  O1  UNL     1       5.931   5.633  49.176  1.00  0.00    -0.399 OA
ATOM     19  H1  UNL     1       5.554   4.937  48.651  1.00  0.00     0.209 HD
ENDBRANCH  17  18
ENDBRANCH  16  17
BRANCH  16  20
HETATM   20  C10 UNL     1       4.723   8.223  51.398  1.00  0.00     0.177 C 
BRANCH  20  21
HETATM   21  N11 UNL     1       5.340   7.876  52.642  1.00  0.00    -0.285 N 
HETATM   22  C11 UNL     1       6.471   8.361  53.191  1.00  0.00     0.149 A 
HETATM   23  C12 UNL     1       6.732   7.764  54.402  1.00  0.00     0.143 A 
HETATM   24  N12 UNL     1       5.704   6.890  54.568  1.00  0.00    -0.279 N 
HETATM   25  N13 UNL     1       4.896   6.963  53.533  1.00  0.00    -0.240 N 
ATOM     26  H12 UNL     1       5.579   6.273  55.371  1.00  0.00     0.189 HD
ATOM     27  H13 UNL     1       4.049   6.406  53.418  1.00  0.00     0.208 HD
BRANCH  23  28
HETATM   28  C13 UNL     1       7.838   7.998  55.310  1.00  0.00     0.229 C 
HETATM   29  O2  UNL     1       8.979   7.603  55.017  1.00  0.00    -0.643 OA
HETATM   30  O3  UNL     1       7.611   8.656  56.494  1.00  0.00    -0.643 OA
ENDBRANCH  23  28
ENDBRANCH  20  21
ENDBRANCH  16  20
ENDBRANCH  15  16
BRANCH   1  31
HETATM   31  N5  UNL     1       3.746  11.646  45.766  1.00  0.00    -0.257 N 
HETATM   32  C1  UNL     1       3.612  11.076  44.475  1.00  0.00     0.196 C 
HETATM   33  N1  UNL     1       3.811   9.853  44.130  1.00  0.00    -0.370 N 
HETATM   34  N2  UNL     1       3.184  12.119  43.572  1.00  0.00    -0.271 N 
ATOM     35  H12 UNL     1       3.714   9.443  43.201  1.00  0.00     0.159 HD
ATOM     36  H11 UNL     1       4.113   9.116  44.767  1.00  0.00     0.159 HD
HETATM   37  N3  UNL     1       2.524  13.051  44.365  1.00  0.00    -0.083 NA
ATOM     38  H2  UNL     1       3.335  12.163  42.565  1.00  0.00     0.185 HD
HETATM   39  C2  UNL     1       2.772  12.748  45.740  1.00  0.00     0.407 C 
BRANCH  39  40
HETATM   40  N4  UNL     1       1.535  12.393  46.366  1.00  0.00    -0.042 N 
ATOM     41  H43 UNL     1       1.497  11.406  46.620  1.00  0.00     0.278 HD
ATOM     42  H42 UNL     1       1.448  12.785  47.304  1.00  0.00     0.278 HD
ATOM     43  H41 UNL     1       0.766  12.668  45.755  1.00  0.00     0.278 HD
ENDBRANCH  39  40
ENDBRANCH   1  31
TORSDOF 8
ENDMDL
