MODEL 1
REMARK VINA RESULT: -4.082058290      0.000      0.000
REMARK  1 active torsions:
REMARK  status: ('A' for Active; 'I' for Inactive)
REMARK    1  A    between atoms: N2_4  and  N3_6 
ROOT
HETATM    1  N3  UNL     1      34.676  20.813   8.771  1.00  0.00    -0.275 N 
ATOM      2  H3  UNL     1      35.031  19.867   8.637  1.00  0.00     0.189 HD
HETATM    3  C1  UNL     1      34.633  21.214   9.957  1.00  0.00     0.094 C 
HETATM    4  C2  UNL     1      34.970  20.675  11.288  1.00  0.00     0.097 C 
HETATM    5  C3  UNL     1      35.233  22.151  11.607  1.00  0.00     0.128 C 
HETATM    6  N4  UNL     1      34.226  22.413  10.588  1.00  0.00    -0.378 N 
ATOM      7  H4  UNL     1      33.533  23.139  10.409  1.00  0.00     0.160 HD
ENDROOT
BRANCH   1   8
HETATM    8  N2  UNL     1      34.309  21.478   7.632  1.00  0.00    -0.248 N 
HETATM    9  N1  UNL     1      35.063  21.694   6.638  1.00  0.00    -0.331 N 
ATOM     10  H12 UNL     1      36.017  21.338   6.707  1.00  0.00     0.178 HD
ATOM     11  H11 UNL     1      34.789  22.190   5.788  1.00  0.00     0.178 HD
ATOM     12  H2  UNL     1      33.352  21.828   7.580  1.00  0.00     0.207 HD
ENDBRANCH   1   8
TORSDOF 1
ENDMDL
MODEL 2
REMARK VINA RESULT: -3.984521892      1.370      1.668
REMARK  1 active torsions:
REMARK  status: ('A' for Active; 'I' for Inactive)
REMARK    1  A    between atoms: N2_4  and  N3_6 
ROOT
HETATM    1  N3  UNL     1      35.220  21.399   9.780  1.00  0.00    -0.275 N 
ATOM      2  H3  UNL     1      35.735  22.277   9.722  1.00  0.00     0.189 HD
HETATM    3  C1  UNL     1      34.974  20.988  10.937  1.00  0.00     0.094 C 
HETATM    4  C2  UNL     1      35.235  21.440  12.317  1.00  0.00     0.097 C 
HETATM    5  C3  UNL     1      33.927  20.694  12.603  1.00  0.00     0.128 C 
HETATM    6  N4  UNL     1      34.311  19.860  11.473  1.00  0.00    -0.378 N 
ATOM      7  H4  UNL     1      34.166  18.891  11.191  1.00  0.00     0.160 HD
ENDROOT
BRANCH   1   8
HETATM    8  N2  UNL     1      34.886  20.825   8.582  1.00  0.00    -0.248 N 
HETATM    9  N1  UNL     1      34.517  21.455   7.548  1.00  0.00    -0.331 N 
ATOM     10  H12 UNL     1      34.469  22.471   7.630  1.00  0.00     0.178 HD
ATOM     11  H11 UNL     1      34.269  21.028   6.655  1.00  0.00     0.178 HD
ATOM     12  H2  UNL     1      34.940  19.809   8.518  1.00  0.00     0.207 HD
ENDBRANCH   1   8
TORSDOF 1
ENDMDL
MODEL 3
REMARK VINA RESULT: -3.982757064      2.346      2.872
REMARK  1 active torsions:
REMARK  status: ('A' for Active; 'I' for Inactive)
REMARK    1  A    between atoms: N2_4  and  N3_6 
ROOT
HETATM    1  N3  UNL     1      34.035  23.132  11.193  1.00  0.00    -0.275 N 
ATOM      2  H3  UNL     1      34.141  23.869  11.890  1.00  0.00     0.189 HD
HETATM    3  C1  UNL     1      34.526  22.020  11.498  1.00  0.00     0.094 C 
HETATM    4  C2  UNL     1      35.255  21.444  12.644  1.00  0.00     0.097 C 
HETATM    5  C3  UNL     1      34.570  20.153  12.182  1.00  0.00     0.128 C 
HETATM    6  N4  UNL     1      34.610  20.761  10.860  1.00  0.00    -0.378 N 
ATOM      7  H4  UNL     1      34.672  20.427   9.899  1.00  0.00     0.160 HD
ENDROOT
BRANCH   1   8
HETATM    8  N2  UNL     1      33.374  23.487  10.048  1.00  0.00    -0.248 N 
HETATM    9  N1  UNL     1      33.104  24.674   9.699  1.00  0.00    -0.331 N 
ATOM     10  H12 UNL     1      33.409  25.413  10.333  1.00  0.00     0.178 HD
ATOM     11  H11 UNL     1      32.611  24.939   8.845  1.00  0.00     0.178 HD
ATOM     12  H2  UNL     1      33.076  22.736   9.426  1.00  0.00     0.207 HD
ENDBRANCH   1   8
TORSDOF 1
ENDMDL
MODEL 4
REMARK VINA RESULT: -3.969585604      2.377      2.763
REMARK  1 active torsions:
REMARK  status: ('A' for Active; 'I' for Inactive)
REMARK    1  A    between atoms: N2_4  and  N3_6 
ROOT
HETATM    1  N3  UNL     1      33.764  22.772  10.402  1.00  0.00    -0.275 N 
ATOM      2  H3  UNL     1      33.801  22.219   9.546  1.00  0.00     0.189 HD
HETATM    3  C1  UNL     1      34.104  22.176  11.449  1.00  0.00     0.094 C 
HETATM    4  C2  UNL     1      34.569  20.825  11.816  1.00  0.00     0.097 C 
HETATM    5  C3  UNL     1      35.299  21.587  12.927  1.00  0.00     0.128 C 
HETATM    6  N4  UNL     1      34.202  22.538  12.813  1.00  0.00    -0.378 N 
ATOM      7  H4  UNL     1      33.718  23.181  13.439  1.00  0.00     0.160 HD
ENDROOT
BRANCH   1   8
HETATM    8  N2  UNL     1      33.350  24.069  10.254  1.00  0.00    -0.248 N 
HETATM    9  N1  UNL     1      32.667  24.512   9.284  1.00  0.00    -0.331 N 
ATOM     10  H12 UNL     1      32.414  23.835   8.563  1.00  0.00     0.178 HD
ATOM     11  H11 UNL     1      32.358  25.478   9.174  1.00  0.00     0.178 HD
ATOM     12  H2  UNL     1      33.612  24.731  10.984  1.00  0.00     0.207 HD
ENDBRANCH   1   8
TORSDOF 1
ENDMDL
MODEL 5
REMARK VINA RESULT: -3.895734684      1.037      1.333
REMARK  1 active torsions:
REMARK  status: ('A' for Active; 'I' for Inactive)
REMARK    1  A    between atoms: N2_4  and  N3_6 
ROOT
HETATM    1  N3  UNL     1      34.913  20.489   9.965  1.00  0.00    -0.275 N 
ATOM      2  H3  UNL     1      34.708  19.492   9.904  1.00  0.00     0.189 HD
HETATM    3  C1  UNL     1      34.782  21.003  11.100  1.00  0.00     0.094 C 
HETATM    4  C2  UNL     1      34.393  20.548  12.448  1.00  0.00     0.097 C 
HETATM    5  C3  UNL     1      35.329  21.678  12.890  1.00  0.00     0.128 C 
HETATM    6  N4  UNL     1      34.952  22.303  11.630  1.00  0.00    -0.378 N 
ATOM      7  H4  UNL     1      34.854  23.256  11.282  1.00  0.00     0.160 HD
ENDROOT
BRANCH   1   8
HETATM    8  N2  UNL     1      35.297  21.091   8.796  1.00  0.00    -0.248 N 
HETATM    9  N1  UNL     1      34.529  21.351   7.823  1.00  0.00    -0.331 N 
ATOM     10  H12 UNL     1      33.550  21.084   7.935  1.00  0.00     0.178 HD
ATOM     11  H11 UNL     1      34.815  21.799   6.951  1.00  0.00     0.178 HD
ATOM     12  H2  UNL     1      36.279  21.350   8.701  1.00  0.00     0.207 HD
ENDBRANCH   1   8
TORSDOF 1
ENDMDL
