MODEL 1
REMARK VINA RESULT: -7.645814487      0.000      0.000
REMARK  7 active torsions:
REMARK  status: ('A' for Active; 'I' for Inactive)
REMARK       I    between atoms: N1_1  and  C1_4 
REMARK       I    between atoms: C1_4  and  N3_6 
REMARK    1  A    between atoms: N3_6  and  C2_8 
REMARK    2  A    between atoms: C3_13  and  N6_14 
REMARK    3  A    between atoms: N6_14  and  C4_16 
REMARK    4  A    between atoms: C4_16  and  C5_17 
REMARK    5  A    between atoms: C5_17  and  S1_18 
REMARK    6  A    between atoms: S1_18  and  N7_19 
REMARK       I    between atoms: N8_24  and  C6_25 
REMARK       I    between atoms: C6_25  and  N9_27 
REMARK    7  A    between atoms: N9_27  and  N10_29 
ROOT
HETATM    1  C2  UNL     1      64.273  38.457  38.504  1.00  0.00     0.725 A 
HETATM    2  N4  UNL     1      64.474  39.037  37.311  1.00  0.00    -0.116 N 
ATOM      3  H4  UNL     1      65.096  38.660  36.596  1.00  0.00     0.206 HD
HETATM    4  N5  UNL     1      63.788  40.137  37.168  1.00  0.00    -0.117 N 
ATOM      5  H5  UNL     1      63.772  40.754  36.357  1.00  0.00     0.206 HD
HETATM    6  C3  UNL     1      63.098  40.285  38.336  1.00  0.00     0.718 A 
HETATM    7  N8  UNL     1      63.384  39.265  39.161  1.00  0.00     0.080 N 
HETATM    8  C6  UNL     1      62.918  38.981  40.472  1.00  0.00     0.376 C 
HETATM    9  O3  UNL     1      63.336  37.931  41.078  1.00  0.00    -0.243 OA
HETATM   10  N9  UNL     1      62.016  39.774  41.176  1.00  0.00    -0.257 N 
ATOM     11  H9  UNL     1      61.646  40.624  40.750  1.00  0.00     0.191 HD
ENDROOT
BRANCH   6  12
HETATM   12  N6  UNL     1      62.303  41.271  38.563  1.00  0.00    -0.223 N 
ATOM     13  H6  UNL     1      61.645  41.212  39.341  1.00  0.00     0.177 HD
BRANCH  12  14
HETATM   14  C4  UNL     1      62.320  42.455  37.745  1.00  0.00     0.154 C 
BRANCH  14  15
HETATM   15  C5  UNL     1      61.009  42.680  37.030  1.00  0.00     0.183 C 
BRANCH  15  16
HETATM   16  S1  UNL     1      61.345  43.093  35.338  1.00  0.00     0.226 S 
HETATM   17  O1  UNL     1      62.628  43.894  35.274  1.00  0.00    -0.206 OA
HETATM   18  O2  UNL     1      60.234  43.957  34.834  1.00  0.00    -0.206 OA
BRANCH  16  19
HETATM   19  N7  UNL     1      61.508  41.659  34.399  1.00  0.00    -0.328 N 
ATOM     20  H72 UNL     1      60.878  40.860  34.460  1.00  0.00     0.168 HD
ATOM     21  H71 UNL     1      62.318  41.732  33.783  1.00  0.00     0.168 HD
ENDBRANCH  16  19
ENDBRANCH  15  16
ENDBRANCH  14  15
ENDBRANCH  12  14
ENDBRANCH   6  12
BRANCH   1  22
HETATM   22  N3  UNL     1      64.800  37.359  38.958  1.00  0.00    -0.161 N 
HETATM   23  C1  UNL     1      66.165  37.406  39.346  1.00  0.00     0.200 C 
HETATM   24  N1  UNL     1      66.424  37.207  40.604  1.00  0.00    -0.373 N 
HETATM   25  N2  UNL     1      67.237  37.650  38.468  1.00  0.00    -0.063 NA
ATOM     26  H12 UNL     1      67.405  37.241  40.883  1.00  0.00     0.158 HD
ATOM     27  H11 UNL     1      65.646  37.030  41.240  1.00  0.00     0.158 HD
ATOM     28  H3  UNL     1      64.256  36.499  39.034  1.00  0.00     0.187 HD
ENDBRANCH   1  22
BRANCH  10  29
HETATM   29  N10 UNL     1      61.608  39.401  42.495  1.00  0.00    -0.341 N 
ATOM     30 2H10 UNL     1      62.208  38.784  43.041  1.00  0.00     0.177 HD
ATOM     31 1H10 UNL     1      60.729  39.751  42.879  1.00  0.00     0.177 HD
ENDBRANCH  10  29
TORSDOF 7
ENDMDL
MODEL 2
REMARK VINA RESULT: -7.545196362      1.399      1.484
REMARK  7 active torsions:
REMARK  status: ('A' for Active; 'I' for Inactive)
REMARK       I    between atoms: N1_1  and  C1_4 
REMARK       I    between atoms: C1_4  and  N3_6 
REMARK    1  A    between atoms: N3_6  and  C2_8 
REMARK    2  A    between atoms: C3_13  and  N6_14 
REMARK    3  A    between atoms: N6_14  and  C4_16 
REMARK    4  A    between atoms: C4_16  and  C5_17 
REMARK    5  A    between atoms: C5_17  and  S1_18 
REMARK    6  A    between atoms: S1_18  and  N7_19 
REMARK       I    between atoms: N8_24  and  C6_25 
REMARK       I    between atoms: C6_25  and  N9_27 
REMARK    7  A    between atoms: N9_27  and  N10_29 
ROOT
HETATM    1  C2  UNL     1      64.215  38.529  38.491  1.00  0.00     0.725 A 
HETATM    2  N4  UNL     1      64.406  39.143  37.313  1.00  0.00    -0.116 N 
ATOM      3  H4  UNL     1      65.016  38.782  36.580  1.00  0.00     0.206 HD
HETATM    4  N5  UNL     1      63.727  40.251  37.211  1.00  0.00    -0.117 N 
ATOM      5  H5  UNL     1      63.706  40.892  36.418  1.00  0.00     0.206 HD
HETATM    6  C3  UNL     1      63.053  40.370  38.390  1.00  0.00     0.718 A 
HETATM    7  N8  UNL     1      63.340  39.325  39.182  1.00  0.00     0.080 N 
HETATM    8  C6  UNL     1      62.888  39.005  40.490  1.00  0.00     0.376 C 
HETATM    9  O3  UNL     1      63.305  37.936  41.060  1.00  0.00    -0.243 OA
HETATM   10  N9  UNL     1      62.001  39.785  41.227  1.00  0.00    -0.257 N 
ATOM     11  H9  UNL     1      61.632  40.649  40.831  1.00  0.00     0.191 HD
ENDROOT
BRANCH   6  12
HETATM   12  N6  UNL     1      62.267  41.356  38.656  1.00  0.00    -0.223 N 
ATOM     13  H6  UNL     1      61.940  41.488  39.613  1.00  0.00     0.177 HD
BRANCH  12  14
HETATM   14  C4  UNL     1      61.841  42.274  37.634  1.00  0.00     0.154 C 
BRANCH  14  15
HETATM   15  C5  UNL     1      62.111  43.714  38.005  1.00  0.00     0.183 C 
BRANCH  15  16
HETATM   16  S1  UNL     1      63.326  44.371  36.893  1.00  0.00     0.226 S 
HETATM   17  O1  UNL     1      64.703  44.137  37.475  1.00  0.00    -0.206 OA
HETATM   18  O2  UNL     1      63.115  45.847  36.783  1.00  0.00    -0.206 OA
BRANCH  16  19
HETATM   19  N7  UNL     1      63.205  43.598  35.359  1.00  0.00    -0.328 N 
ATOM     20  H72 UNL     1      62.877  42.642  35.224  1.00  0.00     0.168 HD
ATOM     21  H71 UNL     1      63.506  44.234  34.620  1.00  0.00     0.168 HD
ENDBRANCH  16  19
ENDBRANCH  15  16
ENDBRANCH  14  15
ENDBRANCH  12  14
ENDBRANCH   6  12
BRANCH   1  22
HETATM   22  N3  UNL     1      64.739  37.415  38.907  1.00  0.00    -0.161 N 
HETATM   23  C1  UNL     1      66.111  37.439  39.273  1.00  0.00     0.200 C 
HETATM   24  N1  UNL     1      66.388  37.204  40.521  1.00  0.00    -0.373 N 
HETATM   25  N2  UNL     1      67.171  37.698  38.385  1.00  0.00    -0.063 NA
ATOM     26  H12 UNL     1      67.373  37.222  40.784  1.00  0.00     0.158 HD
ATOM     27  H11 UNL     1      65.619  37.017  41.164  1.00  0.00     0.158 HD
ATOM     28  H3  UNL     1      64.188  36.559  38.967  1.00  0.00     0.187 HD
ENDBRANCH   1  22
BRANCH  10  29
HETATM   29  N10 UNL     1      61.606  39.376  42.541  1.00  0.00    -0.341 N 
ATOM     30 2H10 UNL     1      62.283  38.898  43.133  1.00  0.00     0.177 HD
ATOM     31 1H10 UNL     1      60.660  39.564  42.873  1.00  0.00     0.177 HD
ENDBRANCH  10  29
TORSDOF 7
ENDMDL
MODEL 3
REMARK VINA RESULT: -7.230542924      3.409      6.471
REMARK  7 active torsions:
REMARK  status: ('A' for Active; 'I' for Inactive)
REMARK       I    between atoms: N1_1  and  C1_4 
REMARK       I    between atoms: C1_4  and  N3_6 
REMARK    1  A    between atoms: N3_6  and  C2_8 
REMARK    2  A    between atoms: C3_13  and  N6_14 
REMARK    3  A    between atoms: N6_14  and  C4_16 
REMARK    4  A    between atoms: C4_16  and  C5_17 
REMARK    5  A    between atoms: C5_17  and  S1_18 
REMARK    6  A    between atoms: S1_18  and  N7_19 
REMARK       I    between atoms: N8_24  and  C6_25 
REMARK       I    between atoms: C6_25  and  N9_27 
REMARK    7  A    between atoms: N9_27  and  N10_29 
ROOT
HETATM    1  C2  UNL     1      63.171  40.267  38.113  1.00  0.00     0.725 A 
HETATM    2  N4  UNL     1      63.949  39.886  37.088  1.00  0.00    -0.116 N 
ATOM      3  H4  UNL     1      64.011  40.393  36.206  1.00  0.00     0.206 HD
HETATM    4  N5  UNL     1      64.615  38.795  37.345  1.00  0.00    -0.117 N 
ATOM      5  H5  UNL     1      65.268  38.309  36.731  1.00  0.00     0.206 HD
HETATM    6  C3  UNL     1      64.252  38.442  38.612  1.00  0.00     0.718 A 
HETATM    7  N8  UNL     1      63.371  39.333  39.094  1.00  0.00     0.080 N 
HETATM    8  C6  UNL     1      62.714  39.393  40.351  1.00  0.00     0.376 C 
HETATM    9  O3  UNL     1      61.899  40.353  40.594  1.00  0.00    -0.243 OA
HETATM   10  N9  UNL     1      62.887  38.466  41.375  1.00  0.00    -0.257 N 
ATOM     11  H9  UNL     1      63.522  37.678  41.246  1.00  0.00     0.191 HD
ENDROOT
BRANCH   6  12
HETATM   12  N6  UNL     1      64.715  37.401  39.213  1.00  0.00    -0.223 N 
ATOM     13  H6  UNL     1      64.214  36.516  39.133  1.00  0.00     0.177 HD
BRANCH  12  14
HETATM   14  C4  UNL     1      65.922  37.458  39.994  1.00  0.00     0.154 C 
BRANCH  14  15
HETATM   15  C5  UNL     1      67.164  37.325  39.144  1.00  0.00     0.183 C 
BRANCH  15  16
HETATM   16  S1  UNL     1      68.578  37.238  40.211  1.00  0.00     0.226 S 
HETATM   17  O1  UNL     1      69.013  38.644  40.566  1.00  0.00    -0.206 OA
HETATM   18  O2  UNL     1      69.694  36.584  39.461  1.00  0.00    -0.206 OA
BRANCH  16  19
HETATM   19  N7  UNL     1      68.186  36.372  41.646  1.00  0.00    -0.328 N 
ATOM     20  H72 UNL     1      67.295  35.901  41.805  1.00  0.00     0.168 HD
ATOM     21  H71 UNL     1      68.969  36.401  42.299  1.00  0.00     0.168 HD
ENDBRANCH  16  19
ENDBRANCH  15  16
ENDBRANCH  14  15
ENDBRANCH  12  14
ENDBRANCH   6  12
BRANCH   1  22
HETATM   22  N3  UNL     1      62.388  41.302  38.181  1.00  0.00    -0.161 N 
HETATM   23  C1  UNL     1      62.323  42.143  37.038  1.00  0.00     0.200 C 
HETATM   24  N1  UNL     1      61.179  42.212  36.426  1.00  0.00    -0.373 N 
HETATM   25  N2  UNL     1      63.401  42.894  36.536  1.00  0.00    -0.063 NA
ATOM     26  H12 UNL     1      61.132  42.816  35.605  1.00  0.00     0.158 HD
ATOM     27  H11 UNL     1      60.397  41.667  36.791  1.00  0.00     0.158 HD
ATOM     28  H3  UNL     1      61.843  41.502  39.019  1.00  0.00     0.187 HD
ENDBRANCH   1  22
BRANCH  10  29
HETATM   29  N10 UNL     1      62.177  38.615  42.608  1.00  0.00    -0.341 N 
ATOM     30 2H10 UNL     1      61.270  39.081  42.602  1.00  0.00     0.177 HD
ATOM     31 1H10 UNL     1      62.577  38.259  43.477  1.00  0.00     0.177 HD
ENDBRANCH  10  29
TORSDOF 7
ENDMDL
MODEL 4
REMARK VINA RESULT: -7.188602279      3.085      6.645
REMARK  7 active torsions:
REMARK  status: ('A' for Active; 'I' for Inactive)
REMARK       I    between atoms: N1_1  and  C1_4 
REMARK       I    between atoms: C1_4  and  N3_6 
REMARK    1  A    between atoms: N3_6  and  C2_8 
REMARK    2  A    between atoms: C3_13  and  N6_14 
REMARK    3  A    between atoms: N6_14  and  C4_16 
REMARK    4  A    between atoms: C4_16  and  C5_17 
REMARK    5  A    between atoms: C5_17  and  S1_18 
REMARK    6  A    between atoms: S1_18  and  N7_19 
REMARK       I    between atoms: N8_24  and  C6_25 
REMARK       I    between atoms: C6_25  and  N9_27 
REMARK    7  A    between atoms: N9_27  and  N10_29 
ROOT
HETATM    1  C2  UNL     1      62.492  43.227  36.673  1.00  0.00     0.725 A 
HETATM    2  N4  UNL     1      62.974  42.299  35.833  1.00  0.00    -0.116 N 
ATOM      3  H4  UNL     1      63.133  42.463  34.840  1.00  0.00     0.206 HD
HETATM    4  N5  UNL     1      63.216  41.164  36.428  1.00  0.00    -0.117 N 
ATOM      5  H5  UNL     1      63.584  40.311  36.007  1.00  0.00     0.206 HD
HETATM    6  C3  UNL     1      62.872  41.362  37.733  1.00  0.00     0.718 A 
HETATM    7  N8  UNL     1      62.429  42.618  37.898  1.00  0.00     0.080 N 
HETATM    8  C6  UNL     1      61.963  43.287  39.060  1.00  0.00     0.376 C 
HETATM    9  O3  UNL     1      61.583  44.509  38.978  1.00  0.00    -0.243 OA
HETATM   10  N9  UNL     1      61.881  42.706  40.323  1.00  0.00    -0.257 N 
ATOM     11  H9  UNL     1      62.168  41.736  40.457  1.00  0.00     0.191 HD
ENDROOT
BRANCH   6  12
HETATM   12  N6  UNL     1      62.977  40.448  38.635  1.00  0.00    -0.223 N 
ATOM     13  H6  UNL     1      62.515  40.581  39.535  1.00  0.00     0.177 HD
BRANCH  12  14
HETATM   14  C4  UNL     1      63.730  39.244  38.402  1.00  0.00     0.154 C 
BRANCH  14  15
HETATM   15  C5  UNL     1      65.157  39.356  38.885  1.00  0.00     0.183 C 
BRANCH  15  16
HETATM   16  S1  UNL     1      65.889  37.741  38.878  1.00  0.00     0.226 S 
HETATM   17  O1  UNL     1      65.533  37.033  40.167  1.00  0.00    -0.206 OA
HETATM   18  O2  UNL     1      67.376  37.898  38.832  1.00  0.00    -0.206 OA
BRANCH  16  19
HETATM   19  N7  UNL     1      65.307  36.832  37.536  1.00  0.00    -0.328 N 
ATOM     20  H72 UNL     1      65.864  36.608  36.712  1.00  0.00     0.168 HD
ATOM     21  H71 UNL     1      64.337  36.558  37.691  1.00  0.00     0.168 HD
ENDBRANCH  16  19
ENDBRANCH  15  16
ENDBRANCH  14  15
ENDBRANCH  12  14
ENDBRANCH   6  12
BRANCH   1  22
HETATM   22  N3  UNL     1      62.153  44.452  36.402  1.00  0.00    -0.161 N 
HETATM   23  C1  UNL     1      60.871  44.658  35.825  1.00  0.00     0.200 C 
HETATM   24  N1  UNL     1      60.013  45.332  36.530  1.00  0.00    -0.373 N 
HETATM   25  N2  UNL     1      60.479  44.186  34.559  1.00  0.00    -0.063 NA
ATOM     26  H12 UNL     1      59.092  45.480  36.116  1.00  0.00     0.158 HD
ATOM     27  H11 UNL     1      60.298  45.675  37.448  1.00  0.00     0.158 HD
ATOM     28  H3  UNL     1      62.780  45.233  36.595  1.00  0.00     0.187 HD
ENDBRANCH   1  22
BRANCH  10  29
HETATM   29  N10 UNL     1      61.396  43.466  41.434  1.00  0.00    -0.341 N 
ATOM     30 2H10 UNL     1      60.768  44.249  41.259  1.00  0.00     0.177 HD
ATOM     31 1H10 UNL     1      61.679  43.224  42.384  1.00  0.00     0.177 HD
ENDBRANCH  10  29
TORSDOF 7
ENDMDL
MODEL 5
REMARK VINA RESULT: -7.121599816      3.124      6.217
REMARK  7 active torsions:
REMARK  status: ('A' for Active; 'I' for Inactive)
REMARK       I    between atoms: N1_1  and  C1_4 
REMARK       I    between atoms: C1_4  and  N3_6 
REMARK    1  A    between atoms: N3_6  and  C2_8 
REMARK    2  A    between atoms: C3_13  and  N6_14 
REMARK    3  A    between atoms: N6_14  and  C4_16 
REMARK    4  A    between atoms: C4_16  and  C5_17 
REMARK    5  A    between atoms: C5_17  and  S1_18 
REMARK    6  A    between atoms: S1_18  and  N7_19 
REMARK       I    between atoms: N8_24  and  C6_25 
REMARK       I    between atoms: C6_25  and  N9_27 
REMARK    7  A    between atoms: N9_27  and  N10_29 
ROOT
HETATM    1  C2  UNL     1      62.750  42.290  36.475  1.00  0.00     0.725 A 
HETATM    2  N4  UNL     1      63.249  41.067  36.245  1.00  0.00    -0.116 N 
ATOM      3  H4  UNL     1      63.504  40.724  35.319  1.00  0.00     0.206 HD
HETATM    4  N5  UNL     1      63.373  40.364  37.336  1.00  0.00    -0.117 N 
ATOM      5  H5  UNL     1      63.727  39.411  37.422  1.00  0.00     0.206 HD
HETATM    6  C3  UNL     1      62.929  41.175  38.339  1.00  0.00     0.718 A 
HETATM    7  N8  UNL     1      62.546  42.356  37.828  1.00  0.00     0.080 N 
HETATM    8  C6  UNL     1      62.019  43.510  38.465  1.00  0.00     0.376 C 
HETATM    9  O3  UNL     1      61.718  44.540  37.762  1.00  0.00    -0.243 OA
HETATM   10  N9  UNL     1      61.795  43.619  39.835  1.00  0.00    -0.257 N 
ATOM     11  H9  UNL     1      62.013  42.835  40.450  1.00  0.00     0.191 HD
ENDROOT
BRANCH   6  12
HETATM   12  N6  UNL     1      62.902  40.816  39.575  1.00  0.00    -0.223 N 
ATOM     13  H6  UNL     1      63.108  41.505  40.298  1.00  0.00     0.177 HD
BRANCH  12  14
HETATM   14  C4  UNL     1      62.588  39.465  39.959  1.00  0.00     0.154 C 
BRANCH  14  15
HETATM   15  C5  UNL     1      62.189  39.359  41.412  1.00  0.00     0.183 C 
BRANCH  15  16
HETATM   16  S1  UNL     1      61.013  40.636  41.775  1.00  0.00     0.226 S 
HETATM   17  O1  UNL     1      60.138  40.859  40.559  1.00  0.00    -0.206 OA
HETATM   18  O2  UNL     1      61.761  41.902  42.045  1.00  0.00    -0.206 OA
BRANCH  16  19
HETATM   19  N7  UNL     1      60.036  40.179  43.117  1.00  0.00    -0.328 N 
ATOM     20  H72 UNL     1      59.599  39.263  43.221  1.00  0.00     0.168 HD
ATOM     21  H71 UNL     1      59.964  40.951  43.779  1.00  0.00     0.168 HD
ENDBRANCH  16  19
ENDBRANCH  15  16
ENDBRANCH  14  15
ENDBRANCH  12  14
ENDBRANCH   6  12
BRANCH   1  22
HETATM   22  N3  UNL     1      62.506  43.230  35.611  1.00  0.00    -0.161 N 
HETATM   23  C1  UNL     1      61.268  43.169  34.918  1.00  0.00     0.200 C 
HETATM   24  N1  UNL     1      60.427  44.137  35.136  1.00  0.00    -0.373 N 
HETATM   25  N2  UNL     1      60.900  42.146  34.027  1.00  0.00    -0.063 NA
ATOM     26  H12 UNL     1      59.537  44.093  34.639  1.00  0.00     0.158 HD
ATOM     27  H11 UNL     1      60.694  44.879  35.782  1.00  0.00     0.158 HD
ATOM     28  H3  UNL     1      63.175  43.980  35.437  1.00  0.00     0.187 HD
ENDBRANCH   1  22
BRANCH  10  29
HETATM   29  N10 UNL     1      61.260  44.828  40.382  1.00  0.00    -0.341 N 
ATOM     30 2H10 UNL     1      60.939  45.558  39.746  1.00  0.00     0.177 HD
ATOM     31 1H10 UNL     1      61.201  44.952  41.393  1.00  0.00     0.177 HD
ENDBRANCH  10  29
TORSDOF 7
ENDMDL
