MODEL 1
REMARK VINA RESULT: -7.315274900      0.000      0.000
REMARK  4 active torsions:
REMARK  status: ('A' for Active; 'I' for Inactive)
REMARK    1  A    between atoms: N1_1  and  C1_4 
REMARK    2  A    between atoms: N5_19  and  C7_20 
REMARK    3  A    between atoms: C7_20  and  C8_21 
REMARK       I    between atoms: C8_21  and  N6_23 
REMARK    4  A    between atoms: N6_23  and  N7_25 
ROOT
HETATM    1  C1  UNL     1       5.871  20.629  14.186  1.00  0.00     0.679 A 
HETATM    2  N2  UNL     1       6.927  20.101  13.574  1.00  0.00    -0.154 N 
ATOM      3  H2  UNL     1       7.481  20.674  12.938  1.00  0.00     0.187 HD
HETATM    4  C2  UNL     1       7.272  18.818  13.785  1.00  0.00     0.289 A 
HETATM    5  O1  UNL     1       8.274  18.377  13.180  1.00  0.00    -0.265 OA
HETATM    6  C3  UNL     1       6.573  18.009  14.620  1.00  0.00     0.141 A 
HETATM    7  C4  UNL     1       5.471  18.568  15.256  1.00  0.00     0.149 A 
HETATM    8  N3  UNL     1       5.151  19.856  15.024  1.00  0.00    -0.184 N 
ATOM      9  H3  UNL     1       4.340  20.258  15.494  1.00  0.00     0.184 HD
HETATM   10  C5  UNL     1       4.710  17.814  16.112  1.00  0.00     0.279 A 
HETATM   11  O2  UNL     1       3.722  18.342  16.671  1.00  0.00    -0.265 OA
HETATM   12  N4  UNL     1       5.088  16.542  16.288  1.00  0.00    -0.273 N 
ATOM     13  H4  UNL     1       4.544  15.952  16.917  1.00  0.00     0.173 HD
HETATM   14  C6  UNL     1       6.144  16.017  15.676  1.00  0.00     0.330 A 
HETATM   15  O3  UNL     1       6.454  14.811  15.881  1.00  0.00    -0.246 OA
HETATM   16  N5  UNL     1       6.944  16.733  14.805  1.00  0.00    -0.284 N 
ENDROOT
BRANCH  16  17
HETATM   17  C7  UNL     1       8.060  16.058  14.223  1.00  0.00     0.238 C 
BRANCH  17  18
HETATM   18  C8  UNL     1       9.240  16.213  15.112  1.00  0.00     0.254 C 
HETATM   19  O4  UNL     1       9.552  15.313  15.934  1.00  0.00    -0.270 OA
HETATM   20  N6  UNL     1      10.075  17.372  15.085  1.00  0.00    -0.275 N 
ATOM     21  H6  UNL     1       9.843  18.115  14.426  1.00  0.00     0.189 HD
BRANCH  20  22
HETATM   22  N7  UNL     1      11.172  17.543  15.895  1.00  0.00    -0.343 N 
ATOM     23  H72 UNL     1      11.553  16.709  16.342  1.00  0.00     0.176 HD
ATOM     24  H71 UNL     1      11.616  18.445  16.067  1.00  0.00     0.176 HD
ENDBRANCH  20  22
ENDBRANCH  17  18
ENDBRANCH  16  17
BRANCH   1  25
HETATM   25  N1  UNL     1       5.554  21.870  13.971  1.00  0.00    -0.234 N 
ATOM     26  H12 UNL     1       6.255  22.556  13.688  1.00  0.00     0.174 HD
ATOM     27  H11 UNL     1       4.586  22.172  14.082  1.00  0.00     0.174 HD
ENDBRANCH   1  25
TORSDOF 4
ENDMDL
MODEL 2
REMARK VINA RESULT: -7.232798805      1.796      4.216
REMARK  4 active torsions:
REMARK  status: ('A' for Active; 'I' for Inactive)
REMARK    1  A    between atoms: N1_1  and  C1_4 
REMARK    2  A    between atoms: N5_19  and  C7_20 
REMARK    3  A    between atoms: C7_20  and  C8_21 
REMARK       I    between atoms: C8_21  and  N6_23 
REMARK    4  A    between atoms: N6_23  and  N7_25 
ROOT
HETATM    1  C1  UNL     1       4.216  13.752  16.792  1.00  0.00     0.679 A 
HETATM    2  N2  UNL     1       5.388  13.225  16.447  1.00  0.00    -0.154 N 
ATOM      3  H2  UNL     1       5.586  12.249  16.665  1.00  0.00     0.187 HD
HETATM    4  C2  UNL     1       6.314  13.968  15.816  1.00  0.00     0.289 A 
HETATM    5  O1  UNL     1       7.398  13.418  15.519  1.00  0.00    -0.265 OA
HETATM    6  C3  UNL     1       6.105  15.271  15.501  1.00  0.00     0.141 A 
HETATM    7  C4  UNL     1       4.878  15.814  15.865  1.00  0.00     0.149 A 
HETATM    8  N3  UNL     1       3.971  15.044  16.497  1.00  0.00    -0.184 N 
ATOM      9  H3  UNL     1       3.074  15.451  16.760  1.00  0.00     0.184 HD
HETATM   10  C5  UNL     1       4.593  17.125  15.586  1.00  0.00     0.279 A 
HETATM   11  O2  UNL     1       3.481  17.589  15.925  1.00  0.00    -0.265 OA
HETATM   12  N4  UNL     1       5.545  17.827  14.960  1.00  0.00    -0.273 N 
ATOM     13  H4  UNL     1       5.366  18.806  14.738  1.00  0.00     0.173 HD
HETATM   14  C6  UNL     1       6.715  17.299  14.616  1.00  0.00     0.330 A 
HETATM   15  O3  UNL     1       7.576  18.009  14.027  1.00  0.00    -0.246 OA
HETATM   16  N5  UNL     1       7.054  15.983  14.873  1.00  0.00    -0.284 N 
ENDROOT
BRANCH  16  17
HETATM   17  C7  UNL     1       8.336  15.532  14.439  1.00  0.00     0.238 C 
BRANCH  17  18
HETATM   18  C8  UNL     1       9.374  16.050  15.367  1.00  0.00     0.254 C 
HETATM   19  O4  UNL     1       9.555  15.521  16.493  1.00  0.00    -0.270 OA
HETATM   20  N6  UNL     1      10.213  17.159  15.040  1.00  0.00    -0.275 N 
ATOM     21  H6  UNL     1      10.086  17.606  14.131  1.00  0.00     0.189 HD
BRANCH  20  22
HETATM   22  N7  UNL     1      11.180  17.660  15.877  1.00  0.00    -0.343 N 
ATOM     23  H72 UNL     1      11.443  17.085  16.678  1.00  0.00     0.176 HD
ATOM     24  H71 UNL     1      11.640  18.560  15.740  1.00  0.00     0.176 HD
ENDBRANCH  20  22
ENDBRANCH  17  18
ENDBRANCH  16  17
BRANCH   1  25
HETATM   25  N1  UNL     1       3.333  13.019  17.401  1.00  0.00    -0.234 N 
ATOM     26  H12 UNL     1       3.607  12.201  17.947  1.00  0.00     0.174 HD
ATOM     27  H11 UNL     1       2.344  13.259  17.338  1.00  0.00     0.174 HD
ENDBRANCH   1  25
TORSDOF 4
ENDMDL
MODEL 3
REMARK VINA RESULT: -7.175791883      2.204      2.810
REMARK  4 active torsions:
REMARK  status: ('A' for Active; 'I' for Inactive)
REMARK    1  A    between atoms: N1_1  and  C1_4 
REMARK    2  A    between atoms: N5_19  and  C7_20 
REMARK    3  A    between atoms: C7_20  and  C8_21 
REMARK       I    between atoms: C8_21  and  N6_23 
REMARK    4  A    between atoms: N6_23  and  N7_25 
ROOT
HETATM    1  C1  UNL     1       4.116  17.672  15.859  1.00  0.00     0.679 A 
HETATM    2  N2  UNL     1       5.217  17.934  15.159  1.00  0.00    -0.154 N 
ATOM      3  H2  UNL     1       5.369  18.872  14.789  1.00  0.00     0.187 HD
HETATM    4  C2  UNL     1       6.130  16.973  14.932  1.00  0.00     0.289 A 
HETATM    5  O1  UNL     1       7.144  17.278  14.266  1.00  0.00    -0.265 OA
HETATM    6  C3  UNL     1       5.980  15.708  15.399  1.00  0.00     0.141 A 
HETATM    7  C4  UNL     1       4.828  15.443  16.130  1.00  0.00     0.149 A 
HETATM    8  N3  UNL     1       3.932  16.426  16.339  1.00  0.00    -0.184 N 
ATOM      9  H3  UNL     1       3.089  16.223  16.876  1.00  0.00     0.184 HD
HETATM   10  C5  UNL     1       4.601  14.187  16.632  1.00  0.00     0.279 A 
HETATM   11  O2  UNL     1       3.555  13.975  17.285  1.00  0.00    -0.265 OA
HETATM   12  N4  UNL     1       5.535  13.262  16.379  1.00  0.00    -0.273 N 
ATOM     13  H4  UNL     1       5.397  12.317  16.737  1.00  0.00     0.173 HD
HETATM   14  C6  UNL     1       6.633  13.526  15.680  1.00  0.00     0.330 A 
HETATM   15  O3  UNL     1       7.480  12.613  15.472  1.00  0.00    -0.246 OA
HETATM   16  N5  UNL     1       6.911  14.773  15.152  1.00  0.00    -0.284 N 
ENDROOT
BRANCH  16  17
HETATM   17  C7  UNL     1       8.134  14.932  14.433  1.00  0.00     0.238 C 
BRANCH  17  18
HETATM   18  C8  UNL     1       9.127  15.609  15.306  1.00  0.00     0.254 C 
HETATM   19  O4  UNL     1       9.346  15.198  16.474  1.00  0.00    -0.270 OA
HETATM   20  N6  UNL     1       9.878  16.746  14.876  1.00  0.00    -0.275 N 
ATOM     21  H6  UNL     1       9.719  17.097  13.932  1.00  0.00     0.189 HD
BRANCH  20  22
HETATM   22  N7  UNL     1      10.803  17.392  15.661  1.00  0.00    -0.343 N 
ATOM     23  H72 UNL     1      11.763  17.048  15.626  1.00  0.00     0.176 HD
ATOM     24  H71 UNL     1      10.581  18.184  16.265  1.00  0.00     0.176 HD
ENDBRANCH  20  22
ENDBRANCH  17  18
ENDBRANCH  16  17
BRANCH   1  25
HETATM   25  N1  UNL     1       3.246  18.613  16.067  1.00  0.00    -0.234 N 
ATOM     26  H12 UNL     1       3.510  19.598  16.035  1.00  0.00     0.174 HD
ATOM     27  H11 UNL     1       2.275  18.371  16.267  1.00  0.00     0.174 HD
ENDBRANCH   1  25
TORSDOF 4
ENDMDL
MODEL 4
REMARK VINA RESULT: -7.083060586      3.126      5.316
REMARK  4 active torsions:
REMARK  status: ('A' for Active; 'I' for Inactive)
REMARK    1  A    between atoms: N1_1  and  C1_4 
REMARK    2  A    between atoms: N5_19  and  C7_20 
REMARK    3  A    between atoms: C7_20  and  C8_21 
REMARK       I    between atoms: C8_21  and  N6_23 
REMARK    4  A    between atoms: N6_23  and  N7_25 
ROOT
HETATM    1  C1  UNL     1       4.821  11.524  15.368  1.00  0.00     0.679 A 
HETATM    2  N2  UNL     1       6.070  11.704  15.789  1.00  0.00    -0.154 N 
ATOM      3  H2  UNL     1       6.608  10.907  16.129  1.00  0.00     0.187 HD
HETATM    4  C2  UNL     1       6.630  12.927  15.773  1.00  0.00     0.289 A 
HETATM    5  O1  UNL     1       7.806  13.034  16.184  1.00  0.00    -0.265 OA
HETATM    6  C3  UNL     1       5.962  14.023  15.332  1.00  0.00     0.141 A 
HETATM    7  C4  UNL     1       4.658  13.826  14.894  1.00  0.00     0.149 A 
HETATM    8  N3  UNL     1       4.125  12.589  14.923  1.00  0.00    -0.184 N 
ATOM      9  H3  UNL     1       3.167  12.454  14.599  1.00  0.00     0.184 HD
HETATM   10  C5  UNL     1       3.915  14.884  14.437  1.00  0.00     0.279 A 
HETATM   11  O2  UNL     1       2.743  14.680  14.049  1.00  0.00    -0.265 OA
HETATM   12  N4  UNL     1       4.511  16.083  14.443  1.00  0.00    -0.273 N 
ATOM     13  H4  UNL     1       3.987  16.892  14.111  1.00  0.00     0.173 HD
HETATM   14  C6  UNL     1       5.759  16.260  14.864  1.00  0.00     0.330 A 
HETATM   15  O3  UNL     1       6.270  17.414  14.846  1.00  0.00    -0.246 OA
HETATM   16  N5  UNL     1       6.551  15.228  15.333  1.00  0.00    -0.284 N 
ENDROOT
BRANCH  16  17
HETATM   17  C7  UNL     1       7.881  15.547  15.742  1.00  0.00     0.238 C 
BRANCH  17  18
HETATM   18  C8  UNL     1       8.706  15.826  14.538  1.00  0.00     0.254 C 
HETATM   19  O4  UNL     1       8.993  14.910  13.726  1.00  0.00    -0.270 OA
HETATM   20  N6  UNL     1       9.212  17.128  14.238  1.00  0.00    -0.275 N 
ATOM     21  H6  UNL     1       8.992  17.888  14.882  1.00  0.00     0.189 HD
BRANCH  20  22
HETATM   22  N7  UNL     1       9.976  17.416  13.133  1.00  0.00    -0.343 N 
ATOM     23  H72 UNL     1       9.541  17.282  12.220  1.00  0.00     0.176 HD
ATOM     24  H71 UNL     1      10.939  17.750  13.180  1.00  0.00     0.176 HD
ENDBRANCH  20  22
ENDBRANCH  17  18
ENDBRANCH  16  17
BRANCH   1  25
HETATM   25  N1  UNL     1       4.298  10.336  15.390  1.00  0.00    -0.234 N 
ATOM     26  H12 UNL     1       4.792   9.545  15.805  1.00  0.00     0.174 HD
ATOM     27  H11 UNL     1       3.373  10.181  14.988  1.00  0.00     0.174 HD
ENDBRANCH   1  25
TORSDOF 4
ENDMDL
MODEL 5
REMARK VINA RESULT: -6.745679211      2.504      4.633
REMARK  4 active torsions:
REMARK  status: ('A' for Active; 'I' for Inactive)
REMARK    1  A    between atoms: N1_1  and  C1_4 
REMARK    2  A    between atoms: N5_19  and  C7_20 
REMARK    3  A    between atoms: C7_20  and  C8_21 
REMARK       I    between atoms: C8_21  and  N6_23 
REMARK    4  A    between atoms: N6_23  and  N7_25 
ROOT
HETATM    1  C1  UNL     1       6.031  12.854  15.565  1.00  0.00     0.679 A 
HETATM    2  N2  UNL     1       7.323  13.154  15.665  1.00  0.00    -0.154 N 
ATOM      3  H2  UNL     1       7.992  12.428  15.921  1.00  0.00     0.187 HD
HETATM    4  C2  UNL     1       7.757  14.406  15.430  1.00  0.00     0.289 A 
HETATM    5  O1  UNL     1       8.983  14.628  15.541  1.00  0.00    -0.265 OA
HETATM    6  C3  UNL     1       6.913  15.411  15.085  1.00  0.00     0.141 A 
HETATM    7  C4  UNL     1       5.565  15.089  14.984  1.00  0.00     0.149 A 
HETATM    8  N3  UNL     1       5.162  13.826  15.225  1.00  0.00    -0.184 N 
ATOM      9  H3  UNL     1       4.171  13.599  15.148  1.00  0.00     0.184 HD
HETATM   10  C5  UNL     1       4.648  16.050  14.644  1.00  0.00     0.279 A 
HETATM   11  O2  UNL     1       3.440  15.734  14.560  1.00  0.00    -0.265 OA
HETATM   12  N4  UNL     1       5.124  17.282  14.424  1.00  0.00    -0.273 N 
ATOM     13  H4  UNL     1       4.469  18.021  14.170  1.00  0.00     0.173 HD
HETATM   14  C6  UNL     1       6.415  17.579  14.523  1.00  0.00     0.330 A 
HETATM   15  O3  UNL     1       6.807  18.759  14.303  1.00  0.00    -0.246 OA
HETATM   16  N5  UNL     1       7.380  16.649  14.861  1.00  0.00    -0.284 N 
ENDROOT
BRANCH  16  17
HETATM   17  C7  UNL     1       8.736  17.091  14.919  1.00  0.00     0.238 C 
BRANCH  17  18
HETATM   18  C8  UNL     1       9.268  17.209  13.536  1.00  0.00     0.254 C 
HETATM   19  O4  UNL     1       9.669  16.194  12.911  1.00  0.00    -0.270 OA
HETATM   20  N6  UNL     1       9.353  18.459  12.850  1.00  0.00    -0.275 N 
ATOM     21  H6  UNL     1       9.033  19.296  13.337  1.00  0.00     0.189 HD
BRANCH  20  22
HETATM   22  N7  UNL     1       9.840  18.598  11.573  1.00  0.00    -0.343 N 
ATOM     23  H72 UNL     1       9.955  17.745  11.024  1.00  0.00     0.176 HD
ATOM     24  H71 UNL     1      10.088  19.495  11.154  1.00  0.00     0.176 HD
ENDBRANCH  20  22
ENDBRANCH  17  18
ENDBRANCH  16  17
BRANCH   1  25
HETATM   25  N1  UNL     1       5.632  11.639  15.795  1.00  0.00    -0.234 N 
ATOM     26  H12 UNL     1       5.231  11.373  16.695  1.00  0.00     0.174 HD
ATOM     27  H11 UNL     1       5.717  10.931  15.065  1.00  0.00     0.174 HD
ENDBRANCH   1  25
TORSDOF 4
ENDMDL
