MODEL 1
REMARK VINA RESULT: -8.100399695      0.000      0.000
REMARK  3 active torsions:
REMARK  status: ('A' for Active; 'I' for Inactive)
REMARK    1  A    between atoms: C6_13  and  O2_14 
REMARK    2  A    between atoms: C8_18  and  O4_19 
REMARK    3  A    between atoms: O4_19  and  N3_20 
ROOT
HETATM    1  C1  UNL     1       1.019 -80.622-146.155  1.00  0.00     0.057 C 
HETATM    2  C2  UNL     1       2.422 -80.288-145.706  1.00  0.00     0.145 C 
HETATM    3  O1  UNL     1       2.861 -81.222-144.761  1.00  0.00    -0.314 OA
HETATM    4  C3  UNL     1       2.295 -81.086-143.476  1.00  0.00     0.159 C 
HETATM    5  N1  UNL     1       2.665 -81.929-142.580  1.00  0.00    -0.378 N 
ATOM      6  H11 UNL     1       2.256 -81.830-141.651  1.00  0.00     0.158 HD
ATOM      7  H12 UNL     1       3.339 -82.671-142.770  1.00  0.00     0.158 HD
HETATM    8  C4  UNL     1       1.325 -80.018-143.202  1.00  0.00     0.057 C 
HETATM    9  N2  UNL     1       0.556 -80.111-142.190  1.00  0.00    -0.399 N 
ATOM     10  H21 UNL     1      -0.118 -79.369-142.000  1.00  0.00     0.156 HD
ATOM     11  H22 UNL     1       0.592 -80.912-141.560  1.00  0.00     0.156 HD
HETATM   12  C5  UNL     1       1.272 -78.846-144.125  1.00  0.00     0.110 C 
HETATM   13  C6  UNL     1       2.468 -78.924-144.997  1.00  0.00     0.163 C 
HETATM   14  C7  UNL     1       2.503 -78.020-146.141  1.00  0.00     0.202 C 
HETATM   15  O3  UNL     1       1.899 -76.985-146.296  1.00  0.00    -0.291 OA
HETATM   16  C8  UNL     1       3.453 -78.649-147.096  1.00  0.00     0.279 C 
HETATM   17  C9  UNL     1       3.281 -80.104-146.869  1.00  0.00     0.058 C 
HETATM   18  N4  UNL     1       3.791 -81.032-147.564  1.00  0.00    -0.401 N 
ATOM     19  H41 UNL     1       4.392 -80.903-148.378  1.00  0.00     0.155 HD
ATOM     20  H42 UNL     1       3.672 -82.033-147.407  1.00  0.00     0.155 HD
ENDROOT
BRANCH  16  21
HETATM   21  O4  UNL     1       3.223 -78.265-148.428  1.00  0.00    -0.202 OA
BRANCH  21  22
HETATM   22  N3  UNL     1       3.609 -77.052-148.890  1.00  0.00     0.006 N 
HETATM   23  O5  UNL     1       4.789 -76.663-148.756  1.00  0.00    -0.511 OA
HETATM   24  O6  UNL     1       2.703 -76.242-149.508  1.00  0.00    -0.511 OA
ENDBRANCH  21  22
ENDBRANCH  16  21
BRANCH  13  25
HETATM   25  O2  UNL     1       3.604 -78.849-144.197  1.00  0.00    -0.378 OA
ATOM     26  H2  UNL     1       3.697 -77.968-143.854  1.00  0.00     0.211 HD
ENDBRANCH  13  25
TORSDOF 3
ENDMDL
MODEL 2
REMARK VINA RESULT: -7.859833584      2.044      5.858
REMARK  3 active torsions:
REMARK  status: ('A' for Active; 'I' for Inactive)
REMARK    1  A    between atoms: C6_13  and  O2_14 
REMARK    2  A    between atoms: C8_18  and  O4_19 
REMARK    3  A    between atoms: O4_19  and  N3_20 
ROOT
HETATM    1  C1  UNL     1       0.560 -79.604-146.081  1.00  0.00     0.057 C 
HETATM    2  C2  UNL     1       1.523 -78.914-145.144  1.00  0.00     0.145 C 
HETATM    3  O1  UNL     1       1.934 -77.692-145.689  1.00  0.00    -0.314 OA
HETATM    4  C3  UNL     1       2.858 -77.790-146.751  1.00  0.00     0.159 C 
HETATM    5  N1  UNL     1       3.255 -76.691-147.284  1.00  0.00    -0.378 N 
ATOM      6  H11 UNL     1       3.923 -76.762-148.052  1.00  0.00     0.158 HD
ATOM      7  H12 UNL     1       2.929 -75.778-146.968  1.00  0.00     0.158 HD
HETATM    8  C4  UNL     1       3.328 -79.104-147.207  1.00  0.00     0.057 C 
HETATM    9  N2  UNL     1       3.853 -79.219-148.362  1.00  0.00    -0.399 N 
ATOM     10  H21 UNL     1       4.180 -80.132-148.679  1.00  0.00     0.156 HD
ATOM     11  H22 UNL     1       3.956 -78.419-148.986  1.00  0.00     0.156 HD
HETATM   12  C5  UNL     1       3.177 -80.275-146.293  1.00  0.00     0.110 C 
HETATM   13  C6  UNL     1       2.807 -79.741-144.960  1.00  0.00     0.163 C 
HETATM   14  C7  UNL     1       2.367 -80.715-143.965  1.00  0.00     0.202 C 
HETATM   15  O3  UNL     1       2.590 -81.901-143.930  1.00  0.00    -0.291 OA
HETATM   16  C8  UNL     1       1.572 -79.927-142.986  1.00  0.00     0.279 C 
HETATM   17  C9  UNL     1       0.952 -78.857-143.805  1.00  0.00     0.058 C 
HETATM   18  N4  UNL     1       0.076 -78.032-143.411  1.00  0.00    -0.401 N 
ATOM     19  H41 UNL     1      -0.324 -77.991-142.473  1.00  0.00     0.155 HD
ATOM     20  H42 UNL     1      -0.351 -77.296-143.974  1.00  0.00     0.155 HD
ENDROOT
BRANCH  16  21
HETATM   21  O4  UNL     1       0.632 -80.708-142.292  1.00  0.00    -0.202 OA
BRANCH  21  22
HETATM   22  N3  UNL     1       0.903 -81.211-141.065  1.00  0.00     0.006 N 
HETATM   23  O5  UNL     1       0.255 -80.838-140.063  1.00  0.00    -0.511 OA
HETATM   24  O6  UNL     1       1.895 -82.135-140.914  1.00  0.00    -0.511 OA
ENDBRANCH  21  22
ENDBRANCH  16  21
BRANCH  13  25
HETATM   25  O2  UNL     1       3.835 -78.918-144.513  1.00  0.00    -0.378 OA
ATOM     26  H2  UNL     1       4.674 -79.298-144.746  1.00  0.00     0.211 HD
ENDBRANCH  13  25
TORSDOF 3
ENDMDL
MODEL 3
REMARK VINA RESULT: -7.460471199      1.323      1.684
REMARK  3 active torsions:
REMARK  status: ('A' for Active; 'I' for Inactive)
REMARK    1  A    between atoms: C6_13  and  O2_14 
REMARK    2  A    between atoms: C8_18  and  O4_19 
REMARK    3  A    between atoms: O4_19  and  N3_20 
ROOT
HETATM    1  C1  UNL     1       1.367 -81.370-145.275  1.00  0.00     0.057 C 
HETATM    2  C2  UNL     1       2.501 -80.573-144.673  1.00  0.00     0.145 C 
HETATM    3  O1  UNL     1       3.318 -81.406-143.901  1.00  0.00    -0.314 OA
HETATM    4  C3  UNL     1       2.777 -81.792-142.657  1.00  0.00     0.159 C 
HETATM    5  N1  UNL     1       3.493 -82.563-141.920  1.00  0.00    -0.378 N 
ATOM      6  H11 UNL     1       3.101 -82.841-141.020  1.00  0.00     0.158 HD
ATOM      7  H12 UNL     1       4.415 -82.892-142.205  1.00  0.00     0.158 HD
HETATM    8  C4  UNL     1       1.449 -81.317-142.247  1.00  0.00     0.057 C 
HETATM    9  N2  UNL     1       0.816 -81.934-141.329  1.00  0.00    -0.399 N 
ATOM     10  H21 UNL     1      -0.106 -81.605-141.044  1.00  0.00     0.156 HD
ATOM     11  H22 UNL     1       1.206 -82.755-140.867  1.00  0.00     0.156 HD
HETATM   12  C5  UNL     1       0.878 -80.115-142.923  1.00  0.00     0.110 C 
HETATM   13  C6  UNL     1       1.973 -79.497-143.709  1.00  0.00     0.163 C 
HETATM   14  C7  UNL     1       1.591 -78.448-144.649  1.00  0.00     0.202 C 
HETATM   15  O3  UNL     1       0.599 -77.760-144.639  1.00  0.00    -0.291 OA
HETATM   16  C8  UNL     1       2.699 -78.403-145.640  1.00  0.00     0.279 C 
HETATM   17  C9  UNL     1       3.172 -79.806-145.715  1.00  0.00     0.058 C 
HETATM   18  N4  UNL     1       4.015 -80.264-146.541  1.00  0.00    -0.401 N 
ATOM     19  H41 UNL     1       4.485 -79.728-147.271  1.00  0.00     0.155 HD
ATOM     20  H42 UNL     1       4.341 -81.230-146.592  1.00  0.00     0.155 HD
ENDROOT
BRANCH  16  21
HETATM   21  O4  UNL     1       2.297 -77.887-146.884  1.00  0.00    -0.202 OA
BRANCH  21  22
HETATM   22  N3  UNL     1       3.022 -76.939-147.522  1.00  0.00     0.006 N 
HETATM   23  O5  UNL     1       2.713 -76.563-148.673  1.00  0.00    -0.511 OA
HETATM   24  O6  UNL     1       4.105 -76.384-146.905  1.00  0.00    -0.511 OA
ENDBRANCH  21  22
ENDBRANCH  16  21
BRANCH  13  25
HETATM   25  O2  UNL     1       2.984 -79.115-142.833  1.00  0.00    -0.378 OA
ATOM     26  H2  UNL     1       3.694 -78.712-143.319  1.00  0.00     0.211 HD
ENDBRANCH  13  25
TORSDOF 3
ENDMDL
MODEL 4
REMARK VINA RESULT: -6.940942202      1.416      2.562
REMARK  3 active torsions:
REMARK  status: ('A' for Active; 'I' for Inactive)
REMARK    1  A    between atoms: C6_13  and  O2_14 
REMARK    2  A    between atoms: C8_18  and  O4_19 
REMARK    3  A    between atoms: O4_19  and  N3_20 
ROOT
HETATM    1  C1  UNL     1       3.999 -78.922-144.725  1.00  0.00     0.057 C 
HETATM    2  C2  UNL     1       2.586 -78.947-145.256  1.00  0.00     0.145 C 
HETATM    3  O1  UNL     1       1.682 -78.624-144.238  1.00  0.00    -0.314 OA
HETATM    4  C3  UNL     1       1.464 -79.641-143.285  1.00  0.00     0.159 C 
HETATM    5  N1  UNL     1       0.646 -79.382-142.328  1.00  0.00    -0.378 N 
ATOM      6  H11 UNL     1       0.489 -80.118-141.640  1.00  0.00     0.158 HD
ATOM      7  H12 UNL     1       0.166 -78.486-142.245  1.00  0.00     0.158 HD
HETATM    8  C4  UNL     1       2.155 -80.931-143.405  1.00  0.00     0.057 C 
HETATM    9  N2  UNL     1       2.250 -81.691-142.387  1.00  0.00    -0.399 N 
ATOM     10  H21 UNL     1       2.730 -82.587-142.470  1.00  0.00     0.156 HD
ATOM     11  H22 UNL     1       1.859 -81.429-141.483  1.00  0.00     0.156 HD
HETATM   12  C5  UNL     1       2.729 -81.315-144.729  1.00  0.00     0.110 C 
HETATM   13  C6  UNL     1       2.195 -80.358-145.728  1.00  0.00     0.163 C 
HETATM   14  C7  UNL     1       2.808 -80.386-147.052  1.00  0.00     0.202 C 
HETATM   15  O3  UNL     1       3.423 -81.286-147.572  1.00  0.00    -0.291 OA
HETATM   16  C8  UNL     1       2.513 -79.051-147.637  1.00  0.00     0.279 C 
HETATM   17  C9  UNL     1       2.500 -78.141-146.467  1.00  0.00     0.058 C 
HETATM   18  N4  UNL     1       2.426 -76.877-146.508  1.00  0.00    -0.401 N 
ATOM     19  H41 UNL     1       2.366 -76.312-147.355  1.00  0.00     0.155 HD
ATOM     20  H42 UNL     1       2.417 -76.251-145.702  1.00  0.00     0.155 HD
ENDROOT
BRANCH  16  21
HETATM   21  O4  UNL     1       3.438 -78.671-148.624  1.00  0.00    -0.202 OA
BRANCH  21  22
HETATM   22  N3  UNL     1       3.785 -77.375-148.804  1.00  0.00     0.006 N 
HETATM   23  O5  UNL     1       4.880 -76.942-148.387  1.00  0.00    -0.511 OA
HETATM   24  O6  UNL     1       2.931 -76.528-149.448  1.00  0.00    -0.511 OA
ENDBRANCH  21  22
ENDBRANCH  16  21
BRANCH  13  25
HETATM   25  O2  UNL     1       0.809 -80.476-145.757  1.00  0.00    -0.378 OA
ATOM     26  H2  UNL     1       0.500 -80.830-144.931  1.00  0.00     0.211 HD
ENDBRANCH  13  25
TORSDOF 3
ENDMDL
MODEL 5
REMARK VINA RESULT: -6.935169722      2.322      5.619
REMARK  3 active torsions:
REMARK  status: ('A' for Active; 'I' for Inactive)
REMARK    1  A    between atoms: C6_13  and  O2_14 
REMARK    2  A    between atoms: C8_18  and  O4_19 
REMARK    3  A    between atoms: O4_19  and  N3_20 
ROOT
HETATM    1  C1  UNL     1       3.712 -79.061-144.139  1.00  0.00     0.057 C 
HETATM    2  C2  UNL     1       2.658 -80.022-144.638  1.00  0.00     0.145 C 
HETATM    3  O1  UNL     1       3.167 -80.791-145.691  1.00  0.00    -0.314 OA
HETATM    4  C3  UNL     1       3.295 -80.113-146.922  1.00  0.00     0.159 C 
HETATM    5  N1  UNL     1       3.766 -80.781-147.913  1.00  0.00    -0.378 N 
ATOM      6  H11 UNL     1       3.858 -80.290-148.802  1.00  0.00     0.158 HD
ATOM      7  H12 UNL     1       4.040 -81.760-147.833  1.00  0.00     0.158 HD
HETATM    8  C4  UNL     1       2.900 -78.703-147.036  1.00  0.00     0.057 C 
HETATM    9  N2  UNL     1       3.342 -78.002-148.004  1.00  0.00    -0.399 N 
ATOM     10  H21 UNL     1       3.068 -77.023-148.084  1.00  0.00     0.156 HD
ATOM     11  H22 UNL     1       3.969 -78.393-148.707  1.00  0.00     0.156 HD
HETATM   12  C5  UNL     1       1.983 -78.130-146.007  1.00  0.00     0.110 C 
HETATM   13  C6  UNL     1       1.450 -79.268-145.219  1.00  0.00     0.163 C 
HETATM   14  C7  UNL     1       0.722 -78.933-143.999  1.00  0.00     0.202 C 
HETATM   15  O3  UNL     1       0.179 -77.893-143.714  1.00  0.00    -0.291 OA
HETATM   16  C8  UNL     1       0.789 -80.163-143.166  1.00  0.00     0.279 C 
HETATM   17  C9  UNL     1       2.098 -80.764-143.517  1.00  0.00     0.058 C 
HETATM   18  N4  UNL     1       2.640 -81.755-142.943  1.00  0.00    -0.401 N 
ATOM     19  H41 UNL     1       2.248 -82.275-142.158  1.00  0.00     0.155 HD
ATOM     20  H42 UNL     1       3.541 -82.168-143.185  1.00  0.00     0.155 HD
ENDROOT
BRANCH  16  21
HETATM   21  O4  UNL     1       0.651 -79.899-141.792  1.00  0.00    -0.202 OA
BRANCH  21  22
HETATM   22  N3  UNL     1       0.377 -80.888-140.908  1.00  0.00     0.006 N 
HETATM   23  O5  UNL     1      -0.784 -81.332-140.784  1.00  0.00    -0.511 OA
HETATM   24  O6  UNL     1       1.379 -81.408-140.142  1.00  0.00    -0.511 OA
ENDBRANCH  21  22
ENDBRANCH  16  21
BRANCH  13  25
HETATM   25  O2  UNL     1       0.742 -80.105-146.075  1.00  0.00    -0.378 OA
ATOM     26  H2  UNL     1       0.477 -79.622-146.849  1.00  0.00     0.211 HD
ENDBRANCH  13  25
TORSDOF 3
ENDMDL
