MODEL 1
REMARK VINA RESULT: -7.727479441      0.000      0.000
REMARK  5 active torsions:
REMARK  status: ('A' for Active; 'I' for Inactive)
REMARK    1  A    between atoms: O1_2  and  C2_3 
REMARK    2  A    between atoms: C6_8  and  O2_9 
REMARK    3  A    between atoms: C7_11  and  O3_12 
REMARK    4  A    between atoms: C8_14  and  N2_15 
REMARK    5  A    between atoms: C11_18  and  O4_19 
ROOT
HETATM    1  C2  UNL     1       2.805 -79.591-148.418  1.00  0.00     0.208 C 
HETATM    2  C3  UNL     1       3.229 -78.572-149.435  1.00  0.00     0.332 C 
HETATM    3  N1  UNL     1       3.569 -77.352-148.766  1.00  0.00     0.091 N 
HETATM    4  C4  UNL     1       3.213 -76.177-149.522  1.00  0.00     0.310 C 
HETATM    5  C5  UNL     1       2.862 -77.441-147.505  1.00  0.00     0.317 C 
HETATM    6  C6  UNL     1       3.049 -78.869-147.124  1.00  0.00     0.162 C 
HETATM    7  C7  UNL     1       2.239 -79.355-145.979  1.00  0.00     0.200 C 
HETATM    8  C8  UNL     1       0.959 -80.004-146.433  1.00  0.00     0.247 C 
HETATM    9  N4  UNL     1       0.603 -79.386-147.696  1.00  0.00    -0.115 NA
HETATM   10  N5  UNL     1       1.415 -79.894-148.678  1.00  0.00    -0.102 NA
ENDROOT
BRANCH   8  11
HETATM   11  N2  UNL     1      -0.137 -79.778-145.522  1.00  0.00    -0.277 N 
HETATM   12  C9  UNL     1      -1.384 -79.437-145.818  1.00  0.00     0.116 A 
HETATM   13  C10 UNL     1      -2.086 -79.330-144.625  1.00  0.00     0.076 A 
HETATM   14  C11 UNL     1      -1.176 -79.626-143.638  1.00  0.00     0.156 A 
HETATM   15  N3  UNL     1      -0.016 -79.890-144.213  1.00  0.00    -0.277 N 
ATOM     16  H3  UNL     1       0.841 -80.142-143.721  1.00  0.00     0.189 HD
BRANCH  14  17
HETATM   17  O4  UNL     1      -1.414 -79.649-142.272  1.00  0.00    -0.345 OA
ATOM     18  H4  UNL     1      -1.170 -80.338-141.665  1.00  0.00     0.219 HD
ENDBRANCH  14  17
ENDBRANCH   8  11
BRANCH   7  19
HETATM   19  O3  UNL     1       2.009 -78.288-145.113  1.00  0.00    -0.389 OA
ATOM     20  H3  UNL     1       1.241 -78.484-144.589  1.00  0.00     0.210 HD
ENDBRANCH   7  19
BRANCH   6  21
HETATM   21  O2  UNL     1       4.406 -79.042-146.800  1.00  0.00    -0.381 OA
ATOM     22  H2  UNL     1       4.446 -79.311-145.890  1.00  0.00     0.211 HD
ENDBRANCH   6  21
BRANCH   1  23
HETATM   23  O1  UNL     1       3.536 -80.753-148.470  1.00  0.00    -0.363 OA
HETATM   24  C1  UNL     1       2.783 -81.894-148.631  1.00  0.00     0.204 C 
ENDBRANCH   1  23
TORSDOF 5
ENDMDL
MODEL 2
REMARK VINA RESULT: -7.112095475      2.336      5.735
REMARK  5 active torsions:
REMARK  status: ('A' for Active; 'I' for Inactive)
REMARK    1  A    between atoms: O1_2  and  C2_3 
REMARK    2  A    between atoms: C6_8  and  O2_9 
REMARK    3  A    between atoms: C7_11  and  O3_12 
REMARK    4  A    between atoms: C8_14  and  N2_15 
REMARK    5  A    between atoms: C11_18  and  O4_19 
ROOT
HETATM    1  C2  UNL     1      -1.935 -78.913-145.347  1.00  0.00     0.208 C 
HETATM    2  C3  UNL     1      -3.040 -77.945-145.654  1.00  0.00     0.332 C 
HETATM    3  N1  UNL     1      -3.378 -78.041-147.042  1.00  0.00     0.091 N 
HETATM    4  C4  UNL     1      -3.750 -76.774-147.620  1.00  0.00     0.310 C 
HETATM    5  C5  UNL     1      -2.191 -78.606-147.649  1.00  0.00     0.317 C 
HETATM    6  C6  UNL     1      -1.772 -79.633-146.656  1.00  0.00     0.162 C 
HETATM    7  C7  UNL     1      -0.435 -80.244-146.865  1.00  0.00     0.200 C 
HETATM    8  C8  UNL     1       0.634 -79.540-146.073  1.00  0.00     0.247 C 
HETATM    9  N4  UNL     1       0.196 -78.167-145.909  1.00  0.00    -0.115 NA
HETATM   10  N5  UNL     1      -0.785 -78.131-144.950  1.00  0.00    -0.102 NA
ENDROOT
BRANCH   8  11
HETATM   11  N2  UNL     1       1.905 -79.504-146.755  1.00  0.00    -0.277 N 
HETATM   12  C9  UNL     1       2.807 -80.472-146.847  1.00  0.00     0.116 A 
HETATM   13  C10 UNL     1       3.870 -79.988-147.597  1.00  0.00     0.076 A 
HETATM   14  C11 UNL     1       3.527 -78.697-147.925  1.00  0.00     0.156 A 
HETATM   15  N3  UNL     1       2.341 -78.441-147.403  1.00  0.00    -0.277 N 
ATOM     16  H3  UNL     1       1.840 -77.557-147.488  1.00  0.00     0.189 HD
BRANCH  14  17
HETATM   17  O4  UNL     1       4.281 -77.805-148.673  1.00  0.00    -0.345 OA
ATOM     18  H4  UNL     1       4.354 -77.778-149.620  1.00  0.00     0.219 HD
ENDBRANCH  14  17
ENDBRANCH   8  11
BRANCH   7  19
HETATM   19  O3  UNL     1      -0.159 -80.249-148.231  1.00  0.00    -0.389 OA
ATOM     20  H3  UNL     1       0.722 -80.582-148.361  1.00  0.00     0.210 HD
ENDBRANCH   7  19
BRANCH   6  21
HETATM   21  O2  UNL     1      -2.729 -80.662-146.686  1.00  0.00    -0.381 OA
ATOM     22  H2  UNL     1      -3.475 -80.367-146.178  1.00  0.00     0.211 HD
ENDBRANCH   6  21
BRANCH   1  23
HETATM   23  O1  UNL     1      -2.246 -79.798-144.343  1.00  0.00    -0.363 OA
HETATM   24  C1  UNL     1      -1.407 -79.740-143.253  1.00  0.00     0.204 C 
ENDBRANCH   1  23
TORSDOF 5
ENDMDL
MODEL 3
REMARK VINA RESULT: -7.108805155      1.828      5.872
REMARK  5 active torsions:
REMARK  status: ('A' for Active; 'I' for Inactive)
REMARK    1  A    between atoms: O1_2  and  C2_3 
REMARK    2  A    between atoms: C6_8  and  O2_9 
REMARK    3  A    between atoms: C7_11  and  O3_12 
REMARK    4  A    between atoms: C8_14  and  N2_15 
REMARK    5  A    between atoms: C11_18  and  O4_19 
ROOT
HETATM    1  C2  UNL     1      -1.548 -79.064-145.101  1.00  0.00     0.208 C 
HETATM    2  C3  UNL     1      -2.043 -79.767-143.871  1.00  0.00     0.332 C 
HETATM    3  N1  UNL     1      -0.982 -79.846-142.913  1.00  0.00     0.091 N 
HETATM    4  C4  UNL     1      -1.007 -81.065-142.144  1.00  0.00     0.310 C 
HETATM    5  C5  UNL     1       0.217 -79.716-143.715  1.00  0.00     0.317 C 
HETATM    6  C6  UNL     1      -0.158 -78.660-144.697  1.00  0.00     0.162 C 
HETATM    7  C7  UNL     1       0.781 -78.451-145.828  1.00  0.00     0.200 C 
HETATM    8  C8  UNL     1       0.378 -79.241-147.045  1.00  0.00     0.247 C 
HETATM    9  N4  UNL     1      -0.339 -80.407-146.567  1.00  0.00    -0.115 NA
HETATM   10  N5  UNL     1      -1.599 -80.022-146.184  1.00  0.00    -0.102 NA
ENDROOT
BRANCH   8  11
HETATM   11  N2  UNL     1       1.511 -79.716-147.803  1.00  0.00    -0.277 N 
HETATM   12  C9  UNL     1       2.032 -80.935-147.809  1.00  0.00     0.116 A 
HETATM   13  C10 UNL     1       3.108 -80.929-148.687  1.00  0.00     0.076 A 
HETATM   14  C11 UNL     1       3.171 -79.646-149.178  1.00  0.00     0.156 A 
HETATM   15  N3  UNL     1       2.197 -78.945-148.625  1.00  0.00    -0.277 N 
ATOM     16  H3  UNL     1       2.005 -77.960-148.807  1.00  0.00     0.189 HD
BRANCH  14  17
HETATM   17  O4  UNL     1       4.090 -79.154-150.093  1.00  0.00    -0.345 OA
ATOM     18  H4  UNL     1       3.899 -78.638-150.867  1.00  0.00     0.219 HD
ENDBRANCH  14  17
ENDBRANCH   8  11
BRANCH   7  19
HETATM   19  O3  UNL     1       2.069 -78.766-145.399  1.00  0.00    -0.389 OA
ATOM     20  H3  UNL     1       2.691 -78.275-145.924  1.00  0.00     0.210 HD
ENDBRANCH   7  19
BRANCH   6  21
HETATM   21  O2  UNL     1      -0.265 -77.450-143.991  1.00  0.00    -0.381 OA
ATOM     22  H2  UNL     1       0.486 -76.919-144.229  1.00  0.00     0.211 HD
ENDBRANCH   6  21
BRANCH   1  23
HETATM   23  O1  UNL     1      -2.293 -77.961-145.440  1.00  0.00    -0.363 OA
HETATM   24  C1  UNL     1      -3.202 -78.176-146.451  1.00  0.00     0.204 C 
ENDBRANCH   1  23
TORSDOF 5
ENDMDL
MODEL 4
REMARK VINA RESULT: -6.872275190      0.782      1.055
REMARK  5 active torsions:
REMARK  status: ('A' for Active; 'I' for Inactive)
REMARK    1  A    between atoms: O1_2  and  C2_3 
REMARK    2  A    between atoms: C6_8  and  O2_9 
REMARK    3  A    between atoms: C7_11  and  O3_12 
REMARK    4  A    between atoms: C8_14  and  N2_15 
REMARK    5  A    between atoms: C11_18  and  O4_19 
ROOT
HETATM    1  C2  UNL     1       2.826 -79.703-148.434  1.00  0.00     0.208 C 
HETATM    2  C3  UNL     1       3.205 -78.653-149.437  1.00  0.00     0.332 C 
HETATM    3  N1  UNL     1       3.674 -77.489-148.747  1.00  0.00     0.091 N 
HETATM    4  C4  UNL     1       3.312 -76.260-149.407  1.00  0.00     0.310 C 
HETATM    5  C5  UNL     1       3.088 -77.610-147.428  1.00  0.00     0.317 C 
HETATM    6  C6  UNL     1       3.233 -79.064-147.136  1.00  0.00     0.162 C 
HETATM    7  C7  UNL     1       2.512 -79.570-145.942  1.00  0.00     0.200 C 
HETATM    8  C8  UNL     1       1.160 -80.129-146.298  1.00  0.00     0.247 C 
HETATM    9  N4  UNL     1       0.718 -79.427-147.487  1.00  0.00    -0.115 NA
HETATM   10  N5  UNL     1       1.402 -79.922-148.569  1.00  0.00    -0.102 NA
ENDROOT
BRANCH   8  11
HETATM   11  N2  UNL     1       0.171 -79.897-145.273  1.00  0.00    -0.277 N 
HETATM   12  C9  UNL     1       0.295 -80.080-143.965  1.00  0.00     0.116 A 
HETATM   13  C10 UNL     1      -0.911 -79.727-143.374  1.00  0.00     0.076 A 
HETATM   14  C11 UNL     1      -1.725 -79.335-144.410  1.00  0.00     0.156 A 
HETATM   15  N3  UNL     1      -1.043 -79.450-145.536  1.00  0.00    -0.277 N 
ATOM     16  H3  UNL     1      -1.399 -79.228-146.465  1.00  0.00     0.189 HD
BRANCH  14  17
HETATM   17  O4  UNL     1      -3.036 -78.894-144.312  1.00  0.00    -0.345 OA
ATOM     18  H4  UNL     1      -3.334 -77.992-144.334  1.00  0.00     0.219 HD
ENDBRANCH  14  17
ENDBRANCH   8  11
BRANCH   7  19
HETATM   19  O3  UNL     1       2.425 -78.540-145.007  1.00  0.00    -0.389 OA
ATOM     20  H3  UNL     1       2.906 -78.797-144.228  1.00  0.00     0.210 HD
ENDBRANCH   7  19
BRANCH   6  21
HETATM   21  O2  UNL     1       4.603 -79.321-146.958  1.00  0.00    -0.381 OA
ATOM     22  H2  UNL     1       4.952 -78.623-146.416  1.00  0.00     0.211 HD
ENDBRANCH   6  21
BRANCH   1  23
HETATM   23  O1  UNL     1       3.484 -80.895-148.613  1.00  0.00    -0.363 OA
HETATM   24  C1  UNL     1       2.662 -82.000-148.647  1.00  0.00     0.204 C 
ENDBRANCH   1  23
TORSDOF 5
ENDMDL
MODEL 5
REMARK VINA RESULT: -6.541849264      8.049     11.876
REMARK  5 active torsions:
REMARK  status: ('A' for Active; 'I' for Inactive)
REMARK    1  A    between atoms: O1_2  and  C2_3 
REMARK    2  A    between atoms: C6_8  and  O2_9 
REMARK    3  A    between atoms: C7_11  and  O3_12 
REMARK    4  A    between atoms: C8_14  and  N2_15 
REMARK    5  A    between atoms: C11_18  and  O4_19 
ROOT
HETATM    1  C2  UNL     1      -6.335 -86.297-140.925  1.00  0.00     0.208 C 
HETATM    2  C3  UNL     1      -6.690 -87.674-140.448  1.00  0.00     0.332 C 
HETATM    3  N1  UNL     1      -6.219 -87.845-139.107  1.00  0.00     0.091 N 
HETATM    4  C4  UNL     1      -5.764 -89.186-138.835  1.00  0.00     0.310 C 
HETATM    5  C5  UNL     1      -5.164 -86.861-138.984  1.00  0.00     0.317 C 
HETATM    6  C6  UNL     1      -5.730 -85.681-139.695  1.00  0.00     0.162 C 
HETATM    7  C7  UNL     1      -4.794 -84.559-139.959  1.00  0.00     0.200 C 
HETATM    8  C8  UNL     1      -4.177 -84.654-141.328  1.00  0.00     0.247 C 
HETATM    9  N4  UNL     1      -4.145 -86.062-141.675  1.00  0.00    -0.115 NA
HETATM   10  N5  UNL     1      -5.411 -86.456-142.027  1.00  0.00    -0.102 NA
ENDROOT
BRANCH   8  11
HETATM   11  N2  UNL     1      -2.816 -84.175-141.363  1.00  0.00    -0.277 N 
HETATM   12  C9  UNL     1      -2.394 -82.918-141.335  1.00  0.00     0.116 A 
HETATM   13  C10 UNL     1      -1.007 -82.937-141.388  1.00  0.00     0.076 A 
HETATM   14  C11 UNL     1      -0.662 -84.267-141.449  1.00  0.00     0.156 A 
HETATM   15  N3  UNL     1      -1.773 -84.981-141.431  1.00  0.00    -0.277 N 
ATOM     16  H3  UNL     1      -1.818 -86.000-141.465  1.00  0.00     0.189 HD
BRANCH  14  17
HETATM   17  O4  UNL     1       0.622 -84.787-141.516  1.00  0.00    -0.345 OA
ATOM     18  H4  UNL     1       1.120 -85.162-140.800  1.00  0.00     0.219 HD
ENDBRANCH  14  17
ENDBRANCH   8  11
BRANCH   7  19
HETATM   19  O3  UNL     1      -3.833 -84.537-138.949  1.00  0.00    -0.389 OA
ATOM     20  H3  UNL     1      -4.277 -84.497-138.110  1.00  0.00     0.210 HD
ENDBRANCH   7  19
BRANCH   6  21
HETATM   21  O2  UNL     1      -6.790 -85.188-138.913  1.00  0.00    -0.381 OA
ATOM     22  H2  UNL     1      -6.477 -85.139-138.017  1.00  0.00     0.211 HD
ENDBRANCH   6  21
BRANCH   1  23
HETATM   23  O1  UNL     1      -7.419 -85.567-141.349  1.00  0.00    -0.363 OA
HETATM   24  C1  UNL     1      -7.593 -85.545-142.714  1.00  0.00     0.204 C 
ENDBRANCH   1  23
TORSDOF 5
ENDMDL
