MODEL 1
REMARK VINA RESULT: -5.606480503      0.000      0.000
REMARK  2 active torsions:
REMARK  status: ('A' for Active; 'I' for Inactive)
REMARK    1  A    between atoms: N5_10  and  C2_12 
REMARK    2  A    between atoms: N6_13  and  O1_15 
ROOT
HETATM    1  N1  UNL     1       0.341   7.030  13.639  1.00  0.00    -0.377 N 
ATOM      2  H11 UNL     1      -0.275   6.704  14.384  1.00  0.00     0.158 HD
ATOM      3  H12 UNL     1       1.241   6.604  13.858  1.00  0.00     0.158 HD
HETATM    4  C1  UNL     1       0.172   7.780  12.629  1.00  0.00     0.178 A 
HETATM    5  N2  UNL     1       1.016   8.228  11.606  1.00  0.00    -0.262 N 
ATOM      6  H2  UNL     1       2.000   7.963  11.575  1.00  0.00     0.190 HD
HETATM    7  N3  UNL     1       0.466   9.036  10.650  1.00  0.00    -0.213 N 
ATOM      8  H3  UNL     1       1.021   9.401   9.877  1.00  0.00     0.211 HD
HETATM    9  N4  UNL     1      -0.856   9.332  10.780  1.00  0.00    -0.144 N 
HETATM   10  N5  UNL     1      -1.578  10.031  10.033  1.00  0.00    -0.266 N 
ATOM     11  H5  UNL     1      -2.557  10.136  10.300  1.00  0.00     0.190 HD
HETATM   12  S1  UNL     1      -1.427   8.537  12.240  1.00  0.00     0.069 SA
ENDROOT
BRANCH  10  13
HETATM   13  C2  UNL     1      -1.162  10.681   8.860  1.00  0.00     0.223 C 
HETATM   14  N6  UNL     1      -1.135  10.087   7.715  1.00  0.00    -0.263 N 
ATOM     15  H6  UNL     1      -1.425   9.111   7.655  1.00  0.00     0.195 HD
BRANCH  14  16
HETATM   16  O1  UNL     1      -0.726  10.736   6.576  1.00  0.00    -0.289 OA
ATOM     17  H1  UNL     1      -0.093  10.350   5.982  1.00  0.00     0.244 HD
ENDBRANCH  14  16
ENDBRANCH  10  13
TORSDOF 2
ENDMDL
MODEL 2
REMARK VINA RESULT: -5.546765641      1.249      1.542
REMARK  2 active torsions:
REMARK  status: ('A' for Active; 'I' for Inactive)
REMARK    1  A    between atoms: N5_10  and  C2_12 
REMARK    2  A    between atoms: N6_13  and  O1_15 
ROOT
HETATM    1  N1  UNL     1      -0.091   7.309  14.265  1.00  0.00    -0.377 N 
ATOM      2  H11 UNL     1       0.388   6.453  14.545  1.00  0.00     0.158 HD
ATOM      3  H12 UNL     1      -0.549   7.627  15.119  1.00  0.00     0.158 HD
HETATM    4  C1  UNL     1      -0.184   7.941  13.168  1.00  0.00     0.178 A 
HETATM    5  N2  UNL     1      -0.841   9.116  12.783  1.00  0.00    -0.262 N 
ATOM      6  H2  UNL     1      -1.400   9.654  13.445  1.00  0.00     0.190 HD
HETATM    7  N3  UNL     1      -0.701   9.513  11.482  1.00  0.00    -0.213 N 
ATOM      8  H3  UNL     1      -1.151  10.358  11.131  1.00  0.00     0.211 HD
HETATM    9  N4  UNL     1       0.067   8.728  10.678  1.00  0.00    -0.144 N 
HETATM   10  N5  UNL     1       0.353   8.890   9.470  1.00  0.00    -0.266 N 
ATOM     11  H5  UNL     1       0.949   8.185   9.036  1.00  0.00     0.190 HD
HETATM   12  S1  UNL     1       0.629   7.377  11.652  1.00  0.00     0.069 SA
ENDROOT
BRANCH  10  13
HETATM   13  C2  UNL     1      -0.074   9.953   8.658  1.00  0.00     0.223 C 
HETATM   14  N6  UNL     1      -0.788   9.768   7.600  1.00  0.00    -0.263 N 
ATOM     15  H6  UNL     1      -1.054   8.819   7.339  1.00  0.00     0.195 HD
BRANCH  14  16
HETATM   16  O1  UNL     1      -1.199  10.819   6.816  1.00  0.00    -0.289 OA
ATOM     17  H1  UNL     1      -2.112  11.078   6.768  1.00  0.00     0.244 HD
ENDBRANCH  14  16
ENDBRANCH  10  13
TORSDOF 2
ENDMDL
MODEL 3
REMARK VINA RESULT: -5.355241166      2.603      2.839
REMARK  2 active torsions:
REMARK  status: ('A' for Active; 'I' for Inactive)
REMARK    1  A    between atoms: N5_10  and  C2_12 
REMARK    2  A    between atoms: N6_13  and  O1_15 
ROOT
HETATM    1  N1  UNL     1       1.156   4.917   9.965  1.00  0.00    -0.377 N 
ATOM      2  H11 UNL     1       1.380   4.368  10.794  1.00  0.00     0.158 HD
ATOM      3  H12 UNL     1       1.204   4.242   9.201  1.00  0.00     0.158 HD
HETATM    4  C1  UNL     1       0.869   6.139   9.774  1.00  0.00     0.178 A 
HETATM    5  N2  UNL     1       0.561   6.892   8.635  1.00  0.00    -0.262 N 
ATOM      6  H2  UNL     1       0.545   6.470   7.707  1.00  0.00     0.190 HD
HETATM    7  N3  UNL     1       0.283   8.218   8.819  1.00  0.00    -0.213 N 
ATOM      8  H3  UNL     1       0.051   8.828   8.035  1.00  0.00     0.211 HD
HETATM    9  N4  UNL     1       0.329   8.686  10.097  1.00  0.00    -0.144 N 
HETATM   10  N5  UNL     1       0.102   9.844  10.514  1.00  0.00    -0.266 N 
ATOM     11  H5  UNL     1       0.189  10.001  11.518  1.00  0.00     0.190 HD
HETATM   12  S1  UNL     1       0.784   7.337  11.129  1.00  0.00     0.069 SA
ENDROOT
BRANCH  10  13
HETATM   13  C2  UNL     1      -0.264  10.946   9.725  1.00  0.00     0.223 C 
HETATM   14  N6  UNL     1       0.475  11.999   9.628  1.00  0.00    -0.263 N 
ATOM     15  H6  UNL     1       1.355  12.038  10.141  1.00  0.00     0.195 HD
BRANCH  14  16
HETATM   16  O1  UNL     1       0.104  13.070   8.851  1.00  0.00    -0.289 OA
ATOM     17  H1  UNL     1      -0.790  13.393   8.842  1.00  0.00     0.244 HD
ENDBRANCH  14  16
ENDBRANCH  10  13
TORSDOF 2
ENDMDL
MODEL 4
REMARK VINA RESULT: -5.292922783      2.597      2.898
REMARK  2 active torsions:
REMARK  status: ('A' for Active; 'I' for Inactive)
REMARK    1  A    between atoms: N5_10  and  C2_12 
REMARK    2  A    between atoms: N6_13  and  O1_15 
ROOT
HETATM    1  N1  UNL     1       1.460   4.669   9.842  1.00  0.00    -0.377 N 
ATOM      2  H11 UNL     1       1.888   4.176  10.627  1.00  0.00     0.158 HD
ATOM      3  H12 UNL     1       1.395   3.960   9.112  1.00  0.00     0.158 HD
HETATM    4  C1  UNL     1       1.058   5.861   9.671  1.00  0.00     0.178 A 
HETATM    5  N2  UNL     1       0.471   6.537   8.596  1.00  0.00    -0.262 N 
ATOM      6  H2  UNL     1       0.293   6.069   7.708  1.00  0.00     0.190 HD
HETATM    7  N3  UNL     1       0.148   7.852   8.785  1.00  0.00    -0.213 N 
ATOM      8  H3  UNL     1      -0.281   8.407   8.045  1.00  0.00     0.211 HD
HETATM    9  N4  UNL     1       0.425   8.385  10.006  1.00  0.00    -0.144 N 
HETATM   10  N5  UNL     1       0.211   9.547  10.419  1.00  0.00    -0.266 N 
ATOM     11  H5  UNL     1       0.493   9.759  11.376  1.00  0.00     0.190 HD
HETATM   12  S1  UNL     1       1.174   7.119  10.969  1.00  0.00     0.069 SA
ENDROOT
BRANCH  10  13
HETATM   13  C2  UNL     1      -0.383  10.585   9.684  1.00  0.00     0.223 C 
HETATM   14  N6  UNL     1      -1.655  10.801   9.700  1.00  0.00    -0.263 N 
ATOM     15  H6  UNL     1      -2.254  10.200  10.265  1.00  0.00     0.195 HD
BRANCH  14  16
HETATM   16  O1  UNL     1      -2.221  11.821   8.975  1.00  0.00    -0.289 OA
ATOM     17  H1  UNL     1      -3.139  12.050   9.070  1.00  0.00     0.244 HD
ENDBRANCH  14  16
ENDBRANCH  10  13
TORSDOF 2
ENDMDL
MODEL 5
REMARK VINA RESULT: -5.250708874      2.728      2.911
REMARK  2 active torsions:
REMARK  status: ('A' for Active; 'I' for Inactive)
REMARK    1  A    between atoms: N5_10  and  C2_12 
REMARK    2  A    between atoms: N6_13  and  O1_15 
ROOT
HETATM    1  N1  UNL     1       1.704   4.836  10.695  1.00  0.00    -0.377 N 
ATOM      2  H11 UNL     1       1.737   4.058  10.036  1.00  0.00     0.158 HD
ATOM      3  H12 UNL     1       2.016   4.428  11.576  1.00  0.00     0.158 HD
HETATM    4  C1  UNL     1       1.380   6.059  10.590  1.00  0.00     0.178 A 
HETATM    5  N2  UNL     1       1.335   7.128  11.493  1.00  0.00    -0.262 N 
ATOM      6  H2  UNL     1       1.589   7.006  12.473  1.00  0.00     0.190 HD
HETATM    7  N3  UNL     1       0.938   8.342  11.007  1.00  0.00    -0.213 N 
ATOM      8  H3  UNL     1       0.881   9.164  11.607  1.00  0.00     0.211 HD
HETATM    9  N4  UNL     1       0.623   8.402   9.684  1.00  0.00    -0.144 N 
HETATM   10  N5  UNL     1       0.252   9.392   9.013  1.00  0.00    -0.266 N 
ATOM     11  H5  UNL     1       0.060   9.236   8.023  1.00  0.00     0.190 HD
HETATM   12  S1  UNL     1       0.827   6.785   9.026  1.00  0.00     0.069 SA
ENDROOT
BRANCH  10  13
HETATM   13  C2  UNL     1       0.077  10.697   9.500  1.00  0.00     0.223 C 
HETATM   14  N6  UNL     1       1.047  11.544   9.564  1.00  0.00    -0.263 N 
ATOM     15  H6  UNL     1       1.976  11.261   9.252  1.00  0.00     0.195 HD
BRANCH  14  16
HETATM   16  O1  UNL     1       0.860  12.819  10.042  1.00  0.00    -0.289 OA
ATOM     17  H1  UNL     1       1.442  13.197  10.692  1.00  0.00     0.244 HD
ENDBRANCH  14  16
ENDBRANCH  10  13
TORSDOF 2
ENDMDL
