MODEL 1
REMARK VINA RESULT: -6.279931146      0.000      0.000
REMARK  3 active torsions:
REMARK  status: ('A' for Active; 'I' for Inactive)
REMARK    1  A    between atoms: C2_2  and  C3_3 
REMARK    2  A    between atoms: C5_7  and  N2_8 
REMARK    3  A    between atoms: N2_8  and  N3_10 
ROOT
HETATM    1  C3  UNL     1      10.733  15.846  -0.499  1.00  0.00     0.010 C 
HETATM    2  C4  UNL     1      11.170  17.251  -0.824  1.00  0.00     0.126 C 
HETATM    3  N1  UNL     1      12.543  17.253  -0.365  1.00  0.00    -0.379 N 
ATOM      4  H1  UNL     1      13.272  17.872  -0.721  1.00  0.00     0.160 HD
HETATM    5  C5  UNL     1      12.720  16.368   0.550  1.00  0.00     0.087 C 
HETATM    6  C10 UNL     1      11.458  15.633   0.836  1.00  0.00     0.083 C 
ENDROOT
BRANCH   5   7
HETATM    7  N2  UNL     1      13.974  16.142   1.192  1.00  0.00    -0.308 N 
ATOM      8  H2  UNL     1      14.775  15.873   0.621  1.00  0.00     0.182 HD
BRANCH   7   9
HETATM    9  N3  UNL     1      14.148  16.274   2.553  1.00  0.00    -0.230 NA
HETATM   10  C6  UNL     1      13.918  17.585   3.067  1.00  0.00     0.113 C 
HETATM   11  C7  UNL     1      12.530  17.482   3.675  1.00  0.00     0.017 C 
HETATM   12  C8  UNL     1      12.565  16.109   4.309  1.00  0.00     0.017 C 
HETATM   13  C9  UNL     1      13.424  15.331   3.346  1.00  0.00     0.113 C 
ENDBRANCH   7   9
ENDBRANCH   5   7
BRANCH   1  14
HETATM   14  C2  UNL     1       9.243  15.723  -0.331  1.00  0.00     0.002 C 
HETATM   15  C1  UNL     1       8.972  14.831   0.852  1.00  0.00     0.005 C 
ENDBRANCH   1  14
TORSDOF 3
ENDMDL
MODEL 2
REMARK VINA RESULT: -6.088213006      3.406      5.058
REMARK  3 active torsions:
REMARK  status: ('A' for Active; 'I' for Inactive)
REMARK    1  A    between atoms: C2_2  and  C3_3 
REMARK    2  A    between atoms: C5_7  and  N2_8 
REMARK    3  A    between atoms: N2_8  and  N3_10 
ROOT
HETATM    1  C3  UNL     1      11.457  16.682   3.130  1.00  0.00     0.010 C 
HETATM    2  C4  UNL     1      11.696  16.230   1.713  1.00  0.00     0.126 C 
HETATM    3  N1  UNL     1      10.797  15.100   1.602  1.00  0.00    -0.379 N 
ATOM      4  H1  UNL     1      10.405  14.756   0.725  1.00  0.00     0.160 HD
HETATM    5  C5  UNL     1      10.561  14.589   2.757  1.00  0.00     0.087 C 
HETATM    6  C10 UNL     1      11.286  15.327   3.827  1.00  0.00     0.083 C 
ENDROOT
BRANCH   5   7
HETATM    7  N2  UNL     1       9.710  13.462   2.958  1.00  0.00    -0.308 N 
ATOM      8  H2  UNL     1      10.082  12.529   2.779  1.00  0.00     0.182 HD
BRANCH   7   9
HETATM    9  N3  UNL     1       8.404  13.582   3.383  1.00  0.00    -0.230 NA
HETATM   10  C6  UNL     1       8.207  13.409   4.786  1.00  0.00     0.113 C 
HETATM   11  C7  UNL     1       8.066  14.833   5.295  1.00  0.00     0.017 C 
HETATM   12  C8  UNL     1       7.242  15.478   4.203  1.00  0.00     0.017 C 
HETATM   13  C9  UNL     1       7.743  14.778   2.967  1.00  0.00     0.113 C 
ENDBRANCH   7   9
ENDBRANCH   5   7
BRANCH   1  14
HETATM   14  C2  UNL     1      12.622  17.443   3.704  1.00  0.00     0.002 C 
HETATM   15  C1  UNL     1      13.783  17.319   2.753  1.00  0.00     0.005 C 
ENDBRANCH   1  14
TORSDOF 3
ENDMDL
MODEL 3
REMARK VINA RESULT: -6.040123429      2.908      4.497
REMARK  3 active torsions:
REMARK  status: ('A' for Active; 'I' for Inactive)
REMARK    1  A    between atoms: C2_2  and  C3_3 
REMARK    2  A    between atoms: C5_7  and  N2_8 
REMARK    3  A    between atoms: N2_8  and  N3_10 
ROOT
HETATM    1  C3  UNL     1       9.418  14.139   4.592  1.00  0.00     0.010 C 
HETATM    2  C4  UNL     1       9.561  13.148   3.466  1.00  0.00     0.126 C 
HETATM    3  N1  UNL     1      10.594  13.759   2.658  1.00  0.00    -0.379 N 
ATOM      4  H1  UNL     1      11.213  13.249   2.026  1.00  0.00     0.160 HD
HETATM    5  C5  UNL     1      10.628  15.030   2.842  1.00  0.00     0.087 C 
HETATM    6  C10 UNL     1       9.596  15.456   3.826  1.00  0.00     0.083 C 
ENDROOT
BRANCH   5   7
HETATM    7  N2  UNL     1      11.546  15.896   2.177  1.00  0.00    -0.308 N 
ATOM      8  H2  UNL     1      11.904  16.709   2.678  1.00  0.00     0.182 HD
BRANCH   7   9
HETATM    9  N3  UNL     1      11.968  15.679   0.882  1.00  0.00    -0.230 NA
HETATM   10  C6  UNL     1      10.978  15.898  -0.121  1.00  0.00     0.113 C 
HETATM   11  C7  UNL     1      11.340  17.264  -0.675  1.00  0.00     0.017 C 
HETATM   12  C8  UNL     1      12.851  17.202  -0.704  1.00  0.00     0.017 C 
HETATM   13  C9  UNL     1      13.162  16.372   0.515  1.00  0.00     0.113 C 
ENDBRANCH   7   9
ENDBRANCH   5   7
BRANCH   1  14
HETATM   14  C2  UNL     1       8.069  14.077   5.257  1.00  0.00     0.002 C 
HETATM   15  C1  UNL     1       7.197  15.150   4.659  1.00  0.00     0.005 C 
ENDBRANCH   1  14
TORSDOF 3
ENDMDL
MODEL 4
REMARK VINA RESULT: -6.028049035      3.503      4.650
REMARK  3 active torsions:
REMARK  status: ('A' for Active; 'I' for Inactive)
REMARK    1  A    between atoms: C2_2  and  C3_3 
REMARK    2  A    between atoms: C5_7  and  N2_8 
REMARK    3  A    between atoms: N2_8  and  N3_10 
ROOT
HETATM    1  C3  UNL     1      11.038  16.041   1.224  1.00  0.00     0.010 C 
HETATM    2  C4  UNL     1      10.405  15.574  -0.062  1.00  0.00     0.126 C 
HETATM    3  N1  UNL     1       9.390  14.660   0.418  1.00  0.00    -0.379 N 
ATOM      4  H1  UNL     1       8.538  14.421  -0.091  1.00  0.00     0.160 HD
HETATM    5  C5  UNL     1       9.707  14.190   1.571  1.00  0.00     0.087 C 
HETATM    6  C10 UNL     1      11.009  14.740   2.034  1.00  0.00     0.083 C 
ENDROOT
BRANCH   5   7
HETATM    7  N2  UNL     1       8.895  13.262   2.291  1.00  0.00    -0.308 N 
ATOM      8  H2  UNL     1       8.950  12.273   2.048  1.00  0.00     0.182 HD
BRANCH   7   9
HETATM    9  N3  UNL     1       8.041  13.649   3.301  1.00  0.00    -0.230 NA
HETATM   10  C6  UNL     1       8.454  13.281   4.616  1.00  0.00     0.113 C 
HETATM   11  C7  UNL     1       9.028  14.572   5.174  1.00  0.00     0.017 C 
HETATM   12  C8  UNL     1       8.060  15.604   4.641  1.00  0.00     0.017 C 
HETATM   13  C9  UNL     1       7.692  15.035   3.295  1.00  0.00     0.113 C 
ENDBRANCH   7   9
ENDBRANCH   5   7
BRANCH   1  14
HETATM   14  C2  UNL     1      12.449  16.530   1.035  1.00  0.00     0.002 C 
HETATM   15  C1  UNL     1      12.650  16.845  -0.424  1.00  0.00     0.005 C 
ENDBRANCH   1  14
TORSDOF 3
ENDMDL
MODEL 5
REMARK VINA RESULT: -5.993558165      3.432      4.632
REMARK  3 active torsions:
REMARK  status: ('A' for Active; 'I' for Inactive)
REMARK    1  A    between atoms: C2_2  and  C3_3 
REMARK    2  A    between atoms: C5_7  and  N2_8 
REMARK    3  A    between atoms: N2_8  and  N3_10 
ROOT
HETATM    1  C3  UNL     1      11.103  15.701   0.193  1.00  0.00     0.010 C 
HETATM    2  C4  UNL     1      11.638  15.777   1.600  1.00  0.00     0.126 C 
HETATM    3  N1  UNL     1      10.886  14.733   2.264  1.00  0.00    -0.379 N 
ATOM      4  H1  UNL     1      11.197  14.237   3.100  1.00  0.00     0.160 HD
HETATM    5  C5  UNL     1       9.773  14.516   1.658  1.00  0.00     0.087 C 
HETATM    6  C10 UNL     1       9.625  15.405   0.475  1.00  0.00     0.083 C 
ENDROOT
BRANCH   5   7
HETATM    7  N2  UNL     1       8.823  13.542   2.088  1.00  0.00    -0.308 N 
ATOM      8  H2  UNL     1       8.758  12.662   1.576  1.00  0.00     0.182 HD
BRANCH   7   9
HETATM    9  N3  UNL     1       7.990  13.741   3.168  1.00  0.00    -0.230 NA
HETATM   10  C6  UNL     1       8.492  13.264   4.415  1.00  0.00     0.113 C 
HETATM   11  C7  UNL     1       8.990  14.526   5.096  1.00  0.00     0.017 C 
HETATM   12  C8  UNL     1       7.920  15.528   4.723  1.00  0.00     0.017 C 
HETATM   13  C9  UNL     1       7.534  15.085   3.335  1.00  0.00     0.113 C 
ENDBRANCH   7   9
ENDBRANCH   5   7
BRANCH   1  14
HETATM   14  C2  UNL     1      11.262  16.994  -0.562  1.00  0.00     0.002 C 
HETATM   15  C1  UNL     1      12.733  17.295  -0.680  1.00  0.00     0.005 C 
ENDBRANCH   1  14
TORSDOF 3
ENDMDL
