MODEL 1
REMARK VINA RESULT: -7.294843525      0.000      0.000
REMARK  8 active torsions:
REMARK  status: ('A' for Active; 'I' for Inactive)
REMARK    1  A    between atoms: C2_2  and  O1_3 
REMARK    2  A    between atoms: C2_2  and  C3_5 
REMARK    3  A    between atoms: C2_2  and  C4_8 
REMARK    4  A    between atoms: C4_8  and  O4_9 
REMARK    5  A    between atoms: C4_8  and  N1_11 
REMARK    6  A    between atoms: N1_11  and  C5_13 
REMARK    7  A    between atoms: N3_19  and  O6_20 
REMARK    8  A    between atoms: N4_24  and  C10_25 
ROOT
HETATM    1  C5  UNL     1      71.640  39.748  31.394  1.00  0.00     0.137 A 
HETATM    2  C6  UNL     1      71.323  39.145  30.203  1.00  0.00     0.158 A 
HETATM    3  C7  UNL     1      70.372  38.061  30.129  1.00  0.00     0.109 C 
HETATM    4  N2  UNL     1      69.613  37.185  30.007  1.00  0.00    -0.191 NA
HETATM    5  C8  UNL     1      71.886  39.524  28.962  1.00  0.00     0.300 A 
HETATM    6  O5  UNL     1      71.543  38.922  27.919  1.00  0.00    -0.264 OA
HETATM    7  N3  UNL     1      72.757  40.513  29.004  1.00  0.00    -0.132 N 
HETATM    8  C9  UNL     1      73.090  41.126  30.157  1.00  0.00     0.359 A 
HETATM    9  O7  UNL     1      73.936  42.035  29.956  1.00  0.00    -0.244 OA
HETATM   10  N4  UNL     1      72.559  40.776  31.357  1.00  0.00    -0.260 N 
ENDROOT
BRANCH   1  11
HETATM   11  N1  UNL     1      71.068  39.353  32.575  1.00  0.00    -0.345 N 
ATOM     12  H1  UNL     1      70.467  40.076  32.969  1.00  0.00     0.163 HD
BRANCH  11  13
HETATM   13  C4  UNL     1      71.103  38.192  33.388  1.00  0.00     0.264 C 
BRANCH  13  14
HETATM   14  C2  UNL     1      69.884  38.039  34.341  1.00  0.00     0.185 C 
HETATM   15  C1  UNL     1      68.770  38.981  33.976  1.00  0.00     0.063 C 
BRANCH  14  16
HETATM   16  O1  UNL     1      69.377  36.732  33.966  1.00  0.00    -0.375 OA
ATOM     17  H1  UNL     1      70.151  36.254  33.693  1.00  0.00     0.211 HD
ENDBRANCH  14  16
BRANCH  14  18
HETATM   18  C3  UNL     1      70.203  38.012  35.746  1.00  0.00     0.213 C 
HETATM   19  O2  UNL     1      70.726  36.974  36.282  1.00  0.00    -0.646 OA
HETATM   20  O3  UNL     1      69.978  39.057  36.605  1.00  0.00    -0.646 OA
ENDBRANCH  14  18
ENDBRANCH  13  14
BRANCH  13  21
HETATM   21  O4  UNL     1      72.099  38.369  34.393  1.00  0.00    -0.373 OA
ATOM     22  H4  UNL     1      72.734  38.825  33.855  1.00  0.00     0.212 HD
ENDBRANCH  13  21
ENDBRANCH  11  13
ENDBRANCH   1  11
BRANCH  10  23
HETATM   23  C10 UNL     1      72.970  41.474  32.487  1.00  0.00     0.125 C 
HETATM   24  C11 UNL     1      74.380  41.077  32.878  1.00  0.00     0.055 C 
HETATM   25  C12 UNL     1      73.163  43.002  32.174  1.00  0.00     0.055 C 
HETATM   26  C13 UNL     1      72.069  41.558  33.626  1.00  0.00     0.090 C 
HETATM   27  N5  UNL     1      71.344  41.658  34.532  1.00  0.00    -0.195 NA
ENDBRANCH  10  23
BRANCH   7  28
HETATM   28  O6  UNL     1      73.315  40.889  27.778  1.00  0.00    -0.276 OA
ATOM     29  H6  UNL     1      73.909  41.629  27.802  1.00  0.00     0.245 HD
ENDBRANCH   7  28
TORSDOF 8
ENDMDL
MODEL 2
REMARK VINA RESULT: -7.025419306      1.093      1.451
REMARK  8 active torsions:
REMARK  status: ('A' for Active; 'I' for Inactive)
REMARK    1  A    between atoms: C2_2  and  O1_3 
REMARK    2  A    between atoms: C2_2  and  C3_5 
REMARK    3  A    between atoms: C2_2  and  C4_8 
REMARK    4  A    between atoms: C4_8  and  O4_9 
REMARK    5  A    between atoms: C4_8  and  N1_11 
REMARK    6  A    between atoms: N1_11  and  C5_13 
REMARK    7  A    between atoms: N3_19  and  O6_20 
REMARK    8  A    between atoms: N4_24  and  C10_25 
ROOT
HETATM    1  C5  UNL     1      71.345  39.201  30.670  1.00  0.00     0.137 A 
HETATM    2  C6  UNL     1      70.629  38.390  29.826  1.00  0.00     0.158 A 
HETATM    3  C7  UNL     1      69.605  37.499  30.317  1.00  0.00     0.109 C 
HETATM    4  N2  UNL     1      68.766  36.762  30.652  1.00  0.00    -0.191 NA
HETATM    5  C8  UNL     1      70.824  38.355  28.426  1.00  0.00     0.300 A 
HETATM    6  O5  UNL     1      70.128  37.585  27.725  1.00  0.00    -0.264 OA
HETATM    7  N3  UNL     1      71.755  39.161  27.954  1.00  0.00    -0.132 N 
HETATM    8  C9  UNL     1      72.475  39.970  28.755  1.00  0.00     0.359 A 
HETATM    9  O7  UNL     1      73.301  40.645  28.089  1.00  0.00    -0.244 OA
HETATM   10  N4  UNL     1      72.300  40.018  30.102  1.00  0.00    -0.260 N 
ENDROOT
BRANCH   1  11
HETATM   11  N1  UNL     1      71.123  39.208  32.022  1.00  0.00    -0.345 N 
ATOM     12  H1  UNL     1      70.851  40.132  32.360  1.00  0.00     0.163 HD
BRANCH  11  13
HETATM   13  C4  UNL     1      71.175  38.255  33.071  1.00  0.00     0.264 C 
BRANCH  13  14
HETATM   14  C2  UNL     1      69.963  38.304  34.044  1.00  0.00     0.185 C 
HETATM   15  C1  UNL     1      69.056  39.465  33.745  1.00  0.00     0.063 C 
BRANCH  14  16
HETATM   16  O1  UNL     1      69.200  37.143  33.625  1.00  0.00    -0.375 OA
ATOM     17  H1  UNL     1      69.664  36.827  32.859  1.00  0.00     0.211 HD
ENDBRANCH  14  16
BRANCH  14  18
HETATM   18  C3  UNL     1      70.290  38.149  35.439  1.00  0.00     0.213 C 
HETATM   19  O2  UNL     1      70.825  37.070  35.872  1.00  0.00    -0.646 OA
HETATM   20  O3  UNL     1      70.062  39.107  36.393  1.00  0.00    -0.646 OA
ENDBRANCH  14  18
ENDBRANCH  13  14
BRANCH  13  21
HETATM   21  O4  UNL     1      72.174  38.659  34.004  1.00  0.00    -0.373 OA
ATOM     22  H4  UNL     1      72.784  37.948  33.844  1.00  0.00     0.212 HD
ENDBRANCH  13  21
ENDBRANCH  11  13
ENDBRANCH   1  11
BRANCH  10  23
HETATM   23  C10 UNL     1      73.097  40.888  30.837  1.00  0.00     0.125 C 
HETATM   24  C11 UNL     1      74.532  40.403  30.871  1.00  0.00     0.055 C 
HETATM   25  C12 UNL     1      73.261  42.268  30.103  1.00  0.00     0.055 C 
HETATM   26  C13 UNL     1      72.623  41.344  32.136  1.00  0.00     0.090 C 
HETATM   27  N5  UNL     1      72.240  41.741  33.161  1.00  0.00    -0.195 NA
ENDBRANCH  10  23
BRANCH   7  28
HETATM   28  O6  UNL     1      71.948  39.127  26.570  1.00  0.00    -0.276 OA
ATOM     29  H6  UNL     1      72.057  39.969  26.145  1.00  0.00     0.245 HD
ENDBRANCH   7  28
TORSDOF 8
ENDMDL
MODEL 3
REMARK VINA RESULT: -7.022348549      0.800      1.425
REMARK  8 active torsions:
REMARK  status: ('A' for Active; 'I' for Inactive)
REMARK    1  A    between atoms: C2_2  and  O1_3 
REMARK    2  A    between atoms: C2_2  and  C3_5 
REMARK    3  A    between atoms: C2_2  and  C4_8 
REMARK    4  A    between atoms: C4_8  and  O4_9 
REMARK    5  A    between atoms: C4_8  and  N1_11 
REMARK    6  A    between atoms: N1_11  and  C5_13 
REMARK    7  A    between atoms: N3_19  and  O6_20 
REMARK    8  A    between atoms: N4_24  and  C10_25 
ROOT
HETATM    1  C5  UNL     1      71.936  39.873  31.496  1.00  0.00     0.137 A 
HETATM    2  C6  UNL     1      71.510  39.205  30.377  1.00  0.00     0.158 A 
HETATM    3  C7  UNL     1      70.591  38.094  30.459  1.00  0.00     0.109 C 
HETATM    4  N2  UNL     1      69.851  37.194  30.461  1.00  0.00    -0.191 NA
HETATM    5  C8  UNL     1      71.921  39.537  29.065  1.00  0.00     0.300 A 
HETATM    6  O5  UNL     1      71.485  38.876  28.094  1.00  0.00    -0.264 OA
HETATM    7  N3  UNL     1      72.761  40.549  28.964  1.00  0.00    -0.132 N 
HETATM    8  C9  UNL     1      73.199  41.227  30.043  1.00  0.00     0.359 A 
HETATM    9  O7  UNL     1      73.988  42.146  29.709  1.00  0.00    -0.244 OA
HETATM   10  N4  UNL     1      72.813  40.922  31.310  1.00  0.00    -0.260 N 
ENDROOT
BRANCH   1  11
HETATM   11  N1  UNL     1      71.511  39.522  32.750  1.00  0.00    -0.345 N 
ATOM     12  H1  UNL     1      71.245  40.336  33.305  1.00  0.00     0.163 HD
BRANCH  11  13
HETATM   13  C4  UNL     1      71.346  38.312  33.471  1.00  0.00     0.264 C 
BRANCH  13  14
HETATM   14  C2  UNL     1      70.039  38.237  34.310  1.00  0.00     0.185 C 
HETATM   15  C1  UNL     1      69.095  39.357  33.970  1.00  0.00     0.063 C 
BRANCH  14  16
HETATM   16  O1  UNL     1      69.400  37.057  33.757  1.00  0.00    -0.375 OA
ATOM     17  H1  UNL     1      69.948  36.823  33.018  1.00  0.00     0.211 HD
ENDBRANCH  14  16
BRANCH  14  18
HETATM   18  C3  UNL     1      70.228  38.027  35.723  1.00  0.00     0.213 C 
HETATM   19  O2  UNL     1      69.965  38.954  36.566  1.00  0.00    -0.646 OA
HETATM   20  O3  UNL     1      70.693  36.859  36.271  1.00  0.00    -0.646 OA
ENDBRANCH  14  18
ENDBRANCH  13  14
BRANCH  13  21
HETATM   21  O4  UNL     1      72.263  38.304  34.563  1.00  0.00    -0.373 OA
ATOM     22  H4  UNL     1      73.056  38.176  34.054  1.00  0.00     0.212 HD
ENDBRANCH  13  21
ENDBRANCH  11  13
ENDBRANCH   1  11
BRANCH  10  23
HETATM   23  C10 UNL     1      73.325  41.685  32.354  1.00  0.00     0.125 C 
HETATM   24  C11 UNL     1      73.178  43.164  32.059  1.00  0.00     0.055 C 
HETATM   25  C12 UNL     1      72.443  41.545  33.647  1.00  0.00     0.055 C 
HETATM   26  C13 UNL     1      74.631  41.343  32.898  1.00  0.00     0.090 C 
HETATM   27  N5  UNL     1      75.660  41.059  33.362  1.00  0.00    -0.195 NA
ENDBRANCH  10  23
BRANCH   7  28
HETATM   28  O6  UNL     1      73.169  40.879  27.668  1.00  0.00    -0.276 OA
ATOM     29  H6  UNL     1      73.492  41.763  27.547  1.00  0.00     0.245 HD
ENDBRANCH   7  28
TORSDOF 8
ENDMDL
MODEL 4
REMARK VINA RESULT: -6.867209947      2.528      3.719
REMARK  8 active torsions:
REMARK  status: ('A' for Active; 'I' for Inactive)
REMARK    1  A    between atoms: C2_2  and  O1_3 
REMARK    2  A    between atoms: C2_2  and  C3_5 
REMARK    3  A    between atoms: C2_2  and  C4_8 
REMARK    4  A    between atoms: C4_8  and  O4_9 
REMARK    5  A    between atoms: C4_8  and  N1_11 
REMARK    6  A    between atoms: N1_11  and  C5_13 
REMARK    7  A    between atoms: N3_19  and  O6_20 
REMARK    8  A    between atoms: N4_24  and  C10_25 
ROOT
HETATM    1  C5  UNL     1      71.003  38.772  29.345  1.00  0.00     0.137 A 
HETATM    2  C6  UNL     1      71.542  38.818  28.085  1.00  0.00     0.158 A 
HETATM    3  C7  UNL     1      70.892  38.192  26.958  1.00  0.00     0.109 C 
HETATM    4  N2  UNL     1      70.415  37.709  26.011  1.00  0.00    -0.191 NA
HETATM    5  C8  UNL     1      72.759  39.470  27.779  1.00  0.00     0.300 A 
HETATM    6  O5  UNL     1      73.183  39.466  26.601  1.00  0.00    -0.264 OA
HETATM    7  N3  UNL     1      73.371  40.050  28.793  1.00  0.00    -0.132 N 
HETATM    8  C9  UNL     1      72.869  40.024  30.043  1.00  0.00     0.359 A 
HETATM    9  O7  UNL     1      73.619  40.638  30.844  1.00  0.00    -0.244 OA
HETATM   10  N4  UNL     1      71.701  39.402  30.355  1.00  0.00    -0.260 N 
ENDROOT
BRANCH   1  11
HETATM   11  N1  UNL     1      69.819  38.131  29.599  1.00  0.00    -0.345 N 
ATOM     12  H1  UNL     1      69.179  38.712  30.142  1.00  0.00     0.163 HD
BRANCH  11  13
HETATM   13  C4  UNL     1      69.258  36.864  29.298  1.00  0.00     0.264 C 
BRANCH  13  14
HETATM   14  C2  UNL     1      67.947  36.542  30.069  1.00  0.00     0.185 C 
HETATM   15  C1  UNL     1      66.849  36.101  29.140  1.00  0.00     0.063 C 
BRANCH  14  16
HETATM   16  O1  UNL     1      68.312  35.332  30.782  1.00  0.00    -0.375 OA
ATOM     17  H1  UNL     1      69.130  35.555  31.211  1.00  0.00     0.211 HD
ENDBRANCH  14  16
BRANCH  14  18
HETATM   18  C3  UNL     1      67.545  37.531  31.037  1.00  0.00     0.213 C 
HETATM   19  O2  UNL     1      67.848  37.401  32.274  1.00  0.00    -0.646 OA
HETATM   20  O3  UNL     1      66.824  38.657  30.731  1.00  0.00    -0.646 OA
ENDBRANCH  14  18
ENDBRANCH  13  14
BRANCH  13  21
HETATM   21  O4  UNL     1      70.071  35.853  29.891  1.00  0.00    -0.373 OA
ATOM     22  H4  UNL     1      70.889  36.337  29.885  1.00  0.00     0.212 HD
ENDBRANCH  13  21
ENDBRANCH  11  13
ENDBRANCH   1  11
BRANCH  10  23
HETATM   23  C10 UNL     1      71.272  39.435  31.676  1.00  0.00     0.125 C 
HETATM   24  C11 UNL     1      71.322  38.050  32.290  1.00  0.00     0.055 C 
HETATM   25  C12 UNL     1      72.292  40.206  32.589  1.00  0.00     0.055 C 
HETATM   26  C13 UNL     1      70.047  40.152  31.999  1.00  0.00     0.090 C 
HETATM   27  N5  UNL     1      69.087  40.750  32.273  1.00  0.00    -0.195 NA
ENDBRANCH  10  23
BRANCH   7  28
HETATM   28  O6  UNL     1      74.574  40.696  28.493  1.00  0.00    -0.276 OA
ATOM     29  H6  UNL     1      74.628  41.096  27.634  1.00  0.00     0.245 HD
ENDBRANCH   7  28
TORSDOF 8
ENDMDL
MODEL 5
REMARK VINA RESULT: -6.855026766      2.024      5.746
REMARK  8 active torsions:
REMARK  status: ('A' for Active; 'I' for Inactive)
REMARK    1  A    between atoms: C2_2  and  O1_3 
REMARK    2  A    between atoms: C2_2  and  C3_5 
REMARK    3  A    between atoms: C2_2  and  C4_8 
REMARK    4  A    between atoms: C4_8  and  O4_9 
REMARK    5  A    between atoms: C4_8  and  N1_11 
REMARK    6  A    between atoms: N1_11  and  C5_13 
REMARK    7  A    between atoms: N3_19  and  O6_20 
REMARK    8  A    between atoms: N4_24  and  C10_25 
ROOT
HETATM    1  C5  UNL     1      70.964  39.255  30.346  1.00  0.00     0.137 A 
HETATM    2  C6  UNL     1      70.155  38.456  31.113  1.00  0.00     0.158 A 
HETATM    3  C7  UNL     1      69.089  37.673  30.533  1.00  0.00     0.109 C 
HETATM    4  N2  UNL     1      68.216  37.019  30.122  1.00  0.00    -0.191 NA
HETATM    5  C8  UNL     1      70.289  38.325  32.514  1.00  0.00     0.300 A 
HETATM    6  O5  UNL     1      69.509  37.573  33.143  1.00  0.00    -0.264 OA
HETATM    7  N3  UNL     1      71.257  39.030  33.068  1.00  0.00    -0.132 N 
HETATM    8  C9  UNL     1      72.068  39.825  32.343  1.00  0.00     0.359 A 
HETATM    9  O7  UNL     1      72.912  40.398  33.078  1.00  0.00    -0.244 OA
HETATM   10  N4  UNL     1      71.954  39.961  30.996  1.00  0.00    -0.260 N 
ENDROOT
BRANCH   1  11
HETATM   11  N1  UNL     1      70.803  39.351  28.988  1.00  0.00    -0.345 N 
ATOM     12  H1  UNL     1      71.486  38.788  28.482  1.00  0.00     0.163 HD
BRANCH  11  13
HETATM   13  C4  UNL     1      69.925  40.036  28.110  1.00  0.00     0.264 C 
BRANCH  13  14
HETATM   14  C2  UNL     1      69.364  39.162  26.952  1.00  0.00     0.185 C 
HETATM   15  C1  UNL     1      67.887  38.922  27.102  1.00  0.00     0.063 C 
BRANCH  14  16
HETATM   16  O1  UNL     1      69.461  40.069  25.824  1.00  0.00    -0.375 OA
ATOM     17  H1  UNL     1      70.283  39.836  25.410  1.00  0.00     0.211 HD
ENDBRANCH  14  16
BRANCH  14  18
HETATM   18  C3  UNL     1      70.130  37.981  26.648  1.00  0.00     0.213 C 
HETATM   19  O2  UNL     1      71.335  38.070  26.224  1.00  0.00    -0.646 OA
HETATM   20  O3  UNL     1      69.654  36.701  26.777  1.00  0.00    -0.646 OA
ENDBRANCH  14  18
ENDBRANCH  13  14
BRANCH  13  21
HETATM   21  O4  UNL     1      70.691  40.931  27.307  1.00  0.00    -0.373 OA
ATOM     22  H4  UNL     1      70.754  41.637  27.940  1.00  0.00     0.212 HD
ENDBRANCH  13  21
ENDBRANCH  11  13
ENDBRANCH   1  11
BRANCH  10  23
HETATM   23  C10 UNL     1      72.844  40.807  30.344  1.00  0.00     0.125 C 
HETATM   24  C11 UNL     1      72.341  42.237  30.369  1.00  0.00     0.055 C 
HETATM   25  C12 UNL     1      74.189  40.946  31.143  1.00  0.00     0.055 C 
HETATM   26  C13 UNL     1      73.360  40.413  29.041  1.00  0.00     0.090 C 
HETATM   27  N5  UNL     1      73.803  40.092  28.013  1.00  0.00    -0.195 NA
ENDBRANCH  10  23
BRANCH   7  28
HETATM   28  O6  UNL     1      71.391  38.903  34.453  1.00  0.00    -0.276 OA
ATOM     29  H6  UNL     1      72.146  39.330  34.839  1.00  0.00     0.245 HD
ENDBRANCH   7  28
TORSDOF 8
ENDMDL
