MODEL 1
REMARK VINA RESULT: -6.425384546      0.000      0.000
REMARK  18 active torsions:
REMARK  status: ('A' for Active; 'I' for Inactive)
REMARK    1  A    between atoms: O1_2  and  C2_3 
REMARK    2  A    between atoms: C2_3  and  C3_4 
REMARK    3  A    between atoms: C3_4  and  O2_5 
REMARK    4  A    between atoms: O2_5  and  C4_6 
REMARK    5  A    between atoms: C4_6  and  C5_7 
REMARK    6  A    between atoms: C5_7  and  O3_8 
REMARK    7  A    between atoms: O3_8  and  C6_9 
REMARK    8  A    between atoms: C6_9  and  C7_10 
REMARK    9  A    between atoms: C7_10  and  O4_11 
REMARK   10  A    between atoms: O4_11  and  C8_12 
REMARK   11  A    between atoms: C8_12  and  C9_13 
REMARK   12  A    between atoms: C9_13  and  O5_14 
REMARK   13  A    between atoms: O5_14  and  C10_15 
REMARK   14  A    between atoms: C10_15  and  C11_16 
REMARK   15  A    between atoms: C16_21  and  O6_22 
REMARK   16  A    between atoms: O6_22  and  C17_23 
REMARK   17  A    between atoms: C17_23  and  C18_24 
REMARK   18  A    between atoms: C18_24  and  C19_25 
ROOT
HETATM    1  C19 UNL     1      40.036  22.489   3.242  1.00  0.00    -0.035 A 
HETATM    2  C20 UNL     1      39.471  22.880   2.020  1.00  0.00     0.009 A 
HETATM    3  C21 UNL     1      38.675  23.998   1.916  1.00  0.00     0.001 A 
HETATM    4  C22 UNL     1      38.402  24.781   3.015  1.00  0.00     0.002 A 
HETATM    5  C23 UNL     1      38.947  24.414   4.220  1.00  0.00     0.023 A 
HETATM    6  C24 UNL     1      39.758  23.275   4.322  1.00  0.00     0.051 A 
HETATM    7  C25 UNL     1      40.354  22.957   5.590  1.00  0.00     0.100 C 
HETATM    8  N1  UNL     1      40.857  22.726   6.624  1.00  0.00    -0.191 NA
ENDROOT
BRANCH   1   9
HETATM    9  C18 UNL     1      40.841  21.254   3.332  1.00  0.00     0.066 C 
BRANCH   9  10
HETATM   10  C17 UNL     1      42.067  21.214   2.508  1.00  0.00     0.172 C 
BRANCH  10  11
HETATM   11  O6  UNL     1      42.505  20.019   2.028  1.00  0.00    -0.385 OA
BRANCH  11  12
HETATM   12  C16 UNL     1      42.814  20.118   0.631  1.00  0.00     0.127 C 
HETATM   13  C11 UNL     1      41.684  20.812  -0.014  1.00  0.00     0.038 C 
HETATM   14  C12 UNL     1      40.625  19.778  -0.400  1.00  0.00     0.009 C 
HETATM   15  C13 UNL     1      40.532  18.622   0.537  1.00  0.00     0.001 C 
HETATM   16  C14 UNL     1      41.830  17.842   0.615  1.00  0.00     0.002 C 
HETATM   17  C15 UNL     1      42.987  18.694   0.132  1.00  0.00     0.032 C 
BRANCH  13  18
HETATM   18  C10 UNL     1      41.935  21.658  -1.208  1.00  0.00     0.174 C 
BRANCH  18  19
HETATM   19  O5  UNL     1      41.283  22.775  -1.459  1.00  0.00    -0.389 OA
BRANCH  19  20
HETATM   20  C9  UNL     1      40.274  22.982  -2.295  1.00  0.00     0.193 C 
BRANCH  20  21
HETATM   21  C8  UNL     1      39.085  23.718  -1.697  1.00  0.00     0.193 C 
BRANCH  21  22
HETATM   22  O4  UNL     1      38.091  22.818  -1.413  1.00  0.00    -0.387 OA
BRANCH  22  23
HETATM   23  C7  UNL     1      38.020  21.713  -2.223  1.00  0.00     0.193 C 
BRANCH  23  24
HETATM   24  C6  UNL     1      36.622  21.495  -2.804  1.00  0.00     0.193 C 
BRANCH  24  25
HETATM   25  O3  UNL     1      36.533  22.149  -4.004  1.00  0.00    -0.387 OA
BRANCH  25  26
HETATM   26  C5  UNL     1      35.539  23.090  -4.061  1.00  0.00     0.193 C 
BRANCH  26  27
HETATM   27  C4  UNL     1      36.031  24.492  -4.154  1.00  0.00     0.193 C 
BRANCH  27  28
HETATM   28  O2  UNL     1      36.046  25.131  -2.904  1.00  0.00    -0.387 OA
BRANCH  28  29
HETATM   29  C3  UNL     1      34.988  24.730  -2.088  1.00  0.00     0.193 C 
BRANCH  29  30
HETATM   30  C2  UNL     1      35.293  24.831  -0.637  1.00  0.00     0.193 C 
BRANCH  30  31
HETATM   31  O1  UNL     1      35.332  26.155  -0.248  1.00  0.00    -0.394 OA
HETATM   32  C1  UNL     1      36.035  26.376   0.914  1.00  0.00     0.201 C 
ENDBRANCH  30  31
ENDBRANCH  29  30
ENDBRANCH  28  29
ENDBRANCH  27  28
ENDBRANCH  26  27
ENDBRANCH  25  26
ENDBRANCH  24  25
ENDBRANCH  23  24
ENDBRANCH  22  23
ENDBRANCH  21  22
ENDBRANCH  20  21
ENDBRANCH  19  20
ENDBRANCH  18  19
ENDBRANCH  13  18
ENDBRANCH  11  12
ENDBRANCH  10  11
ENDBRANCH   9  10
ENDBRANCH   1   9
TORSDOF 18
ENDMDL
MODEL 2
REMARK VINA RESULT: -6.378512560      2.025      5.226
REMARK  18 active torsions:
REMARK  status: ('A' for Active; 'I' for Inactive)
REMARK    1  A    between atoms: O1_2  and  C2_3 
REMARK    2  A    between atoms: C2_3  and  C3_4 
REMARK    3  A    between atoms: C3_4  and  O2_5 
REMARK    4  A    between atoms: O2_5  and  C4_6 
REMARK    5  A    between atoms: C4_6  and  C5_7 
REMARK    6  A    between atoms: C5_7  and  O3_8 
REMARK    7  A    between atoms: O3_8  and  C6_9 
REMARK    8  A    between atoms: C6_9  and  C7_10 
REMARK    9  A    between atoms: C7_10  and  O4_11 
REMARK   10  A    between atoms: O4_11  and  C8_12 
REMARK   11  A    between atoms: C8_12  and  C9_13 
REMARK   12  A    between atoms: C9_13  and  O5_14 
REMARK   13  A    between atoms: O5_14  and  C10_15 
REMARK   14  A    between atoms: C10_15  and  C11_16 
REMARK   15  A    between atoms: C16_21  and  O6_22 
REMARK   16  A    between atoms: O6_22  and  C17_23 
REMARK   17  A    between atoms: C17_23  and  C18_24 
REMARK   18  A    between atoms: C18_24  and  C19_25 
ROOT
HETATM    1  C19 UNL     1      42.100  20.511   1.207  1.00  0.00    -0.035 A 
HETATM    2  C20 UNL     1      41.223  20.053   0.215  1.00  0.00     0.009 A 
HETATM    3  C21 UNL     1      40.445  18.931   0.399  1.00  0.00     0.001 A 
HETATM    4  C22 UNL     1      40.500  18.213   1.572  1.00  0.00     0.002 A 
HETATM    5  C23 UNL     1      41.352  18.647   2.556  1.00  0.00     0.023 A 
HETATM    6  C24 UNL     1      42.142  19.790   2.366  1.00  0.00     0.051 A 
HETATM    7  C25 UNL     1      42.980  20.242   3.441  1.00  0.00     0.100 C 
HETATM    8  N1  UNL     1      43.638  20.617   4.337  1.00  0.00    -0.191 NA
ENDROOT
BRANCH   1   9
HETATM    9  C18 UNL     1      42.961  21.685   0.960  1.00  0.00     0.066 C 
BRANCH   9  10
HETATM   10  C17 UNL     1      42.262  22.959   0.690  1.00  0.00     0.172 C 
BRANCH  10  11
HETATM   11  O6  UNL     1      41.597  23.579   1.702  1.00  0.00    -0.385 OA
BRANCH  11  12
HETATM   12  C16 UNL     1      40.214  23.754   1.365  1.00  0.00     0.127 C 
HETATM   13  C11 UNL     1      39.831  25.109   1.803  1.00  0.00     0.038 C 
HETATM   14  C12 UNL     1      39.388  25.047   3.266  1.00  0.00     0.009 C 
HETATM   15  C13 UNL     1      40.110  24.028   4.079  1.00  0.00     0.001 C 
HETATM   16  C14 UNL     1      39.904  22.622   3.549  1.00  0.00     0.002 C 
HETATM   17  C15 UNL     1      39.454  22.665   2.102  1.00  0.00     0.032 C 
BRANCH  13  18
HETATM   18  C10 UNL     1      38.785  25.849   1.054  1.00  0.00     0.174 C 
BRANCH  18  19
HETATM   19  O5  UNL     1      37.684  26.315   1.607  1.00  0.00    -0.389 OA
BRANCH  19  20
HETATM   20  C9  UNL     1      36.423  25.986   1.360  1.00  0.00     0.193 C 
BRANCH  20  21
HETATM   21  C8  UNL     1      35.949  26.274  -0.057  1.00  0.00     0.193 C 
BRANCH  21  22
HETATM   22  O4  UNL     1      35.005  25.347  -0.415  1.00  0.00    -0.387 OA
BRANCH  22  23
HETATM   23  C7  UNL     1      35.421  24.346  -1.254  1.00  0.00     0.193 C 
BRANCH  23  24
HETATM   24  C6  UNL     1      36.499  24.808  -2.237  1.00  0.00     0.193 C 
BRANCH  24  25
HETATM   25  O3  UNL     1      37.481  23.855  -2.298  1.00  0.00    -0.387 OA
BRANCH  25  26
HETATM   26  C5  UNL     1      37.501  22.996  -1.231  1.00  0.00     0.193 C 
BRANCH  26  27
HETATM   27  C4  UNL     1      38.341  21.784  -1.438  1.00  0.00     0.193 C 
BRANCH  27  28
HETATM   28  O2  UNL     1      37.838  20.962  -2.458  1.00  0.00    -0.387 OA
BRANCH  28  29
HETATM   29  C3  UNL     1      36.641  20.339  -2.102  1.00  0.00     0.193 C 
BRANCH  29  30
HETATM   30  C2  UNL     1      36.682  18.860  -2.243  1.00  0.00     0.193 C 
BRANCH  30  31
HETATM   31  O1  UNL     1      36.306  18.256  -1.060  1.00  0.00    -0.394 OA
HETATM   32  C1  UNL     1      37.173  17.277  -0.633  1.00  0.00     0.201 C 
ENDBRANCH  30  31
ENDBRANCH  29  30
ENDBRANCH  28  29
ENDBRANCH  27  28
ENDBRANCH  26  27
ENDBRANCH  25  26
ENDBRANCH  24  25
ENDBRANCH  23  24
ENDBRANCH  22  23
ENDBRANCH  21  22
ENDBRANCH  20  21
ENDBRANCH  19  20
ENDBRANCH  18  19
ENDBRANCH  13  18
ENDBRANCH  11  12
ENDBRANCH  10  11
ENDBRANCH   9  10
ENDBRANCH   1   9
TORSDOF 18
ENDMDL
MODEL 3
REMARK VINA RESULT: -6.318942899      2.535      5.758
REMARK  18 active torsions:
REMARK  status: ('A' for Active; 'I' for Inactive)
REMARK    1  A    between atoms: O1_2  and  C2_3 
REMARK    2  A    between atoms: C2_3  and  C3_4 
REMARK    3  A    between atoms: C3_4  and  O2_5 
REMARK    4  A    between atoms: O2_5  and  C4_6 
REMARK    5  A    between atoms: C4_6  and  C5_7 
REMARK    6  A    between atoms: C5_7  and  O3_8 
REMARK    7  A    between atoms: O3_8  and  C6_9 
REMARK    8  A    between atoms: C6_9  and  C7_10 
REMARK    9  A    between atoms: C7_10  and  O4_11 
REMARK   10  A    between atoms: O4_11  and  C8_12 
REMARK   11  A    between atoms: C8_12  and  C9_13 
REMARK   12  A    between atoms: C9_13  and  O5_14 
REMARK   13  A    between atoms: O5_14  and  C10_15 
REMARK   14  A    between atoms: C10_15  and  C11_16 
REMARK   15  A    between atoms: C16_21  and  O6_22 
REMARK   16  A    between atoms: O6_22  and  C17_23 
REMARK   17  A    between atoms: C17_23  and  C18_24 
REMARK   18  A    between atoms: C18_24  and  C19_25 
ROOT
HETATM    1  C19 UNL     1      42.885  21.491   1.615  1.00  0.00    -0.035 A 
HETATM    2  C20 UNL     1      42.997  20.890   2.876  1.00  0.00     0.009 A 
HETATM    3  C21 UNL     1      42.463  19.648   3.135  1.00  0.00     0.001 A 
HETATM    4  C22 UNL     1      41.795  18.944   2.159  1.00  0.00     0.002 A 
HETATM    5  C23 UNL     1      41.677  19.515   0.917  1.00  0.00     0.023 A 
HETATM    6  C24 UNL     1      42.222  20.780   0.656  1.00  0.00     0.051 A 
HETATM    7  C25 UNL     1      42.124  21.319  -0.671  1.00  0.00     0.100 C 
HETATM    8  N1  UNL     1      42.063  21.735  -1.767  1.00  0.00    -0.191 NA
ENDROOT
BRANCH   1   9
HETATM    9  C18 UNL     1      43.421  22.847   1.383  1.00  0.00     0.066 C 
BRANCH   9  10
HETATM   10  C17 UNL     1      42.436  23.949   1.404  1.00  0.00     0.172 C 
BRANCH  10  11
HETATM   11  O6  UNL     1      41.539  24.018   2.425  1.00  0.00    -0.385 OA
BRANCH  11  12
HETATM   12  C16 UNL     1      40.197  24.022   1.920  1.00  0.00     0.127 C 
HETATM   13  C11 UNL     1      39.503  25.162   2.548  1.00  0.00     0.038 C 
HETATM   14  C12 UNL     1      38.917  24.706   3.885  1.00  0.00     0.009 C 
HETATM   15  C13 UNL     1      39.731  23.674   4.588  1.00  0.00     0.001 C 
HETATM   16  C14 UNL     1      39.873  22.404   3.771  1.00  0.00     0.002 C 
HETATM   17  C15 UNL     1      39.592  22.683   2.308  1.00  0.00     0.032 C 
BRANCH  13  18
HETATM   18  C10 UNL     1      38.422  25.856   1.803  1.00  0.00     0.174 C 
BRANCH  18  19
HETATM   19  O5  UNL     1      37.139  25.640   2.010  1.00  0.00    -0.389 OA
BRANCH  19  20
HETATM   20  C9  UNL     1      36.094  26.291   1.518  1.00  0.00     0.193 C 
BRANCH  20  21
HETATM   21  C8  UNL     1      36.042  26.370  -0.000  1.00  0.00     0.193 C 
BRANCH  21  22
HETATM   22  O4  UNL     1      35.067  25.526  -0.464  1.00  0.00    -0.387 OA
BRANCH  22  23
HETATM   23  C7  UNL     1      35.465  24.253  -0.786  1.00  0.00     0.193 C 
BRANCH  23  24
HETATM   24  C6  UNL     1      36.890  24.202  -1.339  1.00  0.00     0.193 C 
BRANCH  24  25
HETATM   25  O3  UNL     1      37.614  23.291  -0.616  1.00  0.00    -0.387 OA
BRANCH  25  26
HETATM   26  C5  UNL     1      38.540  22.597  -1.348  1.00  0.00     0.193 C 
BRANCH  26  27
HETATM   27  C4  UNL     1      38.107  21.227  -1.738  1.00  0.00     0.193 C 
BRANCH  27  28
HETATM   28  O2  UNL     1      38.825  20.232  -1.056  1.00  0.00    -0.387 OA
BRANCH  28  29
HETATM   29  C3  UNL     1      38.396  18.945  -1.382  1.00  0.00     0.193 C 
BRANCH  29  30
HETATM   30  C2  UNL     1      36.923  18.840  -1.543  1.00  0.00     0.193 C 
BRANCH  30  31
HETATM   31  O1  UNL     1      36.462  17.667  -0.979  1.00  0.00    -0.394 OA
HETATM   32  C1  UNL     1      37.410  16.989  -0.247  1.00  0.00     0.201 C 
ENDBRANCH  30  31
ENDBRANCH  29  30
ENDBRANCH  28  29
ENDBRANCH  27  28
ENDBRANCH  26  27
ENDBRANCH  25  26
ENDBRANCH  24  25
ENDBRANCH  23  24
ENDBRANCH  22  23
ENDBRANCH  21  22
ENDBRANCH  20  21
ENDBRANCH  19  20
ENDBRANCH  18  19
ENDBRANCH  13  18
ENDBRANCH  11  12
ENDBRANCH  10  11
ENDBRANCH   9  10
ENDBRANCH   1   9
TORSDOF 18
ENDMDL
MODEL 4
REMARK VINA RESULT: -6.315580094      1.699      2.769
REMARK  18 active torsions:
REMARK  status: ('A' for Active; 'I' for Inactive)
REMARK    1  A    between atoms: O1_2  and  C2_3 
REMARK    2  A    between atoms: C2_3  and  C3_4 
REMARK    3  A    between atoms: C3_4  and  O2_5 
REMARK    4  A    between atoms: O2_5  and  C4_6 
REMARK    5  A    between atoms: C4_6  and  C5_7 
REMARK    6  A    between atoms: C5_7  and  O3_8 
REMARK    7  A    between atoms: O3_8  and  C6_9 
REMARK    8  A    between atoms: C6_9  and  C7_10 
REMARK    9  A    between atoms: C7_10  and  O4_11 
REMARK   10  A    between atoms: O4_11  and  C8_12 
REMARK   11  A    between atoms: C8_12  and  C9_13 
REMARK   12  A    between atoms: C9_13  and  O5_14 
REMARK   13  A    between atoms: O5_14  and  C10_15 
REMARK   14  A    between atoms: C10_15  and  C11_16 
REMARK   15  A    between atoms: C16_21  and  O6_22 
REMARK   16  A    between atoms: O6_22  and  C17_23 
REMARK   17  A    between atoms: C17_23  and  C18_24 
REMARK   18  A    between atoms: C18_24  and  C19_25 
ROOT
HETATM    1  C19 UNL     1      40.005  22.474   3.198  1.00  0.00    -0.035 A 
HETATM    2  C20 UNL     1      39.443  22.867   1.976  1.00  0.00     0.009 A 
HETATM    3  C21 UNL     1      38.664  23.997   1.869  1.00  0.00     0.001 A 
HETATM    4  C22 UNL     1      38.407  24.789   2.964  1.00  0.00     0.002 A 
HETATM    5  C23 UNL     1      38.950  24.422   4.169  1.00  0.00     0.023 A 
HETATM    6  C24 UNL     1      39.743  23.271   4.276  1.00  0.00     0.051 A 
HETATM    7  C25 UNL     1      40.338  22.951   5.543  1.00  0.00     0.100 C 
HETATM    8  N1  UNL     1      40.842  22.718   6.577  1.00  0.00    -0.191 NA
ENDROOT
BRANCH   1   9
HETATM    9  C18 UNL     1      40.791  21.228   3.293  1.00  0.00     0.066 C 
BRANCH   9  10
HETATM   10  C17 UNL     1      41.224  20.631   2.012  1.00  0.00     0.172 C 
BRANCH  10  11
HETATM   11  O6  UNL     1      42.530  20.724   1.644  1.00  0.00    -0.385 OA
BRANCH  11  12
HETATM   12  C16 UNL     1      42.699  21.717   0.623  1.00  0.00     0.127 C 
HETATM   13  C11 UNL     1      43.563  21.126  -0.415  1.00  0.00     0.038 C 
HETATM   14  C12 UNL     1      45.025  21.375  -0.040  1.00  0.00     0.009 C 
HETATM   15  C13 UNL     1      45.285  21.378   1.428  1.00  0.00     0.001 C 
HETATM   16  C14 UNL     1      44.507  22.466   2.144  1.00  0.00     0.002 C 
HETATM   17  C15 UNL     1      43.334  22.920   1.299  1.00  0.00     0.032 C 
BRANCH  13  18
HETATM   18  C10 UNL     1      43.391  21.542  -1.830  1.00  0.00     0.174 C 
BRANCH  18  19
HETATM   19  O5  UNL     1      42.882  20.763  -2.762  1.00  0.00    -0.389 OA
BRANCH  19  20
HETATM   20  C9  UNL     1      42.272  19.593  -2.630  1.00  0.00     0.193 C 
BRANCH  20  21
HETATM   21  C8  UNL     1      40.758  19.636  -2.772  1.00  0.00     0.193 C 
BRANCH  21  22
HETATM   22  O4  UNL     1      40.193  19.807  -1.535  1.00  0.00    -0.387 OA
BRANCH  22  23
HETATM   23  C7  UNL     1      39.562  21.004  -1.313  1.00  0.00     0.193 C 
BRANCH  23  24
HETATM   24  C6  UNL     1      39.184  21.722  -2.610  1.00  0.00     0.193 C 
BRANCH  24  25
HETATM   25  O3  UNL     1      39.686  22.997  -2.573  1.00  0.00    -0.387 OA
BRANCH  25  26
HETATM   26  C5  UNL     1      38.967  23.863  -1.793  1.00  0.00     0.193 C 
BRANCH  26  27
HETATM   27  C4  UNL     1      37.632  24.219  -2.347  1.00  0.00     0.193 C 
BRANCH  27  28
HETATM   28  O2  UNL     1      37.274  25.544  -2.050  1.00  0.00    -0.387 OA
BRANCH  28  29
HETATM   29  C3  UNL     1      36.645  25.662  -0.810  1.00  0.00     0.193 C 
BRANCH  29  30
HETATM   30  C2  UNL     1      35.564  24.664  -0.601  1.00  0.00     0.193 C 
BRANCH  30  31
HETATM   31  O1  UNL     1      34.336  25.222  -0.893  1.00  0.00    -0.394 OA
HETATM   32  C1  UNL     1      33.691  24.629  -1.954  1.00  0.00     0.201 C 
ENDBRANCH  30  31
ENDBRANCH  29  30
ENDBRANCH  28  29
ENDBRANCH  27  28
ENDBRANCH  26  27
ENDBRANCH  25  26
ENDBRANCH  24  25
ENDBRANCH  23  24
ENDBRANCH  22  23
ENDBRANCH  21  22
ENDBRANCH  20  21
ENDBRANCH  19  20
ENDBRANCH  18  19
ENDBRANCH  13  18
ENDBRANCH  11  12
ENDBRANCH  10  11
ENDBRANCH   9  10
ENDBRANCH   1   9
TORSDOF 18
ENDMDL
MODEL 5
REMARK VINA RESULT: -6.306569477      1.784      2.916
REMARK  18 active torsions:
REMARK  status: ('A' for Active; 'I' for Inactive)
REMARK    1  A    between atoms: O1_2  and  C2_3 
REMARK    2  A    between atoms: C2_3  and  C3_4 
REMARK    3  A    between atoms: C3_4  and  O2_5 
REMARK    4  A    between atoms: O2_5  and  C4_6 
REMARK    5  A    between atoms: C4_6  and  C5_7 
REMARK    6  A    between atoms: C5_7  and  O3_8 
REMARK    7  A    between atoms: O3_8  and  C6_9 
REMARK    8  A    between atoms: C6_9  and  C7_10 
REMARK    9  A    between atoms: C7_10  and  O4_11 
REMARK   10  A    between atoms: O4_11  and  C8_12 
REMARK   11  A    between atoms: C8_12  and  C9_13 
REMARK   12  A    between atoms: C9_13  and  O5_14 
REMARK   13  A    between atoms: O5_14  and  C10_15 
REMARK   14  A    between atoms: C10_15  and  C11_16 
REMARK   15  A    between atoms: C16_21  and  O6_22 
REMARK   16  A    between atoms: O6_22  and  C17_23 
REMARK   17  A    between atoms: C17_23  and  C18_24 
REMARK   18  A    between atoms: C18_24  and  C19_25 
ROOT
HETATM    1  C19 UNL     1      40.023  22.501   3.174  1.00  0.00    -0.035 A 
HETATM    2  C20 UNL     1      39.468  22.884   1.945  1.00  0.00     0.009 A 
HETATM    3  C21 UNL     1      38.654  23.988   1.831  1.00  0.00     0.001 A 
HETATM    4  C22 UNL     1      38.353  24.765   2.927  1.00  0.00     0.002 A 
HETATM    5  C23 UNL     1      38.888  24.407   4.139  1.00  0.00     0.023 A 
HETATM    6  C24 UNL     1      39.717  23.282   4.251  1.00  0.00     0.051 A 
HETATM    7  C25 UNL     1      40.302  22.973   5.527  1.00  0.00     0.100 C 
HETATM    8  N1  UNL     1      40.795  22.749   6.567  1.00  0.00    -0.191 NA
ENDROOT
BRANCH   1   9
HETATM    9  C18 UNL     1      40.848  21.281   3.274  1.00  0.00     0.066 C 
BRANCH   9  10
HETATM   10  C17 UNL     1      42.160  21.324   2.594  1.00  0.00     0.172 C 
BRANCH  10  11
HETATM   11  O6  UNL     1      42.488  20.331   1.724  1.00  0.00    -0.385 OA
BRANCH  11  12
HETATM   12  C16 UNL     1      41.317  19.823   1.070  1.00  0.00     0.127 C 
HETATM   13  C11 UNL     1      41.386  18.352   1.141  1.00  0.00     0.038 C 
HETATM   14  C12 UNL     1      42.185  17.838  -0.058  1.00  0.00     0.009 C 
HETATM   15  C13 UNL     1      43.276  18.752  -0.501  1.00  0.00     0.001 C 
HETATM   16  C14 UNL     1      42.748  20.105  -0.936  1.00  0.00     0.002 C 
HETATM   17  C15 UNL     1      41.367  20.343  -0.356  1.00  0.00     0.032 C 
BRANCH  13  18
HETATM   18  C10 UNL     1      40.129  17.566   1.206  1.00  0.00     0.174 C 
BRANCH  18  19
HETATM   19  O5  UNL     1      39.269  17.481   0.211  1.00  0.00    -0.389 OA
BRANCH  19  20
HETATM   20  C9  UNL     1      38.126  16.811   0.151  1.00  0.00     0.193 C 
BRANCH  20  21
HETATM   21  C8  UNL     1      37.351  16.980  -1.148  1.00  0.00     0.193 C 
BRANCH  21  22
HETATM   22  O4  UNL     1      36.455  18.008  -1.010  1.00  0.00    -0.387 OA
BRANCH  22  23
HETATM   23  C7  UNL     1      36.459  18.956  -2.000  1.00  0.00     0.193 C 
BRANCH  23  24
HETATM   24  C6  UNL     1      37.671  19.887  -1.922  1.00  0.00     0.193 C 
BRANCH  24  25
HETATM   25  O3  UNL     1      37.239  21.185  -2.004  1.00  0.00    -0.387 OA
BRANCH  25  26
HETATM   26  C5  UNL     1      38.100  22.101  -1.460  1.00  0.00     0.193 C 
BRANCH  26  27
HETATM   27  C4  UNL     1      37.818  23.510  -1.850  1.00  0.00     0.193 C 
BRANCH  27  28
HETATM   28  O2  UNL     1      36.607  23.631  -2.551  1.00  0.00    -0.387 OA
BRANCH  28  29
HETATM   29  C3  UNL     1      36.008  24.878  -2.369  1.00  0.00     0.193 C 
BRANCH  29  30
HETATM   30  C2  UNL     1      34.998  24.893  -1.279  1.00  0.00     0.193 C 
BRANCH  30  31
HETATM   31  O1  UNL     1      35.037  26.098  -0.608  1.00  0.00    -0.394 OA
HETATM   32  C1  UNL     1      36.107  26.228   0.248  1.00  0.00     0.201 C 
ENDBRANCH  30  31
ENDBRANCH  29  30
ENDBRANCH  28  29
ENDBRANCH  27  28
ENDBRANCH  26  27
ENDBRANCH  25  26
ENDBRANCH  24  25
ENDBRANCH  23  24
ENDBRANCH  22  23
ENDBRANCH  21  22
ENDBRANCH  20  21
ENDBRANCH  19  20
ENDBRANCH  18  19
ENDBRANCH  13  18
ENDBRANCH  11  12
ENDBRANCH  10  11
ENDBRANCH   9  10
ENDBRANCH   1   9
TORSDOF 18
ENDMDL
