MODEL 1
REMARK VINA RESULT: -4.153853750      0.000      0.000
REMARK  1 active torsions:
REMARK  status: ('A' for Active; 'I' for Inactive)
REMARK    1  A    between atoms: N2_3  and  C2_5 
ROOT
HETATM    1  C2  UNL     1      27.212  37.829  46.156  1.00  0.00     0.133 C 
HETATM    2  C3  UNL     1      28.292  37.239  45.251  1.00  0.00     0.259 C 
HETATM    3  N3  UNL     1      29.204  37.557  46.366  1.00  0.00    -0.071 N 
ATOM      4  H31 UNL     1      30.213  37.641  46.238  1.00  0.00     0.277 HD
ATOM      5  H32 UNL     1      29.403  36.893  47.114  1.00  0.00     0.277 HD
HETATM    6  C4  UNL     1      28.335  38.733  46.567  1.00  0.00     0.259 C 
ENDROOT
BRANCH   1   7
HETATM    7  N2  UNL     1      26.101  38.411  45.502  1.00  0.00    -0.380 N 
HETATM    8  C1  UNL     1      25.014  38.614  46.182  1.00  0.00     0.185 C 
HETATM    9  N1  UNL     1      23.847  39.191  45.614  1.00  0.00    -0.097 NA
ATOM     10  H2  UNL     1      26.153  38.667  44.516  1.00  0.00     0.160 HD
ENDBRANCH   1   7
TORSDOF 1
ENDMDL
MODEL 2
REMARK VINA RESULT: -4.043050900      0.546      1.188
REMARK  1 active torsions:
REMARK  status: ('A' for Active; 'I' for Inactive)
REMARK    1  A    between atoms: N2_3  and  C2_5 
ROOT
HETATM    1  C2  UNL     1      27.641  38.240  45.608  1.00  0.00     0.133 C 
HETATM    2  C3  UNL     1      28.237  38.298  47.013  1.00  0.00     0.259 C 
HETATM    3  N3  UNL     1      29.434  37.714  46.377  1.00  0.00    -0.071 N 
ATOM      4  H31 UNL     1      30.155  37.231  46.913  1.00  0.00     0.277 HD
ATOM      5  H32 UNL     1      30.179  38.291  45.987  1.00  0.00     0.277 HD
HETATM    6  C4  UNL     1      28.467  36.993  45.526  1.00  0.00     0.259 C 
ENDROOT
BRANCH   1   7
HETATM    7  N2  UNL     1      26.234  38.105  45.533  1.00  0.00    -0.380 N 
HETATM    8  C1  UNL     1      25.492  39.101  45.909  1.00  0.00     0.185 C 
HETATM    9  N1  UNL     1      24.073  39.062  45.872  1.00  0.00    -0.097 NA
ATOM     10  H2  UNL     1      25.811  37.242  45.192  1.00  0.00     0.160 HD
ENDBRANCH   1   7
TORSDOF 1
ENDMDL
MODEL 3
REMARK VINA RESULT: -3.771904513      1.213      3.830
REMARK  1 active torsions:
REMARK  status: ('A' for Active; 'I' for Inactive)
REMARK    1  A    between atoms: N2_3  and  C2_5 
ROOT
HETATM    1  C2  UNL     1      25.875  38.567  46.209  1.00  0.00     0.133 C 
HETATM    2  C3  UNL     1      25.691  40.060  45.941  1.00  0.00     0.259 C 
HETATM    3  N3  UNL     1      24.412  39.888  46.657  1.00  0.00    -0.071 N 
ATOM      4  H31 UNL     1      23.641  40.550  46.563  1.00  0.00     0.277 HD
ATOM      5  H32 UNL     1      24.332  40.011  47.667  1.00  0.00     0.277 HD
HETATM    6  C4  UNL     1      24.388  38.555  46.022  1.00  0.00     0.259 C 
ENDROOT
BRANCH   1   7
HETATM    7  N2  UNL     1      26.664  37.859  45.272  1.00  0.00    -0.380 N 
HETATM    8  C1  UNL     1      27.865  37.503  45.611  1.00  0.00     0.185 C 
HETATM    9  N1  UNL     1      28.731  36.791  44.740  1.00  0.00    -0.097 NA
ATOM     10  H2  UNL     1      26.296  37.633  44.348  1.00  0.00     0.160 HD
ENDBRANCH   1   7
TORSDOF 1
ENDMDL
MODEL 4
REMARK VINA RESULT: -3.597841267      0.937      3.895
REMARK  1 active torsions:
REMARK  status: ('A' for Active; 'I' for Inactive)
REMARK    1  A    between atoms: N2_3  and  C2_5 
ROOT
HETATM    1  C2  UNL     1      25.778  38.901  45.792  1.00  0.00     0.133 C 
HETATM    2  C3  UNL     1      24.426  38.269  46.120  1.00  0.00     0.259 C 
HETATM    3  N3  UNL     1      23.874  39.575  45.708  1.00  0.00    -0.071 N 
ATOM      4  H31 UNL     1      22.942  39.884  45.985  1.00  0.00     0.277 HD
ATOM      5  H32 UNL     1      23.602  39.772  44.745  1.00  0.00     0.277 HD
HETATM    6  C4  UNL     1      25.102  40.133  46.310  1.00  0.00     0.259 C 
ENDROOT
BRANCH   1   7
HETATM    7  N2  UNL     1      26.888  38.404  46.514  1.00  0.00    -0.380 N 
HETATM    8  C1  UNL     1      27.739  37.639  45.902  1.00  0.00     0.185 C 
HETATM    9  N1  UNL     1      28.883  37.092  46.542  1.00  0.00    -0.097 NA
ATOM     10  H2  UNL     1      27.017  38.642  47.498  1.00  0.00     0.160 HD
ENDBRANCH   1   7
TORSDOF 1
ENDMDL
MODEL 5
REMARK VINA RESULT: -3.586527096      1.192      1.547
REMARK  1 active torsions:
REMARK  status: ('A' for Active; 'I' for Inactive)
REMARK    1  A    between atoms: N2_3  and  C2_5 
ROOT
HETATM    1  C2  UNL     1      27.513  38.737  45.677  1.00  0.00     0.133 C 
HETATM    2  C3  UNL     1      27.633  40.107  46.341  1.00  0.00     0.259 C 
HETATM    3  N3  UNL     1      28.815  39.526  47.007  1.00  0.00    -0.071 N 
ATOM      4  H31 UNL     1      29.208  39.920  47.861  1.00  0.00     0.277 HD
ATOM      5  H32 UNL     1      29.751  39.586  46.605  1.00  0.00     0.277 HD
HETATM    6  C4  UNL     1      28.035  38.272  47.002  1.00  0.00     0.259 C 
ENDROOT
BRANCH   1   7
HETATM    7  N2  UNL     1      26.208  38.338  45.305  1.00  0.00    -0.380 N 
HETATM    8  C1  UNL     1      25.208  38.708  46.045  1.00  0.00     0.185 C 
HETATM    9  N1  UNL     1      23.863  38.357  45.754  1.00  0.00    -0.097 NA
ATOM     10  H2  UNL     1      26.055  37.770  44.472  1.00  0.00     0.160 HD
ENDBRANCH   1   7
TORSDOF 1
ENDMDL
