MODEL 1
REMARK VINA RESULT: -6.106122314      0.000      0.000
REMARK  7 active torsions:
REMARK  status: ('A' for Active; 'I' for Inactive)
REMARK       I    between atoms: N1_1  and  C1_5 
REMARK       I    between atoms: C1_5  and  N2_6 
REMARK       I    between atoms: C1_5  and  N3_10 
REMARK    1  A    between atoms: N3_10  and  C2_13 
REMARK    2  A    between atoms: C2_13  and  C3_14 
REMARK    3  A    between atoms: C3_14  and  C4_15 
REMARK    4  A    between atoms: C4_15  and  C5_16 
REMARK    5  A    between atoms: C5_16  and  C6_17 
REMARK    6  A    between atoms: C6_17  and  C7_18 
REMARK    7  A    between atoms: C8_21  and  N6_22 
ROOT
HETATM    1  C6  UNL     1      23.609  27.975  41.105  1.00  0.00     0.056 C 
ENDROOT
BRANCH   1   2
HETATM    2  C5  UNL     1      22.459  27.152  41.494  1.00  0.00     0.004 C 
BRANCH   2   3
HETATM    3  C4  UNL     1      21.421  27.767  42.378  1.00  0.00     0.002 C 
BRANCH   3   4
HETATM    4  C3  UNL     1      21.573  29.283  42.443  1.00  0.00     0.027 C 
BRANCH   4   5
HETATM    5  C2  UNL     1      20.526  29.893  41.537  1.00  0.00     0.237 C 
BRANCH   5   6
HETATM    6  N3  UNL     1      21.101  30.553  40.403  1.00  0.00    -0.022 N 
HETATM    7  C1  UNL     1      20.391  30.120  39.214  1.00  0.00     0.575 C 
HETATM    8  N1  UNL     1      20.494  28.686  39.031  1.00  0.00    -0.026 N 
HETATM    9  N2  UNL     1      20.905  30.742  38.012  1.00  0.00    -0.026 N 
ATOM     10  H13 UNL     1      20.034  28.357  38.183  1.00  0.00     0.278 HD
ATOM     11  H12 UNL     1      21.438  28.379  38.795  1.00  0.00     0.278 HD
ATOM     12  H11 UNL     1      20.131  28.248  39.878  1.00  0.00     0.278 HD
ATOM     13  H23 UNL     1      21.850  30.435  37.776  1.00  0.00     0.278 HD
ATOM     14  H22 UNL     1      20.445  30.413  37.164  1.00  0.00     0.278 HD
ATOM     15  H21 UNL     1      20.833  31.752  38.141  1.00  0.00     0.278 HD
ATOM     16  H32 UNL     1      22.108  30.407  40.333  1.00  0.00     0.281 HD
ATOM     17  H31 UNL     1      21.114  31.568  40.504  1.00  0.00     0.281 HD
ENDBRANCH   5   6
ENDBRANCH   4   5
ENDBRANCH   3   4
ENDBRANCH   2   3
ENDBRANCH   1   2
BRANCH   1  18
HETATM   18  C7  UNL     1      24.007  28.130  39.700  1.00  0.00     0.155 C 
HETATM   19  N4  UNL     1      23.807  29.557  39.288  1.00  0.00    -0.107 NA
HETATM   20  N5  UNL     1      24.145  30.378  40.345  1.00  0.00    -0.091 NA
HETATM   21  C8  UNL     1      25.493  30.888  40.280  1.00  0.00     0.392 C 
HETATM   22  N7  UNL     1      26.501  29.886  40.360  1.00  0.00    -0.358 N 
HETATM   23  C9  UNL     1      26.464  28.613  39.680  1.00  0.00     0.102 C 
ATOM     24  H7  UNL     1      27.314  30.083  40.945  1.00  0.00     0.162 HD
HETATM   25  C10 UNL     1      25.443  27.849  39.384  1.00  0.00     0.070 C 
HETATM   26  C11 UNL     1      24.999  26.650  38.761  1.00  0.00     0.254 C 
HETATM   27  O1  UNL     1      25.581  25.572  38.389  1.00  0.00    -0.268 OA
HETATM   28  N8  UNL     1      23.665  27.174  38.737  1.00  0.00    -0.328 N 
ATOM     29  H8  UNL     1      22.813  26.943  38.226  1.00  0.00     0.165 HD
BRANCH  21  30
HETATM   30  N6  UNL     1      25.577  31.665  39.042  1.00  0.00    -0.043 N 
ATOM     31  H63 UNL     1      24.721  32.173  38.822  1.00  0.00     0.278 HD
ATOM     32  H62 UNL     1      26.190  32.478  39.114  1.00  0.00     0.278 HD
ATOM     33  H61 UNL     1      25.858  31.010  38.312  1.00  0.00     0.278 HD
ENDBRANCH  21  30
ENDBRANCH   1  18
TORSDOF 7
ENDMDL
MODEL 2
REMARK VINA RESULT: -6.095244054      2.392      3.515
REMARK  7 active torsions:
REMARK  status: ('A' for Active; 'I' for Inactive)
REMARK       I    between atoms: N1_1  and  C1_5 
REMARK       I    between atoms: C1_5  and  N2_6 
REMARK       I    between atoms: C1_5  and  N3_10 
REMARK    1  A    between atoms: N3_10  and  C2_13 
REMARK    2  A    between atoms: C2_13  and  C3_14 
REMARK    3  A    between atoms: C3_14  and  C4_15 
REMARK    4  A    between atoms: C4_15  and  C5_16 
REMARK    5  A    between atoms: C5_16  and  C6_17 
REMARK    6  A    between atoms: C6_17  and  C7_18 
REMARK    7  A    between atoms: C8_21  and  N6_22 
ROOT
HETATM    1  C6  UNL     1      25.835  28.261  40.687  1.00  0.00     0.056 C 
ENDROOT
BRANCH   1   2
HETATM    2  C5  UNL     1      25.651  26.812  40.547  1.00  0.00     0.004 C 
BRANCH   2   3
HETATM    3  C4  UNL     1      24.656  26.141  41.439  1.00  0.00     0.002 C 
BRANCH   3   4
HETATM    4  C3  UNL     1      23.563  25.448  40.631  1.00  0.00     0.027 C 
BRANCH   4   5
HETATM    5  C2  UNL     1      22.232  26.017  41.068  1.00  0.00     0.237 C 
BRANCH   5   6
HETATM    6  N3  UNL     1      21.695  26.944  40.117  1.00  0.00    -0.022 N 
HETATM    7  C1  UNL     1      20.264  27.045  40.335  1.00  0.00     0.575 C 
HETATM    8  N1  UNL     1      19.613  25.761  40.165  1.00  0.00    -0.026 N 
HETATM    9  N2  UNL     1      19.634  27.969  39.415  1.00  0.00    -0.026 N 
ATOM     10  H13 UNL     1      18.601  25.808  40.277  1.00  0.00     0.278 HD
ATOM     11  H12 UNL     1      19.622  25.432  39.199  1.00  0.00     0.278 HD
ATOM     12  H11 UNL     1      20.057  25.111  40.813  1.00  0.00     0.278 HD
ATOM     13  H23 UNL     1      19.643  27.640  38.449  1.00  0.00     0.278 HD
ATOM     14  H22 UNL     1      18.622  28.016  39.527  1.00  0.00     0.278 HD
ATOM     15  H21 UNL     1      20.092  28.872  39.535  1.00  0.00     0.278 HD
ATOM     16  H32 UNL     1      21.929  26.699  39.155  1.00  0.00     0.281 HD
ATOM     17  H31 UNL     1      22.161  27.851  40.147  1.00  0.00     0.281 HD
ENDBRANCH   5   6
ENDBRANCH   4   5
ENDBRANCH   3   4
ENDBRANCH   2   3
ENDBRANCH   1   2
BRANCH   1  18
HETATM   18  C7  UNL     1      25.989  29.136  39.518  1.00  0.00     0.155 C 
HETATM   19  N4  UNL     1      24.732  29.090  38.702  1.00  0.00    -0.107 NA
HETATM   20  N5  UNL     1      23.649  29.023  39.554  1.00  0.00    -0.091 NA
HETATM   21  C8  UNL     1      23.040  30.303  39.826  1.00  0.00     0.392 C 
HETATM   22  N7  UNL     1      23.888  31.220  40.510  1.00  0.00    -0.358 N 
HETATM   23  C9  UNL     1      25.286  31.435  40.219  1.00  0.00     0.102 C 
ATOM     24  H7  UNL     1      23.476  31.769  41.265  1.00  0.00     0.162 HD
HETATM   25  C10 UNL     1      26.196  30.590  39.802  1.00  0.00     0.070 C 
HETATM   26  C11 UNL     1      27.548  30.405  39.402  1.00  0.00     0.254 C 
HETATM   27  O1  UNL     1      28.622  31.086  39.552  1.00  0.00    -0.268 OA
HETATM   28  N8  UNL     1      27.180  29.166  38.784  1.00  0.00    -0.328 N 
ATOM     29  H8  UNL     1      27.611  28.555  38.090  1.00  0.00     0.165 HD
BRANCH  21  30
HETATM   30  N6  UNL     1      22.585  30.822  38.535  1.00  0.00    -0.043 N 
ATOM     31  H63 UNL     1      23.325  31.265  37.991  1.00  0.00     0.278 HD
ATOM     32  H62 UNL     1      22.355  30.091  37.862  1.00  0.00     0.278 HD
ATOM     33  H61 UNL     1      21.803  31.445  38.737  1.00  0.00     0.278 HD
ENDBRANCH  21  30
ENDBRANCH   1  18
TORSDOF 7
ENDMDL
MODEL 3
REMARK VINA RESULT: -6.041218600      2.220      5.418
REMARK  7 active torsions:
REMARK  status: ('A' for Active; 'I' for Inactive)
REMARK       I    between atoms: N1_1  and  C1_5 
REMARK       I    between atoms: C1_5  and  N2_6 
REMARK       I    between atoms: C1_5  and  N3_10 
REMARK    1  A    between atoms: N3_10  and  C2_13 
REMARK    2  A    between atoms: C2_13  and  C3_14 
REMARK    3  A    between atoms: C3_14  and  C4_15 
REMARK    4  A    between atoms: C4_15  and  C5_16 
REMARK    5  A    between atoms: C5_16  and  C6_17 
REMARK    6  A    between atoms: C6_17  and  C7_18 
REMARK    7  A    between atoms: C8_21  and  N6_22 
ROOT
HETATM    1  C6  UNL     1      23.055  27.103  39.617  1.00  0.00     0.056 C 
ENDROOT
BRANCH   1   2
HETATM    2  C5  UNL     1      24.276  27.067  38.804  1.00  0.00     0.004 C 
BRANCH   2   3
HETATM    3  C4  UNL     1      25.577  26.822  39.501  1.00  0.00     0.002 C 
BRANCH   3   4
HETATM    4  C3  UNL     1      25.740  27.734  40.713  1.00  0.00     0.027 C 
BRANCH   4   5
HETATM    5  C2  UNL     1      26.628  28.889  40.308  1.00  0.00     0.237 C 
BRANCH   5   6
HETATM    6  N3  UNL     1      26.059  30.161  40.643  1.00  0.00    -0.022 N 
HETATM    7  C1  UNL     1      26.309  31.076  39.547  1.00  0.00     0.575 C 
HETATM    8  N1  UNL     1      27.729  31.240  39.310  1.00  0.00    -0.026 N 
HETATM    9  N2  UNL     1      25.763  32.393  39.798  1.00  0.00    -0.026 N 
ATOM     10  H13 UNL     1      27.936  31.907  38.566  1.00  0.00     0.278 HD
ATOM     11  H12 UNL     1      28.207  31.734  40.064  1.00  0.00     0.278 HD
ATOM     12  H11 UNL     1      28.114  30.312  39.132  1.00  0.00     0.278 HD
ATOM     13  H23 UNL     1      26.240  32.887  40.553  1.00  0.00     0.278 HD
ATOM     14  H22 UNL     1      25.970  33.060  39.054  1.00  0.00     0.278 HD
ATOM     15  H21 UNL     1      24.763  32.278  39.964  1.00  0.00     0.278 HD
ATOM     16  H32 UNL     1      26.396  30.518  41.538  1.00  0.00     0.281 HD
ATOM     17  H31 UNL     1      25.070  30.097  40.883  1.00  0.00     0.281 HD
ENDBRANCH   5   6
ENDBRANCH   4   5
ENDBRANCH   3   4
ENDBRANCH   2   3
ENDBRANCH   1   2
BRANCH   1  18
HETATM   18  C7  UNL     1      22.172  28.276  39.631  1.00  0.00     0.155 C 
HETATM   19  N4  UNL     1      20.837  27.891  39.066  1.00  0.00    -0.107 NA
HETATM   20  N5  UNL     1      20.529  26.612  39.481  1.00  0.00    -0.091 NA
HETATM   21  C8  UNL     1      19.684  26.565  40.649  1.00  0.00     0.392 C 
HETATM   22  N7  UNL     1      20.278  27.111  41.822  1.00  0.00    -0.358 N 
HETATM   23  C9  UNL     1      21.053  28.328  41.871  1.00  0.00     0.102 C 
ATOM     24  H7  UNL     1      20.146  26.603  42.697  1.00  0.00     0.162 HD
HETATM   25  C10 UNL     1      21.855  28.850  40.976  1.00  0.00     0.070 C 
HETATM   26  C11 UNL     1      22.710  29.935  40.638  1.00  0.00     0.254 C 
HETATM   27  O1  UNL     1      23.284  30.860  41.312  1.00  0.00    -0.268 OA
HETATM   28  N8  UNL     1      22.638  29.543  39.262  1.00  0.00    -0.328 N 
ATOM     29  H8  UNL     1      22.843  30.000  38.373  1.00  0.00     0.165 HD
BRANCH  21  30
HETATM   30  N6  UNL     1      18.441  27.247  40.284  1.00  0.00    -0.043 N 
ATOM     31  H63 UNL     1      18.436  27.594  39.325  1.00  0.00     0.278 HD
ATOM     32  H62 UNL     1      17.644  26.618  40.195  1.00  0.00     0.278 HD
ATOM     33  H61 UNL     1      18.303  27.980  40.980  1.00  0.00     0.278 HD
ENDBRANCH  21  30
ENDBRANCH   1  18
TORSDOF 7
ENDMDL
MODEL 4
REMARK VINA RESULT: -6.026987988      3.330      4.737
REMARK  7 active torsions:
REMARK  status: ('A' for Active; 'I' for Inactive)
REMARK       I    between atoms: N1_1  and  C1_5 
REMARK       I    between atoms: C1_5  and  N2_6 
REMARK       I    between atoms: C1_5  and  N3_10 
REMARK    1  A    between atoms: N3_10  and  C2_13 
REMARK    2  A    between atoms: C2_13  and  C3_14 
REMARK    3  A    between atoms: C3_14  and  C4_15 
REMARK    4  A    between atoms: C4_15  and  C5_16 
REMARK    5  A    between atoms: C5_16  and  C6_17 
REMARK    6  A    between atoms: C6_17  and  C7_18 
REMARK    7  A    between atoms: C8_21  and  N6_22 
ROOT
HETATM    1  C6  UNL     1      22.335  30.423  40.941  1.00  0.00     0.056 C 
ENDROOT
BRANCH   1   2
HETATM    2  C5  UNL     1      21.017  30.545  41.575  1.00  0.00     0.004 C 
BRANCH   2   3
HETATM    3  C4  UNL     1      20.562  29.437  42.470  1.00  0.00     0.002 C 
BRANCH   3   4
HETATM    4  C3  UNL     1      21.715  28.507  42.836  1.00  0.00     0.027 C 
BRANCH   4   5
HETATM    5  C2  UNL     1      21.196  27.493  43.831  1.00  0.00     0.237 C 
BRANCH   5   6
HETATM    6  N3  UNL     1      21.787  27.646  45.127  1.00  0.00    -0.022 N 
HETATM    7  C1  UNL     1      20.751  27.467  46.126  1.00  0.00     0.575 C 
HETATM    8  N1  UNL     1      19.692  28.446  45.969  1.00  0.00    -0.026 N 
HETATM    9  N2  UNL     1      21.260  27.602  47.474  1.00  0.00    -0.026 N 
ATOM     10  H13 UNL     1      18.966  28.367  46.681  1.00  0.00     0.278 HD
ATOM     11  H12 UNL     1      19.990  29.397  46.191  1.00  0.00     0.278 HD
ATOM     12  H11 UNL     1      19.333  28.350  45.019  1.00  0.00     0.278 HD
ATOM     13  H23 UNL     1      21.558  28.553  47.696  1.00  0.00     0.278 HD
ATOM     14  H22 UNL     1      20.534  27.523  48.186  1.00  0.00     0.278 HD
ATOM     15  H21 UNL     1      22.005  26.914  47.585  1.00  0.00     0.278 HD
ATOM     16  H32 UNL     1      22.283  28.532  45.230  1.00  0.00     0.281 HD
ATOM     17  H31 UNL     1      22.582  27.024  45.272  1.00  0.00     0.281 HD
ENDBRANCH   5   6
ENDBRANCH   4   5
ENDBRANCH   3   4
ENDBRANCH   2   3
ENDBRANCH   1   2
BRANCH   1  18
HETATM   18  C7  UNL     1      22.479  30.142  39.507  1.00  0.00     0.155 C 
HETATM   19  N4  UNL     1      23.933  29.974  39.185  1.00  0.00    -0.107 NA
HETATM   20  N5  UNL     1      24.548  29.313  40.228  1.00  0.00    -0.091 NA
HETATM   21  C8  UNL     1      24.672  27.890  40.026  1.00  0.00     0.392 C 
HETATM   22  N7  UNL     1      23.429  27.201  39.942  1.00  0.00    -0.358 N 
HETATM   23  C9  UNL     1      22.270  27.664  39.217  1.00  0.00     0.102 C 
ATOM     24  H7  UNL     1      23.351  26.311  40.434  1.00  0.00     0.162 HD
HETATM   25  C10 UNL     1      21.839  28.884  39.011  1.00  0.00     0.070 C 
HETATM   26  C11 UNL     1      20.858  29.707  38.393  1.00  0.00     0.254 C 
HETATM   27  O1  UNL     1      19.693  29.493  37.909  1.00  0.00    -0.268 OA
HETATM   28  N8  UNL     1      21.728  30.835  38.551  1.00  0.00    -0.328 N 
ATOM     29  H8  UNL     1      21.779  31.765  38.135  1.00  0.00     0.165 HD
BRANCH  21  30
HETATM   30  N6  UNL     1      25.487  27.717  38.821  1.00  0.00    -0.043 N 
ATOM     31  H63 UNL     1      25.170  28.281  38.033  1.00  0.00     0.278 HD
ATOM     32  H62 UNL     1      26.419  28.124  38.900  1.00  0.00     0.278 HD
ATOM     33  H61 UNL     1      25.497  26.716  38.625  1.00  0.00     0.278 HD
ENDBRANCH  21  30
ENDBRANCH   1  18
TORSDOF 7
ENDMDL
MODEL 5
REMARK VINA RESULT: -5.983778415      2.605      5.482
REMARK  7 active torsions:
REMARK  status: ('A' for Active; 'I' for Inactive)
REMARK       I    between atoms: N1_1  and  C1_5 
REMARK       I    between atoms: C1_5  and  N2_6 
REMARK       I    between atoms: C1_5  and  N3_10 
REMARK    1  A    between atoms: N3_10  and  C2_13 
REMARK    2  A    between atoms: C2_13  and  C3_14 
REMARK    3  A    between atoms: C3_14  and  C4_15 
REMARK    4  A    between atoms: C4_15  and  C5_16 
REMARK    5  A    between atoms: C5_16  and  C6_17 
REMARK    6  A    between atoms: C6_17  and  C7_18 
REMARK    7  A    between atoms: C8_21  and  N6_22 
ROOT
HETATM    1  C6  UNL     1      22.370  29.884  40.642  1.00  0.00     0.056 C 
ENDROOT
BRANCH   1   2
HETATM    2  C5  UNL     1      23.329  30.933  40.278  1.00  0.00     0.004 C 
BRANCH   2   3
HETATM    3  C4  UNL     1      24.788  30.630  40.419  1.00  0.00     0.002 C 
BRANCH   3   4
HETATM    4  C3  UNL     1      25.365  30.063  39.126  1.00  0.00     0.027 C 
BRANCH   4   5
HETATM    5  C2  UNL     1      26.100  28.786  39.468  1.00  0.00     0.237 C 
BRANCH   5   6
HETATM    6  N3  UNL     1      25.278  27.857  40.185  1.00  0.00    -0.022 N 
HETATM    7  C1  UNL     1      25.333  26.578  39.504  1.00  0.00     0.575 C 
HETATM    8  N1  UNL     1      24.849  26.685  38.141  1.00  0.00    -0.026 N 
HETATM    9  N2  UNL     1      24.529  25.571  40.164  1.00  0.00    -0.026 N 
ATOM     10  H13 UNL     1      24.842  25.792  37.648  1.00  0.00     0.278 HD
ATOM     11  H12 UNL     1      23.847  26.873  38.085  1.00  0.00     0.278 HD
ATOM     12  H11 UNL     1      25.416  27.394  37.676  1.00  0.00     0.278 HD
ATOM     13  H23 UNL     1      23.527  25.759  40.108  1.00  0.00     0.278 HD
ATOM     14  H22 UNL     1      24.522  24.678  39.671  1.00  0.00     0.278 HD
ATOM     15  H21 UNL     1      24.869  25.495  41.123  1.00  0.00     0.278 HD
ATOM     16  H32 UNL     1      24.323  28.194  40.312  1.00  0.00     0.281 HD
ATOM     17  H31 UNL     1      25.532  27.787  41.170  1.00  0.00     0.281 HD
ENDBRANCH   5   6
ENDBRANCH   4   5
ENDBRANCH   3   4
ENDBRANCH   2   3
ENDBRANCH   1   2
BRANCH   1  18
HETATM   18  C7  UNL     1      21.741  29.027  39.629  1.00  0.00     0.155 C 
HETATM   19  N4  UNL     1      22.130  27.602  39.883  1.00  0.00    -0.107 NA
HETATM   20  N5  UNL     1      22.172  27.387  41.245  1.00  0.00    -0.091 NA
HETATM   21  C8  UNL     1      20.962  26.812  41.783  1.00  0.00     0.392 C 
HETATM   22  N7  UNL     1      19.814  27.646  41.659  1.00  0.00    -0.358 N 
HETATM   23  C9  UNL     1      19.469  28.416  40.488  1.00  0.00     0.102 C 
ATOM     24  H7  UNL     1      19.186  27.703  42.461  1.00  0.00     0.162 HD
HETATM   25  C10 UNL     1      20.245  29.008  39.614  1.00  0.00     0.070 C 
HETATM   26  C11 UNL     1      20.316  29.773  38.417  1.00  0.00     0.254 C 
HETATM   27  O1  UNL     1      19.475  30.481  37.761  1.00  0.00    -0.268 OA
HETATM   28  N8  UNL     1      21.695  29.406  38.283  1.00  0.00    -0.328 N 
ATOM     29  H8  UNL     1      22.369  29.417  37.517  1.00  0.00     0.165 HD
BRANCH  21  30
HETATM   30  N6  UNL     1      20.789  25.522  41.113  1.00  0.00    -0.043 N 
ATOM     31  H63 UNL     1      19.942  25.469  40.548  1.00  0.00     0.278 HD
ATOM     32  H62 UNL     1      21.455  25.364  40.357  1.00  0.00     0.278 HD
ATOM     33  H61 UNL     1      20.831  24.812  41.845  1.00  0.00     0.278 HD
ENDBRANCH  21  30
ENDBRANCH   1  18
TORSDOF 7
ENDMDL
