MODEL 1
REMARK VINA RESULT: -6.375323677      0.000      0.000
REMARK  4 active torsions:
REMARK  status: ('A' for Active; 'I' for Inactive)
REMARK    1  A    between atoms: N1_2  and  N2_3 
REMARK    2  A    between atoms: N1_2  and  C3_8 
REMARK       I    between atoms: N2_3  and  C2_5 
REMARK    3  A    between atoms: N5_11  and  N6_12 
REMARK    4  A    between atoms: N6_12  and  N7_14 
ROOT
HETATM    1  C3  UNL     1       5.215  -9.136  38.278  1.00  0.00     0.186 A 
HETATM    2  N4  UNL     1       5.354  -8.411  39.370  1.00  0.00    -0.252 N 
ATOM      3  H4  UNL     1       6.274  -8.050  39.621  1.00  0.00     0.191 HD
HETATM    4  N5  UNL     1       4.351  -8.156  40.118  1.00  0.00    -0.134 N 
HETATM    5  C4  UNL     1       3.158  -8.644  39.759  1.00  0.00     0.329 A 
HETATM    6  O2  UNL     1       2.039  -8.504  40.364  1.00  0.00    -0.256 OA
HETATM    7  S1  UNL     1       3.536  -9.478  38.317  1.00  0.00     0.013 SA
ENDROOT
BRANCH   1   8
HETATM    8  N1  UNL     1       6.207  -9.517  37.321  1.00  0.00    -0.270 N 
HETATM    9  C1  UNL     1       7.020 -10.681  37.512  1.00  0.00     0.180 C 
BRANCH   8  10
HETATM   10  N2  UNL     1       6.361  -8.726  36.190  1.00  0.00    -0.250 N 
HETATM   11  C2  UNL     1       7.083  -7.487  36.300  1.00  0.00     0.347 C 
HETATM   12  N3  UNL     1       7.217  -6.715  35.127  1.00  0.00    -0.038 NA
HETATM   13  O1  UNL     1       7.565  -7.123  37.391  1.00  0.00    -0.249 OA
ATOM     14  H2  UNL     1       5.968  -9.020  35.296  1.00  0.00     0.191 HD
ENDBRANCH   8  10
ENDBRANCH   1   8
BRANCH   4  15
HETATM   15  N6  UNL     1       4.484  -7.378  41.309  1.00  0.00    -0.224 N 
ATOM     16  H6  UNL     1       4.891  -6.444  41.253  1.00  0.00     0.210 HD
BRANCH  15  17
HETATM   17  N7  UNL     1       4.076  -7.860  42.530  1.00  0.00    -0.329 N 
ATOM     18  H72 UNL     1       3.379  -8.605  42.547  1.00  0.00     0.178 HD
ATOM     19  H71 UNL     1       4.453  -7.490  43.402  1.00  0.00     0.178 HD
ENDBRANCH  15  17
ENDBRANCH   4  15
TORSDOF 4
ENDMDL
MODEL 2
REMARK VINA RESULT: -6.230549222      1.276      1.325
REMARK  4 active torsions:
REMARK  status: ('A' for Active; 'I' for Inactive)
REMARK    1  A    between atoms: N1_2  and  N2_3 
REMARK    2  A    between atoms: N1_2  and  C3_8 
REMARK       I    between atoms: N2_3  and  C2_5 
REMARK    3  A    between atoms: N5_11  and  N6_12 
REMARK    4  A    between atoms: N6_12  and  N7_14 
ROOT
HETATM    1  C3  UNL     1       4.888  -8.690  38.285  1.00  0.00     0.186 A 
HETATM    2  N4  UNL     1       4.284  -9.272  39.302  1.00  0.00    -0.252 N 
ATOM      3  H4  UNL     1       4.492 -10.246  39.521  1.00  0.00     0.191 HD
HETATM    4  N5  UNL     1       3.443  -8.631  40.016  1.00  0.00    -0.134 N 
HETATM    5  C4  UNL     1       3.194  -7.354  39.703  1.00  0.00     0.329 A 
HETATM    6  O2  UNL     1       2.394  -6.544  40.287  1.00  0.00    -0.256 OA
HETATM    7  S1  UNL     1       4.210  -7.118  38.350  1.00  0.00     0.013 SA
ENDROOT
BRANCH   1   8
HETATM    8  N1  UNL     1       5.855  -9.236  37.383  1.00  0.00    -0.270 N 
HETATM    9  C1  UNL     1       6.533 -10.466  37.670  1.00  0.00     0.180 C 
BRANCH   8  10
HETATM   10  N2  UNL     1       6.120  -8.541  36.211  1.00  0.00    -0.250 N 
HETATM   11  C2  UNL     1       7.064  -7.457  36.243  1.00  0.00     0.347 C 
HETATM   12  N3  UNL     1       7.306  -6.777  35.030  1.00  0.00    -0.038 NA
HETATM   13  O1  UNL     1       7.638  -7.140  37.305  1.00  0.00    -0.249 OA
ATOM     14  H2  UNL     1       5.653  -8.797  35.341  1.00  0.00     0.191 HD
ENDBRANCH   8  10
ENDBRANCH   1   8
BRANCH   4  15
HETATM   15  N6  UNL     1       2.774  -9.247  41.119  1.00  0.00    -0.224 N 
ATOM     16  H6  UNL     1       2.348 -10.165  40.994  1.00  0.00     0.210 HD
BRANCH  15  17
HETATM   17  N7  UNL     1       2.692  -8.629  42.345  1.00  0.00    -0.329 N 
ATOM     18  H72 UNL     1       1.782  -8.286  42.652  1.00  0.00     0.178 HD
ATOM     19  H71 UNL     1       3.514  -8.512  42.937  1.00  0.00     0.178 HD
ENDBRANCH  15  17
ENDBRANCH   4  15
TORSDOF 4
ENDMDL
MODEL 3
REMARK VINA RESULT: -6.085305594      2.484      5.604
REMARK  4 active torsions:
REMARK  status: ('A' for Active; 'I' for Inactive)
REMARK    1  A    between atoms: N1_2  and  N2_3 
REMARK    2  A    between atoms: N1_2  and  C3_8 
REMARK       I    between atoms: N2_3  and  C2_5 
REMARK    3  A    between atoms: N5_11  and  N6_12 
REMARK    4  A    between atoms: N6_12  and  N7_14 
ROOT
HETATM    1  C3  UNL     1       6.519  -8.247  40.287  1.00  0.00     0.186 A 
HETATM    2  N4  UNL     1       6.151  -8.980  39.255  1.00  0.00    -0.252 N 
ATOM      3  H4  UNL     1       5.621  -9.838  39.410  1.00  0.00     0.191 HD
HETATM    4  N5  UNL     1       6.450  -8.630  38.065  1.00  0.00    -0.134 N 
HETATM    5  C4  UNL     1       7.145  -7.499  37.897  1.00  0.00     0.329 A 
HETATM    6  O2  UNL     1       7.540  -6.977  36.797  1.00  0.00    -0.256 OA
HETATM    7  S1  UNL     1       7.349  -6.967  39.507  1.00  0.00     0.013 SA
ENDROOT
BRANCH   1   8
HETATM    8  N1  UNL     1       6.274  -8.469  41.679  1.00  0.00    -0.270 N 
HETATM    9  C1  UNL     1       7.323  -8.877  42.566  1.00  0.00     0.180 C 
BRANCH   8  10
HETATM   10  N2  UNL     1       4.985  -8.272  42.154  1.00  0.00    -0.250 N 
HETATM   11  C2  UNL     1       4.058  -9.371  42.126  1.00  0.00     0.347 C 
HETATM   12  N3  UNL     1       2.758  -9.130  42.619  1.00  0.00    -0.038 NA
HETATM   13  O1  UNL     1       4.400 -10.486  41.682  1.00  0.00    -0.249 OA
ATOM     14  H2  UNL     1       4.700  -7.363  42.517  1.00  0.00     0.191 HD
ENDBRANCH   8  10
ENDBRANCH   1   8
BRANCH   4  15
HETATM   15  N6  UNL     1       6.065  -9.416  36.934  1.00  0.00    -0.224 N 
ATOM     16  H6  UNL     1       5.074  -9.556  36.737  1.00  0.00     0.210 HD
BRANCH  15  17
HETATM   17  N7  UNL     1       7.003  -9.989  36.107  1.00  0.00    -0.329 N 
ATOM     18  H72 UNL     1       7.987  -9.897  36.356  1.00  0.00     0.178 HD
ATOM     19  H71 UNL     1       6.730 -10.493  35.263  1.00  0.00     0.178 HD
ENDBRANCH  15  17
ENDBRANCH   4  15
TORSDOF 4
ENDMDL
MODEL 4
REMARK VINA RESULT: -6.011181843      2.029      5.649
REMARK  4 active torsions:
REMARK  status: ('A' for Active; 'I' for Inactive)
REMARK    1  A    between atoms: N1_2  and  N2_3 
REMARK    2  A    between atoms: N1_2  and  C3_8 
REMARK       I    between atoms: N2_3  and  C2_5 
REMARK    3  A    between atoms: N5_11  and  N6_12 
REMARK    4  A    between atoms: N6_12  and  N7_14 
ROOT
HETATM    1  C3  UNL     1       4.835  -8.160  39.591  1.00  0.00     0.186 A 
HETATM    2  N4  UNL     1       4.948  -8.765  38.425  1.00  0.00    -0.252 N 
ATOM      3  H4  UNL     1       4.269  -9.480  38.161  1.00  0.00     0.191 HD
HETATM    4  N5  UNL     1       5.896  -8.469  37.624  1.00  0.00    -0.134 N 
HETATM    5  C4  UNL     1       6.768  -7.527  38.001  1.00  0.00     0.329 A 
HETATM    6  O2  UNL     1       7.779  -7.087  37.351  1.00  0.00    -0.256 OA
HETATM    7  S1  UNL     1       6.174  -7.091  39.542  1.00  0.00     0.013 SA
ENDROOT
BRANCH   1   8
HETATM    8  N1  UNL     1       3.847  -8.348  40.608  1.00  0.00    -0.270 N 
HETATM    9  C1  UNL     1       2.499  -8.710  40.282  1.00  0.00     0.180 C 
BRANCH   8  10
HETATM   10  N2  UNL     1       4.231  -8.176  41.931  1.00  0.00    -0.250 N 
HETATM   11  C2  UNL     1       4.539  -9.336  42.723  1.00  0.00     0.347 C 
HETATM   12  N3  UNL     1       4.926  -9.117  44.062  1.00  0.00    -0.038 NA
HETATM   13  O1  UNL     1       4.463 -10.482  42.235  1.00  0.00    -0.249 OA
ATOM     14  H2  UNL     1       4.294  -7.242  42.334  1.00  0.00     0.191 HD
ENDBRANCH   8  10
ENDBRANCH   1   8
BRANCH   4  15
HETATM   15  N6  UNL     1       6.038  -9.120  36.359  1.00  0.00    -0.224 N 
ATOM     16  H6  UNL     1       5.367  -8.921  35.618  1.00  0.00     0.210 HD
BRANCH  15  17
HETATM   17  N7  UNL     1       7.061 -10.008  36.121  1.00  0.00    -0.329 N 
ATOM     18  H72 UNL     1       7.972  -9.817  36.536  1.00  0.00     0.178 HD
ATOM     19  H71 UNL     1       6.921 -10.837  35.545  1.00  0.00     0.178 HD
ENDBRANCH  15  17
ENDBRANCH   4  15
TORSDOF 4
ENDMDL
MODEL 5
REMARK VINA RESULT: -6.001524636      2.629      3.743
REMARK  4 active torsions:
REMARK  status: ('A' for Active; 'I' for Inactive)
REMARK    1  A    between atoms: N1_2  and  N2_3 
REMARK    2  A    between atoms: N1_2  and  C3_8 
REMARK       I    between atoms: N2_3  and  C2_5 
REMARK    3  A    between atoms: N5_11  and  N6_12 
REMARK    4  A    between atoms: N6_12  and  N7_14 
ROOT
HETATM    1  C3  UNL     1       5.283  -9.274  37.985  1.00  0.00     0.186 A 
HETATM    2  N4  UNL     1       6.434  -9.903  38.115  1.00  0.00    -0.252 N 
ATOM      3  H4  UNL     1       7.305  -9.403  37.933  1.00  0.00     0.191 HD
HETATM    4  N5  UNL     1       6.473 -11.130  38.465  1.00  0.00    -0.134 N 
HETATM    5  C4  UNL     1       5.313 -11.755  38.697  1.00  0.00     0.329 A 
HETATM    6  O2  UNL     1       5.135 -12.971  39.055  1.00  0.00    -0.256 OA
HETATM    7  S1  UNL     1       4.176 -10.517  38.392  1.00  0.00     0.013 SA
ENDROOT
BRANCH   1   8
HETATM    8  N1  UNL     1       5.041  -7.914  37.613  1.00  0.00    -0.270 N 
HETATM    9  C1  UNL     1       4.335  -7.018  38.481  1.00  0.00     0.180 C 
BRANCH   8  10
HETATM   10  N2  UNL     1       5.514  -7.478  36.383  1.00  0.00    -0.250 N 
HETATM   11  C2  UNL     1       6.895  -7.094  36.266  1.00  0.00     0.347 C 
HETATM   12  N3  UNL     1       7.336  -6.658  34.998  1.00  0.00    -0.038 NA
HETATM   13  O1  UNL     1       7.660  -7.147  37.250  1.00  0.00    -0.249 OA
ATOM     14  H2  UNL     1       4.893  -7.432  35.576  1.00  0.00     0.191 HD
ENDBRANCH   8  10
ENDBRANCH   1   8
BRANCH   4  15
HETATM   15  N6  UNL     1       7.711 -11.830  38.605  1.00  0.00    -0.224 N 
ATOM     16  H6  UNL     1       7.904 -12.335  39.469  1.00  0.00     0.210 HD
BRANCH  15  17
HETATM   17  N7  UNL     1       8.648 -11.838  37.598  1.00  0.00    -0.329 N 
ATOM     18  H72 UNL     1       9.541 -11.376  37.767  1.00  0.00     0.178 HD
ATOM     19  H71 UNL     1       8.463 -12.290  36.703  1.00  0.00     0.178 HD
ENDBRANCH  15  17
ENDBRANCH   4  15
TORSDOF 4
ENDMDL
