MODEL 1
REMARK VINA RESULT: -6.098675350      0.000      0.000
REMARK  6 active torsions:
REMARK  status: ('A' for Active; 'I' for Inactive)
REMARK    1  A    between atoms: C6_6  and  C7_7 
REMARK    2  A    between atoms: C7_7  and  C8_8 
REMARK    3  A    between atoms: C8_8  and  O1_9 
REMARK    4  A    between atoms: C12_15  and  C14_17 
REMARK    5  A    between atoms: C14_17  and  O3_19 
REMARK    6  A    between atoms: O3_19  and  C15_20 
ROOT
HETATM    1  C1  UNL     1     -10.691  13.353  39.657  1.00  0.00     0.015 C 
HETATM    2  C2  UNL     1     -11.790  13.962  39.854  1.00  0.00    -0.084 C 
HETATM    3  C3  UNL     1     -12.977  13.287  39.169  1.00  0.00     0.034 C 
HETATM    4  C4  UNL     1     -13.359  12.437  40.404  1.00  0.00     0.005 C 
HETATM    5  C5  UNL     1     -13.822  13.328  41.462  1.00  0.00     0.013 C 
HETATM    6  C6  UNL     1     -13.239  14.698  41.701  1.00  0.00     0.001 C 
HETATM    7  C9  UNL     1     -12.634  14.676  43.065  1.00  0.00     0.179 C 
HETATM    8  F1  UNL     1     -13.025  15.780  43.802  1.00  0.00    -0.249 F 
HETATM    9  C10 UNL     1     -11.097  14.688  43.051  1.00  0.00     0.044 C 
HETATM   10  C11 UNL     1     -10.697  15.964  42.408  1.00  0.00     0.015 C 
HETATM   11  C12 UNL     1      -9.390  16.564  42.717  1.00  0.00     0.049 C 
HETATM   12  C13 UNL     1      -8.174  15.705  42.516  1.00  0.00     0.026 C 
HETATM   13  C17 UNL     1      -9.274  17.896  42.005  1.00  0.00     0.020 C 
HETATM   14  C18 UNL     1     -10.450  18.460  41.360  1.00  0.00     0.002 C 
HETATM   15  C19 UNL     1     -11.633  17.599  41.016  1.00  0.00     0.010 C 
HETATM   16  C20 UNL     1     -11.199  16.107  40.995  1.00  0.00    -0.031 C 
HETATM   17  C21 UNL     1     -10.158  16.171  39.910  1.00  0.00     0.016 C 
HETATM   18  C22 UNL     1     -12.241  15.144  40.629  1.00  0.00     0.033 C 
ENDROOT
BRANCH  11  19
HETATM   19  C14 UNL     1      -9.384  16.876  44.205  1.00  0.00     0.267 C 
HETATM   20  O2  UNL     1      -8.876  16.133  45.060  1.00  0.00    -0.264 OA
BRANCH  19  21
HETATM   21  O3  UNL     1      -9.977  18.056  44.666  1.00  0.00    -0.321 OA
BRANCH  21  22
HETATM   22  C15 UNL     1     -11.245  18.074  45.296  1.00  0.00     0.174 C 
HETATM   23  C16 UNL     1     -12.251  18.913  44.587  1.00  0.00     0.034 C 
ENDBRANCH  21  22
ENDBRANCH  19  21
ENDBRANCH  11  19
BRANCH   6  24
HETATM   24  C7  UNL     1     -14.461  15.585  41.633  1.00  0.00     0.039 C 
BRANCH  24  25
HETATM   25  C8  UNL     1     -15.788  14.963  41.892  1.00  0.00     0.165 C 
BRANCH  25  26
HETATM   26  O1  UNL     1     -16.213  15.349  43.207  1.00  0.00    -0.401 OA
ATOM     27  H1  UNL     1     -16.806  16.087  43.121  1.00  0.00     0.209 HD
ENDBRANCH  25  26
ENDBRANCH  24  25
ENDBRANCH   6  24
TORSDOF 6
ENDMDL
MODEL 2
REMARK VINA RESULT: -6.001606508      2.335      4.242
REMARK  6 active torsions:
REMARK  status: ('A' for Active; 'I' for Inactive)
REMARK    1  A    between atoms: C6_6  and  C7_7 
REMARK    2  A    between atoms: C7_7  and  C8_8 
REMARK    3  A    between atoms: C8_8  and  O1_9 
REMARK    4  A    between atoms: C12_15  and  C14_17 
REMARK    5  A    between atoms: C14_17  and  O3_19 
REMARK    6  A    between atoms: O3_19  and  C15_20 
ROOT
HETATM    1  C1  UNL     1     -14.149  14.773  41.618  1.00  0.00     0.015 C 
HETATM    2  C2  UNL     1     -13.155  14.013  41.389  1.00  0.00    -0.084 C 
HETATM    3  C3  UNL     1     -13.553  12.692  40.733  1.00  0.00     0.034 C 
HETATM    4  C4  UNL     1     -13.345  13.209  39.289  1.00  0.00     0.005 C 
HETATM    5  C5  UNL     1     -11.925  13.470  39.084  1.00  0.00     0.013 C 
HETATM    6  C6  UNL     1     -11.021  14.010  40.164  1.00  0.00     0.001 C 
HETATM    7  C9  UNL     1     -10.529  15.336  39.690  1.00  0.00     0.179 C 
HETATM    8  F1  UNL     1      -9.157  15.442  39.842  1.00  0.00    -0.249 F 
HETATM    9  C10 UNL     1     -11.141  16.522  40.452  1.00  0.00     0.044 C 
HETATM   10  C11 UNL     1     -10.718  16.371  41.866  1.00  0.00     0.015 C 
HETATM   11  C12 UNL     1     -10.630  17.553  42.737  1.00  0.00     0.049 C 
HETATM   12  C13 UNL     1     -11.855  18.412  42.857  1.00  0.00     0.026 C 
HETATM   13  C17 UNL     1     -10.090  17.135  44.089  1.00  0.00     0.020 C 
HETATM   14  C18 UNL     1      -9.562  15.789  44.257  1.00  0.00     0.002 C 
HETATM   15  C19 UNL     1      -9.910  14.693  43.289  1.00  0.00     0.010 C 
HETATM   16  C20 UNL     1     -11.190  15.088  42.500  1.00  0.00    -0.031 C 
HETATM   17  C21 UNL     1     -12.154  15.214  43.647  1.00  0.00     0.016 C 
HETATM   18  C22 UNL     1     -11.681  14.093  41.543  1.00  0.00     0.033 C 
ENDROOT
BRANCH  11  19
HETATM   19  C14 UNL     1      -9.585  18.475  42.130  1.00  0.00     0.267 C 
HETATM   20  O2  UNL     1      -9.862  19.432  41.388  1.00  0.00    -0.264 OA
BRANCH  19  21
HETATM   21  O3  UNL     1      -8.230  18.259  42.403  1.00  0.00    -0.321 OA
BRANCH  21  22
HETATM   22  C15 UNL     1      -7.342  17.704  41.449  1.00  0.00     0.174 C 
HETATM   23  C16 UNL     1      -6.746  16.407  41.875  1.00  0.00     0.034 C 
ENDBRANCH  21  22
ENDBRANCH  19  21
ENDBRANCH  11  19
BRANCH   6  24
HETATM   24  C7  UNL     1      -9.920  12.975  40.210  1.00  0.00     0.039 C 
BRANCH  24  25
HETATM   25  C8  UNL     1     -10.171  11.661  39.556  1.00  0.00     0.165 C 
BRANCH  25  26
HETATM   26  O1  UNL     1      -8.919  11.158  39.069  1.00  0.00    -0.401 OA
ATOM     27  H1  UNL     1      -8.881  10.228  39.259  1.00  0.00     0.209 HD
ENDBRANCH  25  26
ENDBRANCH  24  25
ENDBRANCH   6  24
TORSDOF 6
ENDMDL
MODEL 3
REMARK VINA RESULT: -5.877801700      2.422      4.176
REMARK  6 active torsions:
REMARK  status: ('A' for Active; 'I' for Inactive)
REMARK    1  A    between atoms: C6_6  and  C7_7 
REMARK    2  A    between atoms: C7_7  and  C8_8 
REMARK    3  A    between atoms: C8_8  and  O1_9 
REMARK    4  A    between atoms: C12_15  and  C14_17 
REMARK    5  A    between atoms: C14_17  and  O3_19 
REMARK    6  A    between atoms: O3_19  and  C15_20 
ROOT
HETATM    1  C1  UNL     1     -14.138  14.951  41.522  1.00  0.00     0.015 C 
HETATM    2  C2  UNL     1     -13.182  14.130  41.350  1.00  0.00    -0.084 C 
HETATM    3  C3  UNL     1     -13.636  12.807  40.733  1.00  0.00     0.034 C 
HETATM    4  C4  UNL     1     -13.362  13.255  39.277  1.00  0.00     0.005 C 
HETATM    5  C5  UNL     1     -11.924  13.429  39.104  1.00  0.00     0.013 C 
HETATM    6  C6  UNL     1     -11.020  13.961  40.188  1.00  0.00     0.001 C 
HETATM    7  C9  UNL     1     -10.442  15.238  39.679  1.00  0.00     0.179 C 
HETATM    8  F1  UNL     1      -9.071  15.275  39.866  1.00  0.00    -0.249 F 
HETATM    9  C10 UNL     1     -11.006  16.485  40.377  1.00  0.00     0.044 C 
HETATM   10  C11 UNL     1     -10.630  16.367  41.808  1.00  0.00     0.015 C 
HETATM   11  C12 UNL     1     -10.500  17.576  42.635  1.00  0.00     0.049 C 
HETATM   12  C13 UNL     1     -11.678  18.505  42.687  1.00  0.00     0.026 C 
HETATM   13  C17 UNL     1     -10.021  17.183  44.017  1.00  0.00     0.020 C 
HETATM   14  C18 UNL     1      -9.574  15.817  44.251  1.00  0.00     0.002 C 
HETATM   15  C19 UNL     1      -9.957  14.705  43.316  1.00  0.00     0.010 C 
HETATM   16  C20 UNL     1     -11.190  15.138  42.475  1.00  0.00    -0.031 C 
HETATM   17  C21 UNL     1     -12.177  15.362  43.589  1.00  0.00     0.016 C 
HETATM   18  C22 UNL     1     -11.711  14.135  41.543  1.00  0.00     0.033 C 
ENDROOT
BRANCH  11  19
HETATM   19  C14 UNL     1      -9.389  18.415  42.024  1.00  0.00     0.267 C 
HETATM   20  O2  UNL     1      -8.221  18.016  41.894  1.00  0.00    -0.264 OA
BRANCH  19  21
HETATM   21  O3  UNL     1      -9.668  19.710  41.574  1.00  0.00    -0.321 OA
BRANCH  21  22
HETATM   22  C15 UNL     1      -9.208  20.196  40.326  1.00  0.00     0.174 C 
HETATM   23  C16 UNL     1     -10.125  19.889  39.193  1.00  0.00     0.034 C 
ENDBRANCH  21  22
ENDBRANCH  19  21
ENDBRANCH  11  19
BRANCH   6  24
HETATM   24  C7  UNL     1      -9.980  12.870  40.305  1.00  0.00     0.039 C 
BRANCH  24  25
HETATM   25  C8  UNL     1     -10.194  11.618  39.527  1.00  0.00     0.165 C 
BRANCH  25  26
HETATM   26  O1  UNL     1      -8.917  11.155  39.067  1.00  0.00    -0.401 OA
ATOM     27  H1  UNL     1      -9.034  10.775  38.204  1.00  0.00     0.209 HD
ENDBRANCH  25  26
ENDBRANCH  24  25
ENDBRANCH   6  24
TORSDOF 6
ENDMDL
MODEL 4
REMARK VINA RESULT: -5.778204097      3.450      5.840
REMARK  6 active torsions:
REMARK  status: ('A' for Active; 'I' for Inactive)
REMARK    1  A    between atoms: C6_6  and  C7_7 
REMARK    2  A    between atoms: C7_7  and  C8_8 
REMARK    3  A    between atoms: C8_8  and  O1_9 
REMARK    4  A    between atoms: C12_15  and  C14_17 
REMARK    5  A    between atoms: C14_17  and  O3_19 
REMARK    6  A    between atoms: O3_19  and  C15_20 
ROOT
HETATM    1  C1  UNL     1     -11.174  18.694  40.183  1.00  0.00     0.015 C 
HETATM    2  C2  UNL     1     -10.963  17.975  41.211  1.00  0.00    -0.084 C 
HETATM    3  C3  UNL     1     -12.014  18.174  42.303  1.00  0.00     0.034 C 
HETATM    4  C4  UNL     1     -12.912  17.012  41.816  1.00  0.00     0.005 C 
HETATM    5  C5  UNL     1     -12.202  15.754  42.017  1.00  0.00     0.013 C 
HETATM    6  C6  UNL     1     -10.710  15.612  41.846  1.00  0.00     0.001 C 
HETATM    7  C9  UNL     1     -10.495  14.647  40.729  1.00  0.00     0.179 C 
HETATM    8  F1  UNL     1      -9.568  13.679  41.077  1.00  0.00    -0.249 F 
HETATM    9  C10 UNL     1      -9.970  15.306  39.445  1.00  0.00     0.044 C 
HETATM   10  C11 UNL     1      -8.649  15.891  39.787  1.00  0.00     0.015 C 
HETATM   11  C12 UNL     1      -7.639  16.090  38.737  1.00  0.00     0.049 C 
HETATM   12  C13 UNL     1      -8.046  16.893  37.535  1.00  0.00     0.026 C 
HETATM   13  C17 UNL     1      -6.363  16.609  39.367  1.00  0.00     0.020 C 
HETATM   14  C18 UNL     1      -6.241  16.620  40.817  1.00  0.00     0.002 C 
HETATM   15  C19 UNL     1      -7.456  16.538  41.698  1.00  0.00     0.010 C 
HETATM   16  C20 UNL     1      -8.717  16.929  40.877  1.00  0.00    -0.031 C 
HETATM   17  C21 UNL     1      -8.334  18.334  40.498  1.00  0.00     0.016 C 
HETATM   18  C22 UNL     1      -9.982  16.939  41.617  1.00  0.00     0.033 C 
ENDROOT
BRANCH  11  19
HETATM   19  C14 UNL     1      -7.307  14.717  38.174  1.00  0.00     0.267 C 
HETATM   20  O2  UNL     1      -7.304  13.679  38.855  1.00  0.00    -0.264 OA
BRANCH  19  21
HETATM   21  O3  UNL     1      -6.983  14.586  36.819  1.00  0.00    -0.321 OA
BRANCH  21  22
HETATM   22  C15 UNL     1      -5.690  14.210  36.380  1.00  0.00     0.174 C 
HETATM   23  C16 UNL     1      -5.649  13.770  34.957  1.00  0.00     0.034 C 
ENDBRANCH  21  22
ENDBRANCH  19  21
ENDBRANCH  11  19
BRANCH   6  24
HETATM   24  C7  UNL     1     -10.285  15.044  43.181  1.00  0.00     0.039 C 
BRANCH  24  25
HETATM   25  C8  UNL     1     -10.083  15.994  44.310  1.00  0.00     0.165 C 
BRANCH  25  26
HETATM   26  O1  UNL     1      -8.990  15.517  45.105  1.00  0.00    -0.401 OA
ATOM     27  H1  UNL     1      -9.335  14.910  45.749  1.00  0.00     0.209 HD
ENDBRANCH  25  26
ENDBRANCH  24  25
ENDBRANCH   6  24
TORSDOF 6
ENDMDL
MODEL 5
REMARK VINA RESULT: -5.740600248      1.886      2.566
REMARK  6 active torsions:
REMARK  status: ('A' for Active; 'I' for Inactive)
REMARK    1  A    between atoms: C6_6  and  C7_7 
REMARK    2  A    between atoms: C7_7  and  C8_8 
REMARK    3  A    between atoms: C8_8  and  O1_9 
REMARK    4  A    between atoms: C12_15  and  C14_17 
REMARK    5  A    between atoms: C14_17  and  O3_19 
REMARK    6  A    between atoms: O3_19  and  C15_20 
ROOT
HETATM    1  C1  UNL     1     -11.231  14.523  41.053  1.00  0.00     0.015 C 
HETATM    2  C2  UNL     1     -12.465  14.750  40.841  1.00  0.00    -0.084 C 
HETATM    3  C3  UNL     1     -13.100  13.744  39.882  1.00  0.00     0.034 C 
HETATM    4  C4  UNL     1     -13.586  12.799  41.007  1.00  0.00     0.005 C 
HETATM    5  C5  UNL     1     -14.615  13.483  41.783  1.00  0.00     0.013 C 
HETATM    6  C6  UNL     1     -14.587  14.964  42.068  1.00  0.00     0.001 C 
HETATM    7  C9  UNL     1     -14.481  15.114  43.548  1.00  0.00     0.179 C 
HETATM    8  F1  UNL     1     -15.407  16.028  44.024  1.00  0.00    -0.249 F 
HETATM    9  C10 UNL     1     -13.105  15.612  44.015  1.00  0.00     0.044 C 
HETATM   10  C11 UNL     1     -12.924  16.958  43.418  1.00  0.00     0.015 C 
HETATM   11  C12 UNL     1     -12.036  17.936  44.065  1.00  0.00     0.049 C 
HETATM   12  C13 UNL     1     -10.621  17.509  44.332  1.00  0.00     0.026 C 
HETATM   13  C17 UNL     1     -12.105  19.246  43.308  1.00  0.00     0.020 C 
HETATM   14  C18 UNL     1     -13.119  19.419  42.279  1.00  0.00     0.002 C 
HETATM   15  C19 UNL     1     -13.806  18.233  41.661  1.00  0.00     0.010 C 
HETATM   16  C20 UNL     1     -12.957  16.955  41.912  1.00  0.00    -0.031 C 
HETATM   17  C21 UNL     1     -11.692  17.361  41.206  1.00  0.00     0.016 C 
HETATM   18  C22 UNL     1     -13.480  15.718  41.326  1.00  0.00     0.033 C 
ENDROOT
BRANCH  11  19
HETATM   19  C14 UNL     1     -12.610  18.212  45.445  1.00  0.00     0.267 C 
HETATM   20  O2  UNL     1     -12.019  17.938  46.502  1.00  0.00    -0.264 OA
BRANCH  19  21
HETATM   21  O3  UNL     1     -13.871  18.807  45.563  1.00  0.00    -0.321 OA
BRANCH  21  22
HETATM   22  C15 UNL     1     -14.084  19.993  46.308  1.00  0.00     0.174 C 
HETATM   23  C16 UNL     1     -14.577  21.133  45.485  1.00  0.00     0.034 C 
ENDBRANCH  21  22
ENDBRANCH  19  21
ENDBRANCH  11  19
BRANCH   6  24
HETATM   24  C7  UNL     1     -15.928  15.420  41.541  1.00  0.00     0.039 C 
BRANCH  24  25
HETATM   25  C8  UNL     1     -17.021  14.412  41.455  1.00  0.00     0.165 C 
BRANCH  25  26
HETATM   26  O1  UNL     1     -17.929  14.645  42.541  1.00  0.00    -0.401 OA
ATOM     27  H1  UNL     1     -18.748  14.207  42.340  1.00  0.00     0.209 HD
ENDBRANCH  25  26
ENDBRANCH  24  25
ENDBRANCH   6  24
TORSDOF 6
ENDMDL
