MODEL 1
REMARK VINA RESULT: -7.255046567      0.000      0.000
REMARK  20 active torsions:
REMARK  status: ('A' for Active; 'I' for Inactive)
REMARK    1  A    between atoms: C2_2  and  C3_3 
REMARK    2  A    between atoms: C3_3  and  C4_4 
REMARK    3  A    between atoms: C6_8  and  C7_9 
REMARK    4  A    between atoms: C7_9  and  C8_10 
REMARK    5  A    between atoms: C8_10  and  N1_11 
REMARK       I    between atoms: N1_11  and  C9_13 
REMARK    6  A    between atoms: C9_13  and  O4_15 
REMARK    7  A    between atoms: O4_15  and  C10_16 
REMARK    8  A    between atoms: C15_24  and  C16_25 
REMARK    9  A    between atoms: C16_25  and  C17_26 
REMARK   10  A    between atoms: C17_26  and  C18_27 
REMARK   11  A    between atoms: C18_27  and  C19_28 
REMARK   12  A    between atoms: C19_28  and  C20_29 
REMARK   13  A    between atoms: C20_29  and  C21_30 
REMARK   14  A    between atoms: C21_30  and  C22_31 
REMARK   15  A    between atoms: C22_31  and  C23_32 
REMARK   16  A    between atoms: C23_32  and  C24_33 
REMARK   17  A    between atoms: C24_33  and  C25_34 
REMARK   18  A    between atoms: C25_34  and  C26_35 
REMARK   19  A    between atoms: C29_41  and  C30_42 
REMARK   20  A    between atoms: C30_42  and  O7_44 
ROOT
HETATM    1  C4  UNL     1      21.603  12.431  25.920  1.00  0.00     0.227 C 
HETATM    2  O1  UNL     1      21.812  12.984  24.694  1.00  0.00    -0.304 OA
HETATM    3  C5  UNL     1      22.828  13.305  23.896  1.00  0.00     0.282 C 
HETATM    4  O2  UNL     1      23.228  14.465  23.521  1.00  0.00    -0.263 OA
HETATM    5  C6  UNL     1      23.622  12.188  23.357  1.00  0.00     0.185 C 
HETATM    6  N2  UNL     1      25.055  12.416  23.491  1.00  0.00    -0.345 N 
ATOM      7  H2  UNL     1      25.547  12.674  22.636  1.00  0.00     0.163 HD
HETATM    8  C14 UNL     1      25.839  12.327  24.643  1.00  0.00     0.241 C 
HETATM    9  O5  UNL     1      26.938  11.661  24.565  1.00  0.00    -0.271 OA
HETATM   10  C15 UNL     1      25.525  12.931  25.964  1.00  0.00     0.176 C 
HETATM   11  N3  UNL     1      25.395  11.866  26.950  1.00  0.00    -0.346 N 
ATOM     12  H3  UNL     1      26.139  11.168  26.969  1.00  0.00     0.163 HD
HETATM   13  C28 UNL     1      24.361  11.701  27.869  1.00  0.00     0.243 C 
HETATM   14  O6  UNL     1      23.948  10.512  28.114  1.00  0.00    -0.271 OA
HETATM   15  C29 UNL     1      23.678  12.783  28.607  1.00  0.00     0.205 C 
HETATM   16  N4  UNL     1      22.835  13.640  27.850  1.00  0.00    -0.343 N 
ATOM     17  H4  UNL     1      23.095  14.626  27.879  1.00  0.00     0.163 HD
HETATM   18  C32 UNL     1      21.708  13.357  27.070  1.00  0.00     0.248 C 
HETATM   19  O8  UNL     1      20.623  13.970  27.376  1.00  0.00    -0.271 OA
ENDROOT
BRANCH  10  20
HETATM   20  C16 UNL     1      26.493  13.964  26.441  1.00  0.00     0.035 C 
BRANCH  20  21
HETATM   21  C17 UNL     1      27.408  14.571  25.445  1.00  0.00     0.002 C 
BRANCH  21  22
HETATM   22  C18 UNL     1      28.841  14.233  25.747  1.00  0.00     0.000 C 
BRANCH  22  23
HETATM   23  C19 UNL     1      29.179  13.495  26.954  1.00  0.00     0.000 C 
BRANCH  23  24
HETATM   24  C20 UNL     1      29.911  14.067  28.095  1.00  0.00     0.000 C 
BRANCH  24  25
HETATM   25  C21 UNL     1      30.254  15.490  28.149  1.00  0.00     0.000 C 
BRANCH  25  26
HETATM   26  C22 UNL     1      29.354  16.242  29.156  1.00  0.00     0.000 C 
BRANCH  26  27
HETATM   27  C23 UNL     1      28.062  16.663  28.539  1.00  0.00     0.000 C 
BRANCH  27  28
HETATM   28  C24 UNL     1      27.005  16.769  29.613  1.00  0.00     0.000 C 
BRANCH  28  29
HETATM   29  C25 UNL     1      26.056  15.604  29.518  1.00  0.00    -0.000 C 
BRANCH  29  30
HETATM   30  C26 UNL     1      26.317  14.646  30.694  1.00  0.00    -0.005 C 
HETATM   31  C27 UNL     1      26.942  13.381  30.160  1.00  0.00     0.005 C 
ENDBRANCH  29  30
ENDBRANCH  28  29
ENDBRANCH  27  28
ENDBRANCH  26  27
ENDBRANCH  25  26
ENDBRANCH  24  25
ENDBRANCH  23  24
ENDBRANCH  22  23
ENDBRANCH  21  22
ENDBRANCH  20  21
ENDBRANCH  10  20
BRANCH   5  32
HETATM   32  C7  UNL     1      23.351  11.738  21.976  1.00  0.00     0.055 C 
BRANCH  32  33
HETATM   33  C8  UNL     1      22.358  10.656  21.800  1.00  0.00     0.127 C 
BRANCH  33  34
HETATM   34  N1  UNL     1      22.550   9.868  20.634  1.00  0.00    -0.337 N 
HETATM   35  C9  UNL     1      22.696   8.449  20.729  1.00  0.00     0.361 C 
HETATM   36  O3  UNL     1      22.657   7.854  21.830  1.00  0.00    -0.238 OA
ATOM     37  H1  UNL     1      22.585  10.319  19.720  1.00  0.00     0.164 HD
BRANCH  35  38
HETATM   38  O4  UNL     1      22.886   7.671  19.610  1.00  0.00    -0.294 OA
BRANCH  38  39
HETATM   39  C10 UNL     1      24.050   7.517  18.872  1.00  0.00     0.061 C 
HETATM   40  C11 UNL     1      25.301   7.342  19.673  1.00  0.00     0.046 C 
HETATM   41  C12 UNL     1      23.885   6.234  18.050  1.00  0.00     0.046 C 
HETATM   42  C13 UNL     1      24.300   8.659  17.898  1.00  0.00     0.046 C 
ENDBRANCH  38  39
ENDBRANCH  35  38
ENDBRANCH  33  34
ENDBRANCH  32  33
ENDBRANCH   5  32
BRANCH  15  43
HETATM   43  C30 UNL     1      22.939  12.245  29.821  1.00  0.00     0.146 C 
HETATM   44  C31 UNL     1      22.450  13.464  30.585  1.00  0.00     0.042 C 
BRANCH  43  45
HETATM   45  O7  UNL     1      23.737  11.516  30.661  1.00  0.00    -0.393 OA
ATOM     46  H7  UNL     1      24.243  10.848  30.214  1.00  0.00     0.210 HD
ENDBRANCH  43  45
ENDBRANCH  15  43
BRANCH   1  47
HETATM   47  C3  UNL     1      20.230  11.776  25.929  1.00  0.00     0.068 C 
BRANCH  47  48
HETATM   48  C2  UNL     1      19.550  11.813  24.639  1.00  0.00    -0.034 C 
HETATM   49  C1  UNL     1      18.924  10.748  24.173  1.00  0.00     0.007 C 
ENDBRANCH  47  48
ENDBRANCH   1  47
TORSDOF 20
ENDMDL
MODEL 2
REMARK VINA RESULT: -7.226606581      5.236      8.628
REMARK  20 active torsions:
REMARK  status: ('A' for Active; 'I' for Inactive)
REMARK    1  A    between atoms: C2_2  and  C3_3 
REMARK    2  A    between atoms: C3_3  and  C4_4 
REMARK    3  A    between atoms: C6_8  and  C7_9 
REMARK    4  A    between atoms: C7_9  and  C8_10 
REMARK    5  A    between atoms: C8_10  and  N1_11 
REMARK       I    between atoms: N1_11  and  C9_13 
REMARK    6  A    between atoms: C9_13  and  O4_15 
REMARK    7  A    between atoms: O4_15  and  C10_16 
REMARK    8  A    between atoms: C15_24  and  C16_25 
REMARK    9  A    between atoms: C16_25  and  C17_26 
REMARK   10  A    between atoms: C17_26  and  C18_27 
REMARK   11  A    between atoms: C18_27  and  C19_28 
REMARK   12  A    between atoms: C19_28  and  C20_29 
REMARK   13  A    between atoms: C20_29  and  C21_30 
REMARK   14  A    between atoms: C21_30  and  C22_31 
REMARK   15  A    between atoms: C22_31  and  C23_32 
REMARK   16  A    between atoms: C23_32  and  C24_33 
REMARK   17  A    between atoms: C24_33  and  C25_34 
REMARK   18  A    between atoms: C25_34  and  C26_35 
REMARK   19  A    between atoms: C29_41  and  C30_42 
REMARK   20  A    between atoms: C30_42  and  O7_44 
ROOT
HETATM    1  C4  UNL     1      15.847   5.367  21.607  1.00  0.00     0.227 C 
HETATM    2  O1  UNL     1      16.407   5.803  20.445  1.00  0.00    -0.304 OA
HETATM    3  C5  UNL     1      17.379   6.618  20.041  1.00  0.00     0.282 C 
HETATM    4  O2  UNL     1      17.291   7.723  19.394  1.00  0.00    -0.263 OA
HETATM    5  C6  UNL     1      18.756   6.220  20.376  1.00  0.00     0.185 C 
HETATM    6  N2  UNL     1      19.528   7.322  20.935  1.00  0.00    -0.345 N 
ATOM      7  H2  UNL     1      20.212   7.749  20.311  1.00  0.00     0.163 HD
HETATM    8  C14 UNL     1      19.448   7.866  22.218  1.00  0.00     0.241 C 
HETATM    9  O5  UNL     1      20.551   8.052  22.856  1.00  0.00    -0.271 OA
HETATM   10  C15 UNL     1      18.202   8.257  22.927  1.00  0.00     0.176 C 
HETATM   11  N3  UNL     1      18.079   7.457  24.139  1.00  0.00    -0.346 N 
ATOM     12  H3  UNL     1      18.906   7.402  24.735  1.00  0.00     0.163 HD
HETATM   13  C28 UNL     1      16.952   6.761  24.570  1.00  0.00     0.243 C 
HETATM   14  O6  UNL     1      17.117   5.614  25.118  1.00  0.00    -0.271 OA
HETATM   15  C29 UNL     1      15.554   7.224  24.457  1.00  0.00     0.205 C 
HETATM   16  N4  UNL     1      14.998   7.266  23.150  1.00  0.00    -0.343 N 
ATOM     17  H4  UNL     1      14.675   8.188  22.855  1.00  0.00     0.163 HD
HETATM   18  C32 UNL     1      14.820   6.254  22.199  1.00  0.00     0.248 C 
HETATM   19  O8  UNL     1      13.625   6.060  21.777  1.00  0.00    -0.271 OA
ENDROOT
BRANCH  10  20
HETATM   20  C16 UNL     1      18.078   9.710  23.250  1.00  0.00     0.035 C 
BRANCH  20  21
HETATM   21  C17 UNL     1      18.655  10.188  24.530  1.00  0.00     0.002 C 
BRANCH  21  22
HETATM   22  C18 UNL     1      19.420  11.467  24.336  1.00  0.00     0.000 C 
BRANCH  22  23
HETATM   23  C19 UNL     1      20.840  11.430  24.023  1.00  0.00     0.000 C 
BRANCH  23  24
HETATM   24  C20 UNL     1      21.690  12.623  23.894  1.00  0.00     0.000 C 
BRANCH  24  25
HETATM   25  C21 UNL     1      22.640  13.004  24.943  1.00  0.00     0.000 C 
BRANCH  25  26
HETATM   26  C22 UNL     1      22.303  14.397  25.522  1.00  0.00     0.000 C 
BRANCH  26  27
HETATM   27  C23 UNL     1      20.925  14.443  26.092  1.00  0.00     0.000 C 
BRANCH  27  28
HETATM   28  C24 UNL     1      20.871  13.594  27.340  1.00  0.00     0.000 C 
BRANCH  28  29
HETATM   29  C25 UNL     1      19.445  13.219  27.647  1.00  0.00    -0.000 C 
BRANCH  29  30
HETATM   30  C26 UNL     1      19.381  11.716  27.973  1.00  0.00    -0.005 C 
HETATM   31  C27 UNL     1      17.939  11.273  27.937  1.00  0.00     0.005 C 
ENDBRANCH  29  30
ENDBRANCH  28  29
ENDBRANCH  27  28
ENDBRANCH  26  27
ENDBRANCH  25  26
ENDBRANCH  24  25
ENDBRANCH  23  24
ENDBRANCH  22  23
ENDBRANCH  21  22
ENDBRANCH  20  21
ENDBRANCH  10  20
BRANCH   5  32
HETATM   32  C7  UNL     1      19.570   5.568  19.329  1.00  0.00     0.055 C 
BRANCH  32  33
HETATM   33  C8  UNL     1      19.897   6.370  18.129  1.00  0.00     0.127 C 
BRANCH  33  34
HETATM   34  N1  UNL     1      21.036   7.208  18.277  1.00  0.00    -0.337 N 
HETATM   35  C9  UNL     1      22.353   6.654  18.269  1.00  0.00     0.361 C 
HETATM   36  O3  UNL     1      22.553   5.426  18.130  1.00  0.00    -0.238 OA
ATOM     37  H1  UNL     1      20.911   8.213  18.391  1.00  0.00     0.164 HD
BRANCH  35  38
HETATM   38  O4  UNL     1      23.466   7.451  18.414  1.00  0.00    -0.294 OA
BRANCH  38  39
HETATM   39  C10 UNL     1      24.064   7.866  19.595  1.00  0.00     0.061 C 
HETATM   40  C11 UNL     1      23.410   7.386  20.850  1.00  0.00     0.046 C 
HETATM   41  C12 UNL     1      25.482   7.283  19.600  1.00  0.00     0.046 C 
HETATM   42  C13 UNL     1      24.188   9.379  19.706  1.00  0.00     0.046 C 
ENDBRANCH  38  39
ENDBRANCH  35  38
ENDBRANCH  33  34
ENDBRANCH  32  33
ENDBRANCH   5  32
BRANCH  15  43
HETATM   43  C30 UNL     1      14.639   6.461  25.400  1.00  0.00     0.146 C 
HETATM   44  C31 UNL     1      13.235   6.971  25.123  1.00  0.00     0.042 C 
BRANCH  43  45
HETATM   45  O7  UNL     1      14.914   6.686  26.722  1.00  0.00    -0.393 OA
ATOM     46  H7  UNL     1      14.357   6.192  27.311  1.00  0.00     0.210 HD
ENDBRANCH  43  45
ENDBRANCH  15  43
BRANCH   1  47
HETATM   47  C3  UNL     1      15.244   3.992  21.369  1.00  0.00     0.068 C 
BRANCH  47  48
HETATM   48  C2  UNL     1      15.209   3.597  19.965  1.00  0.00    -0.034 C 
HETATM   49  C1  UNL     1      14.061   3.446  19.333  1.00  0.00     0.007 C 
ENDBRANCH  47  48
ENDBRANCH   1  47
TORSDOF 20
ENDMDL
MODEL 3
REMARK VINA RESULT: -7.217502667      4.959     11.764
REMARK  20 active torsions:
REMARK  status: ('A' for Active; 'I' for Inactive)
REMARK    1  A    between atoms: C2_2  and  C3_3 
REMARK    2  A    between atoms: C3_3  and  C4_4 
REMARK    3  A    between atoms: C6_8  and  C7_9 
REMARK    4  A    between atoms: C7_9  and  C8_10 
REMARK    5  A    between atoms: C8_10  and  N1_11 
REMARK       I    between atoms: N1_11  and  C9_13 
REMARK    6  A    between atoms: C9_13  and  O4_15 
REMARK    7  A    between atoms: O4_15  and  C10_16 
REMARK    8  A    between atoms: C15_24  and  C16_25 
REMARK    9  A    between atoms: C16_25  and  C17_26 
REMARK   10  A    between atoms: C17_26  and  C18_27 
REMARK   11  A    between atoms: C18_27  and  C19_28 
REMARK   12  A    between atoms: C19_28  and  C20_29 
REMARK   13  A    between atoms: C20_29  and  C21_30 
REMARK   14  A    between atoms: C21_30  and  C22_31 
REMARK   15  A    between atoms: C22_31  and  C23_32 
REMARK   16  A    between atoms: C23_32  and  C24_33 
REMARK   17  A    between atoms: C24_33  and  C25_34 
REMARK   18  A    between atoms: C25_34  and  C26_35 
REMARK   19  A    between atoms: C29_41  and  C30_42 
REMARK   20  A    between atoms: C30_42  and  O7_44 
ROOT
HETATM    1  C4  UNL     1      22.170  11.425  23.443  1.00  0.00     0.227 C 
HETATM    2  O1  UNL     1      21.053  12.071  23.876  1.00  0.00    -0.304 OA
HETATM    3  C5  UNL     1      19.759  11.821  24.071  1.00  0.00     0.282 C 
HETATM    4  O2  UNL     1      18.741  12.304  23.458  1.00  0.00    -0.263 OA
HETATM    5  C6  UNL     1      19.426  10.857  25.132  1.00  0.00     0.185 C 
HETATM    6  N2  UNL     1      18.450   9.868  24.691  1.00  0.00    -0.345 N 
ATOM      7  H2  UNL     1      17.500   9.994  25.038  1.00  0.00     0.163 HD
HETATM    8  C14 UNL     1      18.653   8.770  23.853  1.00  0.00     0.241 C 
HETATM    9  O5  UNL     1      18.183   7.635  24.235  1.00  0.00    -0.271 OA
HETATM   10  C15 UNL     1      19.365   8.785  22.549  1.00  0.00     0.176 C 
HETATM   11  N3  UNL     1      20.523   7.904  22.635  1.00  0.00    -0.346 N 
ATOM     12  H3  UNL     1      20.361   6.973  23.019  1.00  0.00     0.163 HD
HETATM   13  C28 UNL     1      21.828   8.201  22.249  1.00  0.00     0.243 C 
HETATM   14  O6  UNL     1      22.792   7.766  22.973  1.00  0.00    -0.271 OA
HETATM   15  C29 UNL     1      22.222   8.983  21.059  1.00  0.00     0.205 C 
HETATM   16  N4  UNL     1      21.940  10.375  21.088  1.00  0.00    -0.343 N 
ATOM     17  H4  UNL     1      21.333  10.702  20.336  1.00  0.00     0.163 HD
HETATM   18  C32 UNL     1      22.356  11.374  21.976  1.00  0.00     0.248 C 
HETATM   19  O8  UNL     1      22.975  12.377  21.470  1.00  0.00    -0.271 OA
ENDROOT
BRANCH  10  20
HETATM   20  C16 UNL     1      18.532   8.431  21.360  1.00  0.00     0.035 C 
BRANCH  20  21
HETATM   21  C17 UNL     1      18.479   7.007  20.949  1.00  0.00     0.002 C 
BRANCH  21  22
HETATM   22  C18 UNL     1      17.136   6.659  20.374  1.00  0.00     0.000 C 
BRANCH  22  23
HETATM   23  C19 UNL     1      16.148   7.700  20.139  1.00  0.00     0.000 C 
BRANCH  23  24
HETATM   24  C20 UNL     1      14.991   7.954  21.012  1.00  0.00     0.000 C 
BRANCH  24  25
HETATM   25  C21 UNL     1      14.877   7.330  22.333  1.00  0.00     0.000 C 
BRANCH  25  26
HETATM   26  C22 UNL     1      13.738   6.286  22.360  1.00  0.00     0.000 C 
BRANCH  26  27
HETATM   27  C23 UNL     1      14.193   4.956  21.860  1.00  0.00     0.000 C 
BRANCH  27  28
HETATM   28  C24 UNL     1      13.413   4.594  20.618  1.00  0.00     0.000 C 
BRANCH  28  29
HETATM   29  C25 UNL     1      14.353   4.139  19.533  1.00  0.00    -0.000 C 
BRANCH  29  30
HETATM   30  C26 UNL     1      14.254   5.111  18.344  1.00  0.00    -0.005 C 
HETATM   31  C27 UNL     1      13.067   4.723  17.497  1.00  0.00     0.005 C 
ENDBRANCH  29  30
ENDBRANCH  28  29
ENDBRANCH  27  28
ENDBRANCH  26  27
ENDBRANCH  25  26
ENDBRANCH  24  25
ENDBRANCH  23  24
ENDBRANCH  22  23
ENDBRANCH  21  22
ENDBRANCH  20  21
ENDBRANCH  10  20
BRANCH   5  32
HETATM   32  C7  UNL     1      18.995  11.380  26.445  1.00  0.00     0.055 C 
BRANCH  32  33
HETATM   33  C8  UNL     1      17.577  11.181  26.820  1.00  0.00     0.127 C 
BRANCH  33  34
HETATM   34  N1  UNL     1      17.385  10.659  28.128  1.00  0.00    -0.337 N 
HETATM   35  C9  UNL     1      17.319   9.248  28.346  1.00  0.00     0.361 C 
HETATM   36  O3  UNL     1      17.429   8.428  27.406  1.00  0.00    -0.238 OA
ATOM     37  H1  UNL     1      17.294  11.298  28.917  1.00  0.00     0.164 HD
BRANCH  35  38
HETATM   38  O4  UNL     1      17.131   8.727  29.606  1.00  0.00    -0.294 OA
BRANCH  38  39
HETATM   39  C10 UNL     1      18.101   8.416  30.548  1.00  0.00     0.061 C 
HETATM   40  C11 UNL     1      19.486   8.873  30.220  1.00  0.00     0.046 C 
HETATM   41  C12 UNL     1      17.706   9.137  31.841  1.00  0.00     0.046 C 
HETATM   42  C13 UNL     1      18.183   6.928  30.857  1.00  0.00     0.046 C 
ENDBRANCH  38  39
ENDBRANCH  35  38
ENDBRANCH  33  34
ENDBRANCH  32  33
ENDBRANCH   5  32
BRANCH  15  43
HETATM   43  C30 UNL     1      23.677   8.742  20.693  1.00  0.00     0.146 C 
HETATM   44  C31 UNL     1      23.919   9.523  19.412  1.00  0.00     0.042 C 
BRANCH  43  45
HETATM   45  O7  UNL     1      23.961   7.426  20.442  1.00  0.00    -0.393 OA
ATOM     46  H7  UNL     1      23.965   6.886  21.224  1.00  0.00     0.210 HD
ENDBRANCH  43  45
ENDBRANCH  15  43
BRANCH   1  47
HETATM   47  C3  UNL     1      23.386  12.081  24.080  1.00  0.00     0.068 C 
BRANCH  47  48
HETATM   48  C2  UNL     1      23.104  13.370  24.702  1.00  0.00    -0.034 C 
HETATM   49  C1  UNL     1      23.552  13.650  25.911  1.00  0.00     0.007 C 
ENDBRANCH  47  48
ENDBRANCH   1  47
TORSDOF 20
ENDMDL
MODEL 4
REMARK VINA RESULT: -7.198374429      0.787      1.920
REMARK  20 active torsions:
REMARK  status: ('A' for Active; 'I' for Inactive)
REMARK    1  A    between atoms: C2_2  and  C3_3 
REMARK    2  A    between atoms: C3_3  and  C4_4 
REMARK    3  A    between atoms: C6_8  and  C7_9 
REMARK    4  A    between atoms: C7_9  and  C8_10 
REMARK    5  A    between atoms: C8_10  and  N1_11 
REMARK       I    between atoms: N1_11  and  C9_13 
REMARK    6  A    between atoms: C9_13  and  O4_15 
REMARK    7  A    between atoms: O4_15  and  C10_16 
REMARK    8  A    between atoms: C15_24  and  C16_25 
REMARK    9  A    between atoms: C16_25  and  C17_26 
REMARK   10  A    between atoms: C17_26  and  C18_27 
REMARK   11  A    between atoms: C18_27  and  C19_28 
REMARK   12  A    between atoms: C19_28  and  C20_29 
REMARK   13  A    between atoms: C20_29  and  C21_30 
REMARK   14  A    between atoms: C21_30  and  C22_31 
REMARK   15  A    between atoms: C22_31  and  C23_32 
REMARK   16  A    between atoms: C23_32  and  C24_33 
REMARK   17  A    between atoms: C24_33  and  C25_34 
REMARK   18  A    between atoms: C25_34  and  C26_35 
REMARK   19  A    between atoms: C29_41  and  C30_42 
REMARK   20  A    between atoms: C30_42  and  O7_44 
ROOT
HETATM    1  C4  UNL     1      21.297  12.411  25.869  1.00  0.00     0.227 C 
HETATM    2  O1  UNL     1      21.581  12.945  24.650  1.00  0.00    -0.304 OA
HETATM    3  C5  UNL     1      22.644  13.275  23.919  1.00  0.00     0.282 C 
HETATM    4  O2  UNL     1      23.044  14.437  23.550  1.00  0.00    -0.263 OA
HETATM    5  C6  UNL     1      23.500  12.167  23.462  1.00  0.00     0.185 C 
HETATM    6  N2  UNL     1      24.914  12.432  23.692  1.00  0.00    -0.345 N 
ATOM      7  H2  UNL     1      25.460  12.685  22.869  1.00  0.00     0.163 HD
HETATM    8  C14 UNL     1      25.615  12.383  24.898  1.00  0.00     0.241 C 
HETATM    9  O5  UNL     1      26.732  11.743  24.912  1.00  0.00    -0.271 OA
HETATM   10  C15 UNL     1      25.194  13.005  26.181  1.00  0.00     0.176 C 
HETATM   11  N3  UNL     1      25.018  11.956  27.177  1.00  0.00    -0.346 N 
ATOM     12  H3  UNL     1      25.775  11.277  27.264  1.00  0.00     0.163 HD
HETATM   13  C28 UNL     1      23.925  11.784  28.023  1.00  0.00     0.243 C 
HETATM   14  O6  UNL     1      23.523  10.591  28.264  1.00  0.00    -0.271 OA
HETATM   15  C29 UNL     1      23.168  12.863  28.689  1.00  0.00     0.205 C 
HETATM   16  N4  UNL     1      22.362  13.685  27.856  1.00  0.00    -0.343 N 
ATOM     17  H4  UNL     1      22.597  14.678  27.883  1.00  0.00     0.163 HD
HETATM   18  C32 UNL     1      21.299  13.361  27.004  1.00  0.00     0.248 C 
HETATM   19  O8  UNL     1      20.182  13.954  27.220  1.00  0.00    -0.271 OA
ENDROOT
BRANCH  10  20
HETATM   20  C16 UNL     1      26.103  14.070  26.704  1.00  0.00     0.035 C 
BRANCH  20  21
HETATM   21  C17 UNL     1      26.673  13.890  28.061  1.00  0.00     0.002 C 
BRANCH  21  22
HETATM   22  C18 UNL     1      26.291  15.028  28.964  1.00  0.00     0.000 C 
BRANCH  22  23
HETATM   23  C19 UNL     1      27.178  16.171  29.117  1.00  0.00     0.000 C 
BRANCH  23  24
HETATM   24  C20 UNL     1      28.446  16.337  28.390  1.00  0.00     0.000 C 
BRANCH  24  25
HETATM   25  C21 UNL     1      29.731  15.986  29.002  1.00  0.00     0.000 C 
BRANCH  25  26
HETATM   26  C22 UNL     1      30.603  15.158  28.032  1.00  0.00     0.000 C 
BRANCH  26  27
HETATM   27  C23 UNL     1      29.877  14.836  26.769  1.00  0.00     0.000 C 
BRANCH  27  28
HETATM   28  C24 UNL     1      29.872  13.341  26.559  1.00  0.00     0.000 C 
BRANCH  28  29
HETATM   29  C25 UNL     1      30.561  12.657  27.710  1.00  0.00    -0.000 C 
BRANCH  29  30
HETATM   30  C26 UNL     1      29.596  11.635  28.338  1.00  0.00    -0.005 C 
HETATM   31  C27 UNL     1      29.328  12.035  29.768  1.00  0.00     0.005 C 
ENDBRANCH  29  30
ENDBRANCH  28  29
ENDBRANCH  27  28
ENDBRANCH  26  27
ENDBRANCH  25  26
ENDBRANCH  24  25
ENDBRANCH  23  24
ENDBRANCH  22  23
ENDBRANCH  21  22
ENDBRANCH  20  21
ENDBRANCH  10  20
BRANCH   5  32
HETATM   32  C7  UNL     1      23.338  11.684  22.074  1.00  0.00     0.055 C 
BRANCH  32  33
HETATM   33  C8  UNL     1      22.339  10.618  21.841  1.00  0.00     0.127 C 
BRANCH  33  34
HETATM   34  N1  UNL     1      22.547   9.871  20.651  1.00  0.00    -0.337 N 
HETATM   35  C9  UNL     1      22.706   8.451  20.701  1.00  0.00     0.361 C 
HETATM   36  O3  UNL     1      22.665   7.819  21.782  1.00  0.00    -0.238 OA
ATOM     37  H1  UNL     1      22.584  10.352  19.753  1.00  0.00     0.164 HD
BRANCH  35  38
HETATM   38  O4  UNL     1      22.910   7.712  19.558  1.00  0.00    -0.294 OA
BRANCH  38  39
HETATM   39  C10 UNL     1      24.086   7.579  18.833  1.00  0.00     0.061 C 
HETATM   40  C11 UNL     1      25.322   7.370  19.648  1.00  0.00     0.046 C 
HETATM   41  C12 UNL     1      23.928   6.327  17.964  1.00  0.00     0.046 C 
HETATM   42  C13 UNL     1      24.356   8.754  17.905  1.00  0.00     0.046 C 
ENDBRANCH  38  39
ENDBRANCH  35  38
ENDBRANCH  33  34
ENDBRANCH  32  33
ENDBRANCH   5  32
BRANCH  15  43
HETATM   43  C30 UNL     1      22.356  12.332  29.858  1.00  0.00     0.146 C 
HETATM   44  C31 UNL     1      21.843  13.555  30.600  1.00  0.00     0.042 C 
BRANCH  43  45
HETATM   45  O7  UNL     1      23.096  11.588  30.737  1.00  0.00    -0.393 OA
ATOM     46  H7  UNL     1      22.761  11.613  31.626  1.00  0.00     0.210 HD
ENDBRANCH  43  45
ENDBRANCH  15  43
BRANCH   1  47
HETATM   47  C3  UNL     1      19.943  11.723  25.794  1.00  0.00     0.068 C 
BRANCH  47  48
HETATM   48  C2  UNL     1      19.458  11.522  24.433  1.00  0.00    -0.034 C 
HETATM   49  C1  UNL     1      18.982  10.351  24.051  1.00  0.00     0.007 C 
ENDBRANCH  47  48
ENDBRANCH   1  47
TORSDOF 20
ENDMDL
MODEL 5
REMARK VINA RESULT: -7.144497002      5.554      8.749
REMARK  20 active torsions:
REMARK  status: ('A' for Active; 'I' for Inactive)
REMARK    1  A    between atoms: C2_2  and  C3_3 
REMARK    2  A    between atoms: C3_3  and  C4_4 
REMARK    3  A    between atoms: C6_8  and  C7_9 
REMARK    4  A    between atoms: C7_9  and  C8_10 
REMARK    5  A    between atoms: C8_10  and  N1_11 
REMARK       I    between atoms: N1_11  and  C9_13 
REMARK    6  A    between atoms: C9_13  and  O4_15 
REMARK    7  A    between atoms: O4_15  and  C10_16 
REMARK    8  A    between atoms: C15_24  and  C16_25 
REMARK    9  A    between atoms: C16_25  and  C17_26 
REMARK   10  A    between atoms: C17_26  and  C18_27 
REMARK   11  A    between atoms: C18_27  and  C19_28 
REMARK   12  A    between atoms: C19_28  and  C20_29 
REMARK   13  A    between atoms: C20_29  and  C21_30 
REMARK   14  A    between atoms: C21_30  and  C22_31 
REMARK   15  A    between atoms: C22_31  and  C23_32 
REMARK   16  A    between atoms: C23_32  and  C24_33 
REMARK   17  A    between atoms: C24_33  and  C25_34 
REMARK   18  A    between atoms: C25_34  and  C26_35 
REMARK   19  A    between atoms: C29_41  and  C30_42 
REMARK   20  A    between atoms: C30_42  and  O7_44 
ROOT
HETATM    1  C4  UNL     1      15.446   5.682  22.193  1.00  0.00     0.227 C 
HETATM    2  O1  UNL     1      15.850   6.235  21.017  1.00  0.00    -0.304 OA
HETATM    3  C5  UNL     1      16.778   7.078  20.569  1.00  0.00     0.282 C 
HETATM    4  O2  UNL     1      16.631   8.247  20.061  1.00  0.00    -0.263 OA
HETATM    5  C6  UNL     1      18.178   6.630  20.662  1.00  0.00     0.185 C 
HETATM    6  N2  UNL     1      19.048   7.656  21.221  1.00  0.00    -0.345 N 
ATOM      7  H2  UNL     1      19.651   8.141  20.556  1.00  0.00     0.163 HD
HETATM    8  C14 UNL     1      19.161   8.059  22.553  1.00  0.00     0.241 C 
HETATM    9  O5  UNL     1      20.346   8.163  23.045  1.00  0.00    -0.271 OA
HETATM   10  C15 UNL     1      18.036   8.385  23.467  1.00  0.00     0.176 C 
HETATM   11  N3  UNL     1      18.061   7.460  24.593  1.00  0.00    -0.346 N 
ATOM     12  H3  UNL     1      18.960   7.331  25.058  1.00  0.00     0.163 HD
HETATM   13  C28 UNL     1      16.986   6.734  25.102  1.00  0.00     0.243 C 
HETATM   14  O6  UNL     1      17.195   5.532  25.497  1.00  0.00    -0.271 OA
HETATM   15  C29 UNL     1      15.599   7.222  25.236  1.00  0.00     0.205 C 
HETATM   16  N4  UNL     1      14.869   7.412  24.032  1.00  0.00    -0.343 N 
ATOM     17  H4  UNL     1      14.533   8.364  23.884  1.00  0.00     0.163 HD
HETATM   18  C32 UNL     1      14.534   6.511  23.014  1.00  0.00     0.248 C 
HETATM   19  O8  UNL     1      13.287   6.378  22.745  1.00  0.00    -0.271 OA
ENDROOT
BRANCH  10  20
HETATM   20  C16 UNL     1      17.996   9.796  23.957  1.00  0.00     0.035 C 
BRANCH  20  21
HETATM   21  C17 UNL     1      18.585  10.086  25.286  1.00  0.00     0.002 C 
BRANCH  21  22
HETATM   22  C18 UNL     1      17.609  10.819  26.163  1.00  0.00     0.000 C 
BRANCH  22  23
HETATM   23  C19 UNL     1      18.034  11.343  27.451  1.00  0.00     0.000 C 
BRANCH  23  24
HETATM   24  C20 UNL     1      19.414  11.276  27.958  1.00  0.00     0.000 C 
BRANCH  24  25
HETATM   25  C21 UNL     1      20.222  12.485  28.142  1.00  0.00     0.000 C 
BRANCH  25  26
HETATM   26  C22 UNL     1      19.733  13.627  27.223  1.00  0.00     0.000 C 
BRANCH  26  27
HETATM   27  C23 UNL     1      20.764  14.009  26.215  1.00  0.00     0.000 C 
BRANCH  27  28
HETATM   28  C24 UNL     1      20.555  13.204  24.954  1.00  0.00     0.000 C 
BRANCH  28  29
HETATM   29  C25 UNL     1      21.840  12.530  24.554  1.00  0.00    -0.000 C 
BRANCH  29  30
HETATM   30  C26 UNL     1      21.545  11.505  23.444  1.00  0.00    -0.005 C 
HETATM   31  C27 UNL     1      22.843  10.865  23.016  1.00  0.00     0.005 C 
ENDBRANCH  29  30
ENDBRANCH  28  29
ENDBRANCH  27  28
ENDBRANCH  26  27
ENDBRANCH  25  26
ENDBRANCH  24  25
ENDBRANCH  23  24
ENDBRANCH  22  23
ENDBRANCH  21  22
ENDBRANCH  20  21
ENDBRANCH  10  20
BRANCH   5  32
HETATM   32  C7  UNL     1      18.822   6.086  19.448  1.00  0.00     0.055 C 
BRANCH  32  33
HETATM   33  C8  UNL     1      19.677   7.007  18.667  1.00  0.00     0.127 C 
BRANCH  33  34
HETATM   34  N1  UNL     1      21.001   6.536  18.454  1.00  0.00    -0.337 N 
HETATM   35  C9  UNL     1      22.062   6.926  19.329  1.00  0.00     0.361 C 
HETATM   36  O3  UNL     1      21.867   7.684  20.306  1.00  0.00    -0.238 OA
ATOM     37  H1  UNL     1      21.196   5.915  17.669  1.00  0.00     0.164 HD
BRANCH  35  38
HETATM   38  O4  UNL     1      23.350   6.481  19.135  1.00  0.00    -0.294 OA
BRANCH  38  39
HETATM   39  C10 UNL     1      24.391   7.145  18.503  1.00  0.00     0.061 C 
HETATM   40  C11 UNL     1      24.073   8.524  18.019  1.00  0.00     0.046 C 
HETATM   41  C12 UNL     1      25.509   7.300  19.538  1.00  0.00     0.046 C 
HETATM   42  C13 UNL     1      24.961   6.378  17.319  1.00  0.00     0.046 C 
ENDBRANCH  38  39
ENDBRANCH  35  38
ENDBRANCH  33  34
ENDBRANCH  32  33
ENDBRANCH   5  32
BRANCH  15  43
HETATM   43  C30 UNL     1      14.804   6.371  26.212  1.00  0.00     0.146 C 
HETATM   44  C31 UNL     1      13.395   6.942  26.211  1.00  0.00     0.042 C 
BRANCH  43  45
HETATM   45  O7  UNL     1      15.280   6.431  27.494  1.00  0.00    -0.393 OA
ATOM     46  H7  UNL     1      14.592   6.467  28.149  1.00  0.00     0.210 HD
ENDBRANCH  43  45
ENDBRANCH  15  43
BRANCH   1  47
HETATM   47  C3  UNL     1      14.779   4.347  21.898  1.00  0.00     0.068 C 
BRANCH  47  48
HETATM   48  C2  UNL     1      14.713   4.022  20.478  1.00  0.00    -0.034 C 
HETATM   49  C1  UNL     1      13.553   3.952  19.853  1.00  0.00     0.007 C 
ENDBRANCH  47  48
ENDBRANCH   1  47
TORSDOF 20
ENDMDL
