MODEL 1
REMARK VINA RESULT: -6.380012455      0.000      0.000
REMARK  3 active torsions:
REMARK  status: ('A' for Active; 'I' for Inactive)
REMARK    1  A    between atoms: C2_2  and  O1_3 
REMARK    2  A    between atoms: N3_12  and  N4_14 
REMARK    3  A    between atoms: C7_19  and  N7_21 
ROOT
HETATM    1  C1  UNL     1      27.969  66.634  12.972  1.00  0.00     0.074 C 
HETATM    2  C2  UNL     1      27.358  65.523  12.107  1.00  0.00     0.168 C 
HETATM    3  N1  UNL     1      26.430  66.147  11.228  1.00  0.00    -0.342 N 
ATOM      4  H1  UNL     1      25.554  66.456  11.650  1.00  0.00     0.164 HD
HETATM    5  C3  UNL     1      26.556  66.371   9.972  1.00  0.00     0.167 C 
HETATM    6  N2  UNL     1      25.543  67.012   9.199  1.00  0.00    -0.079 NA
HETATM    7  C4  UNL     1      27.795  65.939   9.343  1.00  0.00     0.239 C 
HETATM    8  O2  UNL     1      28.006  66.114   8.126  1.00  0.00    -0.283 OA
HETATM    9  C5  UNL     1      28.836  65.279  10.136  1.00  0.00     0.119 C 
HETATM   10  N3  UNL     1      30.033  65.123   9.725  1.00  0.00    -0.296 N 
ATOM     11  H3  UNL     1      30.728  64.658  10.308  1.00  0.00     0.187 HD
HETATM   12  C7  UNL     1      28.474  64.770  11.478  1.00  0.00     0.215 C 
HETATM   13  C8  UNL     1      28.029  63.315  11.274  1.00  0.00     0.058 C 
ENDROOT
BRANCH  10  14
HETATM   14  N4  UNL     1      30.373  65.603   8.460  1.00  0.00    -0.276 N 
HETATM   15  C6  UNL     1      31.439  66.293   8.279  1.00  0.00     0.215 C 
HETATM   16  N5  UNL     1      31.729  66.752   6.966  1.00  0.00    -0.065 NA
HETATM   17  N6  UNL     1      32.273  66.566   9.383  1.00  0.00    -0.065 NA
ATOM     18  H4  UNL     1      29.764  65.401   7.667  1.00  0.00     0.189 HD
ENDBRANCH  10  14
BRANCH  12  19
HETATM   19  N7  UNL     1      29.669  64.715  12.283  1.00  0.00    -0.060 N 
ATOM     20  H73 UNL     1      29.892  65.638  12.656  1.00  0.00     0.275 HD
ATOM     21  H72 UNL     1      29.492  64.216  13.154  1.00  0.00     0.275 HD
ATOM     22  H71 UNL     1      30.474  64.319  11.800  1.00  0.00     0.275 HD
ENDBRANCH  12  19
BRANCH   2  23
HETATM   23  O1  UNL     1      26.674  64.657  12.992  1.00  0.00    -0.368 OA
ATOM     24  H1  UNL     1      27.018  63.786  12.834  1.00  0.00     0.212 HD
ENDBRANCH   2  23
TORSDOF 3
ENDMDL
MODEL 2
REMARK VINA RESULT: -6.314924716      1.906      3.380
REMARK  3 active torsions:
REMARK  status: ('A' for Active; 'I' for Inactive)
REMARK    1  A    between atoms: C2_2  and  O1_3 
REMARK    2  A    between atoms: N3_12  and  N4_14 
REMARK    3  A    between atoms: C7_19  and  N7_21 
ROOT
HETATM    1  C1  UNL     1      25.244  64.234   8.691  1.00  0.00     0.074 C 
HETATM    2  C2  UNL     1      25.545  64.949  10.014  1.00  0.00     0.168 C 
HETATM    3  N1  UNL     1      26.168  63.996  10.866  1.00  0.00    -0.342 N 
ATOM      4  H1  UNL     1      25.555  63.283  11.262  1.00  0.00     0.164 HD
HETATM    5  C3  UNL     1      27.404  63.920  11.201  1.00  0.00     0.167 C 
HETATM    6  N2  UNL     1      27.905  62.906  12.070  1.00  0.00    -0.079 NA
HETATM    7  C4  UNL     1      28.302  64.926  10.654  1.00  0.00     0.239 C 
HETATM    8  O2  UNL     1      29.519  64.932  10.924  1.00  0.00    -0.283 OA
HETATM    9  C5  UNL     1      27.787  65.970   9.762  1.00  0.00     0.119 C 
HETATM   10  N3  UNL     1      28.540  66.703   9.040  1.00  0.00    -0.296 N 
ATOM     11  H3  UNL     1      28.142  67.419   8.432  1.00  0.00     0.187 HD
HETATM   12  C7  UNL     1      26.323  66.177   9.702  1.00  0.00     0.215 C 
HETATM   13  C8  UNL     1      26.001  67.242  10.757  1.00  0.00     0.058 C 
ENDROOT
BRANCH  10  14
HETATM   14  N4  UNL     1      29.919  66.507   9.098  1.00  0.00    -0.276 N 
HETATM   15  C6  UNL     1      30.672  66.799   8.101  1.00  0.00     0.215 C 
HETATM   16  N5  UNL     1      32.069  66.577   8.224  1.00  0.00    -0.065 NA
HETATM   17  N6  UNL     1      30.084  67.326   6.932  1.00  0.00    -0.065 NA
ATOM     18  H4  UNL     1      30.336  66.126   9.947  1.00  0.00     0.189 HD
ENDBRANCH  10  14
BRANCH  12  19
HETATM   19  N7  UNL     1      25.998  66.764   8.426  1.00  0.00    -0.060 N 
ATOM     20  H73 UNL     1      26.831  66.837   7.841  1.00  0.00     0.275 HD
ATOM     21  H72 UNL     1      25.448  66.116   7.862  1.00  0.00     0.275 HD
ATOM     22  H71 UNL     1      25.528  67.667   8.495  1.00  0.00     0.275 HD
ENDBRANCH  12  19
BRANCH   2  23
HETATM   23  O1  UNL     1      24.297  65.334  10.555  1.00  0.00    -0.368 OA
ATOM     24  H1  UNL     1      24.471  66.059  11.143  1.00  0.00     0.212 HD
ENDBRANCH   2  23
TORSDOF 3
ENDMDL
MODEL 3
REMARK VINA RESULT: -6.235353805      2.166      3.566
REMARK  3 active torsions:
REMARK  status: ('A' for Active; 'I' for Inactive)
REMARK    1  A    between atoms: C2_2  and  O1_3 
REMARK    2  A    between atoms: N3_12  and  N4_14 
REMARK    3  A    between atoms: C7_19  and  N7_21 
ROOT
HETATM    1  C1  UNL     1      25.340  63.197   9.675  1.00  0.00     0.074 C 
HETATM    2  C2  UNL     1      25.094  64.617  10.204  1.00  0.00     0.168 C 
HETATM    3  N1  UNL     1      25.785  64.722  11.443  1.00  0.00    -0.342 N 
ATOM      4  H1  UNL     1      25.361  64.233  12.232  1.00  0.00     0.164 HD
HETATM    5  C3  UNL     1      26.872  65.352  11.693  1.00  0.00     0.167 C 
HETATM    6  N2  UNL     1      27.466  65.379  12.990  1.00  0.00    -0.079 NA
HETATM    7  C4  UNL     1      27.498  66.061  10.586  1.00  0.00     0.239 C 
HETATM    8  O2  UNL     1      28.557  66.702  10.736  1.00  0.00    -0.283 OA
HETATM    9  C5  UNL     1      26.887  66.036   9.254  1.00  0.00     0.119 C 
HETATM   10  N3  UNL     1      27.506  66.393   8.197  1.00  0.00    -0.296 N 
ATOM     11  H3  UNL     1      27.044  66.361   7.288  1.00  0.00     0.187 HD
HETATM   12  C7  UNL     1      25.486  65.575   9.136  1.00  0.00     0.215 C 
HETATM   13  C8  UNL     1      24.613  66.830   9.261  1.00  0.00     0.058 C 
ENDROOT
BRANCH  10  14
HETATM   14  N4  UNL     1      28.826  66.828   8.309  1.00  0.00    -0.276 N 
HETATM   15  C6  UNL     1      29.712  66.481   7.449  1.00  0.00     0.215 C 
HETATM   16  N5  UNL     1      31.039  66.959   7.619  1.00  0.00    -0.065 NA
HETATM   17  N6  UNL     1      29.335  65.646   6.378  1.00  0.00    -0.065 NA
ATOM     18  H4  UNL     1      29.090  67.432   9.087  1.00  0.00     0.189 HD
ENDBRANCH  10  14
BRANCH  12  19
HETATM   19  N7  UNL     1      25.282  65.074   7.800  1.00  0.00    -0.060 N 
ATOM     20  H73 UNL     1      26.169  64.795   7.381  1.00  0.00     0.275 HD
ATOM     21  H72 UNL     1      24.811  64.170   7.823  1.00  0.00     0.275 HD
ATOM     22  H71 UNL     1      24.784  65.721   7.188  1.00  0.00     0.275 HD
ENDBRANCH  12  19
BRANCH   2  23
HETATM   23  O1  UNL     1      23.701  64.729  10.418  1.00  0.00    -0.368 OA
ATOM     24  H1  UNL     1      23.507  64.221  11.196  1.00  0.00     0.212 HD
ENDBRANCH   2  23
TORSDOF 3
ENDMDL
MODEL 4
REMARK VINA RESULT: -6.228359589      2.462      4.693
REMARK  3 active torsions:
REMARK  status: ('A' for Active; 'I' for Inactive)
REMARK    1  A    between atoms: C2_2  and  O1_3 
REMARK    2  A    between atoms: N3_12  and  N4_14 
REMARK    3  A    between atoms: C7_19  and  N7_21 
ROOT
HETATM    1  C1  UNL     1      28.244  62.579  13.452  1.00  0.00     0.074 C 
HETATM    2  C2  UNL     1      28.148  64.104  13.316  1.00  0.00     0.168 C 
HETATM    3  N1  UNL     1      29.147  64.500  12.384  1.00  0.00    -0.342 N 
ATOM      4  H1  UNL     1      30.108  64.478  12.725  1.00  0.00     0.164 HD
HETATM    5  C3  UNL     1      28.992  64.880  11.170  1.00  0.00     0.167 C 
HETATM    6  N2  UNL     1      30.087  65.252  10.334  1.00  0.00    -0.079 NA
HETATM    7  C4  UNL     1      27.631  64.923  10.657  1.00  0.00     0.239 C 
HETATM    8  O2  UNL     1      27.384  65.281   9.488  1.00  0.00    -0.283 OA
HETATM    9  C5  UNL     1      26.505  64.542  11.515  1.00  0.00     0.119 C 
HETATM   10  N3  UNL     1      25.338  64.295  11.065  1.00  0.00    -0.296 N 
ATOM     11  H3  UNL     1      24.581  64.033  11.697  1.00  0.00     0.187 HD
HETATM   12  C7  UNL     1      26.742  64.443  12.973  1.00  0.00     0.215 C 
HETATM   13  C8  UNL     1      26.416  65.826  13.551  1.00  0.00     0.058 C 
ENDROOT
BRANCH  10  14
HETATM   14  N4  UNL     1      25.117  64.390   9.692  1.00  0.00    -0.276 N 
HETATM   15  C6  UNL     1      24.748  63.368   9.009  1.00  0.00     0.215 C 
HETATM   16  N5  UNL     1      24.539  63.530   7.613  1.00  0.00    -0.065 NA
HETATM   17  N6  UNL     1      24.567  62.135   9.668  1.00  0.00    -0.065 NA
ATOM     18  H4  UNL     1      25.250  65.286   9.223  1.00  0.00     0.189 HD
ENDBRANCH  10  14
BRANCH  12  19
HETATM   19  N7  UNL     1      25.770  63.536  13.531  1.00  0.00    -0.060 N 
ATOM     20  H73 UNL     1      26.188  62.620  13.697  1.00  0.00     0.275 HD
ATOM     21  H72 UNL     1      25.544  63.798  14.491  1.00  0.00     0.275 HD
ATOM     22  H71 UNL     1      24.920  63.446  12.974  1.00  0.00     0.275 HD
ENDBRANCH  12  19
BRANCH   2  23
HETATM   23  O1  UNL     1      28.440  64.639  14.592  1.00  0.00    -0.368 OA
ATOM     24  H1  UNL     1      27.695  64.438  15.145  1.00  0.00     0.212 HD
ENDBRANCH   2  23
TORSDOF 3
ENDMDL
MODEL 5
REMARK VINA RESULT: -6.145861756      2.016      3.521
REMARK  3 active torsions:
REMARK  status: ('A' for Active; 'I' for Inactive)
REMARK    1  A    between atoms: C2_2  and  O1_3 
REMARK    2  A    between atoms: N3_12  and  N4_14 
REMARK    3  A    between atoms: C7_19  and  N7_21 
ROOT
HETATM    1  C1  UNL     1      25.480  62.852   9.755  1.00  0.00     0.074 C 
HETATM    2  C2  UNL     1      25.598  63.847  10.918  1.00  0.00     0.168 C 
HETATM    3  N1  UNL     1      26.275  63.173  11.971  1.00  0.00    -0.342 N 
ATOM      4  H1  UNL     1      25.729  62.474  12.477  1.00  0.00     0.164 HD
HETATM    5  C3  UNL     1      27.484  63.333  12.366  1.00  0.00     0.167 C 
HETATM    6  N2  UNL     1      28.046  62.587  13.444  1.00  0.00    -0.079 NA
HETATM    7  C4  UNL     1      28.285  64.325  11.665  1.00  0.00     0.239 C 
HETATM    8  O2  UNL     1      29.470  64.549  11.980  1.00  0.00    -0.283 OA
HETATM    9  C5  UNL     1      27.707  65.094  10.559  1.00  0.00     0.119 C 
HETATM   10  N3  UNL     1      28.410  65.767   9.736  1.00  0.00    -0.296 N 
ATOM     11  H3  UNL     1      27.969  66.289   8.979  1.00  0.00     0.187 HD
HETATM   12  C7  UNL     1      26.236  65.084  10.396  1.00  0.00     0.215 C 
HETATM   13  C8  UNL     1      25.711  66.282  11.198  1.00  0.00     0.058 C 
ENDROOT
BRANCH  10  14
HETATM   14  N4  UNL     1      29.796  65.776   9.891  1.00  0.00    -0.276 N 
HETATM   15  C6  UNL     1      30.554  66.360   9.036  1.00  0.00     0.215 C 
HETATM   16  N5  UNL     1      31.958  66.333   9.252  1.00  0.00    -0.065 NA
HETATM   17  N6  UNL     1      29.966  66.998   7.925  1.00  0.00    -0.065 NA
ATOM     18  H4  UNL     1      30.213  65.312  10.698  1.00  0.00     0.189 HD
ENDBRANCH  10  14
BRANCH  12  19
HETATM   19  N7  UNL     1      25.929  65.360   9.014  1.00  0.00    -0.060 N 
ATOM     20  H73 UNL     1      26.770  65.640   8.509  1.00  0.00     0.275 HD
ATOM     21  H72 UNL     1      25.708  64.498   8.516  1.00  0.00     0.275 HD
ATOM     22  H71 UNL     1      25.187  66.049   8.886  1.00  0.00     0.275 HD
ENDBRANCH  12  19
BRANCH   2  23
HETATM   23  O1  UNL     1      24.277  64.157  11.315  1.00  0.00    -0.368 OA
ATOM     24  H1  UNL     1      24.255  64.080  12.261  1.00  0.00     0.212 HD
ENDBRANCH   2  23
TORSDOF 3
ENDMDL
