MODEL 1
REMARK VINA RESULT: -8.705513793      0.000      0.000
REMARK  9 active torsions:
REMARK  status: ('A' for Active; 'I' for Inactive)
REMARK    1  A    between atoms: N1_2  and  C2_4 
REMARK    2  A    between atoms: C3_7  and  N3_8 
REMARK    3  A    between atoms: C8_16  and  N5_17 
REMARK    4  A    between atoms: N5_17  and  N6_19 
REMARK    5  A    between atoms: C9_21  and  C10_22 
REMARK    6  A    between atoms: C10_22  and  O2_23 
REMARK    7  A    between atoms: C10_22  and  C11_25 
REMARK    8  A    between atoms: C11_25  and  N7_26 
REMARK    9  A    between atoms: C11_25  and  C12_30 
ROOT
HETATM    1  C2  UNL     1     -24.369  38.467  45.960  1.00  0.00     0.706 A 
HETATM    2  N2  UNL     1     -25.035  37.844  44.984  1.00  0.00    -0.021 N 
ATOM      3  H2  UNL     1     -25.399  38.397  44.209  1.00  0.00     0.203 HD
HETATM    4  C3  UNL     1     -25.246  36.490  44.986  1.00  0.00     0.709 A 
HETATM    5  N4  UNL     1     -24.744  35.811  46.030  1.00  0.00    -0.020 N 
ATOM      6  H4  UNL     1     -24.882  34.801  46.066  1.00  0.00     0.203 HD
HETATM    7  C8  UNL     1     -24.074  36.399  47.024  1.00  0.00     0.726 A 
HETATM    8  N8  UNL     1     -23.895  37.730  46.976  1.00  0.00    -0.020 N 
ATOM      9  H8  UNL     1     -23.385  38.191  47.729  1.00  0.00     0.203 HD
ENDROOT
BRANCH   7  10
HETATM   10  N5  UNL     1     -23.616  35.761  48.003  1.00  0.00    -0.132 N 
ATOM     11  H5  UNL     1     -23.766  36.228  48.897  1.00  0.00     0.205 HD
BRANCH  10  12
HETATM   12  N6  UNL     1     -22.963  34.577  48.117  1.00  0.00    -0.299 N 
HETATM   13  C9  UNL     1     -21.811  34.560  48.739  1.00  0.00     0.115 C 
ATOM     14  H6  UNL     1     -23.360  33.721  47.728  1.00  0.00     0.186 HD
BRANCH  13  15
HETATM   15  C10 UNL     1     -21.174  35.748  49.328  1.00  0.00     0.199 C 
BRANCH  15  16
HETATM   16  O2  UNL     1     -21.936  36.376  50.295  1.00  0.00    -0.388 OA
ATOM     17  H2  UNL     1     -22.571  36.993  49.949  1.00  0.00     0.210 HD
ENDBRANCH  15  16
BRANCH  15  18
HETATM   18  C11 UNL     1     -19.849  35.304  49.942  1.00  0.00     0.316 C 
BRANCH  18  19
HETATM   19  N7  UNL     1     -20.146  34.379  51.041  1.00  0.00    -0.062 N 
ATOM     20  H73 UNL     1     -21.145  34.291  51.222  1.00  0.00     0.275 HD
ATOM     21  H72 UNL     1     -19.965  33.405  50.797  1.00  0.00     0.275 HD
ATOM     22  H71 UNL     1     -19.621  34.683  51.860  1.00  0.00     0.275 HD
ENDBRANCH  18  19
BRANCH  18  23
HETATM   23  C12 UNL     1     -19.037  34.661  48.887  1.00  0.00     0.207 C 
HETATM   24  O3  UNL     1     -18.976  35.172  47.752  1.00  0.00    -0.646 OA
HETATM   25  O4  UNL     1     -18.345  33.504  49.143  1.00  0.00    -0.646 OA
ENDBRANCH  18  23
ENDBRANCH  15  18
ENDBRANCH  13  15
ENDBRANCH  10  12
ENDBRANCH   7  10
BRANCH   4  26
HETATM   26  N3  UNL     1     -25.957  35.882  43.924  1.00  0.00    -0.213 N 
HETATM   27  C4  UNL     1     -27.085  35.032  44.201  1.00  0.00     0.167 C 
HETATM   28  C5  UNL     1     -27.909  34.954  42.921  1.00  0.00     0.188 C 
HETATM   29  O1  UNL     1     -27.184  34.477  41.866  1.00  0.00    -0.388 OA
HETATM   30  C6  UNL     1     -25.947  35.019  41.661  1.00  0.00     0.188 C 
HETATM   31  C7  UNL     1     -25.558  36.131  42.571  1.00  0.00     0.167 C 
ENDBRANCH   4  26
BRANCH   1  32
HETATM   32  N1  UNL     1     -24.156  39.741  45.999  1.00  0.00    -0.229 N 
HETATM   33  C1  UNL     1     -24.394  40.484  44.780  1.00  0.00     0.165 C 
ATOM     34  H1  UNL     1     -23.834  40.201  46.851  1.00  0.00     0.177 HD
ENDBRANCH   1  32
TORSDOF 9
ENDMDL
MODEL 2
REMARK VINA RESULT: -8.534580611      2.648      3.545
REMARK  9 active torsions:
REMARK  status: ('A' for Active; 'I' for Inactive)
REMARK    1  A    between atoms: N1_2  and  C2_4 
REMARK    2  A    between atoms: C3_7  and  N3_8 
REMARK    3  A    between atoms: C8_16  and  N5_17 
REMARK    4  A    between atoms: N5_17  and  N6_19 
REMARK    5  A    between atoms: C9_21  and  C10_22 
REMARK    6  A    between atoms: C10_22  and  O2_23 
REMARK    7  A    between atoms: C10_22  and  C11_25 
REMARK    8  A    between atoms: C11_25  and  N7_26 
REMARK    9  A    between atoms: C11_25  and  C12_30 
ROOT
HETATM    1  C2  UNL     1     -26.698  37.530  47.613  1.00  0.00     0.706 A 
HETATM    2  N2  UNL     1     -26.265  38.223  46.557  1.00  0.00    -0.021 N 
ATOM      3  H2  UNL     1     -26.860  38.956  46.173  1.00  0.00     0.203 HD
HETATM    4  C3  UNL     1     -25.049  37.984  45.969  1.00  0.00     0.709 A 
HETATM    5  N4  UNL     1     -24.306  37.009  46.515  1.00  0.00    -0.020 N 
ATOM      6  H4  UNL     1     -23.395  36.803  46.105  1.00  0.00     0.203 HD
HETATM    7  C8  UNL     1     -24.706  36.295  47.571  1.00  0.00     0.726 A 
HETATM    8  N8  UNL     1     -25.906  36.568  48.109  1.00  0.00    -0.020 N 
ATOM      9  H8  UNL     1     -26.224  36.029  48.916  1.00  0.00     0.203 HD
ENDROOT
BRANCH   7  10
HETATM   10  N5  UNL     1     -24.012  35.377  48.071  1.00  0.00    -0.132 N 
ATOM     11  H5  UNL     1     -24.039  35.358  49.089  1.00  0.00     0.205 HD
BRANCH  10  12
HETATM   12  N6  UNL     1     -23.232  34.405  47.534  1.00  0.00    -0.299 N 
HETATM   13  C9  UNL     1     -21.970  34.359  47.880  1.00  0.00     0.115 C 
ATOM     14  H6  UNL     1     -23.619  33.727  46.876  1.00  0.00     0.186 HD
BRANCH  13  15
HETATM   15  C10 UNL     1     -21.338  35.297  48.821  1.00  0.00     0.199 C 
BRANCH  15  16
HETATM   16  O2  UNL     1     -22.218  35.884  49.710  1.00  0.00    -0.388 OA
ATOM     17  H2  UNL     1     -21.971  35.785  50.622  1.00  0.00     0.210 HD
ENDBRANCH  15  16
BRANCH  15  18
HETATM   18  C11 UNL     1     -20.278  34.523  49.601  1.00  0.00     0.316 C 
BRANCH  18  19
HETATM   19  N7  UNL     1     -18.972  34.804  48.995  1.00  0.00    -0.062 N 
ATOM     20  H73 UNL     1     -19.017  34.878  47.979  1.00  0.00     0.275 HD
ATOM     21  H72 UNL     1     -18.644  35.751  49.186  1.00  0.00     0.275 HD
ATOM     22  H71 UNL     1     -18.317  34.089  49.309  1.00  0.00     0.275 HD
ENDBRANCH  18  19
BRANCH  18  23
HETATM   23  C12 UNL     1     -20.331  34.954  51.015  1.00  0.00     0.207 C 
HETATM   24  O3  UNL     1     -20.640  34.135  51.901  1.00  0.00    -0.646 OA
HETATM   25  O4  UNL     1     -20.043  36.249  51.363  1.00  0.00    -0.646 OA
ENDBRANCH  18  23
ENDBRANCH  15  18
ENDBRANCH  13  15
ENDBRANCH  10  12
ENDBRANCH   7  10
BRANCH   4  26
HETATM   26  N3  UNL     1     -24.640  38.750  44.852  1.00  0.00    -0.213 N 
HETATM   27  C4  UNL     1     -24.656  40.188  44.914  1.00  0.00     0.167 C 
HETATM   28  C5  UNL     1     -23.726  40.692  43.818  1.00  0.00     0.188 C 
HETATM   29  O1  UNL     1     -24.096  40.251  42.579  1.00  0.00    -0.388 OA
HETATM   30  C6  UNL     1     -24.388  38.924  42.449  1.00  0.00     0.188 C 
HETATM   31  C7  UNL     1     -24.192  38.086  43.664  1.00  0.00     0.167 C 
ENDBRANCH   4  26
BRANCH   1  32
HETATM   32  N1  UNL     1     -27.839  37.719  48.190  1.00  0.00    -0.229 N 
HETATM   33  C1  UNL     1     -29.024  37.405  47.421  1.00  0.00     0.165 C 
ATOM     34  H1  UNL     1     -27.901  38.073  49.145  1.00  0.00     0.177 HD
ENDBRANCH   1  32
TORSDOF 9
ENDMDL
MODEL 3
REMARK VINA RESULT: -8.481430796      1.201      1.680
REMARK  9 active torsions:
REMARK  status: ('A' for Active; 'I' for Inactive)
REMARK    1  A    between atoms: N1_2  and  C2_4 
REMARK    2  A    between atoms: C3_7  and  N3_8 
REMARK    3  A    between atoms: C8_16  and  N5_17 
REMARK    4  A    between atoms: N5_17  and  N6_19 
REMARK    5  A    between atoms: C9_21  and  C10_22 
REMARK    6  A    between atoms: C10_22  and  O2_23 
REMARK    7  A    between atoms: C10_22  and  C11_25 
REMARK    8  A    between atoms: C11_25  and  N7_26 
REMARK    9  A    between atoms: C11_25  and  C12_30 
ROOT
HETATM    1  C2  UNL     1     -24.122  38.509  45.745  1.00  0.00     0.706 A 
HETATM    2  N2  UNL     1     -24.814  37.873  44.797  1.00  0.00    -0.021 N 
ATOM      3  H2  UNL     1     -25.077  38.385  43.955  1.00  0.00     0.203 HD
HETATM    4  C3  UNL     1     -25.184  36.558  44.913  1.00  0.00     0.709 A 
HETATM    5  N4  UNL     1     -24.811  35.933  46.041  1.00  0.00    -0.020 N 
ATOM      6  H4  UNL     1     -25.068  34.953  46.163  1.00  0.00     0.203 HD
HETATM    7  C8  UNL     1     -24.119  36.536  47.011  1.00  0.00     0.726 A 
HETATM    8  N8  UNL     1     -23.782  37.826  46.849  1.00  0.00    -0.020 N 
ATOM      9  H8  UNL     1     -23.254  38.298  47.583  1.00  0.00     0.203 HD
ENDROOT
BRANCH   7  10
HETATM   10  N5  UNL     1     -23.782  35.950  48.068  1.00  0.00    -0.132 N 
ATOM     11  H5  UNL     1     -23.973  34.948  48.053  1.00  0.00     0.205 HD
BRANCH  10  12
HETATM   12  N6  UNL     1     -23.216  36.374  49.226  1.00  0.00    -0.299 N 
HETATM   13  C9  UNL     1     -22.001  35.975  49.506  1.00  0.00     0.115 C 
ATOM     14  H6  UNL     1     -23.725  36.988  49.862  1.00  0.00     0.186 HD
BRANCH  13  15
HETATM   15  C10 UNL     1     -21.203  35.092  48.642  1.00  0.00     0.199 C 
BRANCH  15  16
HETATM   16  O2  UNL     1     -20.533  35.750  47.628  1.00  0.00    -0.388 OA
ATOM     17  H2  UNL     1     -20.478  36.691  47.747  1.00  0.00     0.210 HD
ENDBRANCH  15  16
BRANCH  15  18
HETATM   18  C11 UNL     1     -20.189  34.373  49.529  1.00  0.00     0.316 C 
BRANCH  18  19
HETATM   19  N7  UNL     1     -18.849  34.639  48.994  1.00  0.00    -0.062 N 
ATOM     20  H73 UNL     1     -18.288  33.794  48.900  1.00  0.00     0.275 HD
ATOM     21  H72 UNL     1     -18.863  34.906  48.010  1.00  0.00     0.275 HD
ATOM     22  H71 UNL     1     -18.407  35.342  49.587  1.00  0.00     0.275 HD
ENDBRANCH  18  19
BRANCH  18  23
HETATM   23  C12 UNL     1     -20.339  34.874  50.912  1.00  0.00     0.207 C 
HETATM   24  O3  UNL     1     -20.753  34.113  51.806  1.00  0.00    -0.646 OA
HETATM   25  O4  UNL     1     -20.025  36.173  51.223  1.00  0.00    -0.646 OA
ENDBRANCH  18  23
ENDBRANCH  15  18
ENDBRANCH  13  15
ENDBRANCH  10  12
ENDBRANCH   7  10
BRANCH   4  26
HETATM   26  N3  UNL     1     -25.916  35.934  43.875  1.00  0.00    -0.213 N 
HETATM   27  C4  UNL     1     -27.022  35.069  44.188  1.00  0.00     0.167 C 
HETATM   28  C5  UNL     1     -27.881  34.971  42.933  1.00  0.00     0.188 C 
HETATM   29  O1  UNL     1     -27.179  34.499  41.861  1.00  0.00    -0.388 OA
HETATM   30  C6  UNL     1     -25.957  35.058  41.617  1.00  0.00     0.188 C 
HETATM   31  C7  UNL     1     -25.560  36.181  42.510  1.00  0.00     0.167 C 
ENDBRANCH   4  26
BRANCH   1  32
HETATM   32  N1  UNL     1     -23.761  39.748  45.678  1.00  0.00    -0.229 N 
HETATM   33  C1  UNL     1     -23.199  40.201  44.423  1.00  0.00     0.165 C 
ATOM     34  H1  UNL     1     -23.868  40.378  46.473  1.00  0.00     0.177 HD
ENDBRANCH   1  32
TORSDOF 9
ENDMDL
MODEL 4
REMARK VINA RESULT: -8.343244741      2.710      3.261
REMARK  9 active torsions:
REMARK  status: ('A' for Active; 'I' for Inactive)
REMARK    1  A    between atoms: N1_2  and  C2_4 
REMARK    2  A    between atoms: C3_7  and  N3_8 
REMARK    3  A    between atoms: C8_16  and  N5_17 
REMARK    4  A    between atoms: N5_17  and  N6_19 
REMARK    5  A    between atoms: C9_21  and  C10_22 
REMARK    6  A    between atoms: C10_22  and  O2_23 
REMARK    7  A    between atoms: C10_22  and  C11_25 
REMARK    8  A    between atoms: C11_25  and  N7_26 
REMARK    9  A    between atoms: C11_25  and  C12_30 
ROOT
HETATM    1  C2  UNL     1     -24.361  39.226  45.754  1.00  0.00     0.706 A 
HETATM    2  N2  UNL     1     -25.648  38.992  46.025  1.00  0.00    -0.021 N 
ATOM      3  H2  UNL     1     -26.323  39.742  45.882  1.00  0.00     0.203 HD
HETATM    4  C3  UNL     1     -26.094  37.781  46.488  1.00  0.00     0.709 A 
HETATM    5  N4  UNL     1     -25.162  36.830  46.657  1.00  0.00    -0.020 N 
ATOM      6  H4  UNL     1     -25.457  35.915  46.999  1.00  0.00     0.203 HD
HETATM    7  C8  UNL     1     -23.867  37.027  46.397  1.00  0.00     0.726 A 
HETATM    8  N8  UNL     1     -23.481  38.232  45.946  1.00  0.00    -0.020 N 
ATOM      9  H8  UNL     1     -22.495  38.395  45.745  1.00  0.00     0.203 HD
ENDROOT
BRANCH   7  10
HETATM   10  N5  UNL     1     -22.999  36.136  46.567  1.00  0.00    -0.132 N 
ATOM     11  H5  UNL     1     -22.050  36.455  46.375  1.00  0.00     0.205 HD
BRANCH  10  12
HETATM   12  N6  UNL     1     -23.064  34.837  46.953  1.00  0.00    -0.299 N 
HETATM   13  C9  UNL     1     -22.373  34.465  48.001  1.00  0.00     0.115 C 
ATOM     14  H6  UNL     1     -23.637  34.167  46.440  1.00  0.00     0.186 HD
BRANCH  13  15
HETATM   15  C10 UNL     1     -21.526  35.370  48.795  1.00  0.00     0.199 C 
BRANCH  15  16
HETATM   16  O2  UNL     1     -22.213  36.089  49.755  1.00  0.00    -0.388 OA
ATOM     17  H2  UNL     1     -21.672  36.388  50.476  1.00  0.00     0.210 HD
ENDBRANCH  15  16
BRANCH  15  18
HETATM   18  C11 UNL     1     -20.455  34.520  49.475  1.00  0.00     0.316 C 
BRANCH  18  19
HETATM   19  N7  UNL     1     -19.184  34.754  48.782  1.00  0.00    -0.062 N 
ATOM     20  H73 UNL     1     -19.311  35.064  47.819  1.00  0.00     0.275 HD
ATOM     21  H72 UNL     1     -18.691  35.577  49.128  1.00  0.00     0.275 HD
ATOM     22  H71 UNL     1     -18.626  33.903  48.852  1.00  0.00     0.275 HD
ENDBRANCH  18  19
BRANCH  18  23
HETATM   23  C12 UNL     1     -20.385  34.910  50.899  1.00  0.00     0.207 C 
HETATM   24  O3  UNL     1     -20.695  34.090  51.784  1.00  0.00    -0.646 OA
HETATM   25  O4  UNL     1     -19.979  36.170  51.261  1.00  0.00    -0.646 OA
ENDBRANCH  18  23
ENDBRANCH  15  18
ENDBRANCH  13  15
ENDBRANCH  10  12
ENDBRANCH   7  10
BRANCH   4  26
HETATM   26  N3  UNL     1     -27.470  37.588  46.757  1.00  0.00    -0.213 N 
HETATM   27  C4  UNL     1     -28.288  36.837  45.842  1.00  0.00     0.167 C 
HETATM   28  C5  UNL     1     -29.522  36.386  46.615  1.00  0.00     0.188 C 
HETATM   29  O1  UNL     1     -30.216  37.437  47.143  1.00  0.00    -0.388 OA
HETATM   30  C6  UNL     1     -29.499  38.390  47.809  1.00  0.00     0.188 C 
HETATM   31  C7  UNL     1     -28.040  38.131  47.954  1.00  0.00     0.167 C 
ENDBRANCH   4  26
BRANCH   1  32
HETATM   32  N1  UNL     1     -23.900  40.354  45.325  1.00  0.00    -0.229 N 
HETATM   33  C1  UNL     1     -22.736  40.303  44.465  1.00  0.00     0.165 C 
ATOM     34  H1  UNL     1     -24.337  41.240  45.580  1.00  0.00     0.177 HD
ENDBRANCH   1  32
TORSDOF 9
ENDMDL
MODEL 5
REMARK VINA RESULT: -8.179636057      0.824      1.162
REMARK  9 active torsions:
REMARK  status: ('A' for Active; 'I' for Inactive)
REMARK    1  A    between atoms: N1_2  and  C2_4 
REMARK    2  A    between atoms: C3_7  and  N3_8 
REMARK    3  A    between atoms: C8_16  and  N5_17 
REMARK    4  A    between atoms: N5_17  and  N6_19 
REMARK    5  A    between atoms: C9_21  and  C10_22 
REMARK    6  A    between atoms: C10_22  and  O2_23 
REMARK    7  A    between atoms: C10_22  and  C11_25 
REMARK    8  A    between atoms: C11_25  and  N7_26 
REMARK    9  A    between atoms: C11_25  and  C12_30 
ROOT
HETATM    1  C2  UNL     1     -24.197  38.682  45.708  1.00  0.00     0.706 A 
HETATM    2  N2  UNL     1     -24.865  37.992  44.780  1.00  0.00    -0.021 N 
ATOM      3  H2  UNL     1     -25.108  38.455  43.905  1.00  0.00     0.203 HD
HETATM    4  C3  UNL     1     -25.235  36.684  44.960  1.00  0.00     0.709 A 
HETATM    5  N4  UNL     1     -24.887  36.124  46.130  1.00  0.00    -0.020 N 
ATOM      6  H4  UNL     1     -25.145  35.152  46.300  1.00  0.00     0.203 HD
HETATM    7  C8  UNL     1     -24.220  36.783  47.080  1.00  0.00     0.726 A 
HETATM    8  N8  UNL     1     -23.881  38.063  46.855  1.00  0.00    -0.020 N 
ATOM      9  H8  UNL     1     -23.372  38.577  47.574  1.00  0.00     0.203 HD
ENDROOT
BRANCH   7  10
HETATM   10  N5  UNL     1     -23.907  36.257  48.176  1.00  0.00    -0.132 N 
ATOM     11  H5  UNL     1     -24.022  35.244  48.187  1.00  0.00     0.205 HD
BRANCH  10  12
HETATM   12  N6  UNL     1     -23.447  36.759  49.350  1.00  0.00    -0.299 N 
HETATM   13  C9  UNL     1     -22.287  36.342  49.792  1.00  0.00     0.115 C 
ATOM     14  H6  UNL     1     -23.991  37.444  49.875  1.00  0.00     0.186 HD
BRANCH  13  15
HETATM   15  C10 UNL     1     -21.442  35.360  49.094  1.00  0.00     0.199 C 
BRANCH  15  16
HETATM   16  O2  UNL     1     -21.226  35.648  47.760  1.00  0.00    -0.388 OA
ATOM     17  H2  UNL     1     -21.849  35.240  47.169  1.00  0.00     0.210 HD
ENDBRANCH  15  16
BRANCH  15  18
HETATM   18  C11 UNL     1     -20.101  35.306  49.821  1.00  0.00     0.316 C 
BRANCH  18  19
HETATM   19  N7  UNL     1     -20.310  34.643  51.112  1.00  0.00    -0.062 N 
ATOM     20  H73 UNL     1     -20.860  35.206  51.760  1.00  0.00     0.275 HD
ATOM     21  H72 UNL     1     -20.944  33.847  51.049  1.00  0.00     0.275 HD
ATOM     22  H71 UNL     1     -19.397  34.389  51.488  1.00  0.00     0.275 HD
ENDBRANCH  18  19
BRANCH  18  23
HETATM   23  C12 UNL     1     -19.140  34.568  48.973  1.00  0.00     0.207 C 
HETATM   24  O3  UNL     1     -18.754  33.434  49.315  1.00  0.00    -0.646 OA
HETATM   25  O4  UNL     1     -18.667  35.119  47.809  1.00  0.00    -0.646 OA
ENDBRANCH  18  23
ENDBRANCH  15  18
ENDBRANCH  13  15
ENDBRANCH  10  12
ENDBRANCH   7  10
BRANCH   4  26
HETATM   26  N3  UNL     1     -25.940  36.001  43.942  1.00  0.00    -0.213 N 
HETATM   27  C4  UNL     1     -27.029  35.122  44.280  1.00  0.00     0.167 C 
HETATM   28  C5  UNL     1     -27.872  34.952  43.022  1.00  0.00     0.188 C 
HETATM   29  O1  UNL     1     -27.148  34.455  41.976  1.00  0.00    -0.388 OA
HETATM   30  C6  UNL     1     -25.937  35.034  41.721  1.00  0.00     0.188 C 
HETATM   31  C7  UNL     1     -25.577  36.202  42.571  1.00  0.00     0.167 C 
ENDBRANCH   4  26
BRANCH   1  32
HETATM   32  N1  UNL     1     -23.837  39.917  45.579  1.00  0.00    -0.229 N 
HETATM   33  C1  UNL     1     -23.048  40.253  44.413  1.00  0.00     0.165 C 
ATOM     34  H1  UNL     1     -24.096  40.622  46.269  1.00  0.00     0.177 HD
ENDBRANCH   1  32
TORSDOF 9
ENDMDL
