MODEL 1
REMARK VINA RESULT: -6.800840253      0.000      0.000
REMARK  9 active torsions:
REMARK  status: ('A' for Active; 'I' for Inactive)
REMARK    1  A    between atoms: C2_2  and  C3_3 
REMARK    2  A    between atoms: C3_3  and  S1_4 
REMARK    3  A    between atoms: S1_4  and  C4_5 
REMARK    4  A    between atoms: C4_5  and  S3_7 
REMARK    5  A    between atoms: S3_7  and  C5_8 
REMARK    6  A    between atoms: C8_13  and  C9_14 
REMARK    7  A    between atoms: C9_14  and  C10_15 
REMARK    8  A    between atoms: C10_15  and  O1_16 
REMARK    9  A    between atoms: N2_18  and  O2_20 
ROOT
HETATM    1  C5  UNL     1      -0.834   9.409  23.635  1.00  0.00     0.110 C 
HETATM    2  N1  UNL     1      -0.264  10.347  22.996  1.00  0.00    -0.379 N 
ATOM      3  H1  UNL     1       0.583  10.734  23.412  1.00  0.00     0.160 HD
HETATM    4  C6  UNL     1      -0.684  10.915  21.763  1.00  0.00     0.122 C 
HETATM    5  C7  UNL     1      -1.283   9.819  20.857  1.00  0.00     0.035 C 
HETATM    6  C8  UNL     1      -2.656   9.559  21.421  1.00  0.00     0.063 C 
HETATM    7  S4  UNL     1      -2.348   8.650  22.987  1.00  0.00    -0.100 SA
ENDROOT
BRANCH   6   8
HETATM    8  C9  UNL     1      -3.597   8.849  20.525  1.00  0.00     0.101 C 
BRANCH   8   9
HETATM    9  C10 UNL     1      -3.860   9.540  19.245  1.00  0.00     0.136 C 
HETATM   10  N2  UNL     1      -4.268  10.753  19.174  1.00  0.00    -0.251 N 
ATOM     11  H2  UNL     1      -4.425  11.280  20.034  1.00  0.00     0.196 HD
BRANCH   9  12
HETATM   12  O1  UNL     1      -3.663   8.867  18.027  1.00  0.00    -0.348 OA
ATOM     13  H1  UNL     1      -4.381   8.397  17.622  1.00  0.00     0.219 HD
ENDBRANCH   9  12
BRANCH  10  14
HETATM   14  O2  UNL     1      -4.499  11.355  17.968  1.00  0.00    -0.288 OA
ATOM     15  H2  UNL     1      -5.119  10.991  17.347  1.00  0.00     0.244 HD
ENDBRANCH  10  14
ENDBRANCH   8   9
ENDBRANCH   6   8
BRANCH   1  16
HETATM   16  S3  UNL     1      -0.229   8.759  25.186  1.00  0.00    -0.047 SA
BRANCH  16  17
HETATM   17  C4  UNL     1      -0.108   6.995  25.094  1.00  0.00     0.111 C 
HETATM   18  S2  UNL     1       0.238   6.374  23.861  1.00  0.00    -0.064 SA
BRANCH  17  19
HETATM   19  S1  UNL     1      -0.417   6.012  26.531  1.00  0.00    -0.107 SA
BRANCH  19  20
HETATM   20  C3  UNL     1      -1.924   5.044  26.291  1.00  0.00     0.107 C 
BRANCH  20  21
HETATM   21  C2  UNL     1      -1.548   3.652  25.982  1.00  0.00    -0.026 C 
HETATM   22  C1  UNL     1      -0.512   3.096  26.585  1.00  0.00     0.007 C 
ENDBRANCH  20  21
ENDBRANCH  19  20
ENDBRANCH  17  19
ENDBRANCH  16  17
ENDBRANCH   1  16
TORSDOF 9
ENDMDL
MODEL 2
REMARK VINA RESULT: -6.787818900      0.515      1.048
REMARK  9 active torsions:
REMARK  status: ('A' for Active; 'I' for Inactive)
REMARK    1  A    between atoms: C2_2  and  C3_3 
REMARK    2  A    between atoms: C3_3  and  S1_4 
REMARK    3  A    between atoms: S1_4  and  C4_5 
REMARK    4  A    between atoms: C4_5  and  S3_7 
REMARK    5  A    between atoms: S3_7  and  C5_8 
REMARK    6  A    between atoms: C8_13  and  C9_14 
REMARK    7  A    between atoms: C9_14  and  C10_15 
REMARK    8  A    between atoms: C10_15  and  O1_16 
REMARK    9  A    between atoms: N2_18  and  O2_20 
ROOT
HETATM    1  C5  UNL     1      -0.837   9.403  23.641  1.00  0.00     0.110 C 
HETATM    2  N1  UNL     1      -0.264  10.337  22.999  1.00  0.00    -0.379 N 
ATOM      3  H1  UNL     1       0.592  10.713  23.407  1.00  0.00     0.160 HD
HETATM    4  C6  UNL     1      -0.689  10.911  21.771  1.00  0.00     0.122 C 
HETATM    5  C7  UNL     1      -1.308   9.823  20.868  1.00  0.00     0.035 C 
HETATM    6  C8  UNL     1      -2.678   9.576  21.445  1.00  0.00     0.063 C 
HETATM    7  S4  UNL     1      -2.366   8.661  23.006  1.00  0.00    -0.100 SA
ENDROOT
BRANCH   6   8
HETATM    8  C9  UNL     1      -3.635   8.878  20.555  1.00  0.00     0.101 C 
BRANCH   8   9
HETATM    9  C10 UNL     1      -3.869   9.553  19.261  1.00  0.00     0.136 C 
HETATM   10  N2  UNL     1      -4.278  10.764  19.166  1.00  0.00    -0.251 N 
ATOM     11  H2  UNL     1      -4.456  11.300  20.015  1.00  0.00     0.196 HD
BRANCH   9  12
HETATM   12  O1  UNL     1      -3.642   8.865  18.057  1.00  0.00    -0.348 OA
ATOM     13  H1  UNL     1      -3.088   9.248  17.388  1.00  0.00     0.219 HD
ENDBRANCH   9  12
BRANCH  10  14
HETATM   14  O2  UNL     1      -4.482  11.349  17.946  1.00  0.00    -0.288 OA
ATOM     15  H2  UNL     1      -3.784  11.815  17.502  1.00  0.00     0.244 HD
ENDBRANCH  10  14
ENDBRANCH   8   9
ENDBRANCH   6   8
BRANCH   1  16
HETATM   16  S3  UNL     1      -0.224   8.743  25.185  1.00  0.00    -0.047 SA
BRANCH  16  17
HETATM   17  C4  UNL     1      -0.025   6.989  25.054  1.00  0.00     0.111 C 
HETATM   18  S2  UNL     1       0.183   6.395  23.778  1.00  0.00    -0.064 SA
BRANCH  17  19
HETATM   19  S1  UNL     1      -0.086   5.982  26.506  1.00  0.00    -0.107 SA
BRANCH  19  20
HETATM   20  C3  UNL     1      -1.248   4.622  26.254  1.00  0.00     0.107 C 
BRANCH  20  21
HETATM   21  C2  UNL     1      -2.607   5.095  26.577  1.00  0.00    -0.026 C 
HETATM   22  C1  UNL     1      -3.366   5.622  25.634  1.00  0.00     0.007 C 
ENDBRANCH  20  21
ENDBRANCH  19  20
ENDBRANCH  17  19
ENDBRANCH  16  17
ENDBRANCH   1  16
TORSDOF 9
ENDMDL
MODEL 3
REMARK VINA RESULT: -6.774616254      1.577      2.074
REMARK  9 active torsions:
REMARK  status: ('A' for Active; 'I' for Inactive)
REMARK    1  A    between atoms: C2_2  and  C3_3 
REMARK    2  A    between atoms: C3_3  and  S1_4 
REMARK    3  A    between atoms: S1_4  and  C4_5 
REMARK    4  A    between atoms: C4_5  and  S3_7 
REMARK    5  A    between atoms: S3_7  and  C5_8 
REMARK    6  A    between atoms: C8_13  and  C9_14 
REMARK    7  A    between atoms: C9_14  and  C10_15 
REMARK    8  A    between atoms: C10_15  and  O1_16 
REMARK    9  A    between atoms: N2_18  and  O2_20 
ROOT
HETATM    1  C5  UNL     1      -1.894   8.111  22.775  1.00  0.00     0.110 C 
HETATM    2  N1  UNL     1      -3.050   8.129  23.300  1.00  0.00    -0.379 N 
ATOM      3  H1  UNL     1      -3.199   7.512  24.098  1.00  0.00     0.160 HD
HETATM    4  C6  UNL     1      -4.158   8.920  22.893  1.00  0.00     0.122 C 
HETATM    5  C7  UNL     1      -3.668  10.304  22.416  1.00  0.00     0.035 C 
HETATM    6  C8  UNL     1      -3.097  10.059  21.043  1.00  0.00     0.063 C 
HETATM    7  S4  UNL     1      -1.520   9.169  21.349  1.00  0.00    -0.100 SA
ENDROOT
BRANCH   6   8
HETATM    8  C9  UNL     1      -2.918  11.262  20.196  1.00  0.00     0.101 C 
BRANCH   8   9
HETATM    9  C10 UNL     1      -3.750  11.277  18.974  1.00  0.00     0.136 C 
HETATM   10  N2  UNL     1      -4.151  12.357  18.412  1.00  0.00    -0.251 N 
ATOM     11  H2  UNL     1      -3.893  13.257  18.817  1.00  0.00     0.196 HD
BRANCH   9  12
HETATM   12  O1  UNL     1      -4.137  10.068  18.371  1.00  0.00    -0.348 OA
ATOM     13  H1  UNL     1      -4.351   9.315  18.908  1.00  0.00     0.219 HD
ENDBRANCH   9  12
BRANCH  10  14
HETATM   14  O2  UNL     1      -4.919  12.324  17.281  1.00  0.00    -0.288 OA
ATOM     15  H2  UNL     1      -4.854  13.005  16.622  1.00  0.00     0.244 HD
ENDBRANCH  10  14
ENDBRANCH   8   9
ENDBRANCH   6   8
BRANCH   1  16
HETATM   16  S3  UNL     1      -0.558   7.078  23.359  1.00  0.00    -0.047 SA
BRANCH  16  17
HETATM   17  C4  UNL     1      -0.201   7.454  25.052  1.00  0.00     0.111 C 
HETATM   18  S2  UNL     1       0.108   8.791  25.428  1.00  0.00    -0.064 SA
BRANCH  17  19
HETATM   19  S1  UNL     1      -0.228   6.170  26.268  1.00  0.00    -0.107 SA
BRANCH  19  20
HETATM   20  C3  UNL     1      -1.821   5.318  26.215  1.00  0.00     0.107 C 
BRANCH  20  21
HETATM   21  C2  UNL     1      -1.589   3.902  25.872  1.00  0.00    -0.026 C 
HETATM   22  C1  UNL     1      -0.665   3.209  26.513  1.00  0.00     0.007 C 
ENDBRANCH  20  21
ENDBRANCH  19  20
ENDBRANCH  17  19
ENDBRANCH  16  17
ENDBRANCH   1  16
TORSDOF 9
ENDMDL
MODEL 4
REMARK VINA RESULT: -6.694421258      2.090      3.032
REMARK  9 active torsions:
REMARK  status: ('A' for Active; 'I' for Inactive)
REMARK    1  A    between atoms: C2_2  and  C3_3 
REMARK    2  A    between atoms: C3_3  and  S1_4 
REMARK    3  A    between atoms: S1_4  and  C4_5 
REMARK    4  A    between atoms: C4_5  and  S3_7 
REMARK    5  A    between atoms: S3_7  and  C5_8 
REMARK    6  A    between atoms: C8_13  and  C9_14 
REMARK    7  A    between atoms: C9_14  and  C10_15 
REMARK    8  A    between atoms: C10_15  and  O1_16 
REMARK    9  A    between atoms: N2_18  and  O2_20 
ROOT
HETATM    1  C5  UNL     1      -2.656   9.846  22.197  1.00  0.00     0.110 C 
HETATM    2  N1  UNL     1      -3.673  10.047  22.929  1.00  0.00    -0.379 N 
ATOM      3  H1  UNL     1      -3.493  10.318  23.896  1.00  0.00     0.160 HD
HETATM    4  C6  UNL     1      -5.036   9.933  22.543  1.00  0.00     0.122 C 
HETATM    5  C7  UNL     1      -5.212  10.415  21.088  1.00  0.00     0.035 C 
HETATM    6  C8  UNL     1      -4.682   9.288  20.241  1.00  0.00     0.063 C 
HETATM    7  S4  UNL     1      -2.860   9.359  20.461  1.00  0.00    -0.100 SA
ENDROOT
BRANCH   6   8
HETATM    8  C9  UNL     1      -5.086   9.308  18.816  1.00  0.00     0.101 C 
BRANCH   8   9
HETATM    9  C10 UNL     1      -4.765   8.071  18.073  1.00  0.00     0.136 C 
HETATM   10  N2  UNL     1      -5.575   7.083  17.972  1.00  0.00    -0.251 N 
ATOM     11  H2  UNL     1      -6.489   7.138  18.422  1.00  0.00     0.196 HD
BRANCH   9  12
HETATM   12  O1  UNL     1      -3.522   7.937  17.431  1.00  0.00    -0.348 OA
ATOM     13  H1  UNL     1      -3.190   7.075  17.211  1.00  0.00     0.219 HD
ENDBRANCH   9  12
BRANCH  10  14
HETATM   14  O2  UNL     1      -5.237   5.957  17.274  1.00  0.00    -0.288 OA
ATOM     15  H2  UNL     1      -5.901   5.410  16.871  1.00  0.00     0.244 HD
ENDBRANCH  10  14
ENDBRANCH   8   9
ENDBRANCH   6   8
BRANCH   1  16
HETATM   16  S3  UNL     1      -0.973  10.014  22.773  1.00  0.00    -0.047 SA
BRANCH  16  17
HETATM   17  C4  UNL     1      -0.665   8.861  24.081  1.00  0.00     0.111 C 
HETATM   18  S2  UNL     1       0.111   9.258  25.205  1.00  0.00    -0.064 SA
BRANCH  17  19
HETATM   19  S1  UNL     1      -1.321   7.221  23.986  1.00  0.00    -0.107 SA
BRANCH  19  20
HETATM   20  C3  UNL     1      -0.878   6.303  25.477  1.00  0.00     0.107 C 
BRANCH  20  21
HETATM   21  C2  UNL     1      -2.000   5.416  25.837  1.00  0.00    -0.026 C 
HETATM   22  C1  UNL     1      -1.791   4.125  26.021  1.00  0.00     0.007 C 
ENDBRANCH  20  21
ENDBRANCH  19  20
ENDBRANCH  17  19
ENDBRANCH  16  17
ENDBRANCH   1  16
TORSDOF 9
ENDMDL
MODEL 5
REMARK VINA RESULT: -6.677022061      0.964      1.272
REMARK  9 active torsions:
REMARK  status: ('A' for Active; 'I' for Inactive)
REMARK    1  A    between atoms: C2_2  and  C3_3 
REMARK    2  A    between atoms: C3_3  and  S1_4 
REMARK    3  A    between atoms: S1_4  and  C4_5 
REMARK    4  A    between atoms: C4_5  and  S3_7 
REMARK    5  A    between atoms: S3_7  and  C5_8 
REMARK    6  A    between atoms: C8_13  and  C9_14 
REMARK    7  A    between atoms: C9_14  and  C10_15 
REMARK    8  A    between atoms: C10_15  and  O1_16 
REMARK    9  A    between atoms: N2_18  and  O2_20 
ROOT
HETATM    1  C5  UNL     1      -1.150   9.416  23.358  1.00  0.00     0.110 C 
HETATM    2  N1  UNL     1      -0.512  10.152  22.543  1.00  0.00    -0.379 N 
ATOM      3  H1  UNL     1       0.448  10.386  22.794  1.00  0.00     0.160 HD
HETATM    4  C6  UNL     1      -0.996  10.681  21.316  1.00  0.00     0.122 C 
HETATM    5  C7  UNL     1      -1.929   9.659  20.634  1.00  0.00     0.035 C 
HETATM    6  C8  UNL     1      -3.224   9.747  21.401  1.00  0.00     0.063 C 
HETATM    7  S4  UNL     1      -2.865   8.939  23.010  1.00  0.00    -0.100 SA
ENDROOT
BRANCH   6   8
HETATM    8  C9  UNL     1      -4.412   9.174  20.727  1.00  0.00     0.101 C 
BRANCH   8   9
HETATM    9  C10 UNL     1      -4.245   8.960  19.274  1.00  0.00     0.136 C 
HETATM   10  N2  UNL     1      -4.093   7.801  18.748  1.00  0.00    -0.251 N 
ATOM     11  H2  UNL     1      -4.083   6.976  19.349  1.00  0.00     0.196 HD
BRANCH   9  12
HETATM   12  O1  UNL     1      -4.251  10.057  18.395  1.00  0.00    -0.348 OA
ATOM     13  H1  UNL     1      -4.052   9.931  17.475  1.00  0.00     0.219 HD
ENDBRANCH   9  12
BRANCH  10  14
HETATM   14  O2  UNL     1      -3.943   7.649  17.397  1.00  0.00    -0.288 OA
ATOM     15  H2  UNL     1      -4.057   8.381  16.804  1.00  0.00     0.244 HD
ENDBRANCH  10  14
ENDBRANCH   8   9
ENDBRANCH   6   8
BRANCH   1  16
HETATM   16  S3  UNL     1      -0.454   8.796  24.883  1.00  0.00    -0.047 SA
BRANCH  16  17
HETATM   17  C4  UNL     1      -0.360   7.028  24.827  1.00  0.00     0.111 C 
HETATM   18  S2  UNL     1      -0.202   6.368  23.577  1.00  0.00    -0.064 SA
BRANCH  17  19
HETATM   19  S1  UNL     1      -0.464   6.091  26.323  1.00  0.00    -0.107 SA
BRANCH  19  20
HETATM   20  C3  UNL     1      -1.956   5.073  26.299  1.00  0.00     0.107 C 
BRANCH  20  21
HETATM   21  C2  UNL     1      -1.574   3.680  26.001  1.00  0.00    -0.026 C 
HETATM   22  C1  UNL     1      -0.552   3.125  26.627  1.00  0.00     0.007 C 
ENDBRANCH  20  21
ENDBRANCH  19  20
ENDBRANCH  17  19
ENDBRANCH  16  17
ENDBRANCH   1  16
TORSDOF 9
ENDMDL
