MODEL 1
REMARK VINA RESULT: -7.171220212      0.000      0.000
REMARK  6 active torsions:
REMARK  status: ('A' for Active; 'I' for Inactive)
REMARK       I    between atoms: N1_2  and  C2_4 
REMARK    1  A    between atoms: C2_4  and  C3_6 
REMARK    2  A    between atoms: C4_7  and  C5_8 
REMARK    3  A    between atoms: N6_20  and  C8_21 
REMARK    4  A    between atoms: C8_21  and  C9_22 
REMARK    5  A    between atoms: C9_22  and  O3_24 
REMARK    6  A    between atoms: C9_22  and  C11_26 
ROOT
HETATM    1  C3  UNL     1      51.215  19.651  33.358  1.00  0.00     0.149 A 
HETATM    2  C4  UNL     1      50.496  18.680  33.986  1.00  0.00     0.104 A 
HETATM    3  N4  UNL     1      49.194  18.862  33.545  1.00  0.00    -0.282 N 
ATOM      4  H4  UNL     1      48.396  18.291  33.824  1.00  0.00     0.188 HD
HETATM    5  N5  UNL     1      49.142  19.863  32.729  1.00  0.00    -0.239 N 
ATOM      6  H5  UNL     1      48.303  20.209  32.263  1.00  0.00     0.208 HD
HETATM    7  N6  UNL     1      50.356  20.361  32.600  1.00  0.00    -0.267 N 
ENDROOT
BRANCH   2   8
HETATM    8  C5  UNL     1      50.821  17.726  35.052  1.00  0.00     0.082 A 
HETATM    9  S1  UNL     1      52.243  17.820  36.049  1.00  0.00    -0.023 SA
HETATM   10  C6  UNL     1      52.024  16.375  36.923  1.00  0.00     0.290 A 
HETATM   11  O2  UNL     1      52.762  15.871  37.840  1.00  0.00    -0.260 OA
HETATM   12  N2  UNL     1      50.890  15.888  36.421  1.00  0.00    -0.305 N 
HETATM   13  C7  UNL     1      50.280  16.563  35.478  1.00  0.00     0.139 A 
ATOM     14  H2  UNL     1      50.504  15.008  36.764  1.00  0.00     0.171 HD
HETATM   15  N3  UNL     1      49.081  15.996  34.852  1.00  0.00    -0.081 NA
ENDBRANCH   2   8
BRANCH   1  16
HETATM   16  C2  UNL     1      52.691  19.761  33.308  1.00  0.00     0.271 C 
HETATM   17  N1  UNL     1      53.300  20.833  34.047  1.00  0.00    -0.360 N 
HETATM   18  C1  UNL     1      54.733  21.037  34.082  1.00  0.00     0.149 C 
ATOM     19  H1  UNL     1      52.700  21.474  34.565  1.00  0.00     0.162 HD
HETATM   20  O1  UNL     1      53.453  19.014  32.702  1.00  0.00    -0.266 OA
ENDBRANCH   1  16
BRANCH   7  21
HETATM   21  C8  UNL     1      50.694  21.537  31.815  1.00  0.00     0.200 C 
BRANCH  21  22
HETATM   22  C9  UNL     1      51.176  21.198  30.431  1.00  0.00     0.159 C 
HETATM   23  C10 UNL     1      52.599  21.724  30.211  1.00  0.00     0.059 C 
BRANCH  22  24
HETATM   24  O3  UNL     1      51.078  19.875  30.074  1.00  0.00    -0.377 OA
ATOM     25  H3  UNL     1      51.845  19.505  29.652  1.00  0.00     0.211 HD
ENDBRANCH  22  24
BRANCH  22  26
HETATM   26  C11 UNL     1      50.322  22.020  29.498  1.00  0.00     0.210 C 
HETATM   27  O4  UNL     1      49.141  22.332  29.815  1.00  0.00    -0.646 OA
HETATM   28  O5  UNL     1      50.831  22.433  28.293  1.00  0.00    -0.646 OA
ENDBRANCH  22  26
ENDBRANCH  21  22
ENDBRANCH   7  21
TORSDOF 6
ENDMDL
MODEL 2
REMARK VINA RESULT: -7.136475020      1.576      1.975
REMARK  6 active torsions:
REMARK  status: ('A' for Active; 'I' for Inactive)
REMARK       I    between atoms: N1_2  and  C2_4 
REMARK    1  A    between atoms: C2_4  and  C3_6 
REMARK    2  A    between atoms: C4_7  and  C5_8 
REMARK    3  A    between atoms: N6_20  and  C8_21 
REMARK    4  A    between atoms: C8_21  and  C9_22 
REMARK    5  A    between atoms: C9_22  and  O3_24 
REMARK    6  A    between atoms: C9_22  and  C11_26 
ROOT
HETATM    1  C3  UNL     1      51.099  19.522  33.213  1.00  0.00     0.149 A 
HETATM    2  C4  UNL     1      50.428  18.595  33.952  1.00  0.00     0.104 A 
HETATM    3  N4  UNL     1      49.097  18.752  33.593  1.00  0.00    -0.282 N 
ATOM      4  H4  UNL     1      48.322  18.203  33.964  1.00  0.00     0.188 HD
HETATM    5  N5  UNL     1      48.985  19.698  32.720  1.00  0.00    -0.239 N 
ATOM      6  H5  UNL     1      48.115  20.016  32.294  1.00  0.00     0.208 HD
HETATM    7  N6  UNL     1      50.187  20.184  32.474  1.00  0.00    -0.267 N 
ENDROOT
BRANCH   2   8
HETATM    8  C5  UNL     1      50.828  17.711  35.052  1.00  0.00     0.082 A 
HETATM    9  S1  UNL     1      52.277  17.916  35.993  1.00  0.00    -0.023 SA
HETATM   10  C6  UNL     1      52.151  16.508  36.943  1.00  0.00     0.290 A 
HETATM   11  O2  UNL     1      52.940  16.083  37.858  1.00  0.00    -0.260 OA
HETATM   12  N2  UNL     1      51.024  15.949  36.505  1.00  0.00    -0.305 N 
HETATM   13  C7  UNL     1      50.355  16.549  35.552  1.00  0.00     0.139 A 
ATOM     14  H2  UNL     1      50.689  15.072  36.904  1.00  0.00     0.171 HD
HETATM   15  N3  UNL     1      49.163  15.900  34.997  1.00  0.00    -0.081 NA
ENDBRANCH   2   8
BRANCH   1  16
HETATM   16  C2  UNL     1      52.567  19.624  33.051  1.00  0.00     0.271 C 
HETATM   17  N1  UNL     1      53.232  20.711  33.717  1.00  0.00    -0.360 N 
HETATM   18  C1  UNL     1      54.663  20.910  33.642  1.00  0.00     0.149 C 
ATOM     19  H1  UNL     1      52.673  21.367  34.263  1.00  0.00     0.162 HD
HETATM   20  O1  UNL     1      53.280  18.860  32.410  1.00  0.00    -0.266 OA
ENDBRANCH   1  16
BRANCH   7  21
HETATM   21  C8  UNL     1      50.466  21.306  31.592  1.00  0.00     0.200 C 
BRANCH  21  22
HETATM   22  C9  UNL     1      49.824  22.586  32.052  1.00  0.00     0.159 C 
HETATM   23  C10 UNL     1      49.158  23.309  30.876  1.00  0.00     0.059 C 
BRANCH  22  24
HETATM   24  O3  UNL     1      48.960  22.471  33.113  1.00  0.00    -0.377 OA
ATOM     25  H3  UNL     1      48.038  22.431  32.890  1.00  0.00     0.211 HD
ENDBRANCH  22  24
BRANCH  22  26
HETATM   26  C11 UNL     1      50.967  23.486  32.448  1.00  0.00     0.210 C 
HETATM   27  O4  UNL     1      50.749  24.601  32.997  1.00  0.00    -0.646 OA
HETATM   28  O5  UNL     1      52.260  23.092  32.210  1.00  0.00    -0.646 OA
ENDBRANCH  22  26
ENDBRANCH  21  22
ENDBRANCH   7  21
TORSDOF 6
ENDMDL
MODEL 3
REMARK VINA RESULT: -6.964434180      2.652      4.696
REMARK  6 active torsions:
REMARK  status: ('A' for Active; 'I' for Inactive)
REMARK       I    between atoms: N1_2  and  C2_4 
REMARK    1  A    between atoms: C2_4  and  C3_6 
REMARK    2  A    between atoms: C4_7  and  C5_8 
REMARK    3  A    between atoms: N6_20  and  C8_21 
REMARK    4  A    between atoms: C8_21  and  C9_22 
REMARK    5  A    between atoms: C9_22  and  O3_24 
REMARK    6  A    between atoms: C9_22  and  C11_26 
ROOT
HETATM    1  C3  UNL     1      53.095  19.808  34.690  1.00  0.00     0.149 A 
HETATM    2  C4  UNL     1      52.519  19.125  35.717  1.00  0.00     0.104 A 
HETATM    3  N4  UNL     1      52.972  19.759  36.864  1.00  0.00    -0.282 N 
ATOM      4  H4  UNL     1      52.722  19.495  37.817  1.00  0.00     0.188 HD
HETATM    5  N5  UNL     1      53.759  20.733  36.546  1.00  0.00    -0.239 N 
ATOM      6  H5  UNL     1      54.228  21.359  37.201  1.00  0.00     0.208 HD
HETATM    7  N6  UNL     1      53.853  20.783  35.231  1.00  0.00    -0.267 N 
ENDROOT
BRANCH   2   8
HETATM    8  C5  UNL     1      51.749  17.877  35.781  1.00  0.00     0.082 A 
HETATM    9  S1  UNL     1      50.302  17.573  34.864  1.00  0.00    -0.023 SA
HETATM   10  C6  UNL     1      49.909  16.054  35.527  1.00  0.00     0.290 A 
HETATM   11  O2  UNL     1      48.920  15.289  35.251  1.00  0.00    -0.260 OA
HETATM   12  N2  UNL     1      50.886  15.848  36.408  1.00  0.00    -0.305 N 
HETATM   13  C7  UNL     1      51.815  16.763  36.542  1.00  0.00     0.139 A 
ATOM     14  H2  UNL     1      50.911  14.996  36.968  1.00  0.00     0.171 HD
HETATM   15  N3  UNL     1      52.844  16.593  37.572  1.00  0.00    -0.081 NA
ENDBRANCH   2   8
BRANCH   1  16
HETATM   16  C2  UNL     1      52.767  19.680  33.252  1.00  0.00     0.271 C 
HETATM   17  N1  UNL     1      51.756  20.554  32.723  1.00  0.00    -0.360 N 
HETATM   18  C1  UNL     1      51.356  20.529  31.332  1.00  0.00     0.149 C 
ATOM     19  H1  UNL     1      51.303  21.217  33.352  1.00  0.00     0.162 HD
HETATM   20  O1  UNL     1      53.286  18.903  32.457  1.00  0.00    -0.266 OA
ENDBRANCH   1  16
BRANCH   7  21
HETATM   21  C8  UNL     1      54.698  21.706  34.492  1.00  0.00     0.200 C 
BRANCH  21  22
HETATM   22  C9  UNL     1      56.134  21.262  34.427  1.00  0.00     0.159 C 
HETATM   23  C10 UNL     1      57.048  22.290  35.104  1.00  0.00     0.059 C 
BRANCH  22  24
HETATM   24  O3  UNL     1      56.386  19.995  34.892  1.00  0.00    -0.377 OA
ATOM     25  H3  UNL     1      56.680  19.939  35.794  1.00  0.00     0.211 HD
ENDBRANCH  22  24
BRANCH  22  26
HETATM   26  C11 UNL     1      56.506  21.330  32.967  1.00  0.00     0.210 C 
HETATM   27  O4  UNL     1      56.997  22.384  32.476  1.00  0.00    -0.646 OA
HETATM   28  O5  UNL     1      56.311  20.237  32.162  1.00  0.00    -0.646 OA
ENDBRANCH  22  26
ENDBRANCH  21  22
ENDBRANCH   7  21
TORSDOF 6
ENDMDL
MODEL 4
REMARK VINA RESULT: -6.814399001      2.543      4.272
REMARK  6 active torsions:
REMARK  status: ('A' for Active; 'I' for Inactive)
REMARK       I    between atoms: N1_2  and  C2_4 
REMARK    1  A    between atoms: C2_4  and  C3_6 
REMARK    2  A    between atoms: C4_7  and  C5_8 
REMARK    3  A    between atoms: N6_20  and  C8_21 
REMARK    4  A    between atoms: C8_21  and  C9_22 
REMARK    5  A    between atoms: C9_22  and  O3_24 
REMARK    6  A    between atoms: C9_22  and  C11_26 
ROOT
HETATM    1  C3  UNL     1      52.887  19.896  34.394  1.00  0.00     0.149 A 
HETATM    2  C4  UNL     1      52.770  18.989  35.403  1.00  0.00     0.104 A 
HETATM    3  N4  UNL     1      53.842  19.253  36.244  1.00  0.00    -0.282 N 
ATOM      4  H4  UNL     1      54.046  18.751  37.107  1.00  0.00     0.188 HD
HETATM    5  N5  UNL     1      54.542  20.230  35.769  1.00  0.00    -0.239 N 
ATOM      6  H5  UNL     1      55.383  20.621  36.193  1.00  0.00     0.208 HD
HETATM    7  N6  UNL     1      53.985  20.637  34.645  1.00  0.00    -0.267 N 
ENDROOT
BRANCH   2   8
HETATM    8  C5  UNL     1      51.906  17.820  35.603  1.00  0.00     0.082 A 
HETATM    9  S1  UNL     1      50.446  17.519  34.708  1.00  0.00    -0.023 SA
HETATM   10  C6  UNL     1      49.934  16.123  35.539  1.00  0.00     0.290 A 
HETATM   11  O2  UNL     1      48.891  15.407  35.341  1.00  0.00    -0.260 OA
HETATM   12  N2  UNL     1      50.887  15.950  36.452  1.00  0.00    -0.305 N 
HETATM   13  C7  UNL     1      51.882  16.803  36.491  1.00  0.00     0.139 A 
ATOM     14  H2  UNL     1      50.844  15.171  37.109  1.00  0.00     0.171 HD
HETATM   15  N3  UNL     1      52.890  16.678  37.549  1.00  0.00    -0.081 NA
ENDBRANCH   2   8
BRANCH   1  16
HETATM   16  C2  UNL     1      51.877  20.191  33.353  1.00  0.00     0.271 C 
HETATM   17  N1  UNL     1      52.075  19.608  32.054  1.00  0.00    -0.360 N 
HETATM   18  C1  UNL     1      51.152  19.816  30.959  1.00  0.00     0.149 C 
ATOM     19  H1  UNL     1      52.899  19.026  31.898  1.00  0.00     0.162 HD
HETATM   20  O1  UNL     1      50.872  20.880  33.494  1.00  0.00    -0.266 OA
ENDBRANCH   1  16
BRANCH   7  21
HETATM   21  C8  UNL     1      54.518  21.678  33.782  1.00  0.00     0.200 C 
BRANCH  21  22
HETATM   22  C9  UNL     1      55.832  21.302  33.153  1.00  0.00     0.159 C 
HETATM   23  C10 UNL     1      56.863  22.419  33.350  1.00  0.00     0.059 C 
BRANCH  22  24
HETATM   24  O3  UNL     1      56.344  20.085  33.529  1.00  0.00    -0.377 OA
ATOM     25  H3  UNL     1      56.910  20.095  34.293  1.00  0.00     0.211 HD
ENDBRANCH  22  24
BRANCH  22  26
HETATM   26  C11 UNL     1      55.574  21.286  31.668  1.00  0.00     0.210 C 
HETATM   27  O4  UNL     1      54.397  21.371  31.218  1.00  0.00    -0.646 OA
HETATM   28  O5  UNL     1      56.625  21.177  30.793  1.00  0.00    -0.646 OA
ENDBRANCH  22  26
ENDBRANCH  21  22
ENDBRANCH   7  21
TORSDOF 6
ENDMDL
MODEL 5
REMARK VINA RESULT: -6.814291962      3.127      5.470
REMARK  6 active torsions:
REMARK  status: ('A' for Active; 'I' for Inactive)
REMARK       I    between atoms: N1_2  and  C2_4 
REMARK    1  A    between atoms: C2_4  and  C3_6 
REMARK    2  A    between atoms: C4_7  and  C5_8 
REMARK    3  A    between atoms: N6_20  and  C8_21 
REMARK    4  A    between atoms: C8_21  and  C9_22 
REMARK    5  A    between atoms: C9_22  and  O3_24 
REMARK    6  A    between atoms: C9_22  and  C11_26 
ROOT
HETATM    1  C3  UNL     1      54.229  19.413  35.023  1.00  0.00     0.149 A 
HETATM    2  C4  UNL     1      53.505  18.784  35.990  1.00  0.00     0.104 A 
HETATM    3  N4  UNL     1      54.152  19.098  37.177  1.00  0.00    -0.282 N 
ATOM      4  H4  UNL     1      53.860  18.785  38.103  1.00  0.00     0.188 HD
HETATM    5  N5  UNL     1      55.178  19.844  36.934  1.00  0.00    -0.239 N 
ATOM      6  H5  UNL     1      55.825  20.212  37.631  1.00  0.00     0.208 HD
HETATM    7  N6  UNL     1      55.249  20.047  35.633  1.00  0.00    -0.267 N 
ENDROOT
BRANCH   2   8
HETATM    8  C5  UNL     1      52.408  17.810  35.946  1.00  0.00     0.082 A 
HETATM    9  S1  UNL     1      51.021  17.947  34.906  1.00  0.00    -0.023 SA
HETATM   10  C6  UNL     1      50.155  16.596  35.478  1.00  0.00     0.290 A 
HETATM   11  O2  UNL     1      49.016  16.151  35.095  1.00  0.00    -0.260 OA
HETATM   12  N2  UNL     1      50.951  16.107  36.427  1.00  0.00    -0.305 N 
HETATM   13  C7  UNL     1      52.087  16.715  36.668  1.00  0.00     0.139 A 
ATOM     14  H2  UNL     1      50.683  15.276  36.955  1.00  0.00     0.171 HD
HETATM   15  N3  UNL     1      52.931  16.243  37.770  1.00  0.00    -0.081 NA
ENDBRANCH   2   8
BRANCH   1  16
HETATM   16  C2  UNL     1      53.841  19.585  33.604  1.00  0.00     0.271 C 
HETATM   17  N1  UNL     1      53.119  20.778  33.255  1.00  0.00    -0.360 N 
HETATM   18  C1  UNL     1      52.695  21.061  31.901  1.00  0.00     0.149 C 
ATOM     19  H1  UNL     1      52.898  21.449  33.990  1.00  0.00     0.162 HD
HETATM   20  O1  UNL     1      54.087  18.808  32.687  1.00  0.00    -0.266 OA
ENDBRANCH   1  16
BRANCH   7  21
HETATM   21  C8  UNL     1      56.307  20.786  34.963  1.00  0.00     0.200 C 
BRANCH  21  22
HETATM   22  C9  UNL     1      56.006  22.255  34.836  1.00  0.00     0.159 C 
HETATM   23  C10 UNL     1      56.402  22.769  33.448  1.00  0.00     0.059 C 
BRANCH  22  24
HETATM   24  O3  UNL     1      54.723  22.628  35.153  1.00  0.00    -0.377 OA
ATOM     25  H3  UNL     1      54.432  23.454  34.784  1.00  0.00     0.211 HD
ENDBRANCH  22  24
BRANCH  22  26
HETATM   26  C11 UNL     1      56.961  22.941  35.779  1.00  0.00     0.210 C 
HETATM   27  O4  UNL     1      57.595  23.970  35.418  1.00  0.00    -0.646 OA
HETATM   28  O5  UNL     1      57.147  22.443  37.044  1.00  0.00    -0.646 OA
ENDBRANCH  22  26
ENDBRANCH  21  22
ENDBRANCH   7  21
TORSDOF 6
ENDMDL
