MODEL 1
REMARK VINA RESULT: -6.585908133      0.000      0.000
REMARK  0 active torsions:
REMARK  status: ('A' for Active; 'I' for Inactive)
ROOT
HETATM    1  C1  UNL     1      56.798  52.813   4.382  1.00  0.00     0.029 C 
HETATM    2  C2  UNL     1      55.870  53.310   3.290  1.00  0.00     0.021 C 
HETATM    3  C3  UNL     1      54.609  53.942   3.885  1.00  0.00     0.113 C 
HETATM    4  N1  UNL     1      54.785  55.352   3.865  1.00  0.00    -0.421 N 
ATOM      5  H1  UNL     1      55.666  55.783   3.586  1.00  0.00     0.153 HD
HETATM    6  C4  UNL     1      53.662  56.123   4.254  1.00  0.00     0.114 C 
HETATM    7  C5  UNL     1      53.128  55.809   5.628  1.00  0.00     0.029 C 
HETATM    8  C6  UNL     1      53.316  56.998   6.582  1.00  0.00     0.026 C 
HETATM    9  C7  UNL     1      52.444  56.778   7.774  1.00  0.00     0.010 C 
HETATM   10  C8  UNL     1      52.209  58.014   8.596  1.00  0.00     0.006 C 
HETATM   11  C9  UNL     1      53.330  58.310   9.560  1.00  0.00     0.045 C 
HETATM   12  C10 UNL     1      54.650  58.502   8.867  1.00  0.00     0.068 C 
HETATM   13  N2  UNL     1      55.139  57.378   8.193  1.00  0.00    -0.352 N 
HETATM   14  C11 UNL     1      55.577  56.274   8.939  1.00  0.00     0.094 C 
HETATM   15  C12 UNL     1      57.074  56.047   8.863  1.00  0.00     0.212 C 
HETATM   16  O1  UNL     1      57.356  54.728   8.506  1.00  0.00    -0.385 OA
HETATM   17  C13 UNL     1      58.645  54.563   8.068  1.00  0.00     0.195 C 
HETATM   18  C14 UNL     1      58.606  53.647   6.854  1.00  0.00     0.258 C 
HETATM   19  N3  UNL     1      58.087  54.406   5.746  1.00  0.00    -0.073 N 
ATOM     20  H31 UNL     1      58.614  55.270   5.620  1.00  0.00     0.277 HD
ATOM     21  H32 UNL     1      57.173  54.797   5.972  1.00  0.00     0.277 HD
HETATM   22  C15 UNL     1      58.033  53.659   4.521  1.00  0.00     0.232 C 
HETATM   23  C16 UNL     1      54.753  57.171   6.858  1.00  0.00     0.072 C 
ENDROOT
TORSDOF 0
ENDMDL
MODEL 2
REMARK VINA RESULT: -5.977875616      2.181      2.367
REMARK  0 active torsions:
REMARK  status: ('A' for Active; 'I' for Inactive)
ROOT
HETATM    1  C1  UNL     1      58.138  56.257   4.170  1.00  0.00     0.029 C 
HETATM    2  C2  UNL     1      57.554  57.335   3.277  1.00  0.00     0.021 C 
HETATM    3  C3  UNL     1      56.064  57.541   3.565  1.00  0.00     0.113 C 
HETATM    4  N1  UNL     1      55.942  58.684   4.399  1.00  0.00    -0.421 N 
ATOM      5  H1  UNL     1      56.756  59.164   4.782  1.00  0.00     0.153 HD
HETATM    6  C4  UNL     1      54.621  59.118   4.668  1.00  0.00     0.114 C 
HETATM    7  C5  UNL     1      53.730  58.075   5.292  1.00  0.00     0.029 C 
HETATM    8  C6  UNL     1      53.333  58.465   6.723  1.00  0.00     0.026 C 
HETATM    9  C7  UNL     1      52.175  57.617   7.132  1.00  0.00     0.010 C 
HETATM   10  C8  UNL     1      51.426  58.139   8.326  1.00  0.00     0.006 C 
HETATM   11  C9  UNL     1      52.067  57.770   9.639  1.00  0.00     0.045 C 
HETATM   12  C10 UNL     1      53.474  58.285   9.758  1.00  0.00     0.068 C 
HETATM   13  N2  UNL     1      54.383  57.756   8.835  1.00  0.00    -0.352 N 
HETATM   14  C11 UNL     1      54.760  56.410   8.944  1.00  0.00     0.094 C 
HETATM   15  C12 UNL     1      56.207  56.217   9.354  1.00  0.00     0.212 C 
HETATM   16  O1  UNL     1      56.858  55.353   8.474  1.00  0.00    -0.385 OA
HETATM   17  C13 UNL     1      58.224  55.430   8.571  1.00  0.00     0.195 C 
HETATM   18  C14 UNL     1      58.788  55.408   7.158  1.00  0.00     0.258 C 
HETATM   19  N3  UNL     1      58.531  56.692   6.560  1.00  0.00    -0.073 N 
ATOM     20  H31 UNL     1      58.879  57.445   7.154  1.00  0.00     0.277 HD
ATOM     21  H32 UNL     1      57.534  56.909   6.581  1.00  0.00     0.277 HD
HETATM   22  C15 UNL     1      59.050  56.813   5.227  1.00  0.00     0.232 C 
HETATM   23  C16 UNL     1      54.523  58.390   7.589  1.00  0.00     0.072 C 
ENDROOT
TORSDOF 0
ENDMDL
MODEL 3
REMARK VINA RESULT: -5.735000925      1.617      5.316
REMARK  0 active torsions:
REMARK  status: ('A' for Active; 'I' for Inactive)
ROOT
HETATM    1  C1  UNL     1      54.149  58.278   9.364  1.00  0.00     0.029 C 
HETATM    2  C2  UNL     1      52.709  58.013   8.968  1.00  0.00     0.021 C 
HETATM    3  C3  UNL     1      52.580  57.832   7.453  1.00  0.00     0.113 C 
HETATM    4  N1  UNL     1      52.520  56.437   7.191  1.00  0.00    -0.421 N 
ATOM      5  H1  UNL     1      52.653  55.742   7.926  1.00  0.00     0.153 HD
HETATM    6  C4  UNL     1      52.264  56.068   5.848  1.00  0.00     0.114 C 
HETATM    7  C5  UNL     1      53.245  56.619   4.845  1.00  0.00     0.029 C 
HETATM    8  C6  UNL     1      54.065  55.495   4.195  1.00  0.00     0.026 C 
HETATM    9  C7  UNL     1      54.720  56.046   2.971  1.00  0.00     0.010 C 
HETATM   10  C8  UNL     1      55.221  54.995   2.020  1.00  0.00     0.006 C 
HETATM   11  C9  UNL     1      56.569  54.440   2.403  1.00  0.00     0.045 C 
HETATM   12  C10 UNL     1      56.566  53.813   3.769  1.00  0.00     0.068 C 
HETATM   13  N2  UNL     1      56.305  54.690   4.827  1.00  0.00    -0.352 N 
HETATM   14  C11 UNL     1      57.264  55.657   5.163  1.00  0.00     0.094 C 
HETATM   15  C12 UNL     1      57.923  55.415   6.506  1.00  0.00     0.212 C 
HETATM   16  O1  UNL     1      57.860  56.561   7.300  1.00  0.00    -0.385 OA
HETATM   17  C13 UNL     1      58.099  56.300   8.626  1.00  0.00     0.195 C 
HETATM   18  C14 UNL     1      57.097  57.102   9.441  1.00  0.00     0.258 C 
HETATM   19  N3  UNL     1      55.812  56.464   9.313  1.00  0.00    -0.073 N 
ATOM     20  H31 UNL     1      55.873  55.475   9.553  1.00  0.00     0.277 HD
ATOM     21  H32 UNL     1      55.544  56.383   8.332  1.00  0.00     0.277 HD
HETATM   22  C15 UNL     1      54.778  57.109  10.071  1.00  0.00     0.232 C 
HETATM   23  C16 UNL     1      54.971  54.915   5.203  1.00  0.00     0.072 C 
ENDROOT
TORSDOF 0
ENDMDL
MODEL 4
REMARK VINA RESULT: -5.704216285      3.207      4.897
REMARK  0 active torsions:
REMARK  status: ('A' for Active; 'I' for Inactive)
ROOT
HETATM    1  C1  UNL     1      59.595  58.286   7.081  1.00  0.00     0.029 C 
HETATM    2  C2  UNL     1      59.672  57.520   8.388  1.00  0.00     0.021 C 
HETATM    3  C3  UNL     1      58.403  57.722   9.220  1.00  0.00     0.113 C 
HETATM    4  N1  UNL     1      57.578  56.581   9.029  1.00  0.00    -0.421 N 
ATOM      5  H1  UNL     1      57.813  55.851   8.358  1.00  0.00     0.153 HD
HETATM    6  C4  UNL     1      56.410  56.521   9.827  1.00  0.00     0.114 C 
HETATM    7  C5  UNL     1      55.488  57.705   9.688  1.00  0.00     0.029 C 
HETATM    8  C6  UNL     1      54.152  57.298   9.050  1.00  0.00     0.026 C 
HETATM    9  C7  UNL     1      53.169  58.395   9.290  1.00  0.00     0.010 C 
HETATM   10  C8  UNL     1      51.736  57.989   9.087  1.00  0.00     0.006 C 
HETATM   11  C9  UNL     1      51.308  58.020   7.643  1.00  0.00     0.045 C 
HETATM   12  C10 UNL     1      52.137  57.113   6.777  1.00  0.00     0.068 C 
HETATM   13  N2  UNL     1      53.491  57.451   6.683  1.00  0.00    -0.352 N 
HETATM   14  C11 UNL     1      53.857  58.613   5.989  1.00  0.00     0.094 C 
HETATM   15  C12 UNL     1      54.603  58.338   4.697  1.00  0.00     0.212 C 
HETATM   16  O1  UNL     1      55.792  59.066   4.650  1.00  0.00    -0.385 OA
HETATM   17  C13 UNL     1      56.666  58.589   3.706  1.00  0.00     0.195 C 
HETATM   18  C14 UNL     1      58.057  58.596   4.322  1.00  0.00     0.258 C 
HETATM   19  N3  UNL     1      58.127  57.509   5.264  1.00  0.00    -0.073 N 
ATOM     20  H31 UNL     1      57.852  56.631   4.826  1.00  0.00     0.277 HD
ATOM     21  H32 UNL     1      57.389  57.587   5.963  1.00  0.00     0.277 HD
HETATM   22  C15 UNL     1      59.412  57.384   5.892  1.00  0.00     0.232 C 
HETATM   23  C16 UNL     1      54.382  56.937   7.640  1.00  0.00     0.072 C 
ENDROOT
TORSDOF 0
ENDMDL
MODEL 5
REMARK VINA RESULT: -5.514413407      1.462      2.253
REMARK  0 active torsions:
REMARK  status: ('A' for Active; 'I' for Inactive)
ROOT
HETATM    1  C1  UNL     1      58.985  52.463   5.443  1.00  0.00     0.029 C 
HETATM    2  C2  UNL     1      58.472  52.272   4.029  1.00  0.00     0.021 C 
HETATM    3  C3  UNL     1      56.952  52.441   3.967  1.00  0.00     0.113 C 
HETATM    4  N1  UNL     1      56.684  53.753   3.491  1.00  0.00    -0.421 N 
ATOM      5  H1  UNL     1      57.427  54.436   3.342  1.00  0.00     0.153 HD
HETATM    6  C4  UNL     1      55.324  54.055   3.237  1.00  0.00     0.114 C 
HETATM    7  C5  UNL     1      54.406  53.866   4.416  1.00  0.00     0.029 C 
HETATM    8  C6  UNL     1      53.823  55.205   4.888  1.00  0.00     0.026 C 
HETATM    9  C7  UNL     1      52.657  54.919   5.776  1.00  0.00     0.010 C 
HETATM   10  C8  UNL     1      51.748  56.096   5.992  1.00  0.00     0.006 C 
HETATM   11  C9  UNL     1      52.239  57.037   7.063  1.00  0.00     0.045 C 
HETATM   12  C10 UNL     1      53.599  57.597   6.757  1.00  0.00     0.068 C 
HETATM   13  N2  UNL     1      54.634  56.657   6.705  1.00  0.00    -0.352 N 
HETATM   14  C11 UNL     1      55.047  56.032   7.890  1.00  0.00     0.094 C 
HETATM   15  C12 UNL     1      56.440  56.435   8.334  1.00  0.00     0.212 C 
HETATM   16  O1  UNL     1      57.227  55.308   8.573  1.00  0.00    -0.385 OA
HETATM   17  C13 UNL     1      58.567  55.598   8.614  1.00  0.00     0.195 C 
HETATM   18  C14 UNL     1      59.299  54.502   7.856  1.00  0.00     0.258 C 
HETATM   19  N3  UNL     1      59.067  54.708   6.450  1.00  0.00    -0.073 N 
ATOM     20  H31 UNL     1      59.310  55.660   6.178  1.00  0.00     0.277 HD
ATOM     21  H32 UNL     1      58.067  54.725   6.246  1.00  0.00     0.277 HD
HETATM   22  C15 UNL     1      59.739  53.752   5.616  1.00  0.00     0.232 C 
HETATM   23  C16 UNL     1      54.901  56.015   5.484  1.00  0.00     0.072 C 
ENDROOT
TORSDOF 0
ENDMDL
