MODEL 1
REMARK VINA RESULT: -7.696996517      0.000      0.000
REMARK  8 active torsions:
REMARK  status: ('A' for Active; 'I' for Inactive)
REMARK    1  A    between atoms: C2_2  and  C3_3 
REMARK    2  A    between atoms: C3_3  and  C4_4 
REMARK    3  A    between atoms: C5_5  and  C6_6 
REMARK    4  A    between atoms: C6_6  and  C7_7 
REMARK    5  A    between atoms: C8_8  and  C9_9 
REMARK    6  A    between atoms: C13_15  and  N2_16 
REMARK    7  A    between atoms: N2_16  and  C14_18 
REMARK    8  A    between atoms: C14_18  and  C15_19 
ROOT
HETATM    1  C9  UNL     1      11.491   7.997   2.540  1.00  0.00     0.163 A 
HETATM    2  N1  UNL     1      11.867   7.689   3.779  1.00  0.00    -0.339 N 
ATOM      3  H1  UNL     1      11.204   7.840   4.539  1.00  0.00     0.168 HD
HETATM    4  C10 UNL     1      13.097   7.181   4.084  1.00  0.00     0.011 A 
HETATM    5  C11 UNL     1      13.489   6.847   5.467  1.00  0.00     0.068 C 
HETATM    6  C12 UNL     1      13.964   6.990   3.043  1.00  0.00     0.072 A 
HETATM    7  C13 UNL     1      13.601   7.299   1.750  1.00  0.00     0.104 A 
HETATM    8  N4  UNL     1      12.371   7.798   1.523  1.00  0.00    -0.322 N 
ATOM      9  H4  UNL     1      12.093   8.030   0.570  1.00  0.00     0.169 HD
ENDROOT
BRANCH   1  10
HETATM   10  C8  UNL     1      10.196   8.531   2.234  1.00  0.00    -0.029 C 
HETATM   11  C7  UNL     1       9.086   8.985   1.993  1.00  0.00    -0.086 C 
BRANCH  11  12
HETATM   12  C6  UNL     1       7.752   9.531   1.728  1.00  0.00     0.188 C 
BRANCH  12  13
HETATM   13  C5  UNL     1       7.006   9.710   2.995  1.00  0.00    -0.095 C 
HETATM   14  C4  UNL     1       6.411   9.848   4.035  1.00  0.00    -0.106 C 
BRANCH  14  15
HETATM   15  C3  UNL     1       5.699  10.007   5.303  1.00  0.00     0.093 C 
BRANCH  15  16
HETATM   16  C2  UNL     1       4.208  10.187   5.046  1.00  0.00     0.007 C 
HETATM   17  C1  UNL     1       3.708   9.048   4.208  1.00  0.00     0.006 C 
ENDBRANCH  15  16
ENDBRANCH  14  15
ENDBRANCH  12  13
ENDBRANCH  11  12
ENDBRANCH   1  10
BRANCH   7  18
HETATM   18  N2  UNL     1      14.393   7.130   0.758  1.00  0.00    -0.374 N 
ATOM     19  H2  UNL     1      14.066   6.515   0.013  1.00  0.00     0.161 HD
BRANCH  18  20
HETATM   20  C14 UNL     1      15.684   7.712   0.586  1.00  0.00     0.155 C 
BRANCH  20  21
HETATM   21  C15 UNL     1      16.383   7.251  -0.677  1.00  0.00     0.229 A 
HETATM   22  C16 UNL     1      16.480   8.257  -1.762  1.00  0.00     0.267 A 
HETATM   23  N3  UNL     1      15.683   7.067  -1.855  1.00  0.00    -0.066 N 
ATOM     24  H32 UNL     1      15.647   6.305  -2.532  1.00  0.00     0.277 HD
ATOM     25  H31 UNL     1      14.697   6.903  -2.062  1.00  0.00     0.277 HD
ENDBRANCH  20  21
ENDBRANCH  18  20
ENDBRANCH   7  18
TORSDOF 8
ENDMDL
MODEL 2
REMARK VINA RESULT: -7.542306243      2.460      3.117
REMARK  8 active torsions:
REMARK  status: ('A' for Active; 'I' for Inactive)
REMARK    1  A    between atoms: C2_2  and  C3_3 
REMARK    2  A    between atoms: C3_3  and  C4_4 
REMARK    3  A    between atoms: C5_5  and  C6_6 
REMARK    4  A    between atoms: C6_6  and  C7_7 
REMARK    5  A    between atoms: C8_8  and  C9_9 
REMARK    6  A    between atoms: C13_15  and  N2_16 
REMARK    7  A    between atoms: N2_16  and  C14_18 
REMARK    8  A    between atoms: C14_18  and  C15_19 
ROOT
HETATM    1  C9  UNL     1      11.348  10.378   3.035  1.00  0.00     0.163 A 
HETATM    2  N1  UNL     1      11.574  11.563   2.470  1.00  0.00    -0.339 N 
ATOM      3  H1  UNL     1      11.004  12.356   2.762  1.00  0.00     0.168 HD
HETATM    4  C10 UNL     1      12.533  11.767   1.519  1.00  0.00     0.011 A 
HETATM    5  C11 UNL     1      12.764  13.091   0.909  1.00  0.00     0.068 C 
HETATM    6  C12 UNL     1      13.280  10.683   1.150  1.00  0.00     0.072 A 
HETATM    7  C13 UNL     1      13.068   9.446   1.719  1.00  0.00     0.104 A 
HETATM    8  N4  UNL     1      12.104   9.317   2.651  1.00  0.00    -0.322 N 
ATOM      9  H4  UNL     1      11.939   8.405   3.077  1.00  0.00     0.169 HD
ENDROOT
BRANCH   1  10
HETATM   10  C8  UNL     1      10.337  10.177   4.032  1.00  0.00    -0.029 C 
HETATM   11  C7  UNL     1       9.488   9.996   4.895  1.00  0.00    -0.086 C 
BRANCH  11  12
HETATM   12  C6  UNL     1       8.491   9.774   5.944  1.00  0.00     0.188 C 
BRANCH  12  13
HETATM   13  C5  UNL     1       7.129  10.039   5.428  1.00  0.00    -0.095 C 
HETATM   14  C4  UNL     1       6.013  10.242   5.016  1.00  0.00    -0.106 C 
BRANCH  14  15
HETATM   15  C3  UNL     1       4.656  10.476   4.523  1.00  0.00     0.093 C 
BRANCH  15  16
HETATM   16  C2  UNL     1       3.865   9.173   4.536  1.00  0.00     0.007 C 
HETATM   17  C1  UNL     1       3.631   8.722   3.125  1.00  0.00     0.006 C 
ENDBRANCH  15  16
ENDBRANCH  14  15
ENDBRANCH  12  13
ENDBRANCH  11  12
ENDBRANCH   1  10
BRANCH   7  18
HETATM   18  N2  UNL     1      13.754   8.416   1.391  1.00  0.00    -0.374 N 
ATOM     19  H2  UNL     1      13.238   7.545   1.264  1.00  0.00     0.161 HD
BRANCH  18  20
HETATM   20  C14 UNL     1      15.165   8.357   1.185  1.00  0.00     0.155 C 
BRANCH  20  21
HETATM   21  C15 UNL     1      15.631   7.032   0.618  1.00  0.00     0.229 A 
HETATM   22  C16 UNL     1      16.215   7.086  -0.743  1.00  0.00     0.267 A 
HETATM   23  N3  UNL     1      14.971   6.435  -0.441  1.00  0.00    -0.066 N 
ATOM     24  H32 UNL     1      14.623   5.490  -0.600  1.00  0.00     0.277 HD
ATOM     25  H31 UNL     1      14.026   6.529  -0.815  1.00  0.00     0.277 HD
ENDBRANCH  20  21
ENDBRANCH  18  20
ENDBRANCH   7  18
TORSDOF 8
ENDMDL
MODEL 3
REMARK VINA RESULT: -7.534138932      1.092      1.339
REMARK  8 active torsions:
REMARK  status: ('A' for Active; 'I' for Inactive)
REMARK    1  A    between atoms: C2_2  and  C3_3 
REMARK    2  A    between atoms: C3_3  and  C4_4 
REMARK    3  A    between atoms: C5_5  and  C6_6 
REMARK    4  A    between atoms: C6_6  and  C7_7 
REMARK    5  A    between atoms: C8_8  and  C9_9 
REMARK    6  A    between atoms: C13_15  and  N2_16 
REMARK    7  A    between atoms: N2_16  and  C14_18 
REMARK    8  A    between atoms: C14_18  and  C15_19 
ROOT
HETATM    1  C9  UNL     1      11.130   8.875   2.349  1.00  0.00     0.163 A 
HETATM    2  N1  UNL     1      11.470   9.145   3.608  1.00  0.00    -0.339 N 
ATOM      3  H1  UNL     1      10.778   9.589   4.212  1.00  0.00     0.168 HD
HETATM    4  C10 UNL     1      12.699   8.858   4.129  1.00  0.00     0.011 A 
HETATM    5  C11 UNL     1      13.050   9.168   5.529  1.00  0.00     0.068 C 
HETATM    6  C12 UNL     1      13.603   8.264   3.293  1.00  0.00     0.072 A 
HETATM    7  C13 UNL     1      13.279   7.972   1.987  1.00  0.00     0.104 A 
HETATM    8  N4  UNL     1      12.047   8.284   1.539  1.00  0.00    -0.322 N 
ATOM      9  H4  UNL     1      11.797   8.072   0.573  1.00  0.00     0.169 HD
ENDROOT
BRANCH   1  10
HETATM   10  C8  UNL     1       9.836   9.183   1.813  1.00  0.00    -0.029 C 
HETATM   11  C7  UNL     1       8.733   9.464   1.365  1.00  0.00    -0.086 C 
BRANCH  11  12
HETATM   12  C6  UNL     1       7.416   9.825   0.835  1.00  0.00     0.188 C 
BRANCH  12  13
HETATM   13  C5  UNL     1       6.363   9.560   1.842  1.00  0.00    -0.095 C 
HETATM   14  C4  UNL     1       5.494   9.353   2.652  1.00  0.00    -0.106 C 
BRANCH  14  15
HETATM   15  C3  UNL     1       4.431   9.110   3.627  1.00  0.00     0.093 C 
BRANCH  15  16
HETATM   16  C2  UNL     1       4.494  10.149   4.739  1.00  0.00     0.007 C 
HETATM   17  C1  UNL     1       5.860  10.128   5.360  1.00  0.00     0.006 C 
ENDBRANCH  15  16
ENDBRANCH  14  15
ENDBRANCH  12  13
ENDBRANCH  11  12
ENDBRANCH   1  10
BRANCH   7  18
HETATM   18  N2  UNL     1      14.107   7.416   1.184  1.00  0.00    -0.374 N 
ATOM     19  H2  UNL     1      13.801   6.550   0.740  1.00  0.00     0.161 HD
BRANCH  18  20
HETATM   20  C14 UNL     1      15.412   7.881   0.844  1.00  0.00     0.155 C 
BRANCH  20  21
HETATM   21  C15 UNL     1      16.070   7.066  -0.251  1.00  0.00     0.229 A 
HETATM   22  C16 UNL     1      16.362   7.796  -1.508  1.00  0.00     0.267 A 
HETATM   23  N3  UNL     1      15.389   6.744  -1.410  1.00  0.00    -0.066 N 
ATOM     24  H32 UNL     1      15.255   5.871  -1.920  1.00  0.00     0.277 HD
ATOM     25  H31 UNL     1      14.397   6.689  -1.644  1.00  0.00     0.277 HD
ENDBRANCH  20  21
ENDBRANCH  18  20
ENDBRANCH   7  18
TORSDOF 8
ENDMDL
MODEL 4
REMARK VINA RESULT: -7.519311770      2.758      3.600
REMARK  8 active torsions:
REMARK  status: ('A' for Active; 'I' for Inactive)
REMARK    1  A    between atoms: C2_2  and  C3_3 
REMARK    2  A    between atoms: C3_3  and  C4_4 
REMARK    3  A    between atoms: C5_5  and  C6_6 
REMARK    4  A    between atoms: C6_6  and  C7_7 
REMARK    5  A    between atoms: C8_8  and  C9_9 
REMARK    6  A    between atoms: C13_15  and  N2_16 
REMARK    7  A    between atoms: N2_16  and  C14_18 
REMARK    8  A    between atoms: C14_18  and  C15_19 
ROOT
HETATM    1  C9  UNL     1      10.369   9.215   3.787  1.00  0.00     0.163 A 
HETATM    2  N1  UNL     1      11.286   8.405   4.311  1.00  0.00    -0.339 N 
ATOM      3  H1  UNL     1      11.159   8.084   5.270  1.00  0.00     0.168 HD
HETATM    4  C10 UNL     1      12.389   7.982   3.626  1.00  0.00     0.011 A 
HETATM    5  C11 UNL     1      13.392   7.082   4.231  1.00  0.00     0.068 C 
HETATM    6  C12 UNL     1      12.531   8.429   2.342  1.00  0.00     0.072 A 
HETATM    7  C13 UNL     1      11.597   9.268   1.774  1.00  0.00     0.104 A 
HETATM    8  N4  UNL     1      10.533   9.645   2.508  1.00  0.00    -0.322 N 
ATOM      9  H4  UNL     1       9.836  10.267   2.097  1.00  0.00     0.169 HD
ENDROOT
BRANCH   1  10
HETATM   10  C8  UNL     1       9.215   9.653   4.516  1.00  0.00    -0.029 C 
HETATM   11  C7  UNL     1       8.243  10.033   5.155  1.00  0.00    -0.086 C 
BRANCH  11  12
HETATM   12  C6  UNL     1       7.094  10.501   5.934  1.00  0.00     0.188 C 
BRANCH  12  13
HETATM   13  C5  UNL     1       5.828  10.076   5.295  1.00  0.00    -0.095 C 
HETATM   14  C4  UNL     1       4.789   9.743   4.780  1.00  0.00    -0.106 C 
BRANCH  14  15
HETATM   15  C3  UNL     1       3.522   9.351   4.164  1.00  0.00     0.093 C 
BRANCH  15  16
HETATM   16  C2  UNL     1       3.782   8.644   2.838  1.00  0.00     0.007 C 
HETATM   17  C1  UNL     1       4.652   9.511   1.978  1.00  0.00     0.006 C 
ENDBRANCH  15  16
ENDBRANCH  14  15
ENDBRANCH  12  13
ENDBRANCH  11  12
ENDBRANCH   1  10
BRANCH   7  18
HETATM   18  N2  UNL     1      11.706   9.701   0.574  1.00  0.00    -0.374 N 
ATOM     19  H2  UNL     1      11.794   8.998  -0.159  1.00  0.00     0.161 HD
BRANCH  18  20
HETATM   20  C14 UNL     1      11.717  11.065   0.155  1.00  0.00     0.155 C 
BRANCH  20  21
HETATM   21  C15 UNL     1      12.951  11.819   0.607  1.00  0.00     0.229 A 
HETATM   22  C16 UNL     1      12.740  13.242   0.964  1.00  0.00     0.267 A 
HETATM   23  N3  UNL     1      13.505  12.816  -0.175  1.00  0.00    -0.066 N 
ATOM     24  H32 UNL     1      14.457  13.010  -0.485  1.00  0.00     0.277 HD
ATOM     25  H31 UNL     1      13.452  13.033  -1.170  1.00  0.00     0.277 HD
ENDBRANCH  20  21
ENDBRANCH  18  20
ENDBRANCH   7  18
TORSDOF 8
ENDMDL
MODEL 5
REMARK VINA RESULT: -7.466378202      1.905      3.344
REMARK  8 active torsions:
REMARK  status: ('A' for Active; 'I' for Inactive)
REMARK    1  A    between atoms: C2_2  and  C3_3 
REMARK    2  A    between atoms: C3_3  and  C4_4 
REMARK    3  A    between atoms: C5_5  and  C6_6 
REMARK    4  A    between atoms: C6_6  and  C7_7 
REMARK    5  A    between atoms: C8_8  and  C9_9 
REMARK    6  A    between atoms: C13_15  and  N2_16 
REMARK    7  A    between atoms: N2_16  and  C14_18 
REMARK    8  A    between atoms: C14_18  and  C15_19 
ROOT
HETATM    1  C9  UNL     1      10.134   9.327   3.350  1.00  0.00     0.163 A 
HETATM    2  N1  UNL     1      10.350  10.047   2.251  1.00  0.00    -0.339 N 
ATOM      3  H1  UNL     1       9.745  10.847   2.069  1.00  0.00     0.168 HD
HETATM    4  C10 UNL     1      11.343   9.768   1.357  1.00  0.00     0.011 A 
HETATM    5  C11 UNL     1      11.562  10.584   0.146  1.00  0.00     0.068 C 
HETATM    6  C12 UNL     1      12.138   8.689   1.630  1.00  0.00     0.072 A 
HETATM    7  C13 UNL     1      11.937   7.926   2.759  1.00  0.00     0.104 A 
HETATM    8  N4  UNL     1      10.937   8.260   3.598  1.00  0.00    -0.322 N 
ATOM      9  H4  UNL     1      10.780   7.701   4.437  1.00  0.00     0.169 HD
ENDROOT
BRANCH   1  10
HETATM   10  C8  UNL     1       9.087   9.630   4.281  1.00  0.00    -0.029 C 
HETATM   11  C7  UNL     1       8.188   9.906   5.065  1.00  0.00    -0.086 C 
BRANCH  11  12
HETATM   12  C6  UNL     1       7.102  10.252   5.985  1.00  0.00     0.188 C 
BRANCH  12  13
HETATM   13  C5  UNL     1       5.787  10.014   5.347  1.00  0.00    -0.095 C 
HETATM   14  C4  UNL     1       4.719   9.804   4.827  1.00  0.00    -0.106 C 
BRANCH  14  15
HETATM   15  C3  UNL     1       3.428   9.535   4.196  1.00  0.00     0.093 C 
BRANCH  15  16
HETATM   16  C2  UNL     1       3.626   8.707   2.932  1.00  0.00     0.007 C 
HETATM   17  C1  UNL     1       4.487   9.470   1.970  1.00  0.00     0.006 C 
ENDBRANCH  15  16
ENDBRANCH  14  15
ENDBRANCH  12  13
ENDBRANCH  11  12
ENDBRANCH   1  10
BRANCH   7  18
HETATM   18  N2  UNL     1      12.666   6.911   3.038  1.00  0.00    -0.374 N 
ATOM     19  H2  UNL     1      12.256   5.993   2.868  1.00  0.00     0.161 HD
BRANCH  18  20
HETATM   20  C14 UNL     1      13.993   6.930   3.563  1.00  0.00     0.155 C 
BRANCH  20  21
HETATM   21  C15 UNL     1      15.019   6.345   2.614  1.00  0.00     0.229 A 
HETATM   22  C16 UNL     1      16.010   7.303   2.069  1.00  0.00     0.267 A 
HETATM   23  N3  UNL     1      15.008   6.659   1.267  1.00  0.00    -0.066 N 
ATOM     24  H32 UNL     1      15.053   6.093   0.420  1.00  0.00     0.277 HD
ATOM     25  H31 UNL     1      14.285   7.011   0.640  1.00  0.00     0.277 HD
ENDBRANCH  20  21
ENDBRANCH  18  20
ENDBRANCH   7  18
TORSDOF 8
ENDMDL
