MODEL 1
REMARK VINA RESULT: -8.993078550      0.000      0.000
REMARK  9 active torsions:
REMARK  status: ('A' for Active; 'I' for Inactive)
REMARK    1  A    between atoms: O1_2  and  N1_3 
REMARK    2  A    between atoms: N1_3  and  C2_4 
REMARK    3  A    between atoms: C2_4  and  C3_5 
REMARK    4  A    between atoms: C2_4  and  C10_14 
REMARK    5  A    between atoms: C3_5  and  C4_6 
REMARK    6  A    between atoms: C7_9  and  O2_10 
REMARK       I    between atoms: C10_14  and  N2_16 
REMARK    7  A    between atoms: N2_16  and  N3_18 
REMARK    8  A    between atoms: N3_18  and  C11_20 
REMARK    9  A    between atoms: N4_22  and  N5_23 
ROOT
HETATM    1  N5  UNL     1      18.846  33.430  27.712  1.00  0.00    -0.222 N 
HETATM    2  C13 UNL     1      18.452  32.072  27.555  1.00  0.00     0.192 C 
HETATM    3  C14 UNL     1      18.512  34.086  28.921  1.00  0.00     0.200 C 
HETATM    4  N6  UNL     1      18.244  34.606  29.960  1.00  0.00    -0.170 NA
ENDROOT
BRANCH   1   5
HETATM    5  N4  UNL     1      19.555  34.159  26.793  1.00  0.00    -0.203 N 
HETATM    6  C12 UNL     1      19.039  34.939  25.806  1.00  0.00     0.159 A 
HETATM    7  C11 UNL     1      19.783  35.595  24.849  1.00  0.00     0.134 A 
HETATM    8  C16 UNL     1      21.180  35.437  24.914  1.00  0.00     0.279 A 
HETATM    9  N7  UNL     1      21.686  34.672  25.887  1.00  0.00    -0.272 N 
HETATM   10  O5  UNL     1      21.919  36.016  24.065  1.00  0.00    -0.265 OA
HETATM   11  C15 UNL     1      20.910  34.056  26.790  1.00  0.00     0.348 A 
ATOM     12  H7  UNL     1      22.697  34.552  25.944  1.00  0.00     0.174 HD
HETATM   13  O4  UNL     1      21.436  33.338  27.697  1.00  0.00    -0.245 OA
BRANCH   7  14
HETATM   14  N3  UNL     1      19.247  36.265  23.725  1.00  0.00    -0.292 N 
ATOM     15  H3  UNL     1      19.806  37.069  23.441  1.00  0.00     0.187 HD
BRANCH  14  16
HETATM   16  N2  UNL     1      18.181  36.085  22.953  1.00  0.00    -0.268 N 
HETATM   17  C10 UNL     1      16.854  36.568  23.119  1.00  0.00     0.258 C 
HETATM   18  O3  UNL     1      16.473  37.257  24.090  1.00  0.00    -0.270 OA
ATOM     19  H2  UNL     1      18.336  35.517  22.121  1.00  0.00     0.190 HD
BRANCH  17  20
HETATM   20  C2  UNL     1      15.849  36.199  22.027  1.00  0.00     0.204 C 
BRANCH  20  21
HETATM   21  N1  UNL     1      16.296  35.012  21.426  1.00  0.00    -0.087 NA
BRANCH  21  22
HETATM   22  O1  UNL     1      17.082  35.208  20.341  1.00  0.00    -0.291 OA
HETATM   23  C1  UNL     1      17.674  33.993  19.972  1.00  0.00     0.231 C 
ENDBRANCH  21  22
ENDBRANCH  20  21
BRANCH  20  24
HETATM   24  C3  UNL     1      15.472  37.386  21.199  1.00  0.00     0.072 C 
BRANCH  24  25
HETATM   25  C4  UNL     1      14.078  37.770  21.714  1.00  0.00    -0.056 A 
HETATM   26  C5  UNL     1      13.172  36.933  22.261  1.00  0.00     0.010 A 
HETATM   27  C6  UNL     1      11.888  37.395  22.549  1.00  0.00     0.037 A 
HETATM   28  C7  UNL     1      11.493  38.693  22.290  1.00  0.00     0.065 A 
HETATM   29  C8  UNL     1      12.439  39.551  21.726  1.00  0.00     0.037 A 
HETATM   30  C9  UNL     1      13.683  39.086  21.456  1.00  0.00     0.010 A 
BRANCH  28  31
HETATM   31  O2  UNL     1      10.228  39.163  22.571  1.00  0.00    -0.361 OA
ATOM     32  H2  UNL     1       9.928  39.345  23.453  1.00  0.00     0.217 HD
ENDBRANCH  28  31
ENDBRANCH  24  25
ENDBRANCH  20  24
ENDBRANCH  17  20
ENDBRANCH  14  16
ENDBRANCH   7  14
ENDBRANCH   1   5
TORSDOF 9
ENDMDL
MODEL 2
REMARK VINA RESULT: -8.796112606      1.122      1.157
REMARK  9 active torsions:
REMARK  status: ('A' for Active; 'I' for Inactive)
REMARK    1  A    between atoms: O1_2  and  N1_3 
REMARK    2  A    between atoms: N1_3  and  C2_4 
REMARK    3  A    between atoms: C2_4  and  C3_5 
REMARK    4  A    between atoms: C2_4  and  C10_14 
REMARK    5  A    between atoms: C3_5  and  C4_6 
REMARK    6  A    between atoms: C7_9  and  O2_10 
REMARK       I    between atoms: C10_14  and  N2_16 
REMARK    7  A    between atoms: N2_16  and  N3_18 
REMARK    8  A    between atoms: N3_18  and  C11_20 
REMARK    9  A    between atoms: N4_22  and  N5_23 
ROOT
HETATM    1  N5  UNL     1      19.073  33.054  27.882  1.00  0.00    -0.222 N 
HETATM    2  C13 UNL     1      18.818  31.708  27.498  1.00  0.00     0.192 C 
HETATM    3  C14 UNL     1      19.216  33.339  29.262  1.00  0.00     0.200 C 
HETATM    4  N6  UNL     1      19.360  33.546  30.426  1.00  0.00    -0.170 NA
ENDROOT
BRANCH   1   5
HETATM    5  N4  UNL     1      19.222  34.108  27.018  1.00  0.00    -0.203 N 
HETATM    6  C12 UNL     1      18.239  34.927  26.562  1.00  0.00     0.159 A 
HETATM    7  C11 UNL     1      18.413  35.928  25.631  1.00  0.00     0.134 A 
HETATM    8  C16 UNL     1      19.716  36.105  25.127  1.00  0.00     0.279 A 
HETATM    9  N7  UNL     1      20.684  35.300  25.579  1.00  0.00    -0.272 N 
HETATM   10  O5  UNL     1      19.942  37.009  24.272  1.00  0.00    -0.265 OA
HETATM   11  C15 UNL     1      20.451  34.340  26.486  1.00  0.00     0.348 A 
ATOM     12  H7  UNL     1      21.631  35.420  25.221  1.00  0.00     0.174 HD
HETATM   13  O4  UNL     1      21.403  33.599  26.886  1.00  0.00    -0.245 OA
BRANCH   7  14
HETATM   14  N3  UNL     1      17.368  36.666  25.029  1.00  0.00    -0.292 N 
ATOM     15  H3  UNL     1      17.176  37.545  25.511  1.00  0.00     0.187 HD
BRANCH  14  16
HETATM   16  N2  UNL     1      16.577  36.476  23.978  1.00  0.00    -0.268 N 
HETATM   17  C10 UNL     1      16.688  36.993  22.659  1.00  0.00     0.258 C 
HETATM   18  O3  UNL     1      17.592  37.769  22.282  1.00  0.00    -0.270 OA
ATOM     19  H2  UNL     1      15.773  35.870  24.143  1.00  0.00     0.190 HD
BRANCH  17  20
HETATM   20  C2  UNL     1      15.614  36.560  21.661  1.00  0.00     0.204 C 
BRANCH  20  21
HETATM   21  N1  UNL     1      16.101  35.437  20.975  1.00  0.00    -0.087 NA
BRANCH  21  22
HETATM   22  O1  UNL     1      17.135  34.821  21.595  1.00  0.00    -0.291 OA
HETATM   23  C1  UNL     1      17.830  34.034  20.666  1.00  0.00     0.231 C 
ENDBRANCH  21  22
ENDBRANCH  20  21
BRANCH  20  24
HETATM   24  C3  UNL     1      15.048  37.728  20.918  1.00  0.00     0.072 C 
BRANCH  24  25
HETATM   25  C4  UNL     1      13.720  38.016  21.634  1.00  0.00    -0.056 A 
HETATM   26  C5  UNL     1      12.948  37.113  22.275  1.00  0.00     0.010 A 
HETATM   27  C6  UNL     1      11.695  37.491  22.753  1.00  0.00     0.037 A 
HETATM   28  C7  UNL     1      11.195  38.769  22.594  1.00  0.00     0.065 A 
HETATM   29  C8  UNL     1      12.003  39.695  21.933  1.00  0.00     0.037 A 
HETATM   30  C9  UNL     1      13.221  39.312  21.477  1.00  0.00     0.010 A 
BRANCH  28  31
HETATM   31  O2  UNL     1       9.958  39.155  23.063  1.00  0.00    -0.361 OA
ATOM     32  H2  UNL     1       9.150  38.724  22.808  1.00  0.00     0.217 HD
ENDBRANCH  28  31
ENDBRANCH  24  25
ENDBRANCH  20  24
ENDBRANCH  17  20
ENDBRANCH  14  16
ENDBRANCH   7  14
ENDBRANCH   1   5
TORSDOF 9
ENDMDL
MODEL 3
REMARK VINA RESULT: -8.370869418      1.424      2.791
REMARK  9 active torsions:
REMARK  status: ('A' for Active; 'I' for Inactive)
REMARK    1  A    between atoms: O1_2  and  N1_3 
REMARK    2  A    between atoms: N1_3  and  C2_4 
REMARK    3  A    between atoms: C2_4  and  C3_5 
REMARK    4  A    between atoms: C2_4  and  C10_14 
REMARK    5  A    between atoms: C3_5  and  C4_6 
REMARK    6  A    between atoms: C7_9  and  O2_10 
REMARK       I    between atoms: C10_14  and  N2_16 
REMARK    7  A    between atoms: N2_16  and  N3_18 
REMARK    8  A    between atoms: N3_18  and  C11_20 
REMARK    9  A    between atoms: N4_22  and  N5_23 
ROOT
HETATM    1  N5  UNL     1      23.253  34.272  25.938  1.00  0.00    -0.222 N 
HETATM    2  C13 UNL     1      24.141  35.228  26.506  1.00  0.00     0.192 C 
HETATM    3  C14 UNL     1      23.795  33.049  25.476  1.00  0.00     0.200 C 
HETATM    4  N6  UNL     1      24.273  32.017  25.121  1.00  0.00    -0.170 NA
ENDROOT
BRANCH   1   5
HETATM    5  N4  UNL     1      21.895  34.425  25.824  1.00  0.00    -0.203 N 
HETATM    6  C12 UNL     1      21.234  35.086  24.837  1.00  0.00     0.159 A 
HETATM    7  C11 UNL     1      19.872  35.287  24.797  1.00  0.00     0.134 A 
HETATM    8  C16 UNL     1      19.121  34.760  25.865  1.00  0.00     0.279 A 
HETATM    9  N7  UNL     1      19.772  34.107  26.834  1.00  0.00    -0.272 N 
HETATM   10  O5  UNL     1      17.865  34.909  25.885  1.00  0.00    -0.265 OA
HETATM   11  C15 UNL     1      21.103  33.945  26.819  1.00  0.00     0.348 A 
ATOM     12  H7  UNL     1      19.238  33.720  27.612  1.00  0.00     0.174 HD
HETATM   13  O4  UNL     1      21.678  33.317  27.762  1.00  0.00    -0.245 OA
BRANCH   7  14
HETATM   14  N3  UNL     1      19.202  36.117  23.867  1.00  0.00    -0.292 N 
ATOM     15  H3  UNL     1      19.621  37.044  23.792  1.00  0.00     0.187 HD
BRANCH  14  16
HETATM   16  N2  UNL     1      18.151  35.964  23.070  1.00  0.00    -0.268 N 
HETATM   17  C10 UNL     1      16.868  36.573  23.139  1.00  0.00     0.258 C 
HETATM   18  O3  UNL     1      16.518  37.373  24.033  1.00  0.00    -0.270 OA
ATOM     19  H2  UNL     1      18.283  35.315  22.295  1.00  0.00     0.190 HD
BRANCH  17  20
HETATM   20  C2  UNL     1      15.872  36.199  22.041  1.00  0.00     0.204 C 
BRANCH  20  21
HETATM   21  N1  UNL     1      16.329  35.016  21.441  1.00  0.00    -0.087 NA
BRANCH  21  22
HETATM   22  O1  UNL     1      17.087  35.216  20.337  1.00  0.00    -0.291 OA
HETATM   23  C1  UNL     1      17.696  34.009  19.968  1.00  0.00     0.231 C 
ENDBRANCH  21  22
ENDBRANCH  20  21
BRANCH  20  24
HETATM   24  C3  UNL     1      15.494  37.385  21.211  1.00  0.00     0.072 C 
BRANCH  24  25
HETATM   25  C4  UNL     1      14.095  37.762  21.719  1.00  0.00    -0.056 A 
HETATM   26  C5  UNL     1      13.188  36.920  22.255  1.00  0.00     0.010 A 
HETATM   27  C6  UNL     1      11.901  37.377  22.536  1.00  0.00     0.037 A 
HETATM   28  C7  UNL     1      11.504  38.675  22.282  1.00  0.00     0.065 A 
HETATM   29  C8  UNL     1      12.452  39.539  21.731  1.00  0.00     0.037 A 
HETATM   30  C9  UNL     1      13.699  39.079  21.466  1.00  0.00     0.010 A 
BRANCH  28  31
HETATM   31  O2  UNL     1      10.235  39.140  22.557  1.00  0.00    -0.361 OA
ATOM     32  H2  UNL     1       9.960  39.409  23.426  1.00  0.00     0.217 HD
ENDBRANCH  28  31
ENDBRANCH  24  25
ENDBRANCH  20  24
ENDBRANCH  17  20
ENDBRANCH  14  16
ENDBRANCH   7  14
ENDBRANCH   1   5
TORSDOF 9
ENDMDL
MODEL 4
REMARK VINA RESULT: -8.316217379      3.468      7.980
REMARK  9 active torsions:
REMARK  status: ('A' for Active; 'I' for Inactive)
REMARK    1  A    between atoms: O1_2  and  N1_3 
REMARK    2  A    between atoms: N1_3  and  C2_4 
REMARK    3  A    between atoms: C2_4  and  C3_5 
REMARK    4  A    between atoms: C2_4  and  C10_14 
REMARK    5  A    between atoms: C3_5  and  C4_6 
REMARK    6  A    between atoms: C7_9  and  O2_10 
REMARK       I    between atoms: C10_14  and  N2_16 
REMARK    7  A    between atoms: N2_16  and  N3_18 
REMARK    8  A    between atoms: N3_18  and  C11_20 
REMARK    9  A    between atoms: N4_22  and  N5_23 
ROOT
HETATM    1  N5  UNL     1      16.822  31.249  16.682  1.00  0.00    -0.222 N 
HETATM    2  C13 UNL     1      16.732  31.735  15.348  1.00  0.00     0.192 C 
HETATM    3  C14 UNL     1      16.563  29.876  16.911  1.00  0.00     0.200 C 
HETATM    4  N6  UNL     1      16.368  28.711  17.072  1.00  0.00    -0.170 NA
ENDROOT
BRANCH   1   5
HETATM    5  N4  UNL     1      17.170  31.999  17.775  1.00  0.00    -0.203 N 
HETATM    6  C12 UNL     1      16.387  32.903  18.420  1.00  0.00     0.159 A 
HETATM    7  C11 UNL     1      16.797  33.698  19.468  1.00  0.00     0.134 A 
HETATM    8  C16 UNL     1      18.131  33.548  19.892  1.00  0.00     0.279 A 
HETATM    9  N7  UNL     1      18.901  32.657  19.258  1.00  0.00    -0.272 N 
HETATM   10  O5  UNL     1      18.569  34.248  20.852  1.00  0.00    -0.265 OA
HETATM   11  C15 UNL     1      18.444  31.912  18.242  1.00  0.00     0.348 A 
ATOM     12  H7  UNL     1      19.868  32.539  19.559  1.00  0.00     0.174 HD
HETATM   13  O4  UNL     1      19.212  31.077  17.670  1.00  0.00    -0.245 OA
BRANCH   7  14
HETATM   14  N3  UNL     1      16.043  34.755  20.028  1.00  0.00    -0.292 N 
ATOM     15  H3  UNL     1      15.346  35.127  19.381  1.00  0.00     0.187 HD
BRANCH  14  16
HETATM   16  N2  UNL     1      16.034  35.375  21.202  1.00  0.00    -0.268 N 
HETATM   17  C10 UNL     1      16.399  36.711  21.522  1.00  0.00     0.258 C 
HETATM   18  O3  UNL     1      16.830  37.539  20.691  1.00  0.00    -0.270 OA
ATOM     19  H2  UNL     1      15.720  34.809  21.991  1.00  0.00     0.190 HD
BRANCH  17  20
HETATM   20  C2  UNL     1      16.252  37.130  22.985  1.00  0.00     0.204 C 
BRANCH  20  21
HETATM   21  N1  UNL     1      14.995  37.739  23.126  1.00  0.00    -0.087 NA
BRANCH  21  22
HETATM   22  O1  UNL     1      14.029  37.189  22.353  1.00  0.00    -0.291 OA
HETATM   23  C1  UNL     1      12.974  38.101  22.212  1.00  0.00     0.231 C 
ENDBRANCH  21  22
ENDBRANCH  20  21
BRANCH  20  24
HETATM   24  C3  UNL     1      17.490  37.797  23.495  1.00  0.00     0.072 C 
BRANCH  24  25
HETATM   25  C4  UNL     1      18.186  36.706  24.320  1.00  0.00    -0.056 A 
HETATM   26  C5  UNL     1      17.616  35.577  24.791  1.00  0.00     0.010 A 
HETATM   27  C6  UNL     1      18.332  34.747  25.652  1.00  0.00     0.037 A 
HETATM   28  C7  UNL     1      19.621  35.035  26.057  1.00  0.00     0.065 A 
HETATM   29  C8  UNL     1      20.202  36.204  25.562  1.00  0.00     0.037 A 
HETATM   30  C9  UNL     1      19.492  36.997  24.723  1.00  0.00     0.010 A 
BRANCH  28  31
HETATM   31  O2  UNL     1      20.340  34.222  26.907  1.00  0.00    -0.361 OA
ATOM     32  H2  UNL     1      20.992  34.555  27.512  1.00  0.00     0.217 HD
ENDBRANCH  28  31
ENDBRANCH  24  25
ENDBRANCH  20  24
ENDBRANCH  17  20
ENDBRANCH  14  16
ENDBRANCH   7  14
ENDBRANCH   1   5
TORSDOF 9
ENDMDL
MODEL 5
REMARK VINA RESULT: -8.290236526      2.611      8.345
REMARK  9 active torsions:
REMARK  status: ('A' for Active; 'I' for Inactive)
REMARK    1  A    between atoms: O1_2  and  N1_3 
REMARK    2  A    between atoms: N1_3  and  C2_4 
REMARK    3  A    between atoms: C2_4  and  C3_5 
REMARK    4  A    between atoms: C2_4  and  C10_14 
REMARK    5  A    between atoms: C3_5  and  C4_6 
REMARK    6  A    between atoms: C7_9  and  O2_10 
REMARK       I    between atoms: C10_14  and  N2_16 
REMARK    7  A    between atoms: N2_16  and  N3_18 
REMARK    8  A    between atoms: N3_18  and  C11_20 
REMARK    9  A    between atoms: N4_22  and  N5_23 
ROOT
HETATM    1  N5  UNL     1      12.370  38.263  22.260  1.00  0.00    -0.222 N 
HETATM    2  C13 UNL     1      11.276  37.452  22.674  1.00  0.00     0.192 C 
HETATM    3  C14 UNL     1      12.119  39.625  21.969  1.00  0.00     0.200 C 
HETATM    4  N6  UNL     1      11.885  40.774  21.758  1.00  0.00    -0.170 NA
ENDROOT
BRANCH   1   5
HETATM    5  N4  UNL     1      13.669  37.838  22.144  1.00  0.00    -0.203 N 
HETATM    6  C12 UNL     1      14.582  37.743  23.145  1.00  0.00     0.159 A 
HETATM    7  C11 UNL     1      15.903  37.387  22.978  1.00  0.00     0.134 A 
HETATM    8  C16 UNL     1      16.321  37.102  21.664  1.00  0.00     0.279 A 
HETATM    9  N7  UNL     1      15.420  37.193  20.680  1.00  0.00    -0.272 N 
HETATM   10  O5  UNL     1      17.521  36.766  21.444  1.00  0.00    -0.265 OA
HETATM   11  C15 UNL     1      14.146  37.547  20.905  1.00  0.00     0.348 A 
ATOM     12  H7  UNL     1      15.712  36.987  19.724  1.00  0.00     0.174 HD
HETATM   13  O4  UNL     1      13.325  37.620  19.938  1.00  0.00    -0.245 OA
BRANCH   7  14
HETATM   14  N3  UNL     1      16.894  37.453  23.985  1.00  0.00    -0.292 N 
ATOM     15  H3  UNL     1      16.875  38.333  24.500  1.00  0.00     0.187 HD
BRANCH  14  16
HETATM   16  N2  UNL     1      17.845  36.630  24.412  1.00  0.00    -0.268 N 
HETATM   17  C10 UNL     1      19.173  36.920  24.826  1.00  0.00     0.258 C 
HETATM   18  O3  UNL     1      19.675  38.065  24.824  1.00  0.00    -0.270 OA
ATOM     19  H2  UNL     1      17.583  35.644  24.449  1.00  0.00     0.190 HD
BRANCH  17  20
HETATM   20  C2  UNL     1      20.021  35.736  25.290  1.00  0.00     0.204 C 
BRANCH  20  21
HETATM   21  N1  UNL     1      21.172  35.700  24.487  1.00  0.00    -0.087 NA
BRANCH  21  22
HETATM   22  O1  UNL     1      21.979  34.640  24.732  1.00  0.00    -0.291 OA
HETATM   23  C1  UNL     1      22.871  34.966  25.762  1.00  0.00     0.231 C 
ENDBRANCH  21  22
ENDBRANCH  20  21
BRANCH  20  24
HETATM   24  C3  UNL     1      19.190  34.510  25.497  1.00  0.00     0.072 C 
BRANCH  24  25
HETATM   25  C4  UNL     1      19.158  34.336  27.022  1.00  0.00    -0.056 A 
HETATM   26  C5  UNL     1      19.830  33.407  27.733  1.00  0.00     0.010 A 
HETATM   27  C6  UNL     1      19.590  33.274  29.100  1.00  0.00     0.037 A 
HETATM   28  C7  UNL     1      18.675  34.061  29.771  1.00  0.00     0.065 A 
HETATM   29  C8  UNL     1      17.987  35.021  29.026  1.00  0.00     0.037 A 
HETATM   30  C9  UNL     1      18.235  35.139  27.699  1.00  0.00     0.010 A 
BRANCH  28  31
HETATM   31  O2  UNL     1      18.429  33.941  31.122  1.00  0.00    -0.361 OA
ATOM     32  H2  UNL     1      17.622  34.234  31.529  1.00  0.00     0.217 HD
ENDBRANCH  28  31
ENDBRANCH  24  25
ENDBRANCH  20  24
ENDBRANCH  17  20
ENDBRANCH  14  16
ENDBRANCH   7  14
ENDBRANCH   1   5
TORSDOF 9
ENDMDL
