MODEL 1
REMARK VINA RESULT: -7.335389178      0.000      0.000
REMARK  13 active torsions:
REMARK  status: ('A' for Active; 'I' for Inactive)
REMARK    1  A    between atoms: C3_3  and  C4_4 
REMARK    2  A    between atoms: C4_4  and  C5_5 
REMARK    3  A    between atoms: C5_5  and  C6_6 
REMARK    4  A    between atoms: C10_14  and  C11_15 
REMARK    5  A    between atoms: C11_15  and  C13_17 
REMARK    6  A    between atoms: C11_15  and  S1_20 
REMARK    7  A    between atoms: C13_17  and  O1_18 
REMARK    8  A    between atoms: S1_20  and  C14_21 
REMARK    9  A    between atoms: C15_22  and  O2_23 
REMARK   10  A    between atoms: C16_25  and  O3_26 
REMARK   11  A    between atoms: C18_29  and  O4_30 
REMARK   12  A    between atoms: C23_36  and  N2_37 
REMARK       I    between atoms: N2_37  and  C24_39 
REMARK   13  A    between atoms: C24_39  and  C25_41 
ROOT
HETATM    1  C1  UNL     1      14.780  44.723  10.672  1.00  0.00     0.012 C 
HETATM    2  C2  UNL     1      13.919  43.983  11.066  1.00  0.00    -0.117 C 
HETATM    3  C3  UNL     1      12.882  43.096  11.574  1.00  0.00     0.093 C 
ENDROOT
BRANCH   3   4
HETATM    4  C4  UNL     1      13.283  42.093  12.515  1.00  0.00     0.018 C 
BRANCH   4   5
HETATM    5  C5  UNL     1      14.391  41.137  12.452  1.00  0.00     0.060 C 
BRANCH   5   6
HETATM    6  C6  UNL     1      15.203  40.884  13.626  1.00  0.00     0.043 A 
HETATM    7  C7  UNL     1      15.586  41.862  14.589  1.00  0.00     0.082 A 
HETATM    8 CL1  UNL     1      15.839  43.616  14.605  1.00  0.00    -0.080 Cl
HETATM    9  C8  UNL     1      15.755  41.159  15.745  1.00  0.00     0.102 A 
HETATM   10 CL2  UNL     1      16.210  41.823  17.277  1.00  0.00    -0.078 Cl
HETATM   11  C9  UNL     1      15.509  39.715  15.524  1.00  0.00     0.138 A 
HETATM   12  N1  UNL     1      15.596  38.643  16.332  1.00  0.00    -0.342 N 
HETATM   13  N3  UNL     1      15.205  39.609  14.240  1.00  0.00    -0.284 N 
HETATM   14  C10 UNL     1      15.378  37.362  15.896  1.00  0.00     0.035 A 
ATOM     15  H1  UNL     1      15.834  38.789  17.313  1.00  0.00     0.167 HD
HETATM   16  C22 UNL     1      15.064  37.237  14.579  1.00  0.00     0.076 A 
HETATM   17  C23 UNL     1      14.972  38.344  13.738  1.00  0.00     0.118 A 
BRANCH  14  18
HETATM   18  C11 UNL     1      15.409  36.211  16.805  1.00  0.00     0.068 C 
HETATM   19  C12 UNL     1      14.689  34.982  16.307  1.00  0.00     0.036 C 
BRANCH  18  20
HETATM   20  C13 UNL     1      14.587  36.659  18.099  1.00  0.00     0.190 C 
BRANCH  20  21
HETATM   21  O1  UNL     1      13.325  37.069  17.631  1.00  0.00    -0.399 OA
ATOM     22  H1  UNL     1      13.177  37.930  18.004  1.00  0.00     0.209 HD
ENDBRANCH  20  21
ENDBRANCH  18  20
BRANCH  18  23
HETATM   23  S1  UNL     1      16.973  35.724  17.537  1.00  0.00    -0.143 SA
BRANCH  23  24
HETATM   24  C14 UNL     1      16.651  35.004  19.136  1.00  0.00     0.084 C 
HETATM   25  C15 UNL     1      16.156  33.602  19.211  1.00  0.00     0.161 C 
HETATM   26  C16 UNL     1      16.609  33.097  20.606  1.00  0.00     0.154 C 
HETATM   27  C17 UNL     1      17.268  34.241  21.297  1.00  0.00     0.051 C 
HETATM   28  C18 UNL     1      18.529  33.917  22.020  1.00  0.00     0.125 C 
HETATM   29  C21 UNL     1      17.639  35.239  20.209  1.00  0.00     0.011 C 
HETATM   30  C19 UNL     1      19.634  34.711  21.303  1.00  0.00     0.032 C 
HETATM   31  C20 UNL     1      19.063  34.956  19.918  1.00  0.00     0.009 C 
BRANCH  25  32
HETATM   32  O2  UNL     1      16.706  32.745  18.252  1.00  0.00    -0.392 OA
ATOM     33  H2  UNL     1      17.231  32.040  18.613  1.00  0.00     0.210 HD
ENDBRANCH  25  32
BRANCH  26  34
HETATM   34  O3  UNL     1      15.531  32.622  21.341  1.00  0.00    -0.392 OA
ATOM     35  H3  UNL     1      14.876  33.298  21.466  1.00  0.00     0.210 HD
ENDBRANCH  26  34
BRANCH  28  36
HETATM   36  O4  UNL     1      18.467  34.378  23.361  1.00  0.00    -0.395 OA
ATOM     37  H4  UNL     1      18.576  35.321  23.395  1.00  0.00     0.210 HD
ENDBRANCH  28  36
ENDBRANCH  23  24
ENDBRANCH  18  23
ENDBRANCH  14  18
BRANCH  17  38
HETATM   38  N2  UNL     1      14.653  38.242  12.518  1.00  0.00    -0.313 N 
HETATM   39  C24 UNL     1      14.146  37.135  11.847  1.00  0.00     0.222 C 
HETATM   40  O5  UNL     1      14.798  36.109  11.517  1.00  0.00    -0.273 OA
ATOM     41  H2  UNL     1      14.784  39.082  11.954  1.00  0.00     0.170 HD
BRANCH  39  42
HETATM   42  C25 UNL     1      12.673  37.153  11.465  1.00  0.00     0.099 C 
HETATM   43  C26 UNL     1      12.395  36.177  10.350  1.00  0.00     0.014 C 
ENDBRANCH  39  42
ENDBRANCH  17  38
ENDBRANCH   5   6
ENDBRANCH   4   5
ENDBRANCH   3   4
TORSDOF 13
ENDMDL
MODEL 2
REMARK VINA RESULT: -7.327409811      2.316      3.643
REMARK  13 active torsions:
REMARK  status: ('A' for Active; 'I' for Inactive)
REMARK    1  A    between atoms: C3_3  and  C4_4 
REMARK    2  A    between atoms: C4_4  and  C5_5 
REMARK    3  A    between atoms: C5_5  and  C6_6 
REMARK    4  A    between atoms: C10_14  and  C11_15 
REMARK    5  A    between atoms: C11_15  and  C13_17 
REMARK    6  A    between atoms: C11_15  and  S1_20 
REMARK    7  A    between atoms: C13_17  and  O1_18 
REMARK    8  A    between atoms: S1_20  and  C14_21 
REMARK    9  A    between atoms: C15_22  and  O2_23 
REMARK   10  A    between atoms: C16_25  and  O3_26 
REMARK   11  A    between atoms: C18_29  and  O4_30 
REMARK   12  A    between atoms: C23_36  and  N2_37 
REMARK       I    between atoms: N2_37  and  C24_39 
REMARK   13  A    between atoms: C24_39  and  C25_41 
ROOT
HETATM    1  C1  UNL     1      14.977  45.071  10.233  1.00  0.00     0.012 C 
HETATM    2  C2  UNL     1      14.084  44.436  10.726  1.00  0.00    -0.117 C 
HETATM    3  C3  UNL     1      13.005  43.684  11.352  1.00  0.00     0.093 C 
ENDROOT
BRANCH   3   4
HETATM    4  C4  UNL     1      13.317  42.972  12.555  1.00  0.00     0.018 C 
BRANCH   4   5
HETATM    5  C5  UNL     1      14.513  42.205  12.908  1.00  0.00     0.060 C 
BRANCH   5   6
HETATM    6  C6  UNL     1      15.335  42.610  14.032  1.00  0.00     0.043 A 
HETATM    7  C7  UNL     1      15.464  43.943  14.520  1.00  0.00     0.082 A 
HETATM    8 CL1  UNL     1      15.313  45.576  13.845  1.00  0.00    -0.080 Cl
HETATM    9  C8  UNL     1      15.761  43.800  15.842  1.00  0.00     0.102 A 
HETATM   10 CL2  UNL     1      16.018  45.088  16.968  1.00  0.00    -0.078 Cl
HETATM   11  C9  UNL     1      15.853  42.367  16.209  1.00  0.00     0.138 A 
HETATM   12  N1  UNL     1      16.162  41.739  17.358  1.00  0.00    -0.342 N 
HETATM   13  N3  UNL     1      15.610  41.708  15.087  1.00  0.00    -0.284 N 
HETATM   14  C10 UNL     1      16.250  40.376  17.461  1.00  0.00     0.035 A 
ATOM     15  H1  UNL     1      16.338  42.303  18.189  1.00  0.00     0.167 HD
HETATM   16  C22 UNL     1      16.003  39.684  16.317  1.00  0.00     0.076 A 
HETATM   17  C23 UNL     1      15.681  40.329  15.124  1.00  0.00     0.118 A 
BRANCH  14  18
HETATM   18  C11 UNL     1      16.519  39.704  18.738  1.00  0.00     0.068 C 
HETATM   19  C12 UNL     1      16.548  40.609  19.944  1.00  0.00     0.036 C 
BRANCH  18  20
HETATM   20  C13 UNL     1      18.008  39.140  18.625  1.00  0.00     0.190 C 
BRANCH  20  21
HETATM   21  O1  UNL     1      18.810  40.239  18.269  1.00  0.00    -0.399 OA
ATOM     22  H1  UNL     1      19.648  40.097  18.693  1.00  0.00     0.209 HD
ENDBRANCH  20  21
ENDBRANCH  18  20
BRANCH  18  23
HETATM   23  S1  UNL     1      15.609  38.211  19.141  1.00  0.00    -0.143 SA
BRANCH  23  24
HETATM   24  C14 UNL     1      16.624  36.803  18.734  1.00  0.00     0.084 C 
HETATM   25  C15 UNL     1      16.934  35.804  19.794  1.00  0.00     0.161 C 
HETATM   26  C16 UNL     1      17.207  34.484  19.027  1.00  0.00     0.154 C 
HETATM   27  C17 UNL     1      17.121  34.794  17.572  1.00  0.00     0.051 C 
HETATM   28  C18 UNL     1      16.381  33.801  16.744  1.00  0.00     0.125 C 
HETATM   29  C21 UNL     1      16.356  36.106  17.460  1.00  0.00     0.011 C 
HETATM   30  C19 UNL     1      15.158  34.552  16.191  1.00  0.00     0.032 C 
HETATM   31  C20 UNL     1      14.962  35.696  17.169  1.00  0.00     0.009 C 
BRANCH  25  32
HETATM   32  O2  UNL     1      15.882  35.565  20.685  1.00  0.00    -0.392 OA
ATOM     33  H2  UNL     1      15.848  36.167  21.420  1.00  0.00     0.210 HD
ENDBRANCH  25  32
BRANCH  26  34
HETATM   34  O3  UNL     1      18.451  33.962  19.355  1.00  0.00    -0.392 OA
ATOM     35  H3  UNL     1      18.493  33.031  19.166  1.00  0.00     0.210 HD
ENDBRANCH  26  34
BRANCH  28  36
HETATM   36  O4  UNL     1      17.170  33.388  15.638  1.00  0.00    -0.395 OA
ATOM     37  H4  UNL     1      17.243  32.441  15.617  1.00  0.00     0.210 HD
ENDBRANCH  28  36
ENDBRANCH  23  24
ENDBRANCH  18  23
ENDBRANCH  14  18
BRANCH  17  38
HETATM   38  N2  UNL     1      15.421  39.695  14.061  1.00  0.00    -0.313 N 
HETATM   39  C24 UNL     1      15.020  38.372  13.920  1.00  0.00     0.222 C 
HETATM   40  O5  UNL     1      15.753  37.357  14.064  1.00  0.00    -0.273 OA
ATOM     41  H2  UNL     1      15.519  40.225  13.194  1.00  0.00     0.170 HD
BRANCH  39  42
HETATM   42  C25 UNL     1      13.566  38.108  13.554  1.00  0.00     0.099 C 
HETATM   43  C26 UNL     1      13.209  38.782  12.254  1.00  0.00     0.014 C 
ENDBRANCH  39  42
ENDBRANCH  17  38
ENDBRANCH   5   6
ENDBRANCH   4   5
ENDBRANCH   3   4
TORSDOF 13
ENDMDL
MODEL 3
REMARK VINA RESULT: -7.282415523      1.668      2.145
REMARK  13 active torsions:
REMARK  status: ('A' for Active; 'I' for Inactive)
REMARK    1  A    between atoms: C3_3  and  C4_4 
REMARK    2  A    between atoms: C4_4  and  C5_5 
REMARK    3  A    between atoms: C5_5  and  C6_6 
REMARK    4  A    between atoms: C10_14  and  C11_15 
REMARK    5  A    between atoms: C11_15  and  C13_17 
REMARK    6  A    between atoms: C11_15  and  S1_20 
REMARK    7  A    between atoms: C13_17  and  O1_18 
REMARK    8  A    between atoms: S1_20  and  C14_21 
REMARK    9  A    between atoms: C15_22  and  O2_23 
REMARK   10  A    between atoms: C16_25  and  O3_26 
REMARK   11  A    between atoms: C18_29  and  O4_30 
REMARK   12  A    between atoms: C23_36  and  N2_37 
REMARK       I    between atoms: N2_37  and  C24_39 
REMARK   13  A    between atoms: C24_39  and  C25_41 
ROOT
HETATM    1  C1  UNL     1      14.899  45.082  10.379  1.00  0.00     0.012 C 
HETATM    2  C2  UNL     1      14.046  44.354  10.808  1.00  0.00    -0.117 C 
HETATM    3  C3  UNL     1      13.013  43.486  11.358  1.00  0.00     0.093 C 
ENDROOT
BRANCH   3   4
HETATM    4  C4  UNL     1      13.329  42.775  12.561  1.00  0.00     0.018 C 
BRANCH   4   5
HETATM    5  C5  UNL     1      14.233  41.642  12.771  1.00  0.00     0.060 C 
BRANCH   5   6
HETATM    6  C6  UNL     1      15.164  41.648  13.883  1.00  0.00     0.043 A 
HETATM    7  C7  UNL     1      15.561  42.802  14.618  1.00  0.00     0.082 A 
HETATM    8 CL1  UNL     1      15.688  44.542  14.304  1.00  0.00    -0.080 Cl
HETATM    9  C8  UNL     1      15.884  42.329  15.855  1.00  0.00     0.102 A 
HETATM   10 CL2  UNL     1      16.426  43.281  17.194  1.00  0.00    -0.078 Cl
HETATM   11  C9  UNL     1      15.723  40.857  15.914  1.00  0.00     0.138 A 
HETATM   12  N1  UNL     1      15.959  39.954  16.883  1.00  0.00    -0.342 N 
HETATM   13  N3  UNL     1      15.312  40.507  14.706  1.00  0.00    -0.284 N 
HETATM   14  C10 UNL     1      15.795  38.606  16.700  1.00  0.00     0.035 A 
ATOM     15  H1  UNL     1      16.274  40.287  17.794  1.00  0.00     0.167 HD
HETATM   16  C22 UNL     1      15.373  38.229  15.463  1.00  0.00     0.076 A 
HETATM   17  C23 UNL     1      15.126  39.161  14.457  1.00  0.00     0.118 A 
BRANCH  14  18
HETATM   18  C11 UNL     1      15.990  37.640  17.787  1.00  0.00     0.068 C 
HETATM   19  C12 UNL     1      14.750  37.309  18.580  1.00  0.00     0.036 C 
BRANCH  18  20
HETATM   20  C13 UNL     1      16.956  38.357  18.836  1.00  0.00     0.190 C 
BRANCH  20  21
HETATM   21  O1  UNL     1      18.250  38.266  18.293  1.00  0.00    -0.399 OA
ATOM     22  H1  UNL     1      18.843  38.532  18.986  1.00  0.00     0.209 HD
ENDBRANCH  20  21
ENDBRANCH  18  20
BRANCH  18  23
HETATM   23  S1  UNL     1      16.899  36.129  17.452  1.00  0.00    -0.143 SA
BRANCH  23  24
HETATM   24  C14 UNL     1      15.905  34.743  17.972  1.00  0.00     0.084 C 
HETATM   25  C15 UNL     1      15.699  33.608  17.031  1.00  0.00     0.161 C 
HETATM   26  C16 UNL     1      15.418  32.385  17.942  1.00  0.00     0.154 C 
HETATM   27  C17 UNL     1      15.397  32.878  19.348  1.00  0.00     0.051 C 
HETATM   28  C18 UNL     1      16.112  32.028  20.340  1.00  0.00     0.125 C 
HETATM   29  C21 UNL     1      16.110  34.223  19.339  1.00  0.00     0.011 C 
HETATM   30  C19 UNL     1      17.271  32.890  20.867  1.00  0.00     0.032 C 
HETATM   31  C20 UNL     1      17.494  33.910  19.765  1.00  0.00     0.009 C 
BRANCH  25  32
HETATM   32  O2  UNL     1      16.815  33.302  16.244  1.00  0.00    -0.392 OA
ATOM     33  H2  UNL     1      16.916  32.377  16.052  1.00  0.00     0.210 HD
ENDBRANCH  25  32
BRANCH  26  34
HETATM   34  O3  UNL     1      14.217  31.775  17.606  1.00  0.00    -0.392 OA
ATOM     35  H3  UNL     1      13.780  31.430  18.376  1.00  0.00     0.210 HD
ENDBRANCH  26  34
BRANCH  28  36
HETATM   36  O4  UNL     1      15.265  31.724  21.438  1.00  0.00    -0.395 OA
ATOM     37  H4  UNL     1      15.744  31.250  22.108  1.00  0.00     0.210 HD
ENDBRANCH  28  36
ENDBRANCH  23  24
ENDBRANCH  18  23
ENDBRANCH  14  18
BRANCH  17  38
HETATM   38  N2  UNL     1      14.706  38.825  13.312  1.00  0.00    -0.313 N 
HETATM   39  C24 UNL     1      14.305  37.568  12.874  1.00  0.00     0.222 C 
HETATM   40  O5  UNL     1      15.065  36.596  12.619  1.00  0.00    -0.273 OA
ATOM     41  H2  UNL     1      14.655  39.574  12.621  1.00  0.00     0.170 HD
BRANCH  39  42
HETATM   42  C25 UNL     1      12.814  37.331  12.674  1.00  0.00     0.099 C 
HETATM   43  C26 UNL     1      12.574  36.126  11.800  1.00  0.00     0.014 C 
ENDBRANCH  39  42
ENDBRANCH  17  38
ENDBRANCH   5   6
ENDBRANCH   4   5
ENDBRANCH   3   4
TORSDOF 13
ENDMDL
MODEL 4
REMARK VINA RESULT: -7.215001653      5.268      7.542
REMARK  13 active torsions:
REMARK  status: ('A' for Active; 'I' for Inactive)
REMARK    1  A    between atoms: C3_3  and  C4_4 
REMARK    2  A    between atoms: C4_4  and  C5_5 
REMARK    3  A    between atoms: C5_5  and  C6_6 
REMARK    4  A    between atoms: C10_14  and  C11_15 
REMARK    5  A    between atoms: C11_15  and  C13_17 
REMARK    6  A    between atoms: C11_15  and  S1_20 
REMARK    7  A    between atoms: C13_17  and  O1_18 
REMARK    8  A    between atoms: S1_20  and  C14_21 
REMARK    9  A    between atoms: C15_22  and  O2_23 
REMARK   10  A    between atoms: C16_25  and  O3_26 
REMARK   11  A    between atoms: C18_29  and  O4_30 
REMARK   12  A    between atoms: C23_36  and  N2_37 
REMARK       I    between atoms: N2_37  and  C24_39 
REMARK   13  A    between atoms: C24_39  and  C25_41 
ROOT
HETATM    1  C1  UNL     1      14.870  48.441   8.690  1.00  0.00     0.012 C 
HETATM    2  C2  UNL     1      14.870  47.262   8.921  1.00  0.00    -0.117 C 
HETATM    3  C3  UNL     1      14.839  45.835   9.211  1.00  0.00     0.093 C 
ENDROOT
BRANCH   3   4
HETATM    4  C4  UNL     1      14.520  45.448  10.553  1.00  0.00     0.018 C 
BRANCH   4   5
HETATM    5  C5  UNL     1      14.337  44.113  11.126  1.00  0.00     0.060 C 
BRANCH   5   6
HETATM    6  C6  UNL     1      13.073  43.748  11.736  1.00  0.00     0.043 A 
HETATM    7  C7  UNL     1      11.801  43.813  11.096  1.00  0.00     0.082 A 
HETATM    8 CL1  UNL     1      11.071  44.759   9.787  1.00  0.00    -0.080 Cl
HETATM    9  C8  UNL     1      11.053  42.857  11.717  1.00  0.00     0.102 A 
HETATM   10 CL2  UNL     1       9.409  42.460  11.351  1.00  0.00    -0.078 Cl
HETATM   11  C9  UNL     1      11.834  42.188  12.783  1.00  0.00     0.138 A 
HETATM   12  N1  UNL     1      11.521  41.235  13.680  1.00  0.00    -0.342 N 
HETATM   13  N3  UNL     1      13.021  42.774  12.761  1.00  0.00    -0.284 N 
HETATM   14  C10 UNL     1      12.398  40.796  14.637  1.00  0.00     0.035 A 
ATOM     15  H1  UNL     1      10.590  40.821  13.646  1.00  0.00     0.167 HD
HETATM   16  C22 UNL     1      13.622  41.388  14.627  1.00  0.00     0.076 A 
HETATM   17  C23 UNL     1      13.952  42.374  13.700  1.00  0.00     0.118 A 
BRANCH  14  18
HETATM   18  C11 UNL     1      12.064  39.708  15.563  1.00  0.00     0.068 C 
HETATM   19  C12 UNL     1      10.600  39.352  15.632  1.00  0.00     0.036 C 
BRANCH  18  20
HETATM   20  C13 UNL     1      12.412  40.257  17.021  1.00  0.00     0.190 C 
BRANCH  20  21
HETATM   21  O1  UNL     1      11.342  41.097  17.381  1.00  0.00    -0.399 OA
ATOM     22  H1  UNL     1      11.339  41.121  18.331  1.00  0.00     0.209 HD
ENDBRANCH  20  21
ENDBRANCH  18  20
BRANCH  18  23
HETATM   23  S1  UNL     1      13.037  38.201  15.517  1.00  0.00    -0.143 SA
BRANCH  23  24
HETATM   24  C14 UNL     1      13.454  37.847  13.820  1.00  0.00     0.084 C 
HETATM   25  C15 UNL     1      14.506  36.834  13.529  1.00  0.00     0.161 C 
HETATM   26  C16 UNL     1      14.162  36.302  12.114  1.00  0.00     0.154 C 
HETATM   27  C17 UNL     1      12.988  37.078  11.624  1.00  0.00     0.051 C 
HETATM   28  C18 UNL     1      11.925  36.281  10.949  1.00  0.00     0.125 C 
HETATM   29  C21 UNL     1      12.345  37.701  12.855  1.00  0.00     0.011 C 
HETATM   30  C19 UNL     1      10.676  36.422  11.835  1.00  0.00     0.032 C 
HETATM   31  C20 UNL     1      11.238  36.779  13.200  1.00  0.00     0.009 C 
BRANCH  25  32
HETATM   32  O2  UNL     1      14.510  35.741  14.402  1.00  0.00    -0.392 OA
ATOM     33  H2  UNL     1      15.363  35.535  14.766  1.00  0.00     0.210 HD
ENDBRANCH  25  32
BRANCH  26  34
HETATM   34  O3  UNL     1      15.244  36.433  11.253  1.00  0.00    -0.392 OA
ATOM     35  H3  UNL     1      15.459  35.603  10.843  1.00  0.00     0.210 HD
ENDBRANCH  26  34
BRANCH  28  36
HETATM   36  O4  UNL     1      11.618  36.835   9.679  1.00  0.00    -0.395 OA
ATOM     37  H4  UNL     1      11.137  37.649   9.777  1.00  0.00     0.210 HD
ENDBRANCH  28  36
ENDBRANCH  23  24
ENDBRANCH  18  23
ENDBRANCH  14  18
BRANCH  17  38
HETATM   38  N2  UNL     1      15.097  42.912  13.662  1.00  0.00    -0.313 N 
HETATM   39  C24 UNL     1      15.618  43.892  14.499  1.00  0.00     0.222 C 
HETATM   40  O5  UNL     1      15.306  45.112  14.493  1.00  0.00    -0.273 OA
ATOM     41  H2  UNL     1      15.717  42.583  12.922  1.00  0.00     0.170 HD
BRANCH  39  42
HETATM   42  C25 UNL     1      16.667  43.467  15.517  1.00  0.00     0.099 C 
HETATM   43  C26 UNL     1      17.185  42.085  15.211  1.00  0.00     0.014 C 
ENDBRANCH  39  42
ENDBRANCH  17  38
ENDBRANCH   5   6
ENDBRANCH   4   5
ENDBRANCH   3   4
TORSDOF 13
ENDMDL
MODEL 5
REMARK VINA RESULT: -7.213019062      2.506      3.633
REMARK  13 active torsions:
REMARK  status: ('A' for Active; 'I' for Inactive)
REMARK    1  A    between atoms: C3_3  and  C4_4 
REMARK    2  A    between atoms: C4_4  and  C5_5 
REMARK    3  A    between atoms: C5_5  and  C6_6 
REMARK    4  A    between atoms: C10_14  and  C11_15 
REMARK    5  A    between atoms: C11_15  and  C13_17 
REMARK    6  A    between atoms: C11_15  and  S1_20 
REMARK    7  A    between atoms: C13_17  and  O1_18 
REMARK    8  A    between atoms: S1_20  and  C14_21 
REMARK    9  A    between atoms: C15_22  and  O2_23 
REMARK   10  A    between atoms: C16_25  and  O3_26 
REMARK   11  A    between atoms: C18_29  and  O4_30 
REMARK   12  A    between atoms: C23_36  and  N2_37 
REMARK       I    between atoms: N2_37  and  C24_39 
REMARK   13  A    between atoms: C24_39  and  C25_41 
ROOT
HETATM    1  C1  UNL     1      11.632  38.140  15.236  1.00  0.00     0.012 C 
HETATM    2  C2  UNL     1      11.694  39.037  14.440  1.00  0.00    -0.117 C 
HETATM    3  C3  UNL     1      11.792  40.107  13.456  1.00  0.00     0.093 C 
ENDROOT
BRANCH   3   4
HETATM    4  C4  UNL     1      13.092  40.661  13.220  1.00  0.00     0.018 C 
BRANCH   4   5
HETATM    5  C5  UNL     1      14.382  39.988  13.048  1.00  0.00     0.060 C 
BRANCH   5   6
HETATM    6  C6  UNL     1      15.260  39.792  14.184  1.00  0.00     0.043 A 
HETATM    7  C7  UNL     1      15.651  40.805  15.107  1.00  0.00     0.082 A 
HETATM    8 CL1  UNL     1      15.834  42.568  15.075  1.00  0.00    -0.080 Cl
HETATM    9  C8  UNL     1      15.904  40.135  16.267  1.00  0.00     0.102 A 
HETATM   10 CL2  UNL     1      16.407  40.850  17.761  1.00  0.00    -0.078 Cl
HETATM   11  C9  UNL     1      15.706  38.678  16.088  1.00  0.00     0.138 A 
HETATM   12  N1  UNL     1      15.875  37.628  16.912  1.00  0.00    -0.342 N 
HETATM   13  N3  UNL     1      15.342  38.533  14.823  1.00  0.00    -0.284 N 
HETATM   14  C10 UNL     1      15.687  36.331  16.513  1.00  0.00     0.035 A 
ATOM     15  H1  UNL     1      16.155  37.805  17.876  1.00  0.00     0.167 HD
HETATM   16  C22 UNL     1      15.314  36.165  15.216  1.00  0.00     0.076 A 
HETATM   17  C23 UNL     1      15.135  37.249  14.358  1.00  0.00     0.118 A 
BRANCH  14  18
HETATM   18  C11 UNL     1      15.808  35.202  17.442  1.00  0.00     0.068 C 
HETATM   19  C12 UNL     1      15.957  35.580  18.895  1.00  0.00     0.036 C 
BRANCH  18  20
HETATM   20  C13 UNL     1      17.184  34.482  17.073  1.00  0.00     0.190 C 
BRANCH  20  21
HETATM   21  O1  UNL     1      16.834  33.336  16.336  1.00  0.00    -0.399 OA
ATOM     22  H1  UNL     1      16.637  32.665  16.978  1.00  0.00     0.209 HD
ENDBRANCH  20  21
ENDBRANCH  18  20
BRANCH  18  23
HETATM   23  S1  UNL     1      14.652  33.836  17.302  1.00  0.00    -0.143 SA
BRANCH  23  24
HETATM   24  C14 UNL     1      14.547  33.019  18.884  1.00  0.00     0.084 C 
HETATM   25  C15 UNL     1      13.257  33.045  19.627  1.00  0.00     0.161 C 
HETATM   26  C16 UNL     1      13.292  31.780  20.523  1.00  0.00     0.154 C 
HETATM   27  C17 UNL     1      14.617  31.130  20.318  1.00  0.00     0.051 C 
HETATM   28  C18 UNL     1      14.593  29.648  20.173  1.00  0.00     0.125 C 
HETATM   29  C21 UNL     1      15.166  31.684  19.011  1.00  0.00     0.011 C 
HETATM   30  C19 UNL     1      15.094  29.363  18.747  1.00  0.00     0.032 C 
HETATM   31  C20 UNL     1      14.819  30.657  18.001  1.00  0.00     0.009 C 
BRANCH  25  32
HETATM   32  O2  UNL     1      12.122  32.957  18.814  1.00  0.00    -0.392 OA
ATOM     33  H2  UNL     1      11.996  32.106  18.410  1.00  0.00     0.210 HD
ENDBRANCH  25  32
BRANCH  26  34
HETATM   34  O3  UNL     1      13.095  32.107  21.859  1.00  0.00    -0.392 OA
ATOM     35  H3  UNL     1      12.990  31.326  22.391  1.00  0.00     0.210 HD
ENDBRANCH  26  34
BRANCH  28  36
HETATM   36  O4  UNL     1      15.502  29.043  21.080  1.00  0.00    -0.395 OA
ATOM     37  H4  UNL     1      15.171  29.096  21.969  1.00  0.00     0.210 HD
ENDBRANCH  28  36
ENDBRANCH  23  24
ENDBRANCH  18  23
ENDBRANCH  14  18
BRANCH  17  38
HETATM   38  N2  UNL     1      14.761  37.108  13.159  1.00  0.00    -0.313 N 
HETATM   39  C24 UNL     1      14.110  36.026  12.578  1.00  0.00     0.222 C 
HETATM   40  O5  UNL     1      14.631  34.914  12.296  1.00  0.00    -0.273 OA
ATOM     41  H2  UNL     1      14.963  37.891  12.536  1.00  0.00     0.170 HD
BRANCH  39  42
HETATM   42  C25 UNL     1      12.634  36.185  12.242  1.00  0.00     0.099 C 
HETATM   43  C26 UNL     1      12.439  37.197  11.142  1.00  0.00     0.014 C 
ENDBRANCH  39  42
ENDBRANCH  17  38
ENDBRANCH   5   6
ENDBRANCH   4   5
ENDBRANCH   3   4
TORSDOF 13
ENDMDL
