MODEL 1
REMARK VINA RESULT: -8.271612501      0.000      0.000
REMARK  6 active torsions:
REMARK  status: ('A' for Active; 'I' for Inactive)
REMARK    1  A    between atoms: C9_9  and  O1_10 
REMARK    2  A    between atoms: C9_9  and  C10_12 
REMARK    3  A    between atoms: C10_12  and  N1_13 
REMARK       I    between atoms: N1_13  and  C11_15 
REMARK    4  A    between atoms: C11_15  and  C12_17 
REMARK    5  A    between atoms: C19_25  and  C20_26 
REMARK       I    between atoms: C20_26  and  N2_28 
REMARK    6  A    between atoms: N2_28  and  C21_30 
ROOT
HETATM    1  C1  UNL     1      26.343   6.261  51.368  1.00  0.00     0.016 C 
HETATM    2  C2  UNL     1      27.500   6.227  52.283  1.00  0.00    -0.032 C 
HETATM    3  C3  UNL     1      28.355   7.455  52.022  1.00  0.00     0.016 C 
HETATM    4  C4  UNL     1      28.395   5.036  52.156  1.00  0.00     0.015 C 
HETATM    5  C5  UNL     1      29.340   5.242  53.324  1.00  0.00     0.007 C 
HETATM    6  C6  UNL     1      28.542   6.059  54.350  1.00  0.00     0.014 C 
HETATM    7  C7  UNL     1      27.162   6.217  53.760  1.00  0.00     0.003 C 
HETATM    8  C8  UNL     1      26.424   7.429  54.215  1.00  0.00     0.020 C 
HETATM    9  C9  UNL     1      26.365   4.981  54.130  1.00  0.00     0.142 C 
HETATM   10  C18 UNL     1      27.145   3.770  53.782  1.00  0.00     0.176 C 
HETATM   11  O3  UNL     1      27.303   2.892  54.599  1.00  0.00    -0.294 OA
HETATM   12  C19 UNL     1      27.698   3.731  52.388  1.00  0.00     0.155 C 
ENDROOT
BRANCH  12  13
HETATM   13  C20 UNL     1      28.635   2.611  52.206  1.00  0.00     0.230 C 
HETATM   14  O4  UNL     1      29.688   2.792  51.569  1.00  0.00    -0.273 OA
HETATM   15  N2  UNL     1      28.368   1.329  52.737  1.00  0.00    -0.351 N 
ATOM     16  H2  UNL     1      27.497   1.208  53.255  1.00  0.00     0.163 HD
BRANCH  15  17
HETATM   17  C21 UNL     1      29.224   0.185  52.608  1.00  0.00     0.034 C 
HETATM   18  C22 UNL     1      30.682   0.505  52.928  1.00  0.00     0.035 C 
HETATM   19  C23 UNL     1      31.476  -0.765  52.931  1.00  0.00    -0.012 C 
HETATM   20  C24 UNL     1      30.997  -1.792  53.902  1.00  0.00     0.009 C 
HETATM   21  C28 UNL     1      31.460  -1.308  51.504  1.00  0.00     0.009 C 
HETATM   22  C25 UNL     1      29.569  -2.141  53.519  1.00  0.00    -0.012 C 
HETATM   23  C26 UNL     1      29.513  -2.705  52.124  1.00  0.00     0.009 C 
HETATM   24  C30 UNL     1      28.764  -0.884  53.592  1.00  0.00     0.035 C 
HETATM   25  C27 UNL     1      30.037  -1.661  51.186  1.00  0.00    -0.012 C 
HETATM   26  C29 UNL     1      29.178  -0.436  51.240  1.00  0.00     0.035 C 
ENDBRANCH  15  17
ENDBRANCH  12  13
BRANCH   9  27
HETATM   27  O1  UNL     1      25.169   4.954  53.377  1.00  0.00    -0.380 OA
ATOM     28  H1  UNL     1      24.782   4.088  53.433  1.00  0.00     0.211 HD
ENDBRANCH   9  27
BRANCH   9  29
HETATM   29  C10 UNL     1      26.009   5.076  55.592  1.00  0.00     0.169 C 
BRANCH  29  30
HETATM   30  N1  UNL     1      24.775   4.342  55.840  1.00  0.00    -0.357 N 
HETATM   31  C11 UNL     1      24.551   3.740  57.096  1.00  0.00     0.221 C 
HETATM   32  O2  UNL     1      25.427   3.850  57.990  1.00  0.00    -0.273 OA
ATOM     33  H1  UNL     1      24.073   4.262  55.104  1.00  0.00     0.162 HD
BRANCH  31  34
HETATM   34  C12 UNL     1      23.316   2.981  57.402  1.00  0.00     0.078 C 
HETATM   35  C13 UNL     1      22.303   3.139  56.308  1.00  0.00     0.014 C 
HETATM   36  C14 UNL     1      21.654   1.810  55.976  1.00  0.00     0.001 C 
HETATM   37  C15 UNL     1      21.198   1.088  57.225  1.00  0.00     0.000 C 
HETATM   38  C16 UNL     1      22.326   0.887  58.205  1.00  0.00     0.001 C 
HETATM   39  C17 UNL     1      23.607   1.529  57.695  1.00  0.00     0.014 C 
ENDBRANCH  31  34
ENDBRANCH  29  30
ENDBRANCH   9  29
TORSDOF 6
ENDMDL
MODEL 2
REMARK VINA RESULT: -8.193678695      0.101      1.224
REMARK  6 active torsions:
REMARK  status: ('A' for Active; 'I' for Inactive)
REMARK    1  A    between atoms: C9_9  and  O1_10 
REMARK    2  A    between atoms: C9_9  and  C10_12 
REMARK    3  A    between atoms: C10_12  and  N1_13 
REMARK       I    between atoms: N1_13  and  C11_15 
REMARK    4  A    between atoms: C11_15  and  C12_17 
REMARK    5  A    between atoms: C19_25  and  C20_26 
REMARK       I    between atoms: C20_26  and  N2_28 
REMARK    6  A    between atoms: N2_28  and  C21_30 
ROOT
HETATM    1  C1  UNL     1      26.413   6.223  51.387  1.00  0.00     0.016 C 
HETATM    2  C2  UNL     1      27.549   6.209  52.328  1.00  0.00    -0.032 C 
HETATM    3  C3  UNL     1      28.413   7.428  52.056  1.00  0.00     0.016 C 
HETATM    4  C4  UNL     1      28.443   5.013  52.251  1.00  0.00     0.015 C 
HETATM    5  C5  UNL     1      29.362   5.246  53.435  1.00  0.00     0.007 C 
HETATM    6  C6  UNL     1      28.543   6.090  54.421  1.00  0.00     0.014 C 
HETATM    7  C7  UNL     1      27.177   6.237  53.797  1.00  0.00     0.003 C 
HETATM    8  C8  UNL     1      26.433   7.462  54.204  1.00  0.00     0.020 C 
HETATM    9  C9  UNL     1      26.368   5.013  54.180  1.00  0.00     0.142 C 
HETATM   10  C18 UNL     1      27.152   3.791  53.879  1.00  0.00     0.176 C 
HETATM   11  O3  UNL     1      27.289   2.934  54.721  1.00  0.00    -0.294 OA
HETATM   12  C19 UNL     1      27.736   3.716  52.500  1.00  0.00     0.155 C 
ENDROOT
BRANCH  12  13
HETATM   13  C20 UNL     1      28.673   2.590  52.367  1.00  0.00     0.230 C 
HETATM   14  O4  UNL     1      29.756   2.761  51.779  1.00  0.00    -0.273 OA
HETATM   15  N2  UNL     1      28.373   1.312  52.891  1.00  0.00    -0.351 N 
ATOM     16  H2  UNL     1      27.478   1.199  53.367  1.00  0.00     0.163 HD
BRANCH  15  17
HETATM   17  C21 UNL     1      29.227   0.161  52.806  1.00  0.00     0.034 C 
HETATM   18  C22 UNL     1      28.817  -0.944  53.777  1.00  0.00     0.035 C 
HETATM   19  C23 UNL     1      29.647  -2.162  53.514  1.00  0.00    -0.012 C 
HETATM   20  C24 UNL     1      29.540  -2.696  52.125  1.00  0.00     0.009 C 
HETATM   21  C28 UNL     1      31.091  -1.805  53.857  1.00  0.00     0.009 C 
HETATM   22  C25 UNL     1      30.017  -1.602  51.186  1.00  0.00    -0.012 C 
HETATM   23  C26 UNL     1      31.449  -1.237  51.475  1.00  0.00     0.009 C 
HETATM   24  C30 UNL     1      29.137  -0.412  51.397  1.00  0.00     0.035 C 
HETATM   25  C27 UNL     1      31.521  -0.744  52.887  1.00  0.00    -0.012 C 
HETATM   26  C29 UNL     1      30.674   0.479  53.054  1.00  0.00     0.035 C 
ENDBRANCH  15  17
ENDBRANCH  12  13
BRANCH   9  27
HETATM   27  O1  UNL     1      25.190   4.971  53.400  1.00  0.00    -0.380 OA
ATOM     28  H1  UNL     1      24.635   5.708  53.628  1.00  0.00     0.211 HD
ENDBRANCH   9  27
BRANCH   9  29
HETATM   29  C10 UNL     1      25.980   5.146  55.630  1.00  0.00     0.169 C 
BRANCH  29  30
HETATM   30  N1  UNL     1      24.747   4.408  55.871  1.00  0.00    -0.357 N 
HETATM   31  C11 UNL     1      24.544   3.753  57.105  1.00  0.00     0.221 C 
HETATM   32  O2  UNL     1      25.440   3.818  57.983  1.00  0.00    -0.273 OA
ATOM     33  H1  UNL     1      24.028   4.365  55.148  1.00  0.00     0.162 HD
BRANCH  31  34
HETATM   34  C12 UNL     1      23.311   2.988  57.403  1.00  0.00     0.078 C 
HETATM   35  C13 UNL     1      22.302   3.145  56.305  1.00  0.00     0.014 C 
HETATM   36  C14 UNL     1      21.661   1.814  55.967  1.00  0.00     0.001 C 
HETATM   37  C15 UNL     1      21.202   1.088  57.212  1.00  0.00     0.000 C 
HETATM   38  C16 UNL     1      22.326   0.889  58.197  1.00  0.00     0.001 C 
HETATM   39  C17 UNL     1      23.606   1.537  57.694  1.00  0.00     0.014 C 
ENDBRANCH  31  34
ENDBRANCH  29  30
ENDBRANCH   9  29
TORSDOF 6
ENDMDL
MODEL 3
REMARK VINA RESULT: -8.119915949      0.148      1.239
REMARK  6 active torsions:
REMARK  status: ('A' for Active; 'I' for Inactive)
REMARK    1  A    between atoms: C9_9  and  O1_10 
REMARK    2  A    between atoms: C9_9  and  C10_12 
REMARK    3  A    between atoms: C10_12  and  N1_13 
REMARK       I    between atoms: N1_13  and  C11_15 
REMARK    4  A    between atoms: C11_15  and  C12_17 
REMARK    5  A    between atoms: C19_25  and  C20_26 
REMARK       I    between atoms: C20_26  and  N2_28 
REMARK    6  A    between atoms: N2_28  and  C21_30 
ROOT
HETATM    1  C1  UNL     1      26.378   6.418  51.463  1.00  0.00     0.016 C 
HETATM    2  C2  UNL     1      27.528   6.327  52.383  1.00  0.00    -0.032 C 
HETATM    3  C3  UNL     1      28.429   7.525  52.144  1.00  0.00     0.016 C 
HETATM    4  C4  UNL     1      28.378   5.105  52.242  1.00  0.00     0.015 C 
HETATM    5  C5  UNL     1      29.324   5.258  53.418  1.00  0.00     0.007 C 
HETATM    6  C6  UNL     1      28.551   6.089  54.452  1.00  0.00     0.014 C 
HETATM    7  C7  UNL     1      27.182   6.308  53.858  1.00  0.00     0.003 C 
HETATM    8  C8  UNL     1      26.488   7.540  54.327  1.00  0.00     0.020 C 
HETATM    9  C9  UNL     1      26.337   5.098  54.206  1.00  0.00     0.142 C 
HETATM   10  C18 UNL     1      27.073   3.863  53.843  1.00  0.00     0.176 C 
HETATM   11  O3  UNL     1      27.193   2.968  54.648  1.00  0.00    -0.294 OA
HETATM   12  C19 UNL     1      27.631   3.824  52.452  1.00  0.00     0.155 C 
ENDROOT
BRANCH  12  13
HETATM   13  C20 UNL     1      28.526   2.673  52.257  1.00  0.00     0.230 C 
HETATM   14  O4  UNL     1      29.537   2.796  51.541  1.00  0.00    -0.273 OA
HETATM   15  N2  UNL     1      28.267   1.423  52.864  1.00  0.00    -0.351 N 
ATOM     16  H2  UNL     1      27.432   1.348  53.445  1.00  0.00     0.163 HD
BRANCH  15  17
HETATM   17  C21 UNL     1      29.084   0.251  52.729  1.00  0.00     0.034 C 
HETATM   18  C22 UNL     1      29.036  -0.337  51.320  1.00  0.00     0.035 C 
HETATM   19  C23 UNL     1      30.033  -1.449  51.216  1.00  0.00    -0.012 C 
HETATM   20  C24 UNL     1      31.440  -1.047  51.508  1.00  0.00     0.009 C 
HETATM   21  C28 UNL     1      29.571  -2.557  52.159  1.00  0.00     0.009 C 
HETATM   22  C25 UNL     1      31.473  -0.530  52.935  1.00  0.00    -0.012 C 
HETATM   23  C26 UNL     1      31.047  -1.603  53.902  1.00  0.00     0.009 C 
HETATM   24  C30 UNL     1      30.533   0.629  53.016  1.00  0.00     0.035 C 
HETATM   25  C27 UNL     1      29.648  -2.006  53.552  1.00  0.00    -0.012 C 
HETATM   26  C29 UNL     1      28.720  -0.839  53.696  1.00  0.00     0.035 C 
ENDBRANCH  15  17
ENDBRANCH  12  13
BRANCH   9  27
HETATM   27  O1  UNL     1      25.145   5.127  53.446  1.00  0.00    -0.380 OA
ATOM     28  H1  UNL     1      24.788   6.007  53.457  1.00  0.00     0.211 HD
ENDBRANCH   9  27
BRANCH   9  29
HETATM   29  C10 UNL     1      25.977   5.185  55.668  1.00  0.00     0.169 C 
BRANCH  29  30
HETATM   30  N1  UNL     1      24.740   4.453  55.907  1.00  0.00    -0.357 N 
HETATM   31  C11 UNL     1      24.550   3.763  57.123  1.00  0.00     0.221 C 
HETATM   32  O2  UNL     1      25.460   3.792  57.988  1.00  0.00    -0.273 OA
ATOM     33  H1  UNL     1      24.010   4.439  55.194  1.00  0.00     0.162 HD
BRANCH  31  34
HETATM   34  C12 UNL     1      23.313   3.003  57.418  1.00  0.00     0.078 C 
HETATM   35  C13 UNL     1      22.313   3.152  56.311  1.00  0.00     0.014 C 
HETATM   36  C14 UNL     1      21.671   1.820  55.980  1.00  0.00     0.001 C 
HETATM   37  C15 UNL     1      21.202   1.104  57.227  1.00  0.00     0.000 C 
HETATM   38  C16 UNL     1      22.319   0.911  58.221  1.00  0.00     0.001 C 
HETATM   39  C17 UNL     1      23.604   1.554  57.723  1.00  0.00     0.014 C 
ENDBRANCH  31  34
ENDBRANCH  29  30
ENDBRANCH   9  29
TORSDOF 6
ENDMDL
MODEL 4
REMARK VINA RESULT: -8.024137873      3.124      4.153
REMARK  6 active torsions:
REMARK  status: ('A' for Active; 'I' for Inactive)
REMARK    1  A    between atoms: C9_9  and  O1_10 
REMARK    2  A    between atoms: C9_9  and  C10_12 
REMARK    3  A    between atoms: C10_12  and  N1_13 
REMARK       I    between atoms: N1_13  and  C11_15 
REMARK    4  A    between atoms: C11_15  and  C12_17 
REMARK    5  A    between atoms: C19_25  and  C20_26 
REMARK       I    between atoms: C20_26  and  N2_28 
REMARK    6  A    between atoms: N2_28  and  C21_30 
ROOT
HETATM    1  C1  UNL     1      29.656   4.623  57.950  1.00  0.00     0.016 C 
HETATM    2  C2  UNL     1      30.058   3.212  58.104  1.00  0.00    -0.032 C 
HETATM    3  C3  UNL     1      31.332   3.163  58.929  1.00  0.00     0.016 C 
HETATM    4  C4  UNL     1      30.331   2.471  56.834  1.00  0.00     0.015 C 
HETATM    5  C5  UNL     1      30.538   1.059  57.347  1.00  0.00     0.007 C 
HETATM    6  C6  UNL     1      29.732   0.981  58.651  1.00  0.00     0.014 C 
HETATM    7  C7  UNL     1      29.044   2.316  58.786  1.00  0.00     0.003 C 
HETATM    8  C8  UNL     1      28.732   2.720  60.185  1.00  0.00     0.020 C 
HETATM    9  C9  UNL     1      27.755   2.246  57.990  1.00  0.00     0.142 C 
HETATM   10  C18 UNL     1      28.045   1.737  56.628  1.00  0.00     0.176 C 
HETATM   11  O3  UNL     1      27.398   0.822  56.170  1.00  0.00    -0.294 OA
HETATM   12  C19 UNL     1      29.161   2.425  55.901  1.00  0.00     0.155 C 
ENDROOT
BRANCH  12  13
HETATM   13  C20 UNL     1      29.522   1.716  54.663  1.00  0.00     0.230 C 
HETATM   14  O4  UNL     1      29.831   2.370  53.650  1.00  0.00    -0.273 OA
HETATM   15  N2  UNL     1      29.527   0.304  54.594  1.00  0.00    -0.351 N 
ATOM     16  H2  UNL     1      29.268  -0.207  55.438  1.00  0.00     0.163 HD
BRANCH  15  17
HETATM   17  C21 UNL     1      29.865  -0.466  53.431  1.00  0.00     0.034 C 
HETATM   18  C22 UNL     1      29.135   0.012  52.179  1.00  0.00     0.035 C 
HETATM   19  C23 UNL     1      29.662  -0.729  50.989  1.00  0.00    -0.012 C 
HETATM   20  C24 UNL     1      31.129  -0.575  50.763  1.00  0.00     0.009 C 
HETATM   21  C28 UNL     1      29.284  -2.197  51.170  1.00  0.00     0.009 C 
HETATM   22  C25 UNL     1      31.832  -1.120  51.995  1.00  0.00    -0.012 C 
HETATM   23  C26 UNL     1      31.505  -2.576  52.195  1.00  0.00     0.009 C 
HETATM   24  C30 UNL     1      31.360  -0.327  53.170  1.00  0.00     0.035 C 
HETATM   25  C27 UNL     1      30.023  -2.692  52.378  1.00  0.00    -0.012 C 
HETATM   26  C29 UNL     1      29.588  -1.934  53.594  1.00  0.00     0.035 C 
ENDBRANCH  15  17
ENDBRANCH  12  13
BRANCH   9  27
HETATM   27  O1  UNL     1      27.217   3.546  57.857  1.00  0.00    -0.380 OA
ATOM     28  H1  UNL     1      26.382   3.496  57.406  1.00  0.00     0.211 HD
ENDBRANCH   9  27
BRANCH   9  29
HETATM   29  C10 UNL     1      26.776   1.397  58.761  1.00  0.00     0.169 C 
BRANCH  29  30
HETATM   30  N1  UNL     1      25.481   1.423  58.094  1.00  0.00    -0.357 N 
HETATM   31  C11 UNL     1      24.438   2.225  58.605  1.00  0.00     0.221 C 
HETATM   32  O2  UNL     1      24.647   2.912  59.636  1.00  0.00    -0.273 OA
ATOM     33  H1  UNL     1      25.327   0.861  57.257  1.00  0.00     0.162 HD
BRANCH  31  34
HETATM   34  C12 UNL     1      23.103   2.289  57.968  1.00  0.00     0.078 C 
HETATM   35  C13 UNL     1      23.157   3.051  56.678  1.00  0.00     0.014 C 
HETATM   36  C14 UNL     1      22.359   2.346  55.599  1.00  0.00     0.001 C 
HETATM   37  C15 UNL     1      20.987   1.948  56.095  1.00  0.00     0.000 C 
HETATM   38  C16 UNL     1      21.060   1.090  57.333  1.00  0.00     0.001 C 
HETATM   39  C17 UNL     1      22.502   0.916  57.786  1.00  0.00     0.014 C 
ENDBRANCH  31  34
ENDBRANCH  29  30
ENDBRANCH   9  29
TORSDOF 6
ENDMDL
MODEL 5
REMARK VINA RESULT: -7.946322296      2.977      3.966
REMARK  6 active torsions:
REMARK  status: ('A' for Active; 'I' for Inactive)
REMARK    1  A    between atoms: C9_9  and  O1_10 
REMARK    2  A    between atoms: C9_9  and  C10_12 
REMARK    3  A    between atoms: C10_12  and  N1_13 
REMARK       I    between atoms: N1_13  and  C11_15 
REMARK    4  A    between atoms: C11_15  and  C12_17 
REMARK    5  A    between atoms: C19_25  and  C20_26 
REMARK       I    between atoms: C20_26  and  N2_28 
REMARK    6  A    between atoms: N2_28  and  C21_30 
ROOT
HETATM    1  C1  UNL     1      29.541   4.790  58.057  1.00  0.00     0.016 C 
HETATM    2  C2  UNL     1      29.998   3.388  58.112  1.00  0.00    -0.032 C 
HETATM    3  C3  UNL     1      31.293   3.336  58.904  1.00  0.00     0.016 C 
HETATM    4  C4  UNL     1      30.265   2.738  56.793  1.00  0.00     0.015 C 
HETATM    5  C5  UNL     1      30.535   1.306  57.211  1.00  0.00     0.007 C 
HETATM    6  C6  UNL     1      29.765   1.117  58.526  1.00  0.00     0.014 C 
HETATM    7  C7  UNL     1      29.033   2.415  58.760  1.00  0.00     0.003 C 
HETATM    8  C8  UNL     1      28.743   2.719  60.189  1.00  0.00     0.020 C 
HETATM    9  C9  UNL     1      27.728   2.346  57.991  1.00  0.00     0.142 C 
HETATM   10  C18 UNL     1      28.002   1.933  56.593  1.00  0.00     0.176 C 
HETATM   11  O3  UNL     1      27.377   1.026  56.094  1.00  0.00    -0.294 OA
HETATM   12  C19 UNL     1      29.074   2.707  55.886  1.00  0.00     0.155 C 
ENDROOT
BRANCH  12  13
HETATM   13  C20 UNL     1      29.429   2.090  54.598  1.00  0.00     0.230 C 
HETATM   14  O4  UNL     1      29.541   2.805  53.586  1.00  0.00    -0.273 OA
HETATM   15  N2  UNL     1      29.647   0.698  54.479  1.00  0.00    -0.351 N 
ATOM     16  H2  UNL     1      29.548   0.135  55.324  1.00  0.00     0.163 HD
BRANCH  15  17
HETATM   17  C21 UNL     1      29.996   0.015  53.267  1.00  0.00     0.034 C 
HETATM   18  C22 UNL     1      31.174   0.668  52.546  1.00  0.00     0.035 C 
HETATM   19  C23 UNL     1      31.579  -0.191  51.388  1.00  0.00    -0.012 C 
HETATM   20  C24 UNL     1      31.969  -1.583  51.756  1.00  0.00     0.009 C 
HETATM   21  C28 UNL     1      30.417  -0.189  50.398  1.00  0.00     0.009 C 
HETATM   22  C25 UNL     1      30.760  -2.230  52.410  1.00  0.00    -0.012 C 
HETATM   23  C26 UNL     1      29.596  -2.271  51.456  1.00  0.00     0.009 C 
HETATM   24  C30 UNL     1      30.405  -1.413  53.609  1.00  0.00     0.035 C 
HETATM   25  C27 UNL     1      29.261  -0.861  51.080  1.00  0.00    -0.012 C 
HETATM   26  C29 UNL     1      28.856  -0.081  52.293  1.00  0.00     0.035 C 
ENDBRANCH  15  17
ENDBRANCH  12  13
BRANCH   9  27
HETATM   27  O1  UNL     1      27.140   3.631  57.953  1.00  0.00    -0.380 OA
ATOM     28  H1  UNL     1      27.269   4.060  58.791  1.00  0.00     0.211 HD
ENDBRANCH   9  27
BRANCH   9  29
HETATM   29  C10 UNL     1      26.800   1.415  58.730  1.00  0.00     0.169 C 
BRANCH  29  30
HETATM   30  N1  UNL     1      25.495   1.417  58.082  1.00  0.00    -0.357 N 
HETATM   31  C11 UNL     1      24.451   2.214  58.597  1.00  0.00     0.221 C 
HETATM   32  O2  UNL     1      24.667   2.917  59.615  1.00  0.00    -0.273 OA
ATOM     33  H1  UNL     1      25.336   0.841  57.255  1.00  0.00     0.162 HD
BRANCH  31  34
HETATM   34  C12 UNL     1      23.105   2.252  57.979  1.00  0.00     0.078 C 
HETATM   35  C13 UNL     1      23.146   2.930  56.642  1.00  0.00     0.014 C 
HETATM   36  C14 UNL     1      22.322   2.166  55.624  1.00  0.00     0.001 C 
HETATM   37  C15 UNL     1      20.954   1.818  56.167  1.00  0.00     0.000 C 
HETATM   38  C16 UNL     1      21.039   1.041  57.456  1.00  0.00     0.001 C 
HETATM   39  C17 UNL     1      22.485   0.879  57.896  1.00  0.00     0.014 C 
ENDBRANCH  31  34
ENDBRANCH  29  30
ENDBRANCH   9  29
TORSDOF 6
ENDMDL
