MODEL 1
REMARK VINA RESULT: -8.152202466      0.000      0.000
REMARK  9 active torsions:
REMARK  status: ('A' for Active; 'I' for Inactive)
REMARK    1  A    between atoms: C8_10  and  N2_11 
REMARK    2  A    between atoms: N2_11  and  C9_13 
REMARK    3  A    between atoms: C9_13  and  N3_15 
REMARK    4  A    between atoms: N3_15  and  C10_17 
REMARK    5  A    between atoms: C10_17  and  C11_18 
REMARK    6  A    between atoms: N4_22  and  C15_23 
REMARK    7  A    between atoms: C15_23  and  O1_24 
REMARK    8  A    between atoms: C15_23  and  C16_26 
REMARK    9  A    between atoms: C16_26  and  C17_27 
ROOT
HETATM    1  C11 UNL     1      28.713   0.619  57.491  1.00  0.00     0.096 C 
HETATM    2  C12 UNL     1      29.809   0.798  58.451  1.00  0.00     0.017 C 
HETATM    3  C13 UNL     1      31.160   0.437  57.848  1.00  0.00     0.021 C 
HETATM    4  C14 UNL     1      31.024  -0.319  56.527  1.00  0.00     0.134 C 
HETATM    5  N4  UNL     1      30.273   0.389  55.544  1.00  0.00    -0.301 N 
HETATM    6  C27 UNL     1      29.123   1.085  56.109  1.00  0.00     0.231 C 
HETATM    7  O2  UNL     1      28.546   1.982  55.490  1.00  0.00    -0.273 OA
ENDROOT
BRANCH   1   8
HETATM    8  C10 UNL     1      27.364   1.076  57.847  1.00  0.00     0.136 C 
BRANCH   8   9
HETATM    9  N3  UNL     1      27.148   2.484  57.961  1.00  0.00    -0.366 N 
ATOM     10  H3  UNL     1      27.847   3.058  57.489  1.00  0.00     0.161 HD
BRANCH   9  11
HETATM   11  C9  UNL     1      26.144   3.208  58.608  1.00  0.00     0.168 C 
HETATM   12  S1  UNL     1      26.187   3.177  60.283  1.00  0.00    -0.041 SA
BRANCH  11  13
HETATM   13  N2  UNL     1      25.114   3.990  58.046  1.00  0.00    -0.361 N 
ATOM     14  H2  UNL     1      25.256   4.989  57.897  1.00  0.00     0.162 HD
BRANCH  13  15
HETATM   15  C8  UNL     1      23.842   3.366  57.675  1.00  0.00     0.105 C 
HETATM   16  C2  UNL     1      23.604   3.614  56.189  1.00  0.00     0.095 C 
HETATM   17  C1  UNL     1      24.649   3.052  55.298  1.00  0.00     0.034 C 
HETATM   18  N1  UNL     1      22.249   3.381  55.810  1.00  0.00    -0.415 N 
HETATM   19  C3  UNL     1      21.852   2.041  55.574  1.00  0.00     0.114 C 
ATOM     20  H1  UNL     1      21.589   4.152  55.712  1.00  0.00     0.153 HD
HETATM   21  C4  UNL     1      20.988   1.470  56.687  1.00  0.00     0.019 C 
HETATM   22  C5  UNL     1      21.827   0.565  57.558  1.00  0.00     0.002 C 
HETATM   23  C6  UNL     1      22.536   1.468  58.578  1.00  0.00     0.002 C 
HETATM   24  C7  UNL     1      23.863   1.894  57.983  1.00  0.00     0.027 C 
ENDBRANCH  13  15
ENDBRANCH  11  13
ENDBRANCH   9  11
ENDBRANCH   8   9
ENDBRANCH   1   8
BRANCH   5  25
HETATM   25  C15 UNL     1      30.546   0.429  54.182  1.00  0.00     0.129 C 
BRANCH  25  26
HETATM   26  O1  UNL     1      31.225   1.493  53.849  1.00  0.00    -0.349 OA
ATOM     27  H1  UNL     1      30.781   2.008  53.185  1.00  0.00     0.219 HD
ENDBRANCH  25  26
BRANCH  25  28
HETATM   28  C16 UNL     1      30.228  -0.461  53.068  1.00  0.00     0.029 C 
HETATM   29  C23 UNL     1      31.329  -1.380  52.675  1.00  0.00     0.018 C 
HETATM   30  C24 UNL     1      30.757  -2.778  52.533  1.00  0.00     0.001 C 
HETATM   31  C25 UNL     1      29.424  -2.770  53.234  1.00  0.00     0.001 C 
HETATM   32  C26 UNL     1      29.076  -1.360  53.542  1.00  0.00     0.018 C 
BRANCH  28  33
HETATM   33  C17 UNL     1      29.688   0.296  51.855  1.00  0.00     0.002 C 
HETATM   34  C18 UNL     1      28.292   0.862  52.192  1.00  0.00     0.006 C 
HETATM   35  C19 UNL     1      27.927   1.849  51.065  1.00  0.00     0.000 C 
HETATM   36  C20 UNL     1      27.618   0.930  49.880  1.00  0.00     0.000 C 
HETATM   37  C21 UNL     1      28.918   0.304  49.509  1.00  0.00     0.000 C 
HETATM   38  C22 UNL     1      29.512  -0.560  50.628  1.00  0.00     0.006 C 
ENDBRANCH  28  33
ENDBRANCH  25  28
ENDBRANCH   5  25
TORSDOF 9
ENDMDL
MODEL 2
REMARK VINA RESULT: -7.861707892      1.690      3.050
REMARK  9 active torsions:
REMARK  status: ('A' for Active; 'I' for Inactive)
REMARK    1  A    between atoms: C8_10  and  N2_11 
REMARK    2  A    between atoms: N2_11  and  C9_13 
REMARK    3  A    between atoms: C9_13  and  N3_15 
REMARK    4  A    between atoms: N3_15  and  C10_17 
REMARK    5  A    between atoms: C10_17  and  C11_18 
REMARK    6  A    between atoms: N4_22  and  C15_23 
REMARK    7  A    between atoms: C15_23  and  O1_24 
REMARK    8  A    between atoms: C15_23  and  C16_26 
REMARK    9  A    between atoms: C16_26  and  C17_27 
ROOT
HETATM    1  C11 UNL     1      28.557   3.045  57.005  1.00  0.00     0.096 C 
HETATM    2  C12 UNL     1      28.119   4.345  56.481  1.00  0.00     0.017 C 
HETATM    3  C13 UNL     1      28.231   4.414  54.964  1.00  0.00     0.021 C 
HETATM    4  C14 UNL     1      29.059   3.265  54.389  1.00  0.00     0.134 C 
HETATM    5  N4  UNL     1      28.561   1.977  54.739  1.00  0.00    -0.301 N 
HETATM    6  C27 UNL     1      28.082   1.915  56.114  1.00  0.00     0.231 C 
HETATM    7  O2  UNL     1      27.347   1.003  56.500  1.00  0.00    -0.273 OA
ENDROOT
BRANCH   1   8
HETATM    8  C10 UNL     1      28.360   2.742  58.429  1.00  0.00     0.136 C 
BRANCH   8   9
HETATM    9  N3  UNL     1      27.030   2.468  58.872  1.00  0.00    -0.366 N 
ATOM     10  H3  UNL     1      26.846   1.486  59.074  1.00  0.00     0.161 HD
BRANCH   9  11
HETATM   11  C9  UNL     1      25.939   3.317  59.076  1.00  0.00     0.168 C 
HETATM   12  S1  UNL     1      25.580   3.672  60.674  1.00  0.00    -0.041 SA
BRANCH  11  13
HETATM   13  N2  UNL     1      25.115   3.944  58.119  1.00  0.00    -0.361 N 
ATOM     14  H2  UNL     1      25.406   4.825  57.694  1.00  0.00     0.162 HD
BRANCH  13  15
HETATM   15  C8  UNL     1      23.841   3.330  57.737  1.00  0.00     0.105 C 
HETATM   16  C2  UNL     1      23.590   3.633  56.263  1.00  0.00     0.095 C 
HETATM   17  C1  UNL     1      24.629   3.108  55.342  1.00  0.00     0.034 C 
HETATM   18  N1  UNL     1      22.233   3.410  55.887  1.00  0.00    -0.415 N 
HETATM   19  C3  UNL     1      21.838   2.078  55.604  1.00  0.00     0.114 C 
ATOM     20  H1  UNL     1      21.569   4.182  55.823  1.00  0.00     0.153 HD
HETATM   21  C4  UNL     1      20.985   1.463  56.702  1.00  0.00     0.019 C 
HETATM   22  C5  UNL     1      21.835   0.528  57.531  1.00  0.00     0.002 C 
HETATM   23  C6  UNL     1      22.550   1.395  58.578  1.00  0.00     0.002 C 
HETATM   24  C7  UNL     1      23.870   1.848  57.988  1.00  0.00     0.027 C 
ENDBRANCH  13  15
ENDBRANCH  11  13
ENDBRANCH   9  11
ENDBRANCH   8   9
ENDBRANCH   1   8
BRANCH   5  25
HETATM   25  C15 UNL     1      28.530   0.861  53.911  1.00  0.00     0.129 C 
BRANCH  25  26
HETATM   26  O1  UNL     1      27.337   0.643  53.427  1.00  0.00    -0.349 OA
ATOM     27  H1  UNL     1      26.915  -0.101  53.840  1.00  0.00     0.219 HD
ENDBRANCH  25  26
BRANCH  25  28
HETATM   28  C16 UNL     1      29.544  -0.100  53.484  1.00  0.00     0.029 C 
HETATM   29  C23 UNL     1      29.213  -1.520  53.774  1.00  0.00     0.018 C 
HETATM   30  C24 UNL     1      29.475  -2.337  52.522  1.00  0.00     0.001 C 
HETATM   31  C25 UNL     1      29.564  -1.357  51.381  1.00  0.00     0.001 C 
HETATM   32  C26 UNL     1      29.634   0.010  51.955  1.00  0.00     0.018 C 
BRANCH  28  33
HETATM   33  C17 UNL     1      30.936   0.255  54.006  1.00  0.00     0.002 C 
HETATM   34  C18 UNL     1      31.862   0.561  52.810  1.00  0.00     0.006 C 
HETATM   35  C19 UNL     1      33.145   1.191  53.389  1.00  0.00     0.000 C 
HETATM   36  C20 UNL     1      33.856   0.002  54.042  1.00  0.00     0.000 C 
HETATM   37  C21 UNL     1      33.001  -0.390  55.198  1.00  0.00     0.000 C 
HETATM   38  C22 UNL     1      31.600  -0.855  54.781  1.00  0.00     0.006 C 
ENDBRANCH  28  33
ENDBRANCH  25  28
ENDBRANCH   5  25
TORSDOF 9
ENDMDL
MODEL 3
REMARK VINA RESULT: -7.803847258      1.587      2.049
REMARK  9 active torsions:
REMARK  status: ('A' for Active; 'I' for Inactive)
REMARK    1  A    between atoms: C8_10  and  N2_11 
REMARK    2  A    between atoms: N2_11  and  C9_13 
REMARK    3  A    between atoms: C9_13  and  N3_15 
REMARK    4  A    between atoms: N3_15  and  C10_17 
REMARK    5  A    between atoms: C10_17  and  C11_18 
REMARK    6  A    between atoms: N4_22  and  C15_23 
REMARK    7  A    between atoms: C15_23  and  O1_24 
REMARK    8  A    between atoms: C15_23  and  C16_26 
REMARK    9  A    between atoms: C16_26  and  C17_27 
ROOT
HETATM    1  C11 UNL     1      29.672   0.975  56.755  1.00  0.00     0.096 C 
HETATM    2  C12 UNL     1      30.750   0.831  57.742  1.00  0.00     0.017 C 
HETATM    3  C13 UNL     1      31.873  -0.062  57.233  1.00  0.00     0.021 C 
HETATM    4  C14 UNL     1      31.473  -0.842  55.981  1.00  0.00     0.134 C 
HETATM    5  N4  UNL     1      31.045  -0.009  54.906  1.00  0.00    -0.301 N 
HETATM    6  C27 UNL     1      30.235   1.116  55.356  1.00  0.00     0.231 C 
HETATM    7  O2  UNL     1      30.036   2.096  54.635  1.00  0.00    -0.273 OA
ENDROOT
BRANCH   1   8
HETATM    8  C10 UNL     1      28.588   1.933  57.011  1.00  0.00     0.136 C 
BRANCH   8   9
HETATM    9  N3  UNL     1      27.506   1.975  56.079  1.00  0.00    -0.366 N 
ATOM     10  H3  UNL     1      27.326   1.093  55.600  1.00  0.00     0.161 HD
BRANCH   9  11
HETATM   11  C9  UNL     1      26.653   3.020  55.713  1.00  0.00     0.168 C 
HETATM   12  S1  UNL     1      27.068   3.844  54.314  1.00  0.00    -0.041 SA
BRANCH  11  13
HETATM   13  N2  UNL     1      25.469   3.456  56.341  1.00  0.00    -0.361 N 
ATOM     14  H2  UNL     1      25.369   4.432  56.621  1.00  0.00     0.162 HD
BRANCH  13  15
HETATM   15  C8  UNL     1      24.381   2.507  56.590  1.00  0.00     0.105 C 
HETATM   16  C2  UNL     1      24.487   2.029  58.034  1.00  0.00     0.095 C 
HETATM   17  C1  UNL     1      24.374   3.107  59.048  1.00  0.00     0.034 C 
HETATM   18  N1  UNL     1      23.725   0.847  58.272  1.00  0.00    -0.415 N 
HETATM   19  C3  UNL     1      22.334   0.996  58.501  1.00  0.00     0.114 C 
ATOM     20  H1  UNL     1      24.165  -0.072  58.277  1.00  0.00     0.153 HD
HETATM   21  C4  UNL     1      21.484   0.559  57.319  1.00  0.00     0.019 C 
HETATM   22  C5  UNL     1      21.006   1.781  56.569  1.00  0.00     0.002 C 
HETATM   23  C6  UNL     1      22.135   2.176  55.606  1.00  0.00     0.002 C 
HETATM   24  C7  UNL     1      23.046   3.149  56.328  1.00  0.00     0.027 C 
ENDBRANCH  13  15
ENDBRANCH  11  13
ENDBRANCH   9  11
ENDBRANCH   8   9
ENDBRANCH   1   8
BRANCH   5  25
HETATM   25  C15 UNL     1      31.322  -0.209  53.559  1.00  0.00     0.129 C 
BRANCH  25  26
HETATM   26  O1  UNL     1      32.462   0.324  53.208  1.00  0.00    -0.349 OA
ATOM     27  H1  UNL     1      32.954  -0.240  52.623  1.00  0.00     0.219 HD
ENDBRANCH  25  26
BRANCH  25  28
HETATM   28  C16 UNL     1      30.606  -0.879  52.477  1.00  0.00     0.029 C 
HETATM   29  C23 UNL     1      31.412  -1.877  51.725  1.00  0.00     0.018 C 
HETATM   30  C24 UNL     1      30.593  -3.147  51.589  1.00  0.00     0.001 C 
HETATM   31  C25 UNL     1      29.482  -3.052  52.601  1.00  0.00     0.001 C 
HETATM   32  C26 UNL     1      29.462  -1.666  53.131  1.00  0.00     0.018 C 
BRANCH  28  33
HETATM   33  C17 UNL     1      29.935   0.111  51.524  1.00  0.00     0.002 C 
HETATM   34  C18 UNL     1      28.534   0.466  52.067  1.00  0.00     0.006 C 
HETATM   35  C19 UNL     1      28.030   1.670  51.247  1.00  0.00     0.000 C 
HETATM   36  C20 UNL     1      27.694   1.052  49.887  1.00  0.00     0.000 C 
HETATM   37  C21 UNL     1      29.000   0.640  49.301  1.00  0.00     0.000 C 
HETATM   38  C22 UNL     1      29.725  -0.426  50.132  1.00  0.00     0.006 C 
ENDBRANCH  28  33
ENDBRANCH  25  28
ENDBRANCH   5  25
TORSDOF 9
ENDMDL
MODEL 4
REMARK VINA RESULT: -7.702818755      1.101      1.392
REMARK  9 active torsions:
REMARK  status: ('A' for Active; 'I' for Inactive)
REMARK    1  A    between atoms: C8_10  and  N2_11 
REMARK    2  A    between atoms: N2_11  and  C9_13 
REMARK    3  A    between atoms: C9_13  and  N3_15 
REMARK    4  A    between atoms: N3_15  and  C10_17 
REMARK    5  A    between atoms: C10_17  and  C11_18 
REMARK    6  A    between atoms: N4_22  and  C15_23 
REMARK    7  A    between atoms: C15_23  and  O1_24 
REMARK    8  A    between atoms: C15_23  and  C16_26 
REMARK    9  A    between atoms: C16_26  and  C17_27 
ROOT
HETATM    1  C11 UNL     1      29.794   0.023  57.719  1.00  0.00     0.096 C 
HETATM    2  C12 UNL     1      31.077   0.147  58.423  1.00  0.00     0.017 C 
HETATM    3  C13 UNL     1      32.260  -0.099  57.497  1.00  0.00     0.021 C 
HETATM    4  C14 UNL     1      31.839  -0.723  56.167  1.00  0.00     0.134 C 
HETATM    5  N4  UNL     1      30.873   0.051  55.459  1.00  0.00    -0.301 N 
HETATM    6  C27 UNL     1      29.873   0.642  56.338  1.00  0.00     0.231 C 
HETATM    7  O2  UNL     1      29.157   1.574  55.965  1.00  0.00    -0.273 OA
ENDROOT
BRANCH   1   8
HETATM    8  C10 UNL     1      28.555   0.391  58.416  1.00  0.00     0.136 C 
BRANCH   8   9
HETATM    9  N3  UNL     1      28.541   1.620  59.144  1.00  0.00    -0.366 N 
ATOM     10  H3  UNL     1      29.232   1.676  59.892  1.00  0.00     0.161 HD
BRANCH   9  11
HETATM   11  C9  UNL     1      27.743   2.758  59.005  1.00  0.00     0.168 C 
HETATM   12  S1  UNL     1      27.209   3.453  60.434  1.00  0.00    -0.041 SA
BRANCH  11  13
HETATM   13  N2  UNL     1      27.349   3.425  57.827  1.00  0.00    -0.361 N 
ATOM     14  H2  UNL     1      28.050   3.859  57.228  1.00  0.00     0.162 HD
BRANCH  13  15
HETATM   15  C8  UNL     1      25.931   3.492  57.465  1.00  0.00     0.105 C 
HETATM   16  C2  UNL     1      25.809   4.277  56.162  1.00  0.00     0.095 C 
HETATM   17  C1  UNL     1      26.531   3.675  55.013  1.00  0.00     0.034 C 
HETATM   18  N1  UNL     1      24.475   4.717  55.917  1.00  0.00    -0.415 N 
HETATM   19  C3  UNL     1      23.566   3.785  55.356  1.00  0.00     0.114 C 
ATOM     20  H1  UNL     1      24.185   5.669  56.138  1.00  0.00     0.153 HD
HETATM   21  C4  UNL     1      22.548   3.265  56.358  1.00  0.00     0.019 C 
HETATM   22  C5  UNL     1      22.951   1.879  56.806  1.00  0.00     0.002 C 
HETATM   23  C6  UNL     1      23.970   2.061  57.940  1.00  0.00     0.002 C 
HETATM   24  C7  UNL     1      25.353   2.111  57.323  1.00  0.00     0.027 C 
ENDBRANCH  13  15
ENDBRANCH  11  13
ENDBRANCH   9  11
ENDBRANCH   8   9
ENDBRANCH   1   8
BRANCH   5  25
HETATM   25  C15 UNL     1      30.829   0.239  54.082  1.00  0.00     0.129 C 
BRANCH  25  26
HETATM   26  O1  UNL     1      31.319   1.396  53.729  1.00  0.00    -0.349 OA
ATOM     27  H1  UNL     1      30.645   2.062  53.657  1.00  0.00     0.219 HD
ENDBRANCH  25  26
BRANCH  25  28
HETATM   28  C16 UNL     1      30.350  -0.581  52.973  1.00  0.00     0.029 C 
HETATM   29  C23 UNL     1      31.355  -1.528  52.423  1.00  0.00     0.018 C 
HETATM   30  C24 UNL     1      30.703  -2.891  52.284  1.00  0.00     0.001 C 
HETATM   31  C25 UNL     1      29.454  -2.857  53.126  1.00  0.00     0.001 C 
HETATM   32  C26 UNL     1      29.213  -1.449  53.531  1.00  0.00     0.018 C 
BRANCH  28  33
HETATM   33  C17 UNL     1      29.722   0.257  51.860  1.00  0.00     0.002 C 
HETATM   34  C18 UNL     1      28.339   0.762  52.325  1.00  0.00     0.006 C 
HETATM   35  C19 UNL     1      27.887   1.827  51.306  1.00  0.00     0.000 C 
HETATM   36  C20 UNL     1      27.521   0.998  50.071  1.00  0.00     0.000 C 
HETATM   37  C21 UNL     1      28.807   0.434  49.573  1.00  0.00     0.000 C 
HETATM   38  C22 UNL     1      29.485  -0.503  50.580  1.00  0.00     0.006 C 
ENDBRANCH  28  33
ENDBRANCH  25  28
ENDBRANCH   5  25
TORSDOF 9
ENDMDL
MODEL 5
REMARK VINA RESULT: -7.662050884      1.480      2.396
REMARK  9 active torsions:
REMARK  status: ('A' for Active; 'I' for Inactive)
REMARK    1  A    between atoms: C8_10  and  N2_11 
REMARK    2  A    between atoms: N2_11  and  C9_13 
REMARK    3  A    between atoms: C9_13  and  N3_15 
REMARK    4  A    between atoms: N3_15  and  C10_17 
REMARK    5  A    between atoms: C10_17  and  C11_18 
REMARK    6  A    between atoms: N4_22  and  C15_23 
REMARK    7  A    between atoms: C15_23  and  O1_24 
REMARK    8  A    between atoms: C15_23  and  C16_26 
REMARK    9  A    between atoms: C16_26  and  C17_27 
ROOT
HETATM    1  C11 UNL     1      29.456   1.653  59.430  1.00  0.00     0.096 C 
HETATM    2  C12 UNL     1      30.837   1.617  59.927  1.00  0.00     0.017 C 
HETATM    3  C13 UNL     1      31.730   0.735  59.065  1.00  0.00     0.021 C 
HETATM    4  C14 UNL     1      30.928  -0.142  58.104  1.00  0.00     0.134 C 
HETATM    5  N4  UNL     1      30.070   0.600  57.241  1.00  0.00    -0.301 N 
HETATM    6  C27 UNL     1      29.428   1.722  57.916  1.00  0.00     0.231 C 
HETATM    7  O2  UNL     1      28.908   2.643  57.283  1.00  0.00    -0.273 OA
ENDROOT
BRANCH   1   8
HETATM    8  C10 UNL     1      28.497   2.584  60.039  1.00  0.00     0.136 C 
BRANCH   8   9
HETATM    9  N3  UNL     1      27.125   2.467  59.661  1.00  0.00    -0.366 N 
ATOM     10  H3  UNL     1      26.827   1.517  59.440  1.00  0.00     0.161 HD
BRANCH   9  11
HETATM   11  C9  UNL     1      26.121   3.432  59.544  1.00  0.00     0.168 C 
HETATM   12  S1  UNL     1      25.492   4.009  60.986  1.00  0.00    -0.041 SA
BRANCH  11  13
HETATM   13  N2  UNL     1      25.585   4.013  58.377  1.00  0.00    -0.361 N 
ATOM     14  H2  UNL     1      26.084   4.767  57.906  1.00  0.00     0.162 HD
BRANCH  13  15
HETATM   15  C8  UNL     1      24.308   3.532  57.841  1.00  0.00     0.105 C 
HETATM   16  C2  UNL     1      24.271   3.843  56.349  1.00  0.00     0.095 C 
HETATM   17  C1  UNL     1      25.353   3.200  55.560  1.00  0.00     0.034 C 
HETATM   18  N1  UNL     1      22.953   3.759  55.810  1.00  0.00    -0.415 N 
HETATM   19  C3  UNL     1      22.457   2.474  55.480  1.00  0.00     0.114 C 
ATOM     20  H1  UNL     1      22.389   4.596  55.666  1.00  0.00     0.153 HD
HETATM   21  C4  UNL     1      21.416   1.965  56.464  1.00  0.00     0.019 C 
HETATM   22  C5  UNL     1      22.056   0.956  57.390  1.00  0.00     0.002 C 
HETATM   23  C6  UNL     1      22.726   1.755  58.517  1.00  0.00     0.002 C 
HETATM   24  C7  UNL     1      24.149   2.058  58.093  1.00  0.00     0.027 C 
ENDBRANCH  13  15
ENDBRANCH  11  13
ENDBRANCH   9  11
ENDBRANCH   8   9
ENDBRANCH   1   8
BRANCH   5  25
HETATM   25  C15 UNL     1      29.819   0.321  55.903  1.00  0.00     0.129 C 
BRANCH  25  26
HETATM   26  O1  UNL     1      28.543   0.359  55.625  1.00  0.00    -0.349 OA
ATOM     27  H1  UNL     1      28.344  -0.076  54.804  1.00  0.00     0.219 HD
ENDBRANCH  25  26
BRANCH  25  28
HETATM   28  C16 UNL     1      30.678  -0.004  54.768  1.00  0.00     0.029 C 
HETATM   29  C23 UNL     1      31.427   1.152  54.207  1.00  0.00     0.018 C 
HETATM   30  C24 UNL     1      32.877   0.740  54.026  1.00  0.00     0.001 C 
HETATM   31  C25 UNL     1      33.075  -0.504  54.853  1.00  0.00     0.001 C 
HETATM   32  C26 UNL     1      31.740  -0.983  55.289  1.00  0.00     0.018 C 
BRANCH  28  33
HETATM   33  C17 UNL     1      29.928  -0.755  53.668  1.00  0.00     0.002 C 
HETATM   34  C18 UNL     1      30.463  -2.201  53.587  1.00  0.00     0.006 C 
HETATM   35  C19 UNL     1      29.490  -2.987  52.686  1.00  0.00     0.000 C 
HETATM   36  C20 UNL     1      29.802  -2.456  51.285  1.00  0.00     0.000 C 
HETATM   37  C21 UNL     1      29.349  -1.037  51.284  1.00  0.00     0.000 C 
HETATM   38  C22 UNL     1      30.103  -0.163  52.293  1.00  0.00     0.006 C 
ENDBRANCH  28  33
ENDBRANCH  25  28
ENDBRANCH   5  25
TORSDOF 9
ENDMDL
