MODEL 1
REMARK VINA RESULT: -6.995978127      0.000      0.000
REMARK  5 active torsions:
REMARK  status: ('A' for Active; 'I' for Inactive)
REMARK    1  A    between atoms: C2_2  and  C4_4 
REMARK    2  A    between atoms: C4_4  and  C5_5 
REMARK    3  A    between atoms: C5_5  and  N1_6 
REMARK    4  A    between atoms: C5_5  and  C7_11 
REMARK       I    between atoms: C7_11  and  N4_13 
REMARK    5  A    between atoms: N4_13  and  C8_15 
ROOT
HETATM    1  C8  UNL     1      26.329   3.692  58.766  1.00  0.00     0.093 C 
HETATM    2  C9  UNL     1      27.231   4.886  59.063  1.00  0.00     0.026 C 
HETATM    3  C10 UNL     1      28.651   4.443  58.669  1.00  0.00     0.008 C 
HETATM    4  C11 UNL     1      28.402   3.207  57.809  1.00  0.00     0.003 C 
HETATM    5  C12 UNL     1      29.600   2.326  57.646  1.00  0.00     0.034 C 
HETATM    6  C13 UNL     1      29.334   0.845  57.542  1.00  0.00    -0.032 C 
HETATM    7  C14 UNL     1      28.916   0.401  56.157  1.00  0.00     0.010 C 
HETATM    8  C15 UNL     1      29.545   1.122  55.045  1.00  0.00     0.008 C 
HETATM    9  C16 UNL     1      30.767   1.917  55.422  1.00  0.00     0.021 C 
HETATM   10  C17 UNL     1      32.014   1.094  55.384  1.00  0.00     0.009 C 
HETATM   11  C18 UNL     1      32.009  -0.163  56.197  1.00  0.00     0.020 C 
HETATM   12  C19 UNL     1      31.800   0.135  57.677  1.00  0.00     0.045 C 
HETATM   13  C20 UNL     1      32.681  -0.762  58.522  1.00  0.00     0.026 C 
HETATM   14  C21 UNL     1      30.426  -0.013  58.135  1.00  0.00     0.029 C 
HETATM   15  C22 UNL     1      32.356   1.524  57.835  1.00  0.00     0.268 C 
HETATM   16  O2  UNL     1      33.367   1.683  58.564  1.00  0.00    -0.264 OA
HETATM   17  O3  UNL     1      31.900   2.706  57.272  1.00  0.00    -0.309 OA
HETATM   18  C23 UNL     1      30.594   2.782  56.641  1.00  0.00     0.075 C 
HETATM   19  C24 UNL     1      30.484   4.224  56.209  1.00  0.00     0.047 C 
HETATM   20  C25 UNL     1      28.128   0.407  58.390  1.00  0.00     0.011 C 
HETATM   21  C26 UNL     1      26.938   1.292  58.232  1.00  0.00     0.012 C 
HETATM   22  C27 UNL     1      27.361   2.602  58.732  1.00  0.00    -0.019 C 
HETATM   23  C28 UNL     1      27.848   2.450  60.156  1.00  0.00     0.018 C 
ENDROOT
BRANCH   1  24
HETATM   24  N4  UNL     1      25.563   3.859  57.591  1.00  0.00    -0.354 N 
HETATM   25  C7  UNL     1      24.210   3.458  57.556  1.00  0.00     0.240 C 
HETATM   26  O1  UNL     1      23.667   2.942  58.584  1.00  0.00    -0.271 OA
ATOM     27  H4  UNL     1      25.991   4.272  56.762  1.00  0.00     0.162 HD
BRANCH  25  28
HETATM   28  C5  UNL     1      23.370   3.622  56.321  1.00  0.00     0.176 C 
BRANCH  28  29
HETATM   29  C4  UNL     1      21.990   3.054  56.570  1.00  0.00     0.038 C 
BRANCH  29  30
HETATM   30  C2  UNL     1      21.788   1.705  55.958  1.00  0.00    -0.020 C 
HETATM   31  C1  UNL     1      20.702   1.648  54.924  1.00  0.00     0.009 C 
HETATM   32  C3  UNL     1      21.375   0.755  57.083  1.00  0.00     0.009 C 
ENDBRANCH  29  30
ENDBRANCH  28  29
BRANCH  28  33
HETATM   33  N1  UNL     1      23.351   5.001  55.894  1.00  0.00    -0.354 N 
HETATM   34  C6  UNL     1      24.139   5.387  54.949  1.00  0.00     0.197 C 
HETATM   35  N2  UNL     1      24.176   6.725  54.477  1.00  0.00    -0.067 NA
HETATM   36  N3  UNL     1      25.023   4.461  54.328  1.00  0.00    -0.067 NA
ATOM     37  H1  UNL     1      22.718   5.667  56.338  1.00  0.00     0.162 HD
ENDBRANCH  28  33
ENDBRANCH  25  28
ENDBRANCH   1  24
TORSDOF 5
ENDMDL
MODEL 2
REMARK VINA RESULT: -6.871504234      2.904      4.025
REMARK  5 active torsions:
REMARK  status: ('A' for Active; 'I' for Inactive)
REMARK    1  A    between atoms: C2_2  and  C4_4 
REMARK    2  A    between atoms: C4_4  and  C5_5 
REMARK    3  A    between atoms: C5_5  and  N1_6 
REMARK    4  A    between atoms: C5_5  and  C7_11 
REMARK       I    between atoms: C7_11  and  N4_13 
REMARK    5  A    between atoms: N4_13  and  C8_15 
ROOT
HETATM    1  C8  UNL     1      27.666   2.338  56.336  1.00  0.00     0.093 C 
HETATM    2  C9  UNL     1      28.622   3.512  56.514  1.00  0.00     0.026 C 
HETATM    3  C10 UNL     1      29.600   3.436  55.327  1.00  0.00     0.008 C 
HETATM    4  C11 UNL     1      28.893   2.492  54.358  1.00  0.00     0.003 C 
HETATM    5  C12 UNL     1      29.793   1.899  53.319  1.00  0.00     0.034 C 
HETATM    6  C13 UNL     1      29.468   0.495  52.874  1.00  0.00    -0.032 C 
HETATM    7  C14 UNL     1      28.362   0.429  51.842  1.00  0.00     0.010 C 
HETATM    8  C15 UNL     1      28.323   1.539  50.884  1.00  0.00     0.008 C 
HETATM    9  C16 UNL     1      29.581   2.365  50.827  1.00  0.00     0.021 C 
HETATM   10  C17 UNL     1      30.590   1.796  49.882  1.00  0.00     0.009 C 
HETATM   11  C18 UNL     1      30.982   0.368  50.103  1.00  0.00     0.020 C 
HETATM   12  C19 UNL     1      31.603   0.172  51.482  1.00  0.00     0.045 C 
HETATM   13  C20 UNL     1      32.772  -0.789  51.398  1.00  0.00     0.026 C 
HETATM   14  C21 UNL     1      30.682  -0.320  52.496  1.00  0.00     0.029 C 
HETATM   15  C22 UNL     1      32.199   1.518  51.791  1.00  0.00     0.268 C 
HETATM   16  O2  UNL     1      33.448   1.606  51.904  1.00  0.00    -0.264 OA
HETATM   17  O3  UNL     1      31.549   2.728  51.977  1.00  0.00    -0.309 OA
HETATM   18  C23 UNL     1      30.111   2.785  52.171  1.00  0.00     0.075 C 
HETATM   19  C24 UNL     1      29.831   4.255  52.371  1.00  0.00     0.047 C 
HETATM   20  C25 UNL     1      28.887  -0.360  54.013  1.00  0.00     0.011 C 
HETATM   21  C26 UNL     1      27.824   0.335  54.794  1.00  0.00     0.012 C 
HETATM   22  C27 UNL     1      28.487   1.483  55.415  1.00  0.00    -0.019 C 
HETATM   23  C28 UNL     1      29.654   0.988  56.241  1.00  0.00     0.018 C 
ENDROOT
BRANCH   1  24
HETATM   24  N4  UNL     1      26.397   2.728  55.855  1.00  0.00    -0.354 N 
HETATM   25  C7  UNL     1      25.295   2.819  56.733  1.00  0.00     0.240 C 
HETATM   26  O1  UNL     1      25.435   2.549  57.968  1.00  0.00    -0.271 OA
ATOM     27  H4  UNL     1      26.275   2.946  54.866  1.00  0.00     0.162 HD
BRANCH  25  28
HETATM   28  C5  UNL     1      23.933   3.231  56.250  1.00  0.00     0.176 C 
BRANCH  28  29
HETATM   29  C4  UNL     1      22.875   2.630  57.150  1.00  0.00     0.038 C 
BRANCH  29  30
HETATM   30  C2  UNL     1      22.044   1.589  56.471  1.00  0.00    -0.020 C 
HETATM   31  C1  UNL     1      20.998   2.137  55.545  1.00  0.00     0.009 C 
HETATM   32  C3  UNL     1      21.303   0.818  57.564  1.00  0.00     0.009 C 
ENDBRANCH  29  30
ENDBRANCH  28  29
BRANCH  28  33
HETATM   33  N1  UNL     1      23.841   4.667  56.141  1.00  0.00    -0.354 N 
HETATM   34  C6  UNL     1      24.093   5.239  55.013  1.00  0.00     0.197 C 
HETATM   35  N2  UNL     1      24.023   6.645  54.831  1.00  0.00    -0.067 NA
HETATM   36  N3  UNL     1      24.460   4.460  53.880  1.00  0.00    -0.067 NA
ATOM     37  H1  UNL     1      23.578   5.227  56.953  1.00  0.00     0.162 HD
ENDBRANCH  28  33
ENDBRANCH  25  28
ENDBRANCH   1  24
TORSDOF 5
ENDMDL
MODEL 3
REMARK VINA RESULT: -6.828433126      1.642      2.100
REMARK  5 active torsions:
REMARK  status: ('A' for Active; 'I' for Inactive)
REMARK    1  A    between atoms: C2_2  and  C4_4 
REMARK    2  A    between atoms: C4_4  and  C5_5 
REMARK    3  A    between atoms: C5_5  and  N1_6 
REMARK    4  A    between atoms: C5_5  and  C7_11 
REMARK       I    between atoms: C7_11  and  N4_13 
REMARK    5  A    between atoms: N4_13  and  C8_15 
ROOT
HETATM    1  C8  UNL     1      27.289   4.049  57.421  1.00  0.00     0.093 C 
HETATM    2  C9  UNL     1      28.263   5.197  57.179  1.00  0.00     0.026 C 
HETATM    3  C10 UNL     1      29.403   4.604  56.331  1.00  0.00     0.008 C 
HETATM    4  C11 UNL     1      28.806   3.298  55.815  1.00  0.00     0.003 C 
HETATM    5  C12 UNL     1      29.822   2.315  55.325  1.00  0.00     0.034 C 
HETATM    6  C13 UNL     1      29.501   0.857  55.538  1.00  0.00    -0.032 C 
HETATM    7  C14 UNL     1      28.561   0.286  54.498  1.00  0.00     0.010 C 
HETATM    8  C15 UNL     1      28.719   0.820  53.141  1.00  0.00     0.008 C 
HETATM    9  C16 UNL     1      30.010   1.559  52.902  1.00  0.00     0.021 C 
HETATM   10  C17 UNL     1      31.121   0.644  52.499  1.00  0.00     0.009 C 
HETATM   11  C18 UNL     1      31.406  -0.505  53.416  1.00  0.00     0.020 C 
HETATM   12  C19 UNL     1      31.803  -0.018  54.806  1.00  0.00     0.045 C 
HETATM   13  C20 UNL     1      32.924  -0.874  55.360  1.00  0.00     0.026 C 
HETATM   14  C21 UNL     1      30.717  -0.006  55.775  1.00  0.00     0.029 C 
HETATM   15  C22 UNL     1      32.410   1.333  54.543  1.00  0.00     0.268 C 
HETATM   16  O2  UNL     1      33.630   1.499  54.794  1.00  0.00    -0.264 OA
HETATM   17  O3  UNL     1      31.798   2.472  54.042  1.00  0.00    -0.309 OA
HETATM   18  C23 UNL     1      30.351   2.572  53.961  1.00  0.00     0.075 C 
HETATM   19  C24 UNL     1      30.115   3.958  53.410  1.00  0.00     0.047 C 
HETATM   20  C25 UNL     1      28.715   0.615  56.838  1.00  0.00     0.011 C 
HETATM   21  C26 UNL     1      27.581   1.563  57.031  1.00  0.00     0.012 C 
HETATM   22  C27 UNL     1      28.198   2.887  57.143  1.00  0.00    -0.019 C 
HETATM   23  C28 UNL     1      29.202   2.867  58.274  1.00  0.00     0.018 C 
ENDROOT
BRANCH   1  24
HETATM   24  N4  UNL     1      26.127   4.134  56.623  1.00  0.00    -0.354 N 
HETATM   25  C7  UNL     1      24.873   3.745  57.141  1.00  0.00     0.240 C 
HETATM   26  O1  UNL     1      24.777   3.313  58.333  1.00  0.00    -0.271 OA
ATOM     27  H4  UNL     1      26.194   4.480  55.665  1.00  0.00     0.162 HD
BRANCH  25  28
HETATM   28  C5  UNL     1      23.619   3.824  56.317  1.00  0.00     0.176 C 
BRANCH  28  29
HETATM   29  C4  UNL     1      22.510   3.064  57.010  1.00  0.00     0.038 C 
BRANCH  29  30
HETATM   30  C2  UNL     1      22.177   1.768  56.345  1.00  0.00    -0.020 C 
HETATM   31  C1  UNL     1      21.032   1.842  55.378  1.00  0.00     0.009 C 
HETATM   32  C3  UNL     1      21.761   0.789  57.444  1.00  0.00     0.009 C 
ENDBRANCH  29  30
ENDBRANCH  28  29
BRANCH  28  33
HETATM   33  N1  UNL     1      23.279   5.197  56.031  1.00  0.00    -0.354 N 
HETATM   34  C6  UNL     1      23.719   5.753  54.954  1.00  0.00     0.197 C 
HETATM   35  N2  UNL     1      23.426   7.098  54.607  1.00  0.00    -0.067 NA
HETATM   36  N3  UNL     1      24.534   5.018  54.049  1.00  0.00    -0.067 NA
ATOM     37  H1  UNL     1      22.695   5.726  56.679  1.00  0.00     0.162 HD
ENDBRANCH  28  33
ENDBRANCH  25  28
ENDBRANCH   1  24
TORSDOF 5
ENDMDL
MODEL 4
REMARK VINA RESULT: -6.825082235      2.343      3.620
REMARK  5 active torsions:
REMARK  status: ('A' for Active; 'I' for Inactive)
REMARK    1  A    between atoms: C2_2  and  C4_4 
REMARK    2  A    between atoms: C4_4  and  C5_5 
REMARK    3  A    between atoms: C5_5  and  N1_6 
REMARK    4  A    between atoms: C5_5  and  C7_11 
REMARK       I    between atoms: C7_11  and  N4_13 
REMARK    5  A    between atoms: N4_13  and  C8_15 
ROOT
HETATM    1  C8  UNL     1      28.769   2.190  59.855  1.00  0.00     0.093 C 
HETATM    2  C9  UNL     1      29.310   3.589  60.131  1.00  0.00     0.026 C 
HETATM    3  C10 UNL     1      30.738   3.604  59.555  1.00  0.00     0.008 C 
HETATM    4  C11 UNL     1      30.758   2.377  58.648  1.00  0.00     0.003 C 
HETATM    5  C12 UNL     1      32.132   1.900  58.297  1.00  0.00     0.034 C 
HETATM    6  C13 UNL     1      32.301   0.411  58.125  1.00  0.00    -0.032 C 
HETATM    7  C14 UNL     1      31.863  -0.094  56.767  1.00  0.00     0.010 C 
HETATM    8  C15 UNL     1      32.110   0.816  55.643  1.00  0.00     0.008 C 
HETATM    9  C16 UNL     1      33.082   1.928  55.937  1.00  0.00     0.021 C 
HETATM   10  C17 UNL     1      34.500   1.517  55.708  1.00  0.00     0.009 C 
HETATM   11  C18 UNL     1      34.966   0.291  56.431  1.00  0.00     0.020 C 
HETATM   12  C19 UNL     1      34.863   0.468  57.943  1.00  0.00     0.045 C 
HETATM   13  C20 UNL     1      36.066  -0.150  58.625  1.00  0.00     0.026 C 
HETATM   14  C21 UNL     1      33.661  -0.099  58.537  1.00  0.00     0.029 C 
HETATM   15  C22 UNL     1      35.002   1.954  58.131  1.00  0.00     0.268 C 
HETATM   16  O2  UNL     1      36.005   2.385  58.753  1.00  0.00    -0.264 OA
HETATM   17  O3  UNL     1      34.154   2.963  57.700  1.00  0.00    -0.309 OA
HETATM   18  C23 UNL     1      32.816   2.663  57.222  1.00  0.00     0.075 C 
HETATM   19  C24 UNL     1      32.235   4.020  56.901  1.00  0.00     0.047 C 
HETATM   20  C25 UNL     1      31.391  -0.394  59.068  1.00  0.00     0.011 C 
HETATM   21  C26 UNL     1      29.984   0.100  59.100  1.00  0.00     0.012 C 
HETATM   22  C27 UNL     1      30.062   1.460  59.637  1.00  0.00    -0.019 C 
HETATM   23  C28 UNL     1      30.746   1.417  60.986  1.00  0.00     0.018 C 
ENDROOT
BRANCH   1  24
HETATM   24  N4  UNL     1      27.848   2.156  58.785  1.00  0.00    -0.354 N 
HETATM   25  C7  UNL     1      26.459   2.146  59.035  1.00  0.00     0.240 C 
HETATM   26  O1  UNL     1      26.023   2.166  60.229  1.00  0.00    -0.271 OA
ATOM     27  H4  UNL     1      28.190   2.139  57.823  1.00  0.00     0.162 HD
BRANCH  25  28
HETATM   28  C5  UNL     1      25.455   2.110  57.918  1.00  0.00     0.176 C 
BRANCH  28  29
HETATM   29  C4  UNL     1      26.173   1.911  56.601  1.00  0.00     0.038 C 
BRANCH  29  30
HETATM   30  C2  UNL     1      25.899   2.996  55.610  1.00  0.00    -0.020 C 
HETATM   31  C1  UNL     1      26.993   3.209  54.605  1.00  0.00     0.009 C 
HETATM   32  C3  UNL     1      25.762   4.301  56.394  1.00  0.00     0.009 C 
ENDBRANCH  29  30
ENDBRANCH  28  29
BRANCH  28  33
HETATM   33  N1  UNL     1      24.442   1.114  58.172  1.00  0.00    -0.354 N 
HETATM   34  C6  UNL     1      23.198   1.416  58.019  1.00  0.00     0.197 C 
HETATM   35  N2  UNL     1      22.147   0.490  58.250  1.00  0.00    -0.067 NA
HETATM   36  N3  UNL     1      22.823   2.724  57.604  1.00  0.00    -0.067 NA
ATOM     37  H1  UNL     1      24.708   0.175  58.470  1.00  0.00     0.162 HD
ENDBRANCH  28  33
ENDBRANCH  25  28
ENDBRANCH   1  24
TORSDOF 5
ENDMDL
MODEL 5
REMARK VINA RESULT: -6.814205975      1.673      2.586
REMARK  5 active torsions:
REMARK  status: ('A' for Active; 'I' for Inactive)
REMARK    1  A    between atoms: C2_2  and  C4_4 
REMARK    2  A    between atoms: C4_4  and  C5_5 
REMARK    3  A    between atoms: C5_5  and  N1_6 
REMARK    4  A    between atoms: C5_5  and  C7_11 
REMARK       I    between atoms: C7_11  and  N4_13 
REMARK    5  A    between atoms: N4_13  and  C8_15 
ROOT
HETATM    1  C8  UNL     1      26.940   2.798  58.903  1.00  0.00     0.093 C 
HETATM    2  C9  UNL     1      27.481   4.220  59.005  1.00  0.00     0.026 C 
HETATM    3  C10 UNL     1      28.901   4.168  58.410  1.00  0.00     0.008 C 
HETATM    4  C11 UNL     1      28.910   2.843  57.653  1.00  0.00     0.003 C 
HETATM    5  C12 UNL     1      30.280   2.329  57.340  1.00  0.00     0.034 C 
HETATM    6  C13 UNL     1      30.450   0.831  57.342  1.00  0.00    -0.032 C 
HETATM    7  C14 UNL     1      29.993   0.169  56.059  1.00  0.00     0.010 C 
HETATM    8  C15 UNL     1      30.222   0.941  54.832  1.00  0.00     0.008 C 
HETATM    9  C16 UNL     1      31.196   2.081  54.979  1.00  0.00     0.021 C 
HETATM   10  C17 UNL     1      32.611   1.646  54.779  1.00  0.00     0.009 C 
HETATM   11  C18 UNL     1      33.090   0.515  55.634  1.00  0.00     0.020 C 
HETATM   12  C19 UNL     1      33.009   0.868  57.116  1.00  0.00     0.045 C 
HETATM   13  C20 UNL     1      34.224   0.335  57.848  1.00  0.00     0.026 C 
HETATM   14  C21 UNL     1      31.818   0.374  57.790  1.00  0.00     0.029 C 
HETATM   15  C22 UNL     1      33.148   2.366  57.126  1.00  0.00     0.268 C 
HETATM   16  O2  UNL     1      34.158   2.868  57.678  1.00  0.00    -0.264 OA
HETATM   17  O3  UNL     1      32.290   3.316  56.592  1.00  0.00    -0.309 OA
HETATM   18  C23 UNL     1      30.946   2.961  56.173  1.00  0.00     0.075 C 
HETATM   19  C24 UNL     1      30.357   4.270  55.703  1.00  0.00     0.047 C 
HETATM   20  C25 UNL     1      29.556   0.142  58.387  1.00  0.00     0.011 C 
HETATM   21  C26 UNL     1      28.149   0.634  58.381  1.00  0.00     0.012 C 
HETATM   22  C27 UNL     1      28.232   2.048  58.753  1.00  0.00    -0.019 C 
HETATM   23  C28 UNL     1      28.935   2.164  60.088  1.00  0.00     0.018 C 
ENDROOT
BRANCH   1  24
HETATM   24  N4  UNL     1      26.004   2.638  57.858  1.00  0.00    -0.354 N 
HETATM   25  C7  UNL     1      24.618   2.663  58.128  1.00  0.00     0.240 C 
HETATM   26  O1  UNL     1      24.199   2.830  59.317  1.00  0.00    -0.271 OA
ATOM     27  H4  UNL     1      26.331   2.503  56.901  1.00  0.00     0.162 HD
BRANCH  25  28
HETATM   28  C5  UNL     1      23.598   2.495  57.037  1.00  0.00     0.176 C 
BRANCH  28  29
HETATM   29  C4  UNL     1      24.293   2.488  55.693  1.00  0.00     0.038 C 
BRANCH  29  30
HETATM   30  C2  UNL     1      24.229   3.805  54.989  1.00  0.00    -0.020 C 
HETATM   31  C1  UNL     1      25.567   4.392  54.647  1.00  0.00     0.009 C 
HETATM   32  C3  UNL     1      23.545   4.792  55.936  1.00  0.00     0.009 C 
ENDBRANCH  29  30
ENDBRANCH  28  29
BRANCH  28  33
HETATM   33  N1  UNL     1      22.790   1.322  57.268  1.00  0.00    -0.354 N 
HETATM   34  C6  UNL     1      21.600   1.260  56.775  1.00  0.00     0.197 C 
HETATM   35  N2  UNL     1      20.748   0.139  56.961  1.00  0.00    -0.067 NA
HETATM   36  N3  UNL     1      21.083   2.340  56.008  1.00  0.00    -0.067 NA
ATOM     37  H1  UNL     1      23.158   0.546  57.819  1.00  0.00     0.162 HD
ENDBRANCH  28  33
ENDBRANCH  25  28
ENDBRANCH   1  24
TORSDOF 5
ENDMDL
