MODEL 1
REMARK VINA RESULT: -8.023118153      0.000      0.000
REMARK  6 active torsions:
REMARK  status: ('A' for Active; 'I' for Inactive)
REMARK    1  A    between atoms: O1_2  and  N1_3 
REMARK       I    between atoms: N1_3  and  C3_5 
REMARK    2  A    between atoms: C3_5  and  C4_7 
REMARK    3  A    between atoms: C10_13  and  N2_14 
REMARK       I    between atoms: N2_14  and  C11_16 
REMARK       I    between atoms: C11_16  and  N3_18 
REMARK    4  A    between atoms: N3_18  and  C12_20 
REMARK    5  A    between atoms: C16_24  and  C17_25 
REMARK       I    between atoms: C17_25  and  N4_27 
REMARK    6  A    between atoms: N4_27  and  C18_29 
ROOT
HETATM    1  N2  UNL     1      27.829   0.576  58.540  1.00  0.00    -0.334 N 
ATOM      2  H2  UNL     1      27.513  -0.338  58.867  1.00  0.00     0.165 HD
HETATM    3  C11 UNL     1      29.206   0.832  58.650  1.00  0.00     0.317 C 
HETATM    4  O3  UNL     1      29.671   1.930  58.278  1.00  0.00    -0.247 OA
HETATM    5  N3  UNL     1      30.104  -0.129  59.178  1.00  0.00    -0.338 N 
ATOM      6  H3  UNL     1      29.739  -1.030  59.485  1.00  0.00     0.164 HD
ENDROOT
BRANCH   1   7
HETATM    7  C10 UNL     1      26.820   1.442  58.025  1.00  0.00     0.036 C 
HETATM    8  C9  UNL     1      26.976   2.816  58.590  1.00  0.00     0.035 C 
HETATM    9  C8  UNL     1      25.860   3.758  58.126  1.00  0.00    -0.011 C 
HETATM   10  C7  UNL     1      25.963   3.885  56.644  1.00  0.00     0.009 C 
HETATM   11  C25 UNL     1      24.573   3.105  58.600  1.00  0.00     0.024 C 
HETATM   12  C6  UNL     1      25.854   2.511  56.025  1.00  0.00    -0.011 C 
HETATM   13  C5  UNL     1      24.489   1.987  56.364  1.00  0.00     0.024 C 
HETATM   14  C23 UNL     1      26.902   1.569  56.507  1.00  0.00     0.035 C 
HETATM   15  C4  UNL     1      24.358   1.807  57.870  1.00  0.00     0.046 C 
HETATM   16  C24 UNL     1      25.439   0.843  58.289  1.00  0.00     0.050 C 
BRANCH  15  17
HETATM   17  C3  UNL     1      23.019   1.269  58.127  1.00  0.00     0.251 C 
HETATM   18  N1  UNL     1      21.965   1.302  57.192  1.00  0.00    -0.231 N 
HETATM   19  C2  UNL     1      20.641   0.743  57.505  1.00  0.00     0.189 C 
HETATM   20  O2  UNL     1      22.762   0.735  59.247  1.00  0.00    -0.270 OA
BRANCH  18  21
HETATM   21  O1  UNL     1      22.150   1.854  55.982  1.00  0.00    -0.281 OA
HETATM   22  C1  UNL     1      20.976   1.707  55.215  1.00  0.00     0.238 C 
ENDBRANCH  18  21
ENDBRANCH  15  17
ENDBRANCH   1   7
BRANCH   5  23
HETATM   23  C12 UNL     1      31.512   0.126  59.293  1.00  0.00     0.087 C 
HETATM   24  C13 UNL     1      32.163  -0.393  58.033  1.00  0.00     0.025 C 
HETATM   25  C14 UNL     1      33.607  -0.005  57.993  1.00  0.00     0.003 C 
HETATM   26  C15 UNL     1      34.200   0.096  59.379  1.00  0.00     0.014 C 
HETATM   27  C16 UNL     1      33.495  -0.951  60.234  1.00  0.00     0.080 C 
HETATM   28  C22 UNL     1      32.116  -0.432  60.545  1.00  0.00     0.039 C 
BRANCH  27  29
HETATM   29  C17 UNL     1      34.323  -1.133  61.444  1.00  0.00     0.222 C 
HETATM   30  O4  UNL     1      35.479  -0.660  61.469  1.00  0.00    -0.273 OA
HETATM   31  N4  UNL     1      33.834  -1.829  62.568  1.00  0.00    -0.353 N 
ATOM     32  H4  UNL     1      32.889  -2.212  62.538  1.00  0.00     0.163 HD
BRANCH  31  33
HETATM   33  C18 UNL     1      34.630  -2.016  63.762  1.00  0.00     0.022 C 
HETATM   34  C19 UNL     1      35.153  -0.706  64.306  1.00  0.00     0.037 C 
HETATM   35  C20 UNL     1      33.795  -2.636  64.877  1.00  0.00     0.037 C 
HETATM   36  C21 UNL     1      35.751  -2.960  63.463  1.00  0.00     0.037 C 
ENDBRANCH  31  33
ENDBRANCH  27  29
ENDBRANCH   5  23
TORSDOF 6
ENDMDL
MODEL 2
REMARK VINA RESULT: -7.997094485      5.033      8.021
REMARK  6 active torsions:
REMARK  status: ('A' for Active; 'I' for Inactive)
REMARK    1  A    between atoms: O1_2  and  N1_3 
REMARK       I    between atoms: N1_3  and  C3_5 
REMARK    2  A    between atoms: C3_5  and  C4_7 
REMARK    3  A    between atoms: C10_13  and  N2_14 
REMARK       I    between atoms: N2_14  and  C11_16 
REMARK       I    between atoms: C11_16  and  N3_18 
REMARK    4  A    between atoms: N3_18  and  C12_20 
REMARK    5  A    between atoms: C16_24  and  C17_25 
REMARK       I    between atoms: C17_25  and  N4_27 
REMARK    6  A    between atoms: N4_27  and  C18_29 
ROOT
HETATM    1  N2  UNL     1      28.806   0.751  57.032  1.00  0.00    -0.334 N 
ATOM      2  H2  UNL     1      29.546   0.305  57.576  1.00  0.00     0.165 HD
HETATM    3  C11 UNL     1      28.676   0.327  55.698  1.00  0.00     0.317 C 
HETATM    4  O3  UNL     1      27.798   0.829  54.965  1.00  0.00    -0.247 OA
HETATM    5  N3  UNL     1      29.520  -0.668  55.146  1.00  0.00    -0.338 N 
ATOM      6  H3  UNL     1      30.241  -1.087  55.733  1.00  0.00     0.164 HD
ENDROOT
BRANCH   1   7
HETATM    7  C10 UNL     1      28.026   1.729  57.716  1.00  0.00     0.036 C 
HETATM    8  C9  UNL     1      28.457   1.834  59.142  1.00  0.00     0.035 C 
HETATM    9  C8  UNL     1      27.587   2.816  59.934  1.00  0.00    -0.011 C 
HETATM   10  C7  UNL     1      27.765   4.167  59.329  1.00  0.00     0.009 C 
HETATM   11  C25 UNL     1      26.174   2.270  59.819  1.00  0.00     0.024 C 
HETATM   12  C6  UNL     1      27.382   4.103  57.868  1.00  0.00    -0.011 C 
HETATM   13  C5  UNL     1      25.925   3.745  57.815  1.00  0.00     0.024 C 
HETATM   14  C23 UNL     1      28.184   3.114  57.097  1.00  0.00     0.035 C 
HETATM   15  C4  UNL     1      25.708   2.353  58.391  1.00  0.00     0.046 C 
HETATM   16  C24 UNL     1      26.541   1.405  57.565  1.00  0.00     0.050 C 
BRANCH  15  17
HETATM   17  C3  UNL     1      24.277   2.057  58.282  1.00  0.00     0.251 C 
HETATM   18  N1  UNL     1      23.584   1.968  57.058  1.00  0.00    -0.231 N 
HETATM   19  C2  UNL     1      22.145   1.665  57.010  1.00  0.00     0.189 C 
HETATM   20  O2  UNL     1      23.594   1.866  59.332  1.00  0.00    -0.270 OA
BRANCH  18  21
HETATM   21  O1  UNL     1      24.230   2.161  55.898  1.00  0.00    -0.281 OA
HETATM   22  C1  UNL     1      23.647   3.245  55.210  1.00  0.00     0.238 C 
ENDBRANCH  18  21
ENDBRANCH  15  17
ENDBRANCH   1   7
BRANCH   5  23
HETATM   23  C12 UNL     1      29.393  -1.105  53.784  1.00  0.00     0.087 C 
HETATM   24  C13 UNL     1      29.988  -2.491  53.705  1.00  0.00     0.025 C 
HETATM   25  C14 UNL     1      29.734  -3.092  52.358  1.00  0.00     0.003 C 
HETATM   26  C15 UNL     1      29.666  -2.038  51.277  1.00  0.00     0.014 C 
HETATM   27  C16 UNL     1      30.631  -0.931  51.683  1.00  0.00     0.080 C 
HETATM   28  C22 UNL     1      29.984  -0.148  52.796  1.00  0.00     0.039 C 
BRANCH  27  29
HETATM   29  C17 UNL     1      30.869  -0.116  50.474  1.00  0.00     0.222 C 
HETATM   30  O4  UNL     1      31.988   0.410  50.303  1.00  0.00    -0.273 OA
HETATM   31  N4  UNL     1      29.857   0.078  49.512  1.00  0.00    -0.353 N 
ATOM     32  H4  UNL     1      28.945  -0.355  49.660  1.00  0.00     0.163 HD
BRANCH  31  33
HETATM   33  C18 UNL     1      30.071   0.873  48.321  1.00  0.00     0.022 C 
HETATM   34  C19 UNL     1      31.225   0.354  47.494  1.00  0.00     0.037 C 
HETATM   35  C20 UNL     1      28.846   0.830  47.415  1.00  0.00     0.037 C 
HETATM   36  C21 UNL     1      30.289   2.299  48.715  1.00  0.00     0.037 C 
ENDBRANCH  31  33
ENDBRANCH  27  29
ENDBRANCH   5  23
TORSDOF 6
ENDMDL
MODEL 3
REMARK VINA RESULT: -7.960069593      5.486      7.229
REMARK  6 active torsions:
REMARK  status: ('A' for Active; 'I' for Inactive)
REMARK    1  A    between atoms: O1_2  and  N1_3 
REMARK       I    between atoms: N1_3  and  C3_5 
REMARK    2  A    between atoms: C3_5  and  C4_7 
REMARK    3  A    between atoms: C10_13  and  N2_14 
REMARK       I    between atoms: N2_14  and  C11_16 
REMARK       I    between atoms: C11_16  and  N3_18 
REMARK    4  A    between atoms: N3_18  and  C12_20 
REMARK    5  A    between atoms: C16_24  and  C17_25 
REMARK       I    between atoms: C17_25  and  N4_27 
REMARK    6  A    between atoms: N4_27  and  C18_29 
ROOT
HETATM    1  N2  UNL     1      28.471   0.934  56.125  1.00  0.00    -0.334 N 
ATOM      2  H2  UNL     1      28.930   0.495  56.924  1.00  0.00     0.165 HD
HETATM    3  C11 UNL     1      28.679   0.322  54.877  1.00  0.00     0.317 C 
HETATM    4  O3  UNL     1      28.157   0.803  53.849  1.00  0.00    -0.247 OA
HETATM    5  N3  UNL     1      29.473  -0.843  54.740  1.00  0.00    -0.338 N 
ATOM      6  H3  UNL     1      29.904  -1.248  55.571  1.00  0.00     0.164 HD
ENDROOT
BRANCH   1   7
HETATM    7  C10 UNL     1      27.695   2.097  56.407  1.00  0.00     0.036 C 
HETATM    8  C9  UNL     1      27.847   2.488  57.841  1.00  0.00     0.035 C 
HETATM    9  C8  UNL     1      26.962   3.685  58.206  1.00  0.00    -0.011 C 
HETATM   10  C7  UNL     1      27.416   4.848  57.391  1.00  0.00     0.009 C 
HETATM   11  C25 UNL     1      25.544   3.233  57.901  1.00  0.00     0.024 C 
HETATM   12  C6  UNL     1      27.322   4.485  55.926  1.00  0.00    -0.011 C 
HETATM   13  C5  UNL     1      25.872   4.233  55.632  1.00  0.00     0.024 C 
HETATM   14  C23 UNL     1      28.136   3.291  55.567  1.00  0.00     0.035 C 
HETATM   15  C4  UNL     1      25.381   3.026  56.420  1.00  0.00     0.046 C 
HETATM   16  C24 UNL     1      26.240   1.858  56.007  1.00  0.00     0.050 C 
BRANCH  15  17
HETATM   17  C3  UNL     1      23.974   2.821  56.064  1.00  0.00     0.251 C 
HETATM   18  N1  UNL     1      23.119   1.918  56.727  1.00  0.00    -0.231 N 
HETATM   19  C2  UNL     1      21.713   1.755  56.328  1.00  0.00     0.189 C 
HETATM   20  O2  UNL     1      23.466   3.478  55.108  1.00  0.00    -0.270 OA
BRANCH  18  21
HETATM   21  O1  UNL     1      23.577   1.177  57.749  1.00  0.00    -0.281 OA
HETATM   22  C1  UNL     1      22.488   0.698  58.506  1.00  0.00     0.238 C 
ENDBRANCH  18  21
ENDBRANCH  15  17
ENDBRANCH   1   7
BRANCH   5  23
HETATM   23  C12 UNL     1      29.689  -1.474  53.469  1.00  0.00     0.087 C 
HETATM   24  C13 UNL     1      29.690  -2.965  53.706  1.00  0.00     0.025 C 
HETATM   25  C14 UNL     1      29.731  -3.701  52.404  1.00  0.00     0.003 C 
HETATM   26  C15 UNL     1      30.469  -2.921  51.341  1.00  0.00     0.014 C 
HETATM   27  C16 UNL     1      31.568  -2.141  52.054  1.00  0.00     0.080 C 
HETATM   28  C22 UNL     1      30.917  -0.984  52.765  1.00  0.00     0.039 C 
BRANCH  27  29
HETATM   29  C17 UNL     1      32.521  -1.708  51.011  1.00  0.00     0.222 C 
HETATM   30  O4  UNL     1      32.088  -1.140  49.987  1.00  0.00    -0.273 OA
HETATM   31  N4  UNL     1      33.907  -1.925  51.151  1.00  0.00    -0.353 N 
ATOM     32  H4  UNL     1      34.252  -2.391  51.990  1.00  0.00     0.163 HD
BRANCH  31  33
HETATM   33  C18 UNL     1      34.855  -1.508  50.140  1.00  0.00     0.022 C 
HETATM   34  C19 UNL     1      34.811  -0.015  49.904  1.00  0.00     0.037 C 
HETATM   35  C20 UNL     1      36.282  -1.827  50.572  1.00  0.00     0.037 C 
HETATM   36  C21 UNL     1      34.590  -2.260  48.875  1.00  0.00     0.037 C 
ENDBRANCH  31  33
ENDBRANCH  27  29
ENDBRANCH   5  23
TORSDOF 6
ENDMDL
MODEL 4
REMARK VINA RESULT: -7.915287603      5.673      7.073
REMARK  6 active torsions:
REMARK  status: ('A' for Active; 'I' for Inactive)
REMARK    1  A    between atoms: O1_2  and  N1_3 
REMARK       I    between atoms: N1_3  and  C3_5 
REMARK    2  A    between atoms: C3_5  and  C4_7 
REMARK    3  A    between atoms: C10_13  and  N2_14 
REMARK       I    between atoms: N2_14  and  C11_16 
REMARK       I    between atoms: C11_16  and  N3_18 
REMARK    4  A    between atoms: N3_18  and  C12_20 
REMARK    5  A    between atoms: C16_24  and  C17_25 
REMARK       I    between atoms: C17_25  and  N4_27 
REMARK    6  A    between atoms: N4_27  and  C18_29 
ROOT
HETATM    1  N2  UNL     1      28.380   1.173  56.109  1.00  0.00    -0.334 N 
ATOM      2  H2  UNL     1      29.039   0.943  56.854  1.00  0.00     0.165 HD
HETATM    3  C11 UNL     1      28.545   0.479  54.898  1.00  0.00     0.317 C 
HETATM    4  O3  UNL     1      27.783   0.708  53.936  1.00  0.00    -0.247 OA
HETATM    5  N3  UNL     1      29.563  -0.492  54.728  1.00  0.00    -0.338 N 
ATOM      6  H3  UNL     1      30.192  -0.691  55.506  1.00  0.00     0.164 HD
ENDROOT
BRANCH   1   7
HETATM    7  C10 UNL     1      27.401   2.162  56.420  1.00  0.00     0.036 C 
HETATM    8  C9  UNL     1      27.976   3.193  57.336  1.00  0.00     0.035 C 
HETATM    9  C8  UNL     1      26.930   4.230  57.762  1.00  0.00    -0.011 C 
HETATM   10  C7  UNL     1      26.478   4.946  56.535  1.00  0.00     0.009 C 
HETATM   11  C25 UNL     1      25.836   3.427  58.445  1.00  0.00     0.024 C 
HETATM   12  C6  UNL     1      25.926   3.937  55.554  1.00  0.00    -0.011 C 
HETATM   13  C5  UNL     1      24.730   3.306  56.205  1.00  0.00     0.024 C 
HETATM   14  C23 UNL     1      26.916   2.892  55.172  1.00  0.00     0.035 C 
HETATM   15  C4  UNL     1      25.158   2.532  57.444  1.00  0.00     0.046 C 
HETATM   16  C24 UNL     1      26.150   1.493  56.988  1.00  0.00     0.050 C 
BRANCH  15  17
HETATM   17  C3  UNL     1      23.952   1.921  58.010  1.00  0.00     0.251 C 
HETATM   18  N1  UNL     1      22.801   1.608  57.258  1.00  0.00    -0.231 N 
HETATM   19  C2  UNL     1      21.620   0.992  57.881  1.00  0.00     0.189 C 
HETATM   20  O2  UNL     1      23.909   1.645  59.246  1.00  0.00    -0.270 OA
BRANCH  18  21
HETATM   21  O1  UNL     1      22.760   1.871  55.943  1.00  0.00    -0.281 OA
HETATM   22  C1  UNL     1      21.419   1.867  55.506  1.00  0.00     0.238 C 
ENDBRANCH  18  21
ENDBRANCH  15  17
ENDBRANCH   1   7
BRANCH   5  23
HETATM   23  C12 UNL     1      29.737  -1.206  53.494  1.00  0.00     0.087 C 
HETATM   24  C13 UNL     1      29.703  -2.679  53.824  1.00  0.00     0.025 C 
HETATM   25  C14 UNL     1      29.698  -3.495  52.570  1.00  0.00     0.003 C 
HETATM   26  C15 UNL     1      30.436  -2.803  51.447  1.00  0.00     0.014 C 
HETATM   27  C16 UNL     1      31.569  -2.012  52.090  1.00  0.00     0.080 C 
HETATM   28  C22 UNL     1      30.963  -0.795  52.739  1.00  0.00     0.039 C 
BRANCH  27  29
HETATM   29  C17 UNL     1      32.512  -1.671  51.005  1.00  0.00     0.222 C 
HETATM   30  O4  UNL     1      32.069  -1.187  49.942  1.00  0.00    -0.273 OA
HETATM   31  N4  UNL     1      33.898  -1.881  51.147  1.00  0.00    -0.353 N 
ATOM     32  H4  UNL     1      34.251  -2.277  52.019  1.00  0.00     0.163 HD
BRANCH  31  33
HETATM   33  C18 UNL     1      34.837  -1.553  50.096  1.00  0.00     0.022 C 
HETATM   34  C19 UNL     1      34.826  -0.078  49.766  1.00  0.00     0.037 C 
HETATM   35  C20 UNL     1      36.264  -1.881  50.522  1.00  0.00     0.037 C 
HETATM   36  C21 UNL     1      34.529  -2.377  48.886  1.00  0.00     0.037 C 
ENDBRANCH  31  33
ENDBRANCH  27  29
ENDBRANCH   5  23
TORSDOF 6
ENDMDL
MODEL 5
REMARK VINA RESULT: -7.786949004      5.284      7.723
REMARK  6 active torsions:
REMARK  status: ('A' for Active; 'I' for Inactive)
REMARK    1  A    between atoms: O1_2  and  N1_3 
REMARK       I    between atoms: N1_3  and  C3_5 
REMARK    2  A    between atoms: C3_5  and  C4_7 
REMARK    3  A    between atoms: C10_13  and  N2_14 
REMARK       I    between atoms: N2_14  and  C11_16 
REMARK       I    between atoms: C11_16  and  N3_18 
REMARK    4  A    between atoms: N3_18  and  C12_20 
REMARK    5  A    between atoms: C16_24  and  C17_25 
REMARK       I    between atoms: C17_25  and  N4_27 
REMARK    6  A    between atoms: N4_27  and  C18_29 
ROOT
HETATM    1  N2  UNL     1      28.364   0.805  56.703  1.00  0.00    -0.334 N 
ATOM      2  H2  UNL     1      29.088   0.471  57.339  1.00  0.00     0.165 HD
HETATM    3  C11 UNL     1      28.399   0.285  55.397  1.00  0.00     0.317 C 
HETATM    4  O3  UNL     1      27.552   0.649  54.555  1.00  0.00    -0.247 OA
HETATM    5  N3  UNL     1      29.380  -0.655  54.994  1.00  0.00    -0.338 N 
ATOM      6  H3  UNL     1      30.078  -0.962  55.671  1.00  0.00     0.164 HD
ENDROOT
BRANCH   1   7
HETATM    7  C10 UNL     1      27.436   1.743  57.242  1.00  0.00     0.036 C 
HETATM    8  C9  UNL     1      27.191   1.459  58.688  1.00  0.00     0.035 C 
HETATM    9  C8  UNL     1      26.134   2.395  59.286  1.00  0.00    -0.011 C 
HETATM   10  C7  UNL     1      26.664   3.786  59.203  1.00  0.00     0.009 C 
HETATM   11  C25 UNL     1      24.886   2.160  58.453  1.00  0.00     0.024 C 
HETATM   12  C6  UNL     1      26.971   4.108  57.758  1.00  0.00    -0.011 C 
HETATM   13  C5  UNL     1      25.670   4.048  57.013  1.00  0.00     0.024 C 
HETATM   14  C23 UNL     1      27.957   3.174  57.149  1.00  0.00     0.035 C 
HETATM   15  C4  UNL     1      25.115   2.631  57.043  1.00  0.00     0.046 C 
HETATM   16  C24 UNL     1      26.155   1.742  56.410  1.00  0.00     0.050 C 
BRANCH  15  17
HETATM   17  C3  UNL     1      23.866   2.639  56.276  1.00  0.00     0.251 C 
HETATM   18  N1  UNL     1      22.749   1.836  56.584  1.00  0.00    -0.231 N 
HETATM   19  C2  UNL     1      21.519   1.889  55.778  1.00  0.00     0.189 C 
HETATM   20  O2  UNL     1      23.752   3.401  55.271  1.00  0.00    -0.270 OA
BRANCH  18  21
HETATM   21  O1  UNL     1      22.786   0.996  57.630  1.00  0.00    -0.281 OA
HETATM   22  C1  UNL     1      21.543   0.340  57.749  1.00  0.00     0.238 C 
ENDBRANCH  18  21
ENDBRANCH  15  17
ENDBRANCH   1   7
BRANCH   5  23
HETATM   23  C12 UNL     1      29.422  -1.190  53.662  1.00  0.00     0.087 C 
HETATM   24  C13 UNL     1      29.832  -2.638  53.777  1.00  0.00     0.025 C 
HETATM   25  C14 UNL     1      29.726  -3.318  52.449  1.00  0.00     0.003 C 
HETATM   26  C15 UNL     1      29.977  -2.361  51.307  1.00  0.00     0.014 C 
HETATM   27  C16 UNL     1      31.001  -1.347  51.803  1.00  0.00     0.080 C 
HETATM   28  C22 UNL     1      30.289  -0.399  52.732  1.00  0.00     0.039 C 
BRANCH  27  29
HETATM   29  C17 UNL     1      31.541  -0.674  50.604  1.00  0.00     0.222 C 
HETATM   30  O4  UNL     1      32.335  -1.290  49.863  1.00  0.00    -0.273 OA
HETATM   31  N4  UNL     1      31.176   0.649  50.281  1.00  0.00    -0.353 N 
ATOM     32  H4  UNL     1      30.527   1.146  50.892  1.00  0.00     0.163 HD
BRANCH  31  33
HETATM   33  C18 UNL     1      31.694   1.325  49.110  1.00  0.00     0.022 C 
HETATM   34  C19 UNL     1      31.340   0.599  47.834  1.00  0.00     0.037 C 
HETATM   35  C20 UNL     1      31.097   2.722  48.984  1.00  0.00     0.037 C 
HETATM   36  C21 UNL     1      33.176   1.481  49.247  1.00  0.00     0.037 C 
ENDBRANCH  31  33
ENDBRANCH  27  29
ENDBRANCH   5  23
TORSDOF 6
ENDMDL
