MODEL 1
REMARK VINA RESULT: -7.677721857      0.000      0.000
REMARK  9 active torsions:
REMARK  status: ('A' for Active; 'I' for Inactive)
REMARK    1  A    between atoms: C2_2  and  C3_3 
REMARK    2  A    between atoms: C3_3  and  C4_4 
REMARK    3  A    between atoms: C4_4  and  O1_5 
REMARK    4  A    between atoms: O1_5  and  C5_6 
REMARK    5  A    between atoms: C5_6  and  C6_7 
REMARK    6  A    between atoms: C6_7  and  C7_8 
REMARK    7  A    between atoms: C7_8  and  N1_9 
REMARK    8  A    between atoms: N1_9  and  C8_11 
REMARK    9  A    between atoms: C9_14  and  N3_15 
ROOT
HETATM    1  C8  UNL     1     194.247 125.188  32.048  1.00  0.00     0.146 A 
HETATM    2  N2  UNL     1     194.957 125.127  30.893  1.00  0.00    -0.175 N 
ATOM      3  H2  UNL     1     195.825 125.660  30.834  1.00  0.00     0.186 HD
HETATM    4  C9  UNL     1     194.585 124.405  29.823  1.00  0.00     0.678 A 
HETATM    5  N4  UNL     1     193.431 123.709  29.927  1.00  0.00    -0.189 N 
ATOM      6  H4  UNL     1     193.121 123.152  29.129  1.00  0.00     0.184 HD
HETATM    7  C10 UNL     1     192.673 123.722  31.039  1.00  0.00     0.092 A 
HETATM    8  C11 UNL     1     193.073 124.469  32.128  1.00  0.00     0.106 A 
HETATM    9  N5  UNL     1     192.159 124.325  33.116  1.00  0.00    -0.351 N 
ATOM     10  H5  UNL     1     192.214 124.773  34.031  1.00  0.00     0.166 HD
HETATM   11  C12 UNL     1     191.164 123.505  32.716  1.00  0.00     0.045 A 
HETATM   12  C13 UNL     1     190.026 123.058  33.353  1.00  0.00     0.030 A 
HETATM   13  C14 UNL     1     189.190 122.209  32.661  1.00  0.00     0.002 A 
HETATM   14  C15 UNL     1     189.494 121.816  31.353  1.00  0.00     0.001 A 
HETATM   15  C16 UNL     1     190.649 122.287  30.746  1.00  0.00     0.016 A 
HETATM   16  C17 UNL     1     191.486 123.131  31.423  1.00  0.00     0.020 A 
ENDROOT
BRANCH   1  17
HETATM   17  N1  UNL     1     194.681 125.963  33.151  1.00  0.00    -0.374 N 
ATOM     18  H1  UNL     1     194.166 125.898  34.028  1.00  0.00     0.161 HD
BRANCH  17  19
HETATM   19  C7  UNL     1     195.827 126.844  33.084  1.00  0.00     0.123 C 
BRANCH  19  20
HETATM   20  C6  UNL     1     197.035 126.258  33.769  1.00  0.00     0.046 C 
BRANCH  20  21
HETATM   21  C5  UNL     1     197.955 125.559  32.780  1.00  0.00     0.169 C 
BRANCH  21  22
HETATM   22  O1  UNL     1     198.513 124.459  33.407  1.00  0.00    -0.391 OA
BRANCH  22  23
HETATM   23  C4  UNL     1     198.486 124.632  34.773  1.00  0.00     0.167 C 
BRANCH  23  24
HETATM   24  C3  UNL     1     198.920 123.423  35.527  1.00  0.00     0.026 C 
BRANCH  24  25
HETATM   25  C2  UNL     1     199.304 123.833  36.946  1.00  0.00    -0.002 C 
HETATM   26  C1  UNL     1     199.226 125.322  37.144  1.00  0.00     0.005 C 
ENDBRANCH  24  25
ENDBRANCH  23  24
ENDBRANCH  22  23
ENDBRANCH  21  22
ENDBRANCH  20  21
ENDBRANCH  19  20
ENDBRANCH  17  19
ENDBRANCH   1  17
BRANCH   4  27
HETATM   27  N3  UNL     1     195.297 124.373  28.732  1.00  0.00    -0.234 N 
ATOM     28  H32 UNL     1     194.855 124.412  27.813  1.00  0.00     0.174 HD
ATOM     29  H31 UNL     1     196.314 124.310  28.753  1.00  0.00     0.174 HD
ENDBRANCH   4  27
TORSDOF 9
ENDMDL
MODEL 2
REMARK VINA RESULT: -7.482235752      4.950      8.418
REMARK  9 active torsions:
REMARK  status: ('A' for Active; 'I' for Inactive)
REMARK    1  A    between atoms: C2_2  and  C3_3 
REMARK    2  A    between atoms: C3_3  and  C4_4 
REMARK    3  A    between atoms: C4_4  and  O1_5 
REMARK    4  A    between atoms: O1_5  and  C5_6 
REMARK    5  A    between atoms: C5_6  and  C6_7 
REMARK    6  A    between atoms: C6_7  and  C7_8 
REMARK    7  A    between atoms: C7_8  and  N1_9 
REMARK    8  A    between atoms: N1_9  and  C8_11 
REMARK    9  A    between atoms: C9_14  and  N3_15 
ROOT
HETATM    1  C8  UNL     1     190.872 124.937  33.530  1.00  0.00     0.146 A 
HETATM    2  N2  UNL     1     191.992 125.522  34.026  1.00  0.00    -0.175 N 
ATOM      3  H2  UNL     1     192.770 124.919  34.294  1.00  0.00     0.186 HD
HETATM    4  C9  UNL     1     192.137 126.848  34.182  1.00  0.00     0.678 A 
HETATM    5  N4  UNL     1     191.091 127.624  33.819  1.00  0.00    -0.189 N 
ATOM      6  H4  UNL     1     191.170 128.636  33.927  1.00  0.00     0.184 HD
HETATM    7  C10 UNL     1     189.949 127.115  33.321  1.00  0.00     0.092 A 
HETATM    8  C11 UNL     1     189.819 125.750  33.167  1.00  0.00     0.106 A 
HETATM    9  N5  UNL     1     188.596 125.482  32.655  1.00  0.00    -0.351 N 
ATOM     10  H5  UNL     1     188.244 124.547  32.444  1.00  0.00     0.166 HD
HETATM   11  C12 UNL     1     187.908 126.627  32.463  1.00  0.00     0.045 A 
HETATM   12  C13 UNL     1     186.643 126.871  31.972  1.00  0.00     0.030 A 
HETATM   13  C14 UNL     1     186.220 128.181  31.900  1.00  0.00     0.002 A 
HETATM   14  C15 UNL     1     187.055 129.225  32.313  1.00  0.00     0.001 A 
HETATM   15  C16 UNL     1     188.321 128.939  32.802  1.00  0.00     0.016 A 
HETATM   16  C17 UNL     1     188.752 127.643  32.879  1.00  0.00     0.020 A 
ENDROOT
BRANCH   1  17
HETATM   17  N1  UNL     1     190.767 123.532  33.383  1.00  0.00    -0.374 N 
ATOM     18  H1  UNL     1     190.388 122.986  34.157  1.00  0.00     0.161 HD
BRANCH  17  19
HETATM   19  C7  UNL     1     191.176 122.839  32.181  1.00  0.00     0.123 C 
BRANCH  19  20
HETATM   20  C6  UNL     1     190.017 122.165  31.492  1.00  0.00     0.046 C 
BRANCH  20  21
HETATM   21  C5  UNL     1     188.874 121.891  32.458  1.00  0.00     0.169 C 
BRANCH  21  22
HETATM   22  O1  UNL     1     187.862 122.799  32.201  1.00  0.00    -0.391 OA
BRANCH  22  23
HETATM   23  C4  UNL     1     187.168 122.424  31.072  1.00  0.00     0.167 C 
BRANCH  23  24
HETATM   24  C3  UNL     1     186.062 123.358  30.724  1.00  0.00     0.026 C 
BRANCH  24  25
HETATM   25  C2  UNL     1     184.758 122.571  30.631  1.00  0.00    -0.002 C 
HETATM   26  C1  UNL     1     184.403 121.911  31.934  1.00  0.00     0.005 C 
ENDBRANCH  24  25
ENDBRANCH  23  24
ENDBRANCH  22  23
ENDBRANCH  21  22
ENDBRANCH  20  21
ENDBRANCH  19  20
ENDBRANCH  17  19
ENDBRANCH   1  17
BRANCH   4  27
HETATM   27  N3  UNL     1     193.230 127.370  34.661  1.00  0.00    -0.234 N 
ATOM     28  H32 UNL     1     193.931 126.793  35.125  1.00  0.00     0.174 HD
ATOM     29  H31 UNL     1     193.426 128.369  34.591  1.00  0.00     0.174 HD
ENDBRANCH   4  27
TORSDOF 9
ENDMDL
MODEL 3
REMARK VINA RESULT: -7.479682745      2.975      4.714
REMARK  9 active torsions:
REMARK  status: ('A' for Active; 'I' for Inactive)
REMARK    1  A    between atoms: C2_2  and  C3_3 
REMARK    2  A    between atoms: C3_3  and  C4_4 
REMARK    3  A    between atoms: C4_4  and  O1_5 
REMARK    4  A    between atoms: O1_5  and  C5_6 
REMARK    5  A    between atoms: C5_6  and  C6_7 
REMARK    6  A    between atoms: C6_7  and  C7_8 
REMARK    7  A    between atoms: C7_8  and  N1_9 
REMARK    8  A    between atoms: N1_9  and  C8_11 
REMARK    9  A    between atoms: C9_14  and  N3_15 
ROOT
HETATM    1  C8  UNL     1     194.327 125.142  32.099  1.00  0.00     0.146 A 
HETATM    2  N2  UNL     1     195.020 125.112  30.932  1.00  0.00    -0.175 N 
ATOM      3  H2  UNL     1     195.896 125.633  30.879  1.00  0.00     0.186 HD
HETATM    4  C9  UNL     1     194.620 124.437  29.842  1.00  0.00     0.678 A 
HETATM    5  N4  UNL     1     193.456 123.756  29.937  1.00  0.00    -0.189 N 
ATOM      6  H4  UNL     1     193.126 123.234  29.124  1.00  0.00     0.184 HD
HETATM    7  C10 UNL     1     192.715 123.739  31.060  1.00  0.00     0.092 A 
HETATM    8  C11 UNL     1     193.143 124.439  32.170  1.00  0.00     0.106 A 
HETATM    9  N5  UNL     1     192.242 124.274  33.165  1.00  0.00    -0.351 N 
ATOM     10  H5  UNL     1     192.317 124.686  34.096  1.00  0.00     0.166 HD
HETATM   11  C12 UNL     1     191.227 123.485  32.751  1.00  0.00     0.045 A 
HETATM   12  C13 UNL     1     190.091 123.033  33.388  1.00  0.00     0.030 A 
HETATM   13  C14 UNL     1     189.231 122.224  32.678  1.00  0.00     0.002 A 
HETATM   14  C15 UNL     1     189.509 121.875  31.352  1.00  0.00     0.001 A 
HETATM   15  C16 UNL     1     190.663 122.350  30.746  1.00  0.00     0.016 A 
HETATM   16  C17 UNL     1     191.524 123.154  31.440  1.00  0.00     0.020 A 
ENDROOT
BRANCH   1  17
HETATM   17  N1  UNL     1     194.791 125.869  33.223  1.00  0.00    -0.374 N 
ATOM     18  H1  UNL     1     194.933 125.371  34.101  1.00  0.00     0.161 HD
BRANCH  17  19
HETATM   19  C7  UNL     1     195.070 127.287  33.175  1.00  0.00     0.123 C 
BRANCH  19  20
HETATM   20  C6  UNL     1     193.947 128.107  33.758  1.00  0.00     0.046 C 
BRANCH  20  21
HETATM   21  C5  UNL     1     193.300 127.407  34.943  1.00  0.00     0.169 C 
BRANCH  21  22
HETATM   22  O1  UNL     1     192.087 126.884  34.530  1.00  0.00    -0.391 OA
BRANCH  22  23
HETATM   23  C4  UNL     1     191.424 127.798  33.741  1.00  0.00     0.167 C 
BRANCH  23  24
HETATM   24  C3  UNL     1     190.136 127.283  33.200  1.00  0.00     0.026 C 
BRANCH  24  25
HETATM   25  C2  UNL     1     189.121 128.422  33.162  1.00  0.00    -0.002 C 
HETATM   26  C1  UNL     1     189.626 129.650  33.867  1.00  0.00     0.005 C 
ENDBRANCH  24  25
ENDBRANCH  23  24
ENDBRANCH  22  23
ENDBRANCH  21  22
ENDBRANCH  20  21
ENDBRANCH  19  20
ENDBRANCH  17  19
ENDBRANCH   1  17
BRANCH   4  27
HETATM   27  N3  UNL     1     195.315 124.434  28.740  1.00  0.00    -0.234 N 
ATOM     28  H32 UNL     1     195.785 123.589  28.414  1.00  0.00     0.174 HD
ATOM     29  H31 UNL     1     195.416 125.269  28.163  1.00  0.00     0.174 HD
ENDBRANCH   4  27
TORSDOF 9
ENDMDL
MODEL 4
REMARK VINA RESULT: -7.447707953      5.130      8.107
REMARK  9 active torsions:
REMARK  status: ('A' for Active; 'I' for Inactive)
REMARK    1  A    between atoms: C2_2  and  C3_3 
REMARK    2  A    between atoms: C3_3  and  C4_4 
REMARK    3  A    between atoms: C4_4  and  O1_5 
REMARK    4  A    between atoms: O1_5  and  C5_6 
REMARK    5  A    between atoms: C5_6  and  C6_7 
REMARK    6  A    between atoms: C6_7  and  C7_8 
REMARK    7  A    between atoms: C7_8  and  N1_9 
REMARK    8  A    between atoms: N1_9  and  C8_11 
REMARK    9  A    between atoms: C9_14  and  N3_15 
ROOT
HETATM    1  C8  UNL     1     190.603 127.265  33.384  1.00  0.00     0.146 A 
HETATM    2  N2  UNL     1     191.732 127.161  34.132  1.00  0.00    -0.175 N 
ATOM      3  H2  UNL     1     192.213 128.020  34.399  1.00  0.00     0.186 HD
HETATM    4  C9  UNL     1     192.251 125.992  34.543  1.00  0.00     0.678 A 
HETATM    5  N4  UNL     1     191.595 124.868  34.176  1.00  0.00    -0.189 N 
ATOM      6  H4  UNL     1     191.967 123.965  34.471  1.00  0.00     0.184 HD
HETATM    7  C10 UNL     1     190.472 124.893  33.435  1.00  0.00     0.092 A 
HETATM    8  C11 UNL     1     189.953 126.104  33.023  1.00  0.00     0.106 A 
HETATM    9  N5  UNL     1     188.833 125.876  32.299  1.00  0.00    -0.351 N 
ATOM     10  H5  UNL     1     188.254 126.602  31.876  1.00  0.00     0.166 HD
HETATM   11  C12 UNL     1     188.591 124.550  32.217  1.00  0.00     0.045 A 
HETATM   12  C13 UNL     1     187.589 123.832  31.599  1.00  0.00     0.030 A 
HETATM   13  C14 UNL     1     187.622 122.458  31.700  1.00  0.00     0.002 A 
HETATM   14  C15 UNL     1     188.645 121.819  32.410  1.00  0.00     0.001 A 
HETATM   15  C16 UNL     1     189.635 122.576  33.018  1.00  0.00     0.016 A 
HETATM   16  C17 UNL     1     189.613 123.941  32.924  1.00  0.00     0.020 A 
ENDROOT
BRANCH   1  17
HETATM   17  N1  UNL     1     190.093 128.522  32.977  1.00  0.00    -0.374 N 
ATOM     18  H1  UNL     1     189.910 128.676  31.985  1.00  0.00     0.161 HD
BRANCH  17  19
HETATM   19  C7  UNL     1     189.821 129.594  33.908  1.00  0.00     0.123 C 
BRANCH  19  20
HETATM   20  C6  UNL     1     188.426 130.144  33.749  1.00  0.00     0.046 C 
BRANCH  20  21
HETATM   21  C5  UNL     1     187.743 129.588  32.509  1.00  0.00     0.169 C 
BRANCH  21  22
HETATM   22  O1  UNL     1     187.134 128.392  32.846  1.00  0.00    -0.391 OA
BRANCH  22  23
HETATM   23  C4  UNL     1     186.138 128.099  31.942  1.00  0.00     0.167 C 
BRANCH  23  24
HETATM   24  C3  UNL     1     186.050 129.080  30.826  1.00  0.00     0.026 C 
BRANCH  24  25
HETATM   25  C2  UNL     1     186.076 128.328  29.498  1.00  0.00    -0.002 C 
HETATM   26  C1  UNL     1     186.497 126.894  29.671  1.00  0.00     0.005 C 
ENDBRANCH  24  25
ENDBRANCH  23  24
ENDBRANCH  22  23
ENDBRANCH  21  22
ENDBRANCH  20  21
ENDBRANCH  19  20
ENDBRANCH  17  19
ENDBRANCH   1  17
BRANCH   4  27
HETATM   27  N3  UNL     1     193.337 125.935  35.260  1.00  0.00    -0.234 N 
ATOM     28  H32 UNL     1     194.195 126.397  34.957  1.00  0.00     0.174 HD
ATOM     29  H31 UNL     1     193.373 125.430  36.146  1.00  0.00     0.174 HD
ENDBRANCH   4  27
TORSDOF 9
ENDMDL
MODEL 5
REMARK VINA RESULT: -7.433493521      4.191      8.082
REMARK  9 active torsions:
REMARK  status: ('A' for Active; 'I' for Inactive)
REMARK    1  A    between atoms: C2_2  and  C3_3 
REMARK    2  A    between atoms: C3_3  and  C4_4 
REMARK    3  A    between atoms: C4_4  and  O1_5 
REMARK    4  A    between atoms: O1_5  and  C5_6 
REMARK    5  A    between atoms: C5_6  and  C6_7 
REMARK    6  A    between atoms: C6_7  and  C7_8 
REMARK    7  A    between atoms: C7_8  and  N1_9 
REMARK    8  A    between atoms: N1_9  and  C8_11 
REMARK    9  A    between atoms: C9_14  and  N3_15 
ROOT
HETATM    1  C8  UNL     1     191.767 124.687  33.431  1.00  0.00     0.146 A 
HETATM    2  N2  UNL     1     193.018 124.977  33.870  1.00  0.00    -0.175 N 
ATOM      3  H2  UNL     1     193.689 124.212  33.948  1.00  0.00     0.186 HD
HETATM    4  C9  UNL     1     193.425 126.211  34.208  1.00  0.00     0.678 A 
HETATM    5  N4  UNL     1     192.517 127.207  34.097  1.00  0.00    -0.189 N 
ATOM      6  H4  UNL     1     192.796 128.155  34.348  1.00  0.00     0.184 HD
HETATM    7  C10 UNL     1     191.258 126.995  33.670  1.00  0.00     0.092 A 
HETATM    8  C11 UNL     1     190.859 125.720  33.326  1.00  0.00     0.106 A 
HETATM    9  N5  UNL     1     189.565 125.758  32.931  1.00  0.00    -0.351 N 
ATOM     10  H5  UNL     1     189.025 124.949  32.625  1.00  0.00     0.166 HD
HETATM   11  C12 UNL     1     189.092 127.020  33.001  1.00  0.00     0.045 A 
HETATM   12  C13 UNL     1     187.857 127.560  32.710  1.00  0.00     0.030 A 
HETATM   13  C14 UNL     1     187.686 128.915  32.890  1.00  0.00     0.002 A 
HETATM   14  C15 UNL     1     188.737 129.713  33.353  1.00  0.00     0.001 A 
HETATM   15  C16 UNL     1     189.966 129.133  33.636  1.00  0.00     0.016 A 
HETATM   16  C17 UNL     1     190.148 127.789  33.461  1.00  0.00     0.020 A 
ENDROOT
BRANCH   1  17
HETATM   17  N1  UNL     1     191.385 123.368  33.085  1.00  0.00    -0.374 N 
ATOM     18  H1  UNL     1     191.037 122.751  33.819  1.00  0.00     0.161 HD
BRANCH  17  19
HETATM   19  C7  UNL     1     191.468 122.859  31.733  1.00  0.00     0.123 C 
BRANCH  19  20
HETATM   20  C6  UNL     1     190.196 122.170  31.307  1.00  0.00     0.046 C 
BRANCH  20  21
HETATM   21  C5  UNL     1     189.195 122.086  32.449  1.00  0.00     0.169 C 
BRANCH  21  22
HETATM   22  O1  UNL     1     188.386 123.208  32.402  1.00  0.00    -0.391 OA
BRANCH  22  23
HETATM   23  C4  UNL     1     187.733 123.267  31.191  1.00  0.00     0.167 C 
BRANCH  23  24
HETATM   24  C3  UNL     1     186.259 123.433  31.326  1.00  0.00     0.026 C 
BRANCH  24  25
HETATM   25  C2  UNL     1     185.583 122.087  31.076  1.00  0.00    -0.002 C 
HETATM   26  C1  UNL     1     184.369 121.896  31.942  1.00  0.00     0.005 C 
ENDBRANCH  24  25
ENDBRANCH  23  24
ENDBRANCH  22  23
ENDBRANCH  21  22
ENDBRANCH  20  21
ENDBRANCH  19  20
ENDBRANCH  17  19
ENDBRANCH   1  17
BRANCH   4  27
HETATM   27  N3  UNL     1     194.637 126.448  34.625  1.00  0.00    -0.234 N 
ATOM     28  H32 UNL     1     195.340 125.709  34.648  1.00  0.00     0.174 HD
ATOM     29  H31 UNL     1     194.927 127.372  34.943  1.00  0.00     0.174 HD
ENDBRANCH   4  27
TORSDOF 9
ENDMDL
