MODEL 1
REMARK VINA RESULT: -8.944330716      0.000      0.000
REMARK  14 active torsions:
REMARK  status: ('A' for Active; 'I' for Inactive)
REMARK    1  A    between atoms: C4_4  and  C5_5 
REMARK    2  A    between atoms: C10_10  and  C11_11 
REMARK    3  A    between atoms: C12_12  and  C13_13 
REMARK    4  A    between atoms: C15_15  and  O1_16 
REMARK    5  A    between atoms: C17_19  and  C18_20 
REMARK       I    between atoms: C18_20  and  N1_22 
REMARK    6  A    between atoms: C19_24  and  C20_25 
REMARK    7  A    between atoms: C19_24  and  C29_38 
REMARK    8  A    between atoms: C20_25  and  C21_26 
REMARK    9  A    between atoms: C21_26  and  C22_27 
REMARK   10  A    between atoms: C22_27  and  C23_28 
REMARK   11  A    between atoms: C23_28  and  N2_29 
REMARK       I    between atoms: N2_29  and  C24_31 
REMARK   12  A    between atoms: C24_31  and  O4_33 
REMARK   13  A    between atoms: O4_33  and  C25_34 
REMARK       I    between atoms: C29_38  and  N3_40 
REMARK   14  A    between atoms: N3_40  and  C30_42 
ROOT
HETATM    1  C18 UNL     1      -8.135  15.715  30.415  1.00  0.00     0.227 C 
HETATM    2  O2  UNL     1      -7.847  14.489  30.446  1.00  0.00    -0.273 OA
HETATM    3  N1  UNL     1      -7.639  16.437  29.305  1.00  0.00    -0.326 N 
ATOM      4  H1  UNL     1      -6.630  16.584  29.289  1.00  0.00     0.168 HD
HETATM    5  C19 UNL     1      -8.277  16.924  28.330  1.00  0.00     0.080 C 
ENDROOT
BRANCH   1   6
HETATM    6  C17 UNL     1      -8.926  16.409  31.426  1.00  0.00     0.088 C 
HETATM    7  C13 UNL     1      -9.778  15.568  32.303  1.00  0.00     0.023 C 
HETATM    8  C14 UNL     1      -8.775  14.839  33.175  1.00  0.00     0.041 C 
HETATM    9  C15 UNL     1      -7.847  15.976  33.565  1.00  0.00     0.119 C 
HETATM   10  C16 UNL     1      -7.917  16.979  32.441  1.00  0.00     0.046 C 
BRANCH   7  11
HETATM   11  C12 UNL     1     -10.742  14.683  31.651  1.00  0.00    -0.024 C 
HETATM   12  C11 UNL     1     -11.561  15.170  30.740  1.00  0.00    -0.012 C 
BRANCH  12  13
HETATM   13  C10 UNL     1     -12.521  14.322  30.083  1.00  0.00     0.045 C 
HETATM   14  C5  UNL     1     -13.793  14.039  30.893  1.00  0.00     0.029 C 
HETATM   15  C6  UNL     1     -14.548  13.236  29.883  1.00  0.00     0.022 C 
HETATM   16  C7  UNL     1     -13.995  13.688  28.515  1.00  0.00     0.057 C 
HETATM   17  C8  UNL     1     -12.834  12.740  28.242  1.00  0.00     0.013 C 
HETATM   18  C34 UNL     1     -13.214  14.881  28.898  1.00  0.00     0.144 C 
HETATM   19  C9  UNL     1     -11.972  13.032  29.485  1.00  0.00     0.023 C 
HETATM   20  O6  UNL     1     -13.157  15.947  28.413  1.00  0.00    -0.296 OA
BRANCH  14  21
HETATM   21  C4  UNL     1     -13.585  13.553  32.223  1.00  0.00    -0.019 C 
HETATM   22  C2  UNL     1     -13.408  12.397  32.775  1.00  0.00    -0.091 C 
HETATM   23  C1  UNL     1     -13.375  11.121  32.053  1.00  0.00     0.042 C 
HETATM   24  C3  UNL     1     -13.216  12.314  34.260  1.00  0.00     0.042 C 
ENDBRANCH  14  21
ENDBRANCH  12  13
ENDBRANCH   7  11
BRANCH   9  25
HETATM   25  O1  UNL     1      -8.338  16.583  34.728  1.00  0.00    -0.396 OA
ATOM     26  H1  UNL     1      -7.632  17.063  35.144  1.00  0.00     0.210 HD
ENDBRANCH   9  25
ENDBRANCH   1   6
BRANCH   5  27
HETATM   27  C20 UNL     1      -9.741  16.853  28.112  1.00  0.00     0.063 C 
BRANCH  27  28
HETATM   28  C21 UNL     1     -10.119  16.321  26.747  1.00  0.00     0.008 C 
BRANCH  28  29
HETATM   29  C22 UNL     1     -10.115  14.815  26.723  1.00  0.00     0.020 C 
BRANCH  29  30
HETATM   30  C23 UNL     1      -9.092  14.268  25.752  1.00  0.00     0.125 C 
BRANCH  30  31
HETATM   31  N2  UNL     1      -8.761  15.235  24.730  1.00  0.00    -0.337 N 
HETATM   32  C24 UNL     1      -9.504  15.359  23.525  1.00  0.00     0.361 C 
HETATM   33  O3  UNL     1     -10.495  14.635  23.270  1.00  0.00    -0.238 OA
ATOM     34  H2  UNL     1      -7.963  15.853  24.879  1.00  0.00     0.164 HD
BRANCH  32  35
HETATM   35  O4  UNL     1      -9.167  16.301  22.554  1.00  0.00    -0.294 OA
BRANCH  35  36
HETATM   36  C25 UNL     1      -8.588  15.925  21.341  1.00  0.00     0.061 C 
HETATM   37  C26 UNL     1      -7.833  17.127  20.768  1.00  0.00     0.046 C 
HETATM   38  C27 UNL     1      -7.544  14.833  21.496  1.00  0.00     0.046 C 
HETATM   39  C28 UNL     1      -9.574  15.475  20.306  1.00  0.00     0.046 C 
ENDBRANCH  35  36
ENDBRANCH  32  35
ENDBRANCH  30  31
ENDBRANCH  29  30
ENDBRANCH  28  29
ENDBRANCH  27  28
ENDBRANCH   5  27
BRANCH   5  40
HETATM   40  C29 UNL     1      -7.470  17.649  27.326  1.00  0.00     0.264 C 
HETATM   41  O5  UNL     1      -7.654  18.869  27.125  1.00  0.00    -0.266 OA
HETATM   42  N3  UNL     1      -6.465  16.977  26.561  1.00  0.00    -0.348 N 
ATOM     43  H3  UNL     1      -6.291  15.983  26.707  1.00  0.00     0.163 HD
BRANCH  42  44
HETATM   44  C30 UNL     1      -5.702  17.706  25.587  1.00  0.00     0.022 C 
HETATM   45  C31 UNL     1      -6.492  17.927  24.304  1.00  0.00     0.037 C 
HETATM   46  C32 UNL     1      -5.312  19.086  26.082  1.00  0.00     0.037 C 
HETATM   47  C33 UNL     1      -4.415  16.963  25.310  1.00  0.00     0.037 C 
ENDBRANCH  42  44
ENDBRANCH   5  40
TORSDOF 14
ENDMDL
MODEL 2
REMARK VINA RESULT: -8.730592358      2.301     10.353
REMARK  14 active torsions:
REMARK  status: ('A' for Active; 'I' for Inactive)
REMARK    1  A    between atoms: C4_4  and  C5_5 
REMARK    2  A    between atoms: C10_10  and  C11_11 
REMARK    3  A    between atoms: C12_12  and  C13_13 
REMARK    4  A    between atoms: C15_15  and  O1_16 
REMARK    5  A    between atoms: C17_19  and  C18_20 
REMARK       I    between atoms: C18_20  and  N1_22 
REMARK    6  A    between atoms: C19_24  and  C20_25 
REMARK    7  A    between atoms: C19_24  and  C29_38 
REMARK    8  A    between atoms: C20_25  and  C21_26 
REMARK    9  A    between atoms: C21_26  and  C22_27 
REMARK   10  A    between atoms: C22_27  and  C23_28 
REMARK   11  A    between atoms: C23_28  and  N2_29 
REMARK       I    between atoms: N2_29  and  C24_31 
REMARK   12  A    between atoms: C24_31  and  O4_33 
REMARK   13  A    between atoms: O4_33  and  C25_34 
REMARK       I    between atoms: C29_38  and  N3_40 
REMARK   14  A    between atoms: N3_40  and  C30_42 
ROOT
HETATM    1  C18 UNL     1      -8.803  14.567  24.221  1.00  0.00     0.227 C 
HETATM    2  O2  UNL     1      -7.881  13.803  23.827  1.00  0.00    -0.273 OA
HETATM    3  N1  UNL     1      -9.530  14.124  25.351  1.00  0.00    -0.326 N 
ATOM      4  H1  UNL     1     -10.142  13.323  25.195  1.00  0.00     0.168 HD
HETATM    5  C19 UNL     1      -9.523  14.586  26.526  1.00  0.00     0.080 C 
ENDROOT
BRANCH   1   6
HETATM    6  C17 UNL     1      -9.149  15.841  23.601  1.00  0.00     0.088 C 
HETATM    7  C13 UNL     1      -8.082  16.520  22.824  1.00  0.00     0.023 C 
HETATM    8  C14 UNL     1      -7.923  15.640  21.601  1.00  0.00     0.041 C 
HETATM    9  C15 UNL     1      -9.374  15.410  21.216  1.00  0.00     0.119 C 
HETATM   10  C16 UNL     1     -10.169  15.514  22.494  1.00  0.00     0.046 C 
BRANCH   7  11
HETATM   11  C12 UNL     1      -6.825  16.798  23.516  1.00  0.00    -0.024 C 
HETATM   12  C11 UNL     1      -5.799  17.272  22.839  1.00  0.00    -0.012 C 
BRANCH  12  13
HETATM   13  C10 UNL     1      -4.548  17.553  23.495  1.00  0.00     0.045 C 
HETATM   14  C5  UNL     1      -3.337  17.656  22.558  1.00  0.00     0.029 C 
HETATM   15  C6  UNL     1      -2.291  18.030  23.558  1.00  0.00     0.022 C 
HETATM   16  C7  UNL     1      -3.060  18.713  24.708  1.00  0.00     0.057 C 
HETATM   17  C8  UNL     1      -3.408  17.576  25.660  1.00  0.00     0.013 C 
HETATM   18  C34 UNL     1      -4.391  18.899  24.097  1.00  0.00     0.144 C 
HETATM   19  C9  UNL     1      -4.218  16.683  24.701  1.00  0.00     0.023 C 
HETATM   20  O6  UNL     1      -5.108  19.826  24.090  1.00  0.00    -0.296 OA
BRANCH  14  21
HETATM   21  C4  UNL     1      -3.149  16.553  21.666  1.00  0.00    -0.019 C 
HETATM   22  C2  UNL     1      -3.414  16.305  20.424  1.00  0.00    -0.091 C 
HETATM   23  C1  UNL     1      -4.068  17.240  19.505  1.00  0.00     0.042 C 
HETATM   24  C3  UNL     1      -3.037  14.974  19.845  1.00  0.00     0.042 C 
ENDBRANCH  14  21
ENDBRANCH  12  13
ENDBRANCH   7  11
BRANCH   9  25
HETATM   25  O1  UNL     1      -9.784  16.438  20.358  1.00  0.00    -0.396 OA
ATOM     26  H1  UNL     1     -10.605  16.794  20.675  1.00  0.00     0.210 HD
ENDBRANCH   9  25
ENDBRANCH   1   6
BRANCH   5  27
HETATM   27  C20 UNL     1      -8.729  15.737  27.016  1.00  0.00     0.063 C 
BRANCH  27  28
HETATM   28  C21 UNL     1      -7.300  15.379  27.355  1.00  0.00     0.008 C 
BRANCH  28  29
HETATM   29  C22 UNL     1      -6.643  16.453  28.182  1.00  0.00     0.020 C 
BRANCH  29  30
HETATM   30  C23 UNL     1      -7.644  17.200  29.035  1.00  0.00     0.125 C 
BRANCH  30  31
HETATM   31  N2  UNL     1      -8.053  16.419  30.180  1.00  0.00    -0.337 N 
HETATM   32  C24 UNL     1      -9.407  16.333  30.603  1.00  0.00     0.361 C 
HETATM   33  O3  UNL     1     -10.335  16.932  30.010  1.00  0.00    -0.238 OA
ATOM     34  H2  UNL     1      -7.342  15.910  30.705  1.00  0.00     0.164 HD
BRANCH  32  35
HETATM   35  O4  UNL     1      -9.778  15.571  31.709  1.00  0.00    -0.294 OA
BRANCH  35  36
HETATM   36  C25 UNL     1      -9.005  15.544  32.872  1.00  0.00     0.061 C 
HETATM   37  C26 UNL     1      -9.943  15.475  34.080  1.00  0.00     0.046 C 
HETATM   38  C27 UNL     1      -8.129  14.307  32.973  1.00  0.00     0.046 C 
HETATM   39  C28 UNL     1      -8.126  16.745  33.049  1.00  0.00     0.046 C 
ENDBRANCH  35  36
ENDBRANCH  32  35
ENDBRANCH  30  31
ENDBRANCH  29  30
ENDBRANCH  28  29
ENDBRANCH  27  28
ENDBRANCH   5  27
BRANCH   5  40
HETATM   40  C29 UNL     1     -10.415  13.911  27.492  1.00  0.00     0.264 C 
HETATM   41  O5  UNL     1     -10.302  12.685  27.710  1.00  0.00    -0.266 OA
HETATM   42  N3  UNL     1     -11.428  14.636  28.197  1.00  0.00    -0.348 N 
ATOM     43  H3  UNL     1     -11.540  15.638  28.041  1.00  0.00     0.163 HD
BRANCH  42  44
HETATM   44  C30 UNL     1     -12.285  13.951  29.123  1.00  0.00     0.022 C 
HETATM   45  C31 UNL     1     -11.485  13.156  30.145  1.00  0.00     0.037 C 
HETATM   46  C32 UNL     1     -13.149  14.910  29.919  1.00  0.00     0.037 C 
HETATM   47  C33 UNL     1     -13.226  13.053  28.353  1.00  0.00     0.037 C 
ENDBRANCH  42  44
ENDBRANCH   5  40
TORSDOF 14
ENDMDL
MODEL 3
REMARK VINA RESULT: -8.712887510      3.007      9.475
REMARK  14 active torsions:
REMARK  status: ('A' for Active; 'I' for Inactive)
REMARK    1  A    between atoms: C4_4  and  C5_5 
REMARK    2  A    between atoms: C10_10  and  C11_11 
REMARK    3  A    between atoms: C12_12  and  C13_13 
REMARK    4  A    between atoms: C15_15  and  O1_16 
REMARK    5  A    between atoms: C17_19  and  C18_20 
REMARK       I    between atoms: C18_20  and  N1_22 
REMARK    6  A    between atoms: C19_24  and  C20_25 
REMARK    7  A    between atoms: C19_24  and  C29_38 
REMARK    8  A    between atoms: C20_25  and  C21_26 
REMARK    9  A    between atoms: C21_26  and  C22_27 
REMARK   10  A    between atoms: C22_27  and  C23_28 
REMARK   11  A    between atoms: C23_28  and  N2_29 
REMARK       I    between atoms: N2_29  and  C24_31 
REMARK   12  A    between atoms: C24_31  and  O4_33 
REMARK   13  A    between atoms: O4_33  and  C25_34 
REMARK       I    between atoms: C29_38  and  N3_40 
REMARK   14  A    between atoms: N3_40  and  C30_42 
ROOT
HETATM    1  C18 UNL     1     -11.651  12.921  30.187  1.00  0.00     0.227 C 
HETATM    2  O2  UNL     1     -10.653  13.515  30.675  1.00  0.00    -0.273 OA
HETATM    3  N1  UNL     1     -12.017  11.710  30.819  1.00  0.00    -0.326 N 
ATOM      4  H1  UNL     1     -11.375  10.929  30.683  1.00  0.00     0.168 HD
HETATM    5  C19 UNL     1     -13.032  11.465  31.530  1.00  0.00     0.080 C 
ENDROOT
BRANCH   1   6
HETATM    6  C17 UNL     1     -12.425  13.395  29.044  1.00  0.00     0.088 C 
HETATM    7  C13 UNL     1     -11.684  13.612  27.777  1.00  0.00     0.023 C 
HETATM    8  C14 UNL     1     -11.339  12.207  27.325  1.00  0.00     0.041 C 
HETATM    9  C15 UNL     1     -12.666  11.499  27.538  1.00  0.00     0.119 C 
HETATM   10  C16 UNL     1     -13.362  12.238  28.653  1.00  0.00     0.046 C 
BRANCH   7  11
HETATM   11  C12 UNL     1     -10.535  14.515  27.820  1.00  0.00    -0.024 C 
HETATM   12  C11 UNL     1     -10.144  15.126  26.720  1.00  0.00    -0.012 C 
BRANCH  12  13
HETATM   13  C10 UNL     1      -9.014  16.020  26.734  1.00  0.00     0.045 C 
HETATM   14  C5  UNL     1      -8.591  16.546  25.356  1.00  0.00     0.029 C 
HETATM   15  C6  UNL     1      -7.495  17.470  25.778  1.00  0.00     0.022 C 
HETATM   16  C7  UNL     1      -7.836  17.863  27.231  1.00  0.00     0.057 C 
HETATM   17  C8  UNL     1      -7.134  16.814  28.083  1.00  0.00     0.013 C 
HETATM   18  C34 UNL     1      -9.216  17.351  27.353  1.00  0.00     0.144 C 
HETATM   19  C9  UNL     1      -7.798  15.544  27.520  1.00  0.00     0.023 C 
HETATM   20  O6  UNL     1     -10.179  17.846  27.802  1.00  0.00    -0.296 OA
BRANCH  14  21
HETATM   21  C4  UNL     1      -8.377  15.549  24.352  1.00  0.00    -0.019 C 
HETATM   22  C2  UNL     1      -9.079  15.016  23.405  1.00  0.00    -0.091 C 
HETATM   23  C1  UNL     1     -10.470  15.361  23.098  1.00  0.00     0.042 C 
HETATM   24  C3  UNL     1      -8.459  13.963  22.536  1.00  0.00     0.042 C 
ENDBRANCH  14  21
ENDBRANCH  12  13
ENDBRANCH   7  11
BRANCH   9  25
HETATM   25  O1  UNL     1     -13.438  11.626  26.376  1.00  0.00    -0.396 OA
ATOM     26  H1  UNL     1     -13.843  10.789  26.184  1.00  0.00     0.210 HD
ENDBRANCH   9  25
ENDBRANCH   1   6
BRANCH   5  27
HETATM   27  C20 UNL     1     -14.112  12.417  31.881  1.00  0.00     0.063 C 
BRANCH  27  28
HETATM   28  C21 UNL     1     -13.700  13.438  32.917  1.00  0.00     0.008 C 
BRANCH  28  29
HETATM   29  C22 UNL     1     -13.289  12.778  34.208  1.00  0.00     0.020 C 
BRANCH  29  30
HETATM   30  C23 UNL     1     -11.892  13.178  34.627  1.00  0.00     0.125 C 
BRANCH  30  31
HETATM   31  N2  UNL     1     -11.231  13.954  33.601  1.00  0.00    -0.337 N 
HETATM   32  C24 UNL     1     -10.716  15.256  33.840  1.00  0.00     0.361 C 
HETATM   33  O3  UNL     1     -10.802  15.817  34.958  1.00  0.00    -0.238 OA
ATOM     34  H2  UNL     1     -11.132  13.551  32.670  1.00  0.00     0.164 HD
BRANCH  32  35
HETATM   35  O4  UNL     1     -10.081  15.985  32.836  1.00  0.00    -0.294 OA
BRANCH  35  36
HETATM   36  C25 UNL     1      -8.701  15.901  32.633  1.00  0.00     0.061 C 
HETATM   37  C26 UNL     1      -8.404  16.224  31.166  1.00  0.00     0.046 C 
HETATM   38  C27 UNL     1      -7.921  16.927  33.436  1.00  0.00     0.046 C 
HETATM   39  C28 UNL     1      -8.121  14.551  32.925  1.00  0.00     0.046 C 
ENDBRANCH  35  36
ENDBRANCH  32  35
ENDBRANCH  30  31
ENDBRANCH  29  30
ENDBRANCH  28  29
ENDBRANCH  27  28
ENDBRANCH   5  27
BRANCH   5  40
HETATM   40  C29 UNL     1     -13.146  10.083  32.041  1.00  0.00     0.264 C 
HETATM   41  O5  UNL     1     -13.767   9.847  33.100  1.00  0.00    -0.266 OA
HETATM   42  N3  UNL     1     -12.551   8.985  31.342  1.00  0.00    -0.348 N 
ATOM     43  H3  UNL     1     -12.042   9.148  30.473  1.00  0.00     0.163 HD
BRANCH  42  44
HETATM   44  C30 UNL     1     -12.672   7.653  31.867  1.00  0.00     0.022 C 
HETATM   45  C31 UNL     1     -12.463   7.623  33.374  1.00  0.00     0.037 C 
HETATM   46  C32 UNL     1     -14.049   7.066  31.622  1.00  0.00     0.037 C 
HETATM   47  C33 UNL     1     -11.683   6.753  31.163  1.00  0.00     0.037 C 
ENDBRANCH  42  44
ENDBRANCH   5  40
TORSDOF 14
ENDMDL
MODEL 4
REMARK VINA RESULT: -8.662094196      2.282     10.600
REMARK  14 active torsions:
REMARK  status: ('A' for Active; 'I' for Inactive)
REMARK    1  A    between atoms: C4_4  and  C5_5 
REMARK    2  A    between atoms: C10_10  and  C11_11 
REMARK    3  A    between atoms: C12_12  and  C13_13 
REMARK    4  A    between atoms: C15_15  and  O1_16 
REMARK    5  A    between atoms: C17_19  and  C18_20 
REMARK       I    between atoms: C18_20  and  N1_22 
REMARK    6  A    between atoms: C19_24  and  C20_25 
REMARK    7  A    between atoms: C19_24  and  C29_38 
REMARK    8  A    between atoms: C20_25  and  C21_26 
REMARK    9  A    between atoms: C21_26  and  C22_27 
REMARK   10  A    between atoms: C22_27  and  C23_28 
REMARK   11  A    between atoms: C23_28  and  N2_29 
REMARK       I    between atoms: N2_29  and  C24_31 
REMARK   12  A    between atoms: C24_31  and  O4_33 
REMARK   13  A    between atoms: O4_33  and  C25_34 
REMARK       I    between atoms: C29_38  and  N3_40 
REMARK   14  A    between atoms: N3_40  and  C30_42 
ROOT
HETATM    1  C18 UNL     1      -8.889  14.718  24.571  1.00  0.00     0.227 C 
HETATM    2  O2  UNL     1      -7.947  13.919  24.324  1.00  0.00    -0.273 OA
HETATM    3  N1  UNL     1      -9.688  14.400  25.694  1.00  0.00    -0.326 N 
ATOM      4  H1  UNL     1     -10.292  13.585  25.590  1.00  0.00     0.168 HD
HETATM    5  C19 UNL     1      -9.756  14.990  26.809  1.00  0.00     0.080 C 
ENDROOT
BRANCH   1   6
HETATM    6  C17 UNL     1      -9.191  15.914  23.793  1.00  0.00     0.088 C 
HETATM    7  C13 UNL     1      -8.134  16.398  22.870  1.00  0.00     0.023 C 
HETATM    8  C14 UNL     1      -8.108  15.345  21.780  1.00  0.00     0.041 C 
HETATM    9  C15 UNL     1      -9.593  15.170  21.511  1.00  0.00     0.119 C 
HETATM   10  C16 UNL     1     -10.297  15.510  22.800  1.00  0.00     0.046 C 
BRANCH   7  11
HETATM   11  C12 UNL     1      -6.820  16.678  23.447  1.00  0.00    -0.024 C 
HETATM   12  C11 UNL     1      -5.904  17.284  22.719  1.00  0.00    -0.012 C 
BRANCH  12  13
HETATM   13  C10 UNL     1      -4.601  17.571  23.262  1.00  0.00     0.045 C 
HETATM   14  C5  UNL     1      -3.479  17.681  22.221  1.00  0.00     0.029 C 
HETATM   15  C6  UNL     1      -2.350  18.060  23.125  1.00  0.00     0.022 C 
HETATM   16  C7  UNL     1      -3.017  18.737  24.341  1.00  0.00     0.057 C 
HETATM   17  C8  UNL     1      -3.273  17.596  25.317  1.00  0.00     0.013 C 
HETATM   18  C34 UNL     1      -4.398  18.916  23.851  1.00  0.00     0.144 C 
HETATM   19  C9  UNL     1      -4.160  16.700  24.432  1.00  0.00     0.023 C 
HETATM   20  O6  UNL     1      -5.117  19.840  23.910  1.00  0.00    -0.296 OA
BRANCH  14  21
HETATM   21  C4  UNL     1      -3.366  16.581  21.313  1.00  0.00    -0.019 C 
HETATM   22  C2  UNL     1      -3.760  16.325  20.108  1.00  0.00    -0.091 C 
HETATM   23  C1  UNL     1      -4.533  17.243  19.267  1.00  0.00     0.042 C 
HETATM   24  C3  UNL     1      -3.420  15.001  19.491  1.00  0.00     0.042 C 
ENDBRANCH  14  21
ENDBRANCH  12  13
ENDBRANCH   7  11
BRANCH   9  25
HETATM   25  O1  UNL     1      -9.988  16.095  20.535  1.00  0.00    -0.396 OA
ATOM     26  H1  UNL     1     -10.114  16.941  20.948  1.00  0.00     0.210 HD
ENDBRANCH   9  25
ENDBRANCH   1   6
BRANCH   5  27
HETATM   27  C20 UNL     1      -8.991  16.191  27.218  1.00  0.00     0.063 C 
BRANCH  27  28
HETATM   28  C21 UNL     1      -7.630  15.869  27.793  1.00  0.00     0.008 C 
BRANCH  28  29
HETATM   29  C22 UNL     1      -7.335  16.701  29.014  1.00  0.00     0.020 C 
BRANCH  29  30
HETATM   30  C23 UNL     1      -8.579  16.959  29.835  1.00  0.00     0.125 C 
BRANCH  30  31
HETATM   31  N2  UNL     1      -8.823  15.892  30.779  1.00  0.00    -0.337 N 
HETATM   32  C24 UNL     1      -8.474  15.992  32.153  1.00  0.00     0.361 C 
HETATM   33  O3  UNL     1      -7.929  17.014  32.634  1.00  0.00    -0.238 OA
ATOM     34  H2  UNL     1      -9.262  15.034  30.446  1.00  0.00     0.164 HD
BRANCH  32  35
HETATM   35  O4  UNL     1      -8.720  14.951  33.045  1.00  0.00    -0.294 OA
BRANCH  35  36
HETATM   36  C25 UNL     1      -9.824  14.968  33.900  1.00  0.00     0.061 C 
HETATM   37  C26 UNL     1      -9.861  13.647  34.675  1.00  0.00     0.046 C 
HETATM   38  C27 UNL     1      -9.736  16.052  34.961  1.00  0.00     0.046 C 
HETATM   39  C28 UNL     1     -11.139  15.117  33.199  1.00  0.00     0.046 C 
ENDBRANCH  35  36
ENDBRANCH  32  35
ENDBRANCH  30  31
ENDBRANCH  29  30
ENDBRANCH  28  29
ENDBRANCH  27  28
ENDBRANCH   5  27
BRANCH   5  40
HETATM   40  C29 UNL     1     -10.710  14.422  27.785  1.00  0.00     0.264 C 
HETATM   41  O5  UNL     1     -11.189  15.136  28.692  1.00  0.00    -0.266 OA
HETATM   42  N3  UNL     1     -11.107  13.049  27.718  1.00  0.00    -0.348 N 
ATOM     43  H3  UNL     1     -10.735  12.445  26.985  1.00  0.00     0.163 HD
BRANCH  42  44
HETATM   44  C30 UNL     1     -12.030  12.524  28.685  1.00  0.00     0.022 C 
HETATM   45  C31 UNL     1     -11.544  12.754  30.108  1.00  0.00     0.037 C 
HETATM   46  C32 UNL     1     -13.392  13.187  28.593  1.00  0.00     0.037 C 
HETATM   47  C33 UNL     1     -12.244  11.052  28.415  1.00  0.00     0.037 C 
ENDBRANCH  42  44
ENDBRANCH   5  40
TORSDOF 14
ENDMDL
MODEL 5
REMARK VINA RESULT: -8.587016480      2.445     10.662
REMARK  14 active torsions:
REMARK  status: ('A' for Active; 'I' for Inactive)
REMARK    1  A    between atoms: C4_4  and  C5_5 
REMARK    2  A    between atoms: C10_10  and  C11_11 
REMARK    3  A    between atoms: C12_12  and  C13_13 
REMARK    4  A    between atoms: C15_15  and  O1_16 
REMARK    5  A    between atoms: C17_19  and  C18_20 
REMARK       I    between atoms: C18_20  and  N1_22 
REMARK    6  A    between atoms: C19_24  and  C20_25 
REMARK    7  A    between atoms: C19_24  and  C29_38 
REMARK    8  A    between atoms: C20_25  and  C21_26 
REMARK    9  A    between atoms: C21_26  and  C22_27 
REMARK   10  A    between atoms: C22_27  and  C23_28 
REMARK   11  A    between atoms: C23_28  and  N2_29 
REMARK       I    between atoms: N2_29  and  C24_31 
REMARK   12  A    between atoms: C24_31  and  O4_33 
REMARK   13  A    between atoms: O4_33  and  C25_34 
REMARK       I    between atoms: C29_38  and  N3_40 
REMARK   14  A    between atoms: N3_40  and  C30_42 
ROOT
HETATM    1  C18 UNL     1      -8.750  14.907  25.082  1.00  0.00     0.227 C 
HETATM    2  O2  UNL     1      -7.720  14.183  25.019  1.00  0.00    -0.273 OA
HETATM    3  N1  UNL     1      -9.714  14.525  26.043  1.00  0.00    -0.326 N 
ATOM      4  H1  UNL     1     -10.225  13.666  25.839  1.00  0.00     0.168 HD
HETATM    5  C19 UNL     1     -10.029  15.105  27.120  1.00  0.00     0.080 C 
ENDROOT
BRANCH   1   6
HETATM    6  C17 UNL     1      -8.995  16.079  24.247  1.00  0.00     0.088 C 
HETATM    7  C13 UNL     1      -7.999  16.363  23.184  1.00  0.00     0.023 C 
HETATM    8  C14 UNL     1      -8.222  15.248  22.184  1.00  0.00     0.041 C 
HETATM    9  C15 UNL     1      -9.738  15.244  22.085  1.00  0.00     0.119 C 
HETATM   10  C16 UNL     1     -10.246  15.754  23.411  1.00  0.00     0.046 C 
BRANCH   7  11
HETATM   11  C12 UNL     1      -6.604  16.513  23.597  1.00  0.00    -0.024 C 
HETATM   12  C11 UNL     1      -5.938  17.600  23.264  1.00  0.00    -0.012 C 
BRANCH  12  13
HETATM   13  C10 UNL     1      -4.563  17.772  23.656  1.00  0.00     0.045 C 
HETATM   14  C5  UNL     1      -3.598  18.082  22.504  1.00  0.00     0.029 C 
HETATM   15  C6  UNL     1      -2.340  18.273  23.289  1.00  0.00     0.022 C 
HETATM   16  C7  UNL     1      -2.806  18.700  24.697  1.00  0.00     0.057 C 
HETATM   17  C8  UNL     1      -2.955  17.390  25.460  1.00  0.00     0.013 C 
HETATM   18  C34 UNL     1      -4.237  18.975  24.458  1.00  0.00     0.144 C 
HETATM   19  C9  UNL     1      -3.986  16.687  24.557  1.00  0.00     0.023 C 
HETATM   20  O6  UNL     1      -4.912  19.870  24.799  1.00  0.00    -0.296 OA
BRANCH  14  21
HETATM   21  C4  UNL     1      -3.650  17.181  21.393  1.00  0.00    -0.019 C 
HETATM   22  C2  UNL     1      -3.069  16.074  21.064  1.00  0.00    -0.091 C 
HETATM   23  C1  UNL     1      -2.066  15.380  21.879  1.00  0.00     0.042 C 
HETATM   24  C3  UNL     1      -3.419  15.419  19.761  1.00  0.00     0.042 C 
ENDBRANCH  14  21
ENDBRANCH  12  13
ENDBRANCH   7  11
BRANCH   9  25
HETATM   25  O1  UNL     1     -10.129  16.147  21.087  1.00  0.00    -0.396 OA
ATOM     26  H1  UNL     1     -11.055  16.333  21.189  1.00  0.00     0.210 HD
ENDBRANCH   9  25
ENDBRANCH   1   6
BRANCH   5  27
HETATM   27  C20 UNL     1      -9.445  16.360  27.648  1.00  0.00     0.063 C 
BRANCH  27  28
HETATM   28  C21 UNL     1      -8.242  16.135  28.536  1.00  0.00     0.008 C 
BRANCH  28  29
HETATM   29  C22 UNL     1      -8.539  16.490  29.969  1.00  0.00     0.020 C 
BRANCH  29  30
HETATM   30  C23 UNL     1      -8.892  15.271  30.792  1.00  0.00     0.125 C 
BRANCH  30  31
HETATM   31  N2  UNL     1      -9.181  15.622  32.164  1.00  0.00    -0.337 N 
HETATM   32  C24 UNL     1     -10.465  15.440  32.745  1.00  0.00     0.361 C 
HETATM   33  O3  UNL     1     -11.431  14.964  32.103  1.00  0.00    -0.238 OA
ATOM     34  H2  UNL     1      -8.435  16.015  32.737  1.00  0.00     0.164 HD
BRANCH  32  35
HETATM   35  O4  UNL     1     -10.721  15.783  34.072  1.00  0.00    -0.294 OA
BRANCH  35  36
HETATM   36  C25 UNL     1     -10.248  15.006  35.131  1.00  0.00     0.061 C 
HETATM   37  C26 UNL     1      -9.074  15.739  35.787  1.00  0.00     0.046 C 
HETATM   38  C27 UNL     1     -11.274  14.825  36.237  1.00  0.00     0.046 C 
HETATM   39  C28 UNL     1      -9.764  13.648  34.726  1.00  0.00     0.046 C 
ENDBRANCH  35  36
ENDBRANCH  32  35
ENDBRANCH  30  31
ENDBRANCH  29  30
ENDBRANCH  28  29
ENDBRANCH  27  28
ENDBRANCH   5  27
BRANCH   5  40
HETATM   40  C29 UNL     1     -11.100  14.463  27.912  1.00  0.00     0.264 C 
HETATM   41  O5  UNL     1     -11.779  15.131  28.720  1.00  0.00    -0.266 OA
HETATM   42  N3  UNL     1     -11.383  13.066  27.776  1.00  0.00    -0.348 N 
ATOM     43  H3  UNL     1     -10.847  12.497  27.121  1.00  0.00     0.163 HD
BRANCH  42  44
HETATM   44  C30 UNL     1     -12.425  12.469  28.564  1.00  0.00     0.022 C 
HETATM   45  C31 UNL     1     -13.649  13.370  28.653  1.00  0.00     0.037 C 
HETATM   46  C32 UNL     1     -12.909  11.159  27.972  1.00  0.00     0.037 C 
HETATM   47  C33 UNL     1     -11.883  12.152  29.939  1.00  0.00     0.037 C 
ENDBRANCH  42  44
ENDBRANCH   5  40
TORSDOF 14
ENDMDL
