MODEL 1
REMARK VINA RESULT: -8.458396665      0.000      0.000
REMARK  7 active torsions:
REMARK  status: ('A' for Active; 'I' for Inactive)
REMARK    1  A    between atoms: C6_6  and  N1_7 
REMARK    2  A    between atoms: N1_7  and  C7_9 
REMARK    3  A    between atoms: C14_20  and  C15_21 
REMARK    4  A    between atoms: C17_24  and  N4_25 
REMARK    5  A    between atoms: N4_25  and  C18_27 
REMARK    6  A    between atoms: C18_27  and  C19_28 
REMARK    7  A    between atoms: C19_28  and  C20_29 
ROOT
HETATM    1  C7  UNL     1      -2.847  15.004  18.780  1.00  0.00     0.136 A 
HETATM    2  N2  UNL     1      -2.871  16.051  19.675  1.00  0.00    -0.339 N 
ATOM      3  H2  UNL     1      -1.988  16.465  19.975  1.00  0.00     0.167 HD
HETATM    4  C8  UNL     1      -4.014  16.540  20.162  1.00  0.00     0.060 A 
HETATM    5  C9  UNL     1      -4.055  17.584  21.058  1.00  0.00     0.032 A 
HETATM    6  C10 UNL     1      -5.255  18.051  21.531  1.00  0.00     0.002 A 
HETATM    7  C11 UNL     1      -6.455  17.504  21.138  1.00  0.00     0.002 A 
HETATM    8  C12 UNL     1      -6.408  16.464  20.245  1.00  0.00     0.032 A 
HETATM    9  C13 UNL     1      -5.211  15.980  19.757  1.00  0.00     0.059 A 
HETATM   10  N3  UNL     1      -5.153  14.967  18.888  1.00  0.00    -0.350 N 
ATOM     11  H3  UNL     1      -6.035  14.552  18.589  1.00  0.00     0.166 HD
HETATM   12  C14 UNL     1      -4.009  14.448  18.375  1.00  0.00     0.105 A 
ENDROOT
BRANCH  12  13
HETATM   13  C15 UNL     1      -4.051  13.313  17.407  1.00  0.00     0.071 A 
HETATM   14  C16 UNL     1      -4.336  12.039  17.773  1.00  0.00     0.085 A 
HETATM   15  S1  UNL     1      -4.243  11.190  16.257  1.00  0.00    -0.064 SA
HETATM   16  C17 UNL     1      -3.853  12.516  15.284  1.00  0.00     0.144 A 
HETATM   17  N7  UNL     1      -3.807  13.530  16.125  1.00  0.00    -0.334 N 
ATOM     18  H7  UNL     1      -3.587  14.469  15.793  1.00  0.00     0.168 HD
BRANCH  16  19
HETATM   19  N4  UNL     1      -3.645  12.529  13.987  1.00  0.00    -0.370 N 
ATOM     20  H4  UNL     1      -4.394  12.771  13.338  1.00  0.00     0.161 HD
BRANCH  19  21
HETATM   21  C18 UNL     1      -2.330  12.191  13.506  1.00  0.00     0.126 C 
BRANCH  21  22
HETATM   22  C19 UNL     1      -1.575  13.500  13.362  1.00  0.00     0.060 C 
BRANCH  22  23
HETATM   23  C20 UNL     1      -0.277  13.346  14.063  1.00  0.00    -0.027 A 
HETATM   24  C21 UNL     1      -0.062  12.649  15.242  1.00  0.00     0.097 A 
HETATM   25  N5  UNL     1       1.225  12.737  15.556  1.00  0.00    -0.351 N 
HETATM   26  C22 UNL     1       1.871  13.467  14.627  1.00  0.00     0.115 A 
ATOM     27  H5  UNL     1       1.660  12.315  16.376  1.00  0.00     0.166 HD
HETATM   28  N6  UNL     1       3.167  13.848  14.477  1.00  0.00    -0.352 N 
HETATM   29  C26 UNL     1       0.944  13.850  13.696  1.00  0.00     0.016 A 
HETATM   30  C23 UNL     1       3.591  14.596  13.444  1.00  0.00     0.089 A 
ATOM     31  H6  UNL     1       3.847  13.554  15.179  1.00  0.00     0.166 HD
HETATM   32  C24 UNL     1       2.659  14.980  12.508  1.00  0.00     0.018 A 
HETATM   33  C25 UNL     1       1.334  14.610  12.630  1.00  0.00     0.017 A 
ENDBRANCH  22  23
ENDBRANCH  21  22
ENDBRANCH  19  21
ENDBRANCH  16  19
ENDBRANCH  12  13
BRANCH   1  34
HETATM   34  N1  UNL     1      -1.686  14.635  18.395  1.00  0.00    -0.341 N 
ATOM     35  H1  UNL     1      -1.363  13.723  18.717  1.00  0.00     0.167 HD
BRANCH  34  36
HETATM   36  C6  UNL     1      -0.807  15.359  17.572  1.00  0.00     0.034 A 
HETATM   37  C5  UNL     1      -1.276  15.977  16.425  1.00  0.00     0.041 A 
HETATM   38  C4  UNL     1      -0.465  16.702  15.580  1.00  0.00    -0.024 A 
HETATM   39  C3  UNL     1      -0.968  17.310  14.438  1.00  0.00     0.012 A 
HETATM   40  C29 UNL     1       0.863  16.833  15.861  1.00  0.00    -0.026 A 
HETATM   41  C2  UNL     1      -0.129  18.028  13.614  1.00  0.00     0.001 A 
HETATM   42  C1  UNL     1       1.213  18.159  13.900  1.00  0.00     0.001 A 
HETATM   43  C30 UNL     1       1.697  17.553  15.034  1.00  0.00     0.012 A 
HETATM   44  C28 UNL     1       1.361  16.217  17.016  1.00  0.00     0.014 A 
HETATM   45  C27 UNL     1       0.541  15.498  17.849  1.00  0.00     0.030 A 
ENDBRANCH  34  36
ENDBRANCH   1  34
TORSDOF 7
ENDMDL
MODEL 2
REMARK VINA RESULT: -8.211297651      5.586      9.477
REMARK  7 active torsions:
REMARK  status: ('A' for Active; 'I' for Inactive)
REMARK    1  A    between atoms: C6_6  and  N1_7 
REMARK    2  A    between atoms: N1_7  and  C7_9 
REMARK    3  A    between atoms: C14_20  and  C15_21 
REMARK    4  A    between atoms: C17_24  and  N4_25 
REMARK    5  A    between atoms: N4_25  and  C18_27 
REMARK    6  A    between atoms: C18_27  and  C19_28 
REMARK    7  A    between atoms: C19_28  and  C20_29 
ROOT
HETATM    1  C7  UNL     1       1.839  13.882  13.209  1.00  0.00     0.136 A 
HETATM    2  N2  UNL     1       1.295  13.414  14.384  1.00  0.00    -0.339 N 
ATOM      3  H2  UNL     1       0.841  12.501  14.390  1.00  0.00     0.167 HD
HETATM    4  C8  UNL     1       1.345  14.120  15.518  1.00  0.00     0.060 A 
HETATM    5  C9  UNL     1       0.805  13.668  16.701  1.00  0.00     0.032 A 
HETATM    6  C10 UNL     1       0.880  14.430  17.838  1.00  0.00     0.002 A 
HETATM    7  C11 UNL     1       1.488  15.664  17.848  1.00  0.00     0.002 A 
HETATM    8  C12 UNL     1       2.024  16.110  16.667  1.00  0.00     0.032 A 
HETATM    9  C13 UNL     1       1.959  15.358  15.512  1.00  0.00     0.059 A 
HETATM   10  N3  UNL     1       2.477  15.781  14.355  1.00  0.00    -0.350 N 
ATOM     11  H3  UNL     1       2.930  16.695  14.348  1.00  0.00     0.166 HD
HETATM   12  C14 UNL     1       2.444  15.088  13.188  1.00  0.00     0.105 A 
ENDROOT
BRANCH  12  13
HETATM   13  C15 UNL     1       3.052  15.651  11.947  1.00  0.00     0.071 A 
HETATM   14  C16 UNL     1       2.538  16.718  11.290  1.00  0.00     0.085 A 
HETATM   15  S1  UNL     1       3.649  16.905   9.964  1.00  0.00    -0.064 SA
HETATM   16  C17 UNL     1       4.675  15.618  10.351  1.00  0.00     0.144 A 
HETATM   17  N7  UNL     1       4.148  15.106  11.445  1.00  0.00    -0.334 N 
ATOM     18  H7  UNL     1       4.579  14.300  11.899  1.00  0.00     0.168 HD
BRANCH  16  19
HETATM   19  N4  UNL     1       5.750  15.224   9.707  1.00  0.00    -0.370 N 
ATOM     20  H4  UNL     1       5.897  14.239   9.487  1.00  0.00     0.161 HD
BRANCH  19  21
HETATM   21  C18 UNL     1       6.715  16.221   9.320  1.00  0.00     0.126 C 
BRANCH  21  22
HETATM   22  C19 UNL     1       7.977  15.471   8.934  1.00  0.00     0.060 C 
BRANCH  22  23
HETATM   23  C20 UNL     1       9.096  16.048   9.717  1.00  0.00    -0.027 A 
HETATM   24  C21 UNL     1       9.112  17.293  10.326  1.00  0.00     0.097 A 
HETATM   25  N5  UNL     1      10.283  17.453  10.932  1.00  0.00    -0.351 N 
HETATM   26  C22 UNL     1      11.043  16.357  10.746  1.00  0.00     0.115 A 
ATOM     27  H5  UNL     1      10.563  18.279  11.460  1.00  0.00     0.166 HD
HETATM   28  N6  UNL     1      12.296  16.015  11.148  1.00  0.00    -0.352 N 
HETATM   29  C26 UNL     1      10.314  15.480   9.992  1.00  0.00     0.016 A 
HETATM   30  C23 UNL     1      12.863  14.838  10.835  1.00  0.00     0.089 A 
ATOM     31  H6  UNL     1      12.828  16.679  11.712  1.00  0.00     0.166 HD
HETATM   32  C24 UNL     1      12.129  13.955  10.077  1.00  0.00     0.018 A 
HETATM   33  C25 UNL     1      10.854  14.272   9.653  1.00  0.00     0.017 A 
ENDBRANCH  22  23
ENDBRANCH  21  22
ENDBRANCH  19  21
ENDBRANCH  16  19
ENDBRANCH  12  13
BRANCH   1  34
HETATM   34  N1  UNL     1       1.722  13.105  12.201  1.00  0.00    -0.341 N 
ATOM     35  H1  UNL     1       1.031  13.367  11.497  1.00  0.00     0.167 HD
BRANCH  34  36
HETATM   36  C6  UNL     1       2.447  11.925  11.962  1.00  0.00     0.034 A 
HETATM   37  C5  UNL     1       2.765  11.079  13.012  1.00  0.00     0.041 A 
HETATM   38  C4  UNL     1       3.471   9.909  12.841  1.00  0.00    -0.024 A 
HETATM   39  C3  UNL     1       3.772   9.083  13.914  1.00  0.00     0.012 A 
HETATM   40  C29 UNL     1       3.889   9.544  11.595  1.00  0.00    -0.026 A 
HETATM   41  C2  UNL     1       4.481   7.918  13.709  1.00  0.00     0.001 A 
HETATM   42  C1  UNL     1       4.902   7.551  12.449  1.00  0.00     0.001 A 
HETATM   43  C30 UNL     1       4.596   8.379  11.396  1.00  0.00     0.012 A 
HETATM   44  C28 UNL     1       3.579  10.383  10.518  1.00  0.00     0.014 A 
HETATM   45  C27 UNL     1       2.874  11.547  10.703  1.00  0.00     0.030 A 
ENDBRANCH  34  36
ENDBRANCH   1  34
TORSDOF 7
ENDMDL
MODEL 3
REMARK VINA RESULT: -8.137805238      6.719     11.560
REMARK  7 active torsions:
REMARK  status: ('A' for Active; 'I' for Inactive)
REMARK    1  A    between atoms: C6_6  and  N1_7 
REMARK    2  A    between atoms: N1_7  and  C7_9 
REMARK    3  A    between atoms: C14_20  and  C15_21 
REMARK    4  A    between atoms: C17_24  and  N4_25 
REMARK    5  A    between atoms: N4_25  and  C18_27 
REMARK    6  A    between atoms: C18_27  and  C19_28 
REMARK    7  A    between atoms: C19_28  and  C20_29 
ROOT
HETATM    1  C7  UNL     1       6.334  15.503   8.796  1.00  0.00     0.136 A 
HETATM    2  N2  UNL     1       7.207  16.167   9.628  1.00  0.00    -0.339 N 
ATOM      3  H2  UNL     1       6.840  16.867  10.273  1.00  0.00     0.167 HD
HETATM    4  C8  UNL     1       8.520  15.923   9.617  1.00  0.00     0.060 A 
HETATM    5  C9  UNL     1       9.407  16.579  10.441  1.00  0.00     0.032 A 
HETATM    6  C10 UNL     1      10.748  16.294  10.391  1.00  0.00     0.002 A 
HETATM    7  C11 UNL     1      11.260  15.354   9.527  1.00  0.00     0.002 A 
HETATM    8  C12 UNL     1      10.372  14.703   8.708  1.00  0.00     0.032 A 
HETATM    9  C13 UNL     1       9.020  14.976   8.744  1.00  0.00     0.059 A 
HETATM   10  N3  UNL     1       8.146  14.349   7.951  1.00  0.00    -0.350 N 
ATOM     11  H3  UNL     1       8.512  13.650   7.305  1.00  0.00     0.166 HD
HETATM   12  C14 UNL     1       6.807  14.573   7.939  1.00  0.00     0.105 A 
ENDROOT
BRANCH  12  13
HETATM   13  C15 UNL     1       5.914  13.819   7.012  1.00  0.00     0.071 A 
HETATM   14  C16 UNL     1       5.665  14.214   5.739  1.00  0.00     0.085 A 
HETATM   15  S1  UNL     1       4.590  12.969   5.171  1.00  0.00    -0.064 SA
HETATM   16  C17 UNL     1       4.544  12.051   6.589  1.00  0.00     0.144 A 
HETATM   17  N7  UNL     1       5.327  12.707   7.422  1.00  0.00    -0.334 N 
ATOM     18  H7  UNL     1       5.478  12.362   8.371  1.00  0.00     0.168 HD
BRANCH  16  19
HETATM   19  N4  UNL     1       3.880  10.938   6.806  1.00  0.00    -0.370 N 
ATOM     20  H4  UNL     1       3.837  10.207   6.097  1.00  0.00     0.161 HD
BRANCH  19  21
HETATM   21  C18 UNL     1       3.214  10.780   8.073  1.00  0.00     0.126 C 
BRANCH  21  22
HETATM   22  C19 UNL     1       4.171  10.016   8.971  1.00  0.00     0.060 C 
BRANCH  22  23
HETATM   23  C20 UNL     1       3.763  10.267  10.374  1.00  0.00    -0.027 A 
HETATM   24  C21 UNL     1       3.075  11.376  10.841  1.00  0.00     0.097 A 
HETATM   25  N5  UNL     1       2.892  11.240  12.149  1.00  0.00    -0.351 N 
HETATM   26  C22 UNL     1       3.434  10.080  12.566  1.00  0.00     0.115 A 
ATOM     27  H5  UNL     1       2.413  11.912  12.748  1.00  0.00     0.166 HD
HETATM   28  N6  UNL     1       3.520   9.476  13.781  1.00  0.00    -0.352 N 
HETATM   29  C26 UNL     1       3.978   9.469  11.470  1.00  0.00     0.016 A 
HETATM   30  C23 UNL     1       4.123   8.289  13.961  1.00  0.00     0.089 A 
ATOM     31  H6  UNL     1       3.108   9.943  14.589  1.00  0.00     0.166 HD
HETATM   32  C24 UNL     1       4.670   7.674  12.858  1.00  0.00     0.018 A 
HETATM   33  C25 UNL     1       4.599   8.261  11.610  1.00  0.00     0.017 A 
ENDBRANCH  22  23
ENDBRANCH  21  22
ENDBRANCH  19  21
ENDBRANCH  16  19
ENDBRANCH  12  13
BRANCH   1  34
HETATM   34  N1  UNL     1       5.104  15.833   8.911  1.00  0.00    -0.341 N 
ATOM     35  H1  UNL     1       4.608  16.061   8.049  1.00  0.00     0.167 HD
BRANCH  34  36
HETATM   36  C6  UNL     1       4.367  15.916  10.104  1.00  0.00     0.034 A 
HETATM   37  C5  UNL     1       4.541  14.967  11.097  1.00  0.00     0.041 A 
HETATM   38  C4  UNL     1       3.849  14.995  12.288  1.00  0.00    -0.024 A 
HETATM   39  C3  UNL     1       4.048  14.028  13.264  1.00  0.00     0.012 A 
HETATM   40  C29 UNL     1       2.947  15.990  12.525  1.00  0.00    -0.026 A 
HETATM   41  C2  UNL     1       3.339  14.086  14.445  1.00  0.00     0.001 A 
HETATM   42  C1  UNL     1       2.428  15.092  14.682  1.00  0.00     0.001 A 
HETATM   43  C30 UNL     1       2.242  16.043  13.707  1.00  0.00     0.012 A 
HETATM   44  C28 UNL     1       2.754  16.961  11.536  1.00  0.00     0.014 A 
HETATM   45  C27 UNL     1       3.451  16.921  10.353  1.00  0.00     0.030 A 
ENDBRANCH  34  36
ENDBRANCH   1  34
TORSDOF 7
ENDMDL
MODEL 4
REMARK VINA RESULT: -7.834563310      5.359      9.445
REMARK  7 active torsions:
REMARK  status: ('A' for Active; 'I' for Inactive)
REMARK    1  A    between atoms: C6_6  and  N1_7 
REMARK    2  A    between atoms: N1_7  and  C7_9 
REMARK    3  A    between atoms: C14_20  and  C15_21 
REMARK    4  A    between atoms: C17_24  and  N4_25 
REMARK    5  A    between atoms: N4_25  and  C18_27 
REMARK    6  A    between atoms: C18_27  and  C19_28 
REMARK    7  A    between atoms: C19_28  and  C20_29 
ROOT
HETATM    1  C7  UNL     1       1.894  13.917  13.175  1.00  0.00     0.136 A 
HETATM    2  N2  UNL     1       1.242  13.447  14.293  1.00  0.00    -0.339 N 
ATOM      3  H2  UNL     1       0.744  12.558  14.239  1.00  0.00     0.167 HD
HETATM    4  C8  UNL     1       1.242  14.120  15.448  1.00  0.00     0.060 A 
HETATM    5  C9  UNL     1       0.595  13.665  16.574  1.00  0.00     0.032 A 
HETATM    6  C10 UNL     1       0.623  14.393  17.736  1.00  0.00     0.002 A 
HETATM    7  C11 UNL     1       1.288  15.594  17.827  1.00  0.00     0.002 A 
HETATM    8  C12 UNL     1       1.932  16.042  16.701  1.00  0.00     0.032 A 
HETATM    9  C13 UNL     1       1.915  15.324  15.523  1.00  0.00     0.059 A 
HETATM   10  N3  UNL     1       2.537  15.751  14.420  1.00  0.00    -0.350 N 
ATOM     11  H3  UNL     1       3.034  16.640  14.473  1.00  0.00     0.166 HD
HETATM   12  C14 UNL     1       2.557  15.091  13.234  1.00  0.00     0.105 A 
ENDROOT
BRANCH  12  13
HETATM   13  C15 UNL     1       3.283  15.654  12.058  1.00  0.00     0.071 A 
HETATM   14  C16 UNL     1       4.313  15.016  11.450  1.00  0.00     0.085 A 
HETATM   15  S1  UNL     1       4.735  16.126  10.179  1.00  0.00    -0.064 SA
HETATM   16  C17 UNL     1       3.573  17.305  10.519  1.00  0.00     0.144 A 
HETATM   17  N7  UNL     1       2.923  16.825  11.561  1.00  0.00    -0.334 N 
ATOM     18  H7  UNL     1       2.155  17.350  11.978  1.00  0.00     0.168 HD
BRANCH  16  19
HETATM   19  N4  UNL     1       3.367  18.439   9.887  1.00  0.00    -0.370 N 
ATOM     20  H4  UNL     1       2.441  18.682   9.536  1.00  0.00     0.161 HD
BRANCH  19  21
HETATM   21  C18 UNL     1       4.486  19.326   9.702  1.00  0.00     0.126 C 
BRANCH  21  22
HETATM   22  C19 UNL     1       3.955  20.735   9.901  1.00  0.00     0.060 C 
BRANCH  22  23
HETATM   23  C20 UNL     1       4.858  21.421  10.857  1.00  0.00    -0.027 A 
HETATM   24  C21 UNL     1       5.938  20.852  11.514  1.00  0.00     0.097 A 
HETATM   25  N5  UNL     1       6.500  21.778  12.282  1.00  0.00    -0.351 N 
HETATM   26  C22 UNL     1       5.831  22.940  12.157  1.00  0.00     0.115 A 
ATOM     27  H5  UNL     1       7.316  21.632  12.876  1.00  0.00     0.166 HD
HETATM   28  N6  UNL     1       5.991  24.171  12.712  1.00  0.00    -0.352 N 
HETATM   29  C26 UNL     1       4.808  22.727  11.274  1.00  0.00     0.016 A 
HETATM   30  C23 UNL     1       5.180  25.205  12.432  1.00  0.00     0.089 A 
ATOM     31  H6  UNL     1       6.759  24.315  13.368  1.00  0.00     0.166 HD
HETATM   32  C24 UNL     1       4.152  24.990  11.543  1.00  0.00     0.018 A 
HETATM   33  C25 UNL     1       3.963  23.752  10.962  1.00  0.00     0.017 A 
ENDBRANCH  22  23
ENDBRANCH  21  22
ENDBRANCH  19  21
ENDBRANCH  16  19
ENDBRANCH  12  13
BRANCH   1  34
HETATM   34  N1  UNL     1       1.814  13.173  12.138  1.00  0.00    -0.341 N 
ATOM     35  H1  UNL     1       1.175  13.478  11.404  1.00  0.00     0.167 HD
BRANCH  34  36
HETATM   36  C6  UNL     1       2.515  11.978  11.908  1.00  0.00     0.034 A 
HETATM   37  C5  UNL     1       2.795  11.121  12.959  1.00  0.00     0.041 A 
HETATM   38  C4  UNL     1       3.477   9.935  12.796  1.00  0.00    -0.024 A 
HETATM   39  C3  UNL     1       3.741   9.098  13.871  1.00  0.00     0.012 A 
HETATM   40  C29 UNL     1       3.907   9.564  11.556  1.00  0.00    -0.026 A 
HETATM   41  C2  UNL     1       4.426   7.918  13.673  1.00  0.00     0.001 A 
HETATM   42  C1  UNL     1       4.859   7.546  12.419  1.00  0.00     0.001 A 
HETATM   43  C30 UNL     1       4.590   8.384  11.364  1.00  0.00     0.012 A 
HETATM   44  C28 UNL     1       3.636  10.415  10.477  1.00  0.00     0.014 A 
HETATM   45  C27 UNL     1       2.955  11.594  10.654  1.00  0.00     0.030 A 
ENDBRANCH  34  36
ENDBRANCH   1  34
TORSDOF 7
ENDMDL
MODEL 5
REMARK VINA RESULT: -7.780052401      4.788     10.728
REMARK  7 active torsions:
REMARK  status: ('A' for Active; 'I' for Inactive)
REMARK    1  A    between atoms: C6_6  and  N1_7 
REMARK    2  A    between atoms: N1_7  and  C7_9 
REMARK    3  A    between atoms: C14_20  and  C15_21 
REMARK    4  A    between atoms: C17_24  and  N4_25 
REMARK    5  A    between atoms: N4_25  and  C18_27 
REMARK    6  A    between atoms: C18_27  and  C19_28 
REMARK    7  A    between atoms: C19_28  and  C20_29 
ROOT
HETATM    1  C7  UNL     1       4.138  13.741   9.581  1.00  0.00     0.136 A 
HETATM    2  N2  UNL     1       4.813  13.608   8.389  1.00  0.00    -0.339 N 
ATOM      3  H2  UNL     1       4.625  12.794   7.802  1.00  0.00     0.167 HD
HETATM    4  C8  UNL     1       5.707  14.511   7.976  1.00  0.00     0.060 A 
HETATM    5  C9  UNL     1       6.391  14.392   6.788  1.00  0.00     0.032 A 
HETATM    6  C10 UNL     1       7.301  15.346   6.408  1.00  0.00     0.002 A 
HETATM    7  C11 UNL     1       7.567  16.448   7.186  1.00  0.00     0.002 A 
HETATM    8  C12 UNL     1       6.882  16.562   8.370  1.00  0.00     0.032 A 
HETATM    9  C13 UNL     1       5.963  15.613   8.769  1.00  0.00     0.059 A 
HETATM   10  N3  UNL     1       5.291  15.712   9.920  1.00  0.00    -0.350 N 
ATOM     11  H3  UNL     1       5.479  16.524  10.507  1.00  0.00     0.166 HD
HETATM   12  C14 UNL     1       4.377  14.813  10.366  1.00  0.00     0.105 A 
ENDROOT
BRANCH  12  13
HETATM   13  C15 UNL     1       3.679  15.016  11.669  1.00  0.00     0.071 A 
HETATM   14  C16 UNL     1       4.072  14.417  12.820  1.00  0.00     0.085 A 
HETATM   15  S1  UNL     1       2.911  15.023  13.966  1.00  0.00    -0.064 SA
HETATM   16  C17 UNL     1       2.025  15.986  12.896  1.00  0.00     0.144 A 
HETATM   17  N7  UNL     1       2.627  15.815  11.736  1.00  0.00    -0.334 N 
ATOM     18  H7  UNL     1       2.287  16.292  10.901  1.00  0.00     0.168 HD
BRANCH  16  19
HETATM   19  N4  UNL     1       0.977  16.732  13.163  1.00  0.00    -0.370 N 
ATOM     20  H4  UNL     1       0.032  16.385  13.004  1.00  0.00     0.161 HD
BRANCH  19  21
HETATM   21  C18 UNL     1       1.201  18.055  13.688  1.00  0.00     0.126 C 
BRANCH  21  22
HETATM   22  C19 UNL     1       0.379  18.158  14.960  1.00  0.00     0.060 C 
BRANCH  22  23
HETATM   23  C20 UNL     1       1.269  17.814  16.096  1.00  0.00    -0.027 A 
HETATM   24  C21 UNL     1       2.194  18.655  16.694  1.00  0.00     0.097 A 
HETATM   25  N5  UNL     1       2.796  17.991  17.674  1.00  0.00    -0.351 N 
HETATM   26  C22 UNL     1       2.303  16.740  17.746  1.00  0.00     0.115 A 
ATOM     27  H5  UNL     1       3.522  18.371  18.281  1.00  0.00     0.166 HD
HETATM   28  N6  UNL     1       2.569  15.679  18.553  1.00  0.00    -0.352 N 
HETATM   29  C26 UNL     1       1.354  16.621  16.768  1.00  0.00     0.016 A 
HETATM   30  C23 UNL     1       1.935  14.500  18.436  1.00  0.00     0.089 A 
ATOM     31  H6  UNL     1       3.278  15.783  19.279  1.00  0.00     0.166 HD
HETATM   32  C24 UNL     1       0.980  14.381  17.453  1.00  0.00     0.018 A 
HETATM   33  C25 UNL     1       0.686  15.440  16.617  1.00  0.00     0.017 A 
ENDBRANCH  22  23
ENDBRANCH  21  22
ENDBRANCH  19  21
ENDBRANCH  16  19
ENDBRANCH  12  13
BRANCH   1  34
HETATM   34  N1  UNL     1       3.311  12.805   9.854  1.00  0.00    -0.341 N 
ATOM     35  H1  UNL     1       2.322  13.012   9.716  1.00  0.00     0.167 HD
BRANCH  34  36
HETATM   36  C6  UNL     1       3.627  11.519  10.325  1.00  0.00     0.034 A 
HETATM   37  C5  UNL     1       3.511  11.223  11.673  1.00  0.00     0.041 A 
HETATM   38  C4  UNL     1       3.804   9.982  12.194  1.00  0.00    -0.024 A 
HETATM   39  C3  UNL     1       3.676   9.718  13.550  1.00  0.00     0.012 A 
HETATM   40  C29 UNL     1       4.228   8.983  11.369  1.00  0.00    -0.026 A 
HETATM   41  C2  UNL     1       3.976   8.465  14.039  1.00  0.00     0.001 A 
HETATM   42  C1  UNL     1       4.405   7.456  13.203  1.00  0.00     0.001 A 
HETATM   43  C30 UNL     1       4.526   7.732  11.862  1.00  0.00     0.012 A 
HETATM   44  C28 UNL     1       4.353   9.258  10.001  1.00  0.00     0.014 A 
HETATM   45  C27 UNL     1       4.058  10.500   9.496  1.00  0.00     0.030 A 
ENDBRANCH  34  36
ENDBRANCH   1  34
TORSDOF 7
ENDMDL
