MODEL 1
REMARK VINA RESULT: -8.342960290      0.000      0.000
REMARK  13 active torsions:
REMARK  status: ('A' for Active; 'I' for Inactive)
REMARK    1  A    between atoms: C3_3  and  C4_4 
REMARK    2  A    between atoms: C4_4  and  C5_5 
REMARK    3  A    between atoms: C5_5  and  C6_6 
REMARK    4  A    between atoms: C6_6  and  C7_7 
REMARK    5  A    between atoms: C7_7  and  N1_8 
REMARK    6  A    between atoms: N1_8  and  S1_10 
REMARK    7  A    between atoms: S1_10  and  N2_13 
REMARK    8  A    between atoms: N2_13  and  C8_15 
REMARK    9  A    between atoms: C8_15  and  C9_16 
REMARK   10  A    between atoms: C11_18  and  C12_19 
REMARK   11  A    between atoms: C15_22  and  C16_23 
REMARK   12  A    between atoms: C16_23  and  O3_24 
REMARK   13  A    between atoms: N3_26  and  O4_28 
ROOT
HETATM    1  C1  UNL     1      37.649  45.085  -0.619  1.00  0.00     0.012 C 
HETATM    2  C2  UNL     1      37.846  44.108   0.082  1.00  0.00    -0.117 C 
HETATM    3  C3  UNL     1      38.107  42.940   0.922  1.00  0.00     0.093 C 
ENDROOT
BRANCH   3   4
HETATM    4  C4  UNL     1      36.954  41.956   0.660  1.00  0.00     0.012 C 
BRANCH   4   5
HETATM    5  C5  UNL     1      37.254  41.285  -0.656  1.00  0.00     0.002 C 
BRANCH   5   6
HETATM    6  C6  UNL     1      36.016  41.234  -1.483  1.00  0.00     0.020 C 
BRANCH   6   7
HETATM    7  C7  UNL     1      36.015  42.384  -2.463  1.00  0.00     0.133 C 
BRANCH   7   8
HETATM    8  N1  UNL     1      35.073  41.987  -3.519  1.00  0.00    -0.303 N 
ATOM      9  H1  UNL     1      34.055  42.011  -3.447  1.00  0.00     0.173 HD
BRANCH   8  10
HETATM   10  S1  UNL     1      35.961  41.481  -4.883  1.00  0.00     0.314 S 
HETATM   11  O1  UNL     1      36.853  42.589  -5.406  1.00  0.00    -0.183 OA
HETATM   12  O2  UNL     1      36.924  40.353  -4.527  1.00  0.00    -0.183 OA
BRANCH  10  13
HETATM   13  N2  UNL     1      34.917  40.886  -6.076  1.00  0.00    -0.302 N 
ATOM     14  H2  UNL     1      34.748  39.888  -6.201  1.00  0.00     0.173 HD
BRANCH  13  15
HETATM   15  C8  UNL     1      34.280  41.886  -6.905  1.00  0.00     0.138 C 
BRANCH  15  16
HETATM   16  C9  UNL     1      34.264  41.341  -8.312  1.00  0.00     0.009 A 
HETATM   17  C10 UNL     1      33.139  40.532  -8.818  1.00  0.00     0.012 A 
HETATM   18  C11 UNL     1      33.175  41.950  -9.203  1.00  0.00    -0.004 A 
BRANCH  18  19
HETATM   19  C12 UNL     1      33.623  42.444 -10.536  1.00  0.00    -0.010 C 
HETATM   20  C13 UNL     1      33.759  43.979 -10.435  1.00  0.00     0.006 C 
HETATM   21  C14 UNL     1      32.353  44.515 -10.302  1.00  0.00     0.013 C 
HETATM   22  C15 UNL     1      31.618  44.286 -11.559  1.00  0.00     0.062 C 
HETATM   23  C17 UNL     1      31.625  42.858 -12.046  1.00  0.00     0.013 C 
HETATM   24  C18 UNL     1      32.806  42.045 -11.701  1.00  0.00     0.006 C 
BRANCH  22  25
HETATM   25  C16 UNL     1      31.968  45.233 -12.613  1.00  0.00     0.139 C 
HETATM   26  N3  UNL     1      31.279  45.531 -13.592  1.00  0.00    -0.251 N 
ATOM     27  H3  UNL     1      31.790  46.218 -14.145  1.00  0.00     0.196 HD
BRANCH  25  28
HETATM   28  O3  UNL     1      33.228  45.896 -12.534  1.00  0.00    -0.348 OA
ATOM     29  H3  UNL     1      33.314  46.751 -12.941  1.00  0.00     0.219 HD
ENDBRANCH  25  28
BRANCH  26  30
HETATM   30  O4  UNL     1      30.144  45.296 -14.181  1.00  0.00    -0.288 OA
ATOM     31  H4  UNL     1      29.363  44.756 -14.146  1.00  0.00     0.244 HD
ENDBRANCH  26  30
ENDBRANCH  22  25
ENDBRANCH  18  19
ENDBRANCH  15  16
ENDBRANCH  13  15
ENDBRANCH  10  13
ENDBRANCH   8  10
ENDBRANCH   7   8
ENDBRANCH   6   7
ENDBRANCH   5   6
ENDBRANCH   4   5
ENDBRANCH   3   4
TORSDOF 13
ENDMDL
MODEL 2
REMARK VINA RESULT: -8.047969201      1.538      2.544
REMARK  13 active torsions:
REMARK  status: ('A' for Active; 'I' for Inactive)
REMARK    1  A    between atoms: C3_3  and  C4_4 
REMARK    2  A    between atoms: C4_4  and  C5_5 
REMARK    3  A    between atoms: C5_5  and  C6_6 
REMARK    4  A    between atoms: C6_6  and  C7_7 
REMARK    5  A    between atoms: C7_7  and  N1_8 
REMARK    6  A    between atoms: N1_8  and  S1_10 
REMARK    7  A    between atoms: S1_10  and  N2_13 
REMARK    8  A    between atoms: N2_13  and  C8_15 
REMARK    9  A    between atoms: C8_15  and  C9_16 
REMARK   10  A    between atoms: C11_18  and  C12_19 
REMARK   11  A    between atoms: C15_22  and  C16_23 
REMARK   12  A    between atoms: C16_23  and  O3_24 
REMARK   13  A    between atoms: N3_26  and  O4_28 
ROOT
HETATM    1  C1  UNL     1      38.423  36.772  -1.473  1.00  0.00     0.012 C 
HETATM    2  C2  UNL     1      38.000  37.890  -1.710  1.00  0.00    -0.117 C 
HETATM    3  C3  UNL     1      37.513  39.236  -2.008  1.00  0.00     0.093 C 
ENDROOT
BRANCH   3   4
HETATM    4  C4  UNL     1      36.686  39.674  -0.786  1.00  0.00     0.012 C 
BRANCH   4   5
HETATM    5  C5  UNL     1      36.546  41.172  -0.879  1.00  0.00     0.002 C 
BRANCH   5   6
HETATM    6  C6  UNL     1      37.215  41.659  -2.117  1.00  0.00     0.020 C 
BRANCH   6   7
HETATM    7  C7  UNL     1      36.279  42.573  -2.872  1.00  0.00     0.133 C 
BRANCH   7   8
HETATM    8  N1  UNL     1      35.277  41.682  -3.475  1.00  0.00    -0.303 N 
ATOM      9  H1  UNL     1      34.474  41.277  -2.992  1.00  0.00     0.173 HD
BRANCH   8  10
HETATM   10  S1  UNL     1      35.679  41.436  -5.113  1.00  0.00     0.314 S 
HETATM   11  O1  UNL     1      36.506  42.582  -5.659  1.00  0.00    -0.183 OA
HETATM   12  O2  UNL     1      36.567  40.208  -5.285  1.00  0.00    -0.183 OA
BRANCH  10  13
HETATM   13  N2  UNL     1      34.278  41.168  -6.027  1.00  0.00    -0.302 N 
ATOM     14  H2  UNL     1      33.676  40.360  -5.873  1.00  0.00     0.173 HD
BRANCH  13  15
HETATM   15  C8  UNL     1      33.992  42.162  -7.039  1.00  0.00     0.138 C 
BRANCH  15  16
HETATM   16  C9  UNL     1      33.982  41.444  -8.365  1.00  0.00     0.009 A 
HETATM   17  C10 UNL     1      32.835  40.620  -8.793  1.00  0.00     0.012 A 
HETATM   18  C11 UNL     1      32.937  41.975  -9.353  1.00  0.00    -0.004 A 
BRANCH  18  19
HETATM   19  C12 UNL     1      33.431  42.278 -10.726  1.00  0.00    -0.010 C 
HETATM   20  C13 UNL     1      33.793  43.779 -10.763  1.00  0.00     0.006 C 
HETATM   21  C14 UNL     1      32.483  44.527 -10.674  1.00  0.00     0.013 C 
HETATM   22  C15 UNL     1      31.702  44.300 -11.903  1.00  0.00     0.062 C 
HETATM   23  C17 UNL     1      31.491  42.849 -12.261  1.00  0.00     0.013 C 
HETATM   24  C18 UNL     1      32.545  41.904 -11.849  1.00  0.00     0.006 C 
BRANCH  22  25
HETATM   25  C16 UNL     1      32.170  45.089 -13.038  1.00  0.00     0.139 C 
HETATM   26  N3  UNL     1      32.340  46.310 -13.063  1.00  0.00    -0.251 N 
ATOM     27  H3  UNL     1      32.673  46.568 -13.992  1.00  0.00     0.196 HD
BRANCH  25  28
HETATM   28  O3  UNL     1      32.466  44.410 -14.257  1.00  0.00    -0.348 OA
ATOM     29  H3  UNL     1      32.365  44.886 -15.073  1.00  0.00     0.219 HD
ENDBRANCH  25  28
BRANCH  26  30
HETATM   30  O4  UNL     1      32.254  47.392 -12.348  1.00  0.00    -0.288 OA
ATOM     31  H4  UNL     1      32.457  47.763 -11.496  1.00  0.00     0.244 HD
ENDBRANCH  26  30
ENDBRANCH  22  25
ENDBRANCH  18  19
ENDBRANCH  15  16
ENDBRANCH  13  15
ENDBRANCH  10  13
ENDBRANCH   8  10
ENDBRANCH   7   8
ENDBRANCH   6   7
ENDBRANCH   5   6
ENDBRANCH   4   5
ENDBRANCH   3   4
TORSDOF 13
ENDMDL
MODEL 3
REMARK VINA RESULT: -7.927654197      3.765      5.488
REMARK  13 active torsions:
REMARK  status: ('A' for Active; 'I' for Inactive)
REMARK    1  A    between atoms: C3_3  and  C4_4 
REMARK    2  A    between atoms: C4_4  and  C5_5 
REMARK    3  A    between atoms: C5_5  and  C6_6 
REMARK    4  A    between atoms: C6_6  and  C7_7 
REMARK    5  A    between atoms: C7_7  and  N1_8 
REMARK    6  A    between atoms: N1_8  and  S1_10 
REMARK    7  A    between atoms: S1_10  and  N2_13 
REMARK    8  A    between atoms: N2_13  and  C8_15 
REMARK    9  A    between atoms: C8_15  and  C9_16 
REMARK   10  A    between atoms: C11_18  and  C12_19 
REMARK   11  A    between atoms: C15_22  and  C16_23 
REMARK   12  A    between atoms: C16_23  and  O3_24 
REMARK   13  A    between atoms: N3_26  and  O4_28 
ROOT
HETATM    1  C1  UNL     1      37.368  42.216   1.865  1.00  0.00     0.012 C 
HETATM    2  C2  UNL     1      37.809  42.906   0.963  1.00  0.00    -0.117 C 
HETATM    3  C3  UNL     1      38.361  43.732  -0.110  1.00  0.00     0.093 C 
ENDROOT
BRANCH   3   4
HETATM    4  C4  UNL     1      37.220  44.658  -0.569  1.00  0.00     0.012 C 
BRANCH   4   5
HETATM    5  C5  UNL     1      36.267  43.803  -1.362  1.00  0.00     0.002 C 
BRANCH   5   6
HETATM    6  C6  UNL     1      36.937  43.333  -2.607  1.00  0.00     0.020 C 
BRANCH   6   7
HETATM    7  C7  UNL     1      36.620  41.873  -2.832  1.00  0.00     0.133 C 
BRANCH   7   8
HETATM    8  N1  UNL     1      35.302  41.863  -3.483  1.00  0.00    -0.303 N 
ATOM      9  H1  UNL     1      34.402  41.879  -3.002  1.00  0.00     0.173 HD
BRANCH   8  10
HETATM   10  S1  UNL     1      35.526  41.820  -5.172  1.00  0.00     0.314 S 
HETATM   11  O1  UNL     1      36.766  42.585  -5.586  1.00  0.00    -0.183 OA
HETATM   12  O2  UNL     1      35.775  40.396  -5.659  1.00  0.00    -0.183 OA
BRANCH  10  13
HETATM   13  N2  UNL     1      34.137  42.380  -5.963  1.00  0.00    -0.302 N 
ATOM     14  H2  UNL     1      33.265  42.561  -5.466  1.00  0.00     0.173 HD
BRANCH  13  15
HETATM   15  C8  UNL     1      34.269  42.586  -7.389  1.00  0.00     0.138 C 
BRANCH  15  16
HETATM   16  C9  UNL     1      33.397  41.555  -8.061  1.00  0.00     0.009 A 
HETATM   17  C10 UNL     1      33.239  41.509  -9.527  1.00  0.00     0.012 A 
HETATM   18  C11 UNL     1      34.173  40.549  -8.921  1.00  0.00    -0.004 A 
BRANCH  18  19
HETATM   19  C12 UNL     1      33.859  39.112  -8.686  1.00  0.00    -0.010 C 
HETATM   20  C13 UNL     1      35.196  38.388  -8.414  1.00  0.00     0.006 C 
HETATM   21  C14 UNL     1      35.947  38.388  -9.725  1.00  0.00     0.013 C 
HETATM   22  C15 UNL     1      35.245  37.526 -10.693  1.00  0.00     0.062 C 
HETATM   23  C17 UNL     1      33.784  37.850 -10.889  1.00  0.00     0.013 C 
HETATM   24  C18 UNL     1      33.072  38.424  -9.732  1.00  0.00     0.006 C 
BRANCH  22  25
HETATM   25  C16 UNL     1      35.473  36.102 -10.468  1.00  0.00     0.139 C 
HETATM   26  N3  UNL     1      36.520  35.483 -10.677  1.00  0.00    -0.251 N 
ATOM     27  H3  UNL     1      36.370  34.507 -10.423  1.00  0.00     0.196 HD
BRANCH  25  28
HETATM   28  O3  UNL     1      34.397  35.318  -9.958  1.00  0.00    -0.348 OA
ATOM     29  H3  UNL     1      34.471  34.971  -9.076  1.00  0.00     0.219 HD
ENDBRANCH  25  28
BRANCH  26  30
HETATM   30  O4  UNL     1      37.742  35.611 -11.101  1.00  0.00    -0.288 OA
ATOM     31  H4  UNL     1      38.302  36.123 -11.674  1.00  0.00     0.244 HD
ENDBRANCH  26  30
ENDBRANCH  22  25
ENDBRANCH  18  19
ENDBRANCH  15  16
ENDBRANCH  13  15
ENDBRANCH  10  13
ENDBRANCH   8  10
ENDBRANCH   7   8
ENDBRANCH   6   7
ENDBRANCH   5   6
ENDBRANCH   4   5
ENDBRANCH   3   4
TORSDOF 13
ENDMDL
MODEL 4
REMARK VINA RESULT: -7.861459246      3.744      5.299
REMARK  13 active torsions:
REMARK  status: ('A' for Active; 'I' for Inactive)
REMARK    1  A    between atoms: C3_3  and  C4_4 
REMARK    2  A    between atoms: C4_4  and  C5_5 
REMARK    3  A    between atoms: C5_5  and  C6_6 
REMARK    4  A    between atoms: C6_6  and  C7_7 
REMARK    5  A    between atoms: C7_7  and  N1_8 
REMARK    6  A    between atoms: N1_8  and  S1_10 
REMARK    7  A    between atoms: S1_10  and  N2_13 
REMARK    8  A    between atoms: N2_13  and  C8_15 
REMARK    9  A    between atoms: C8_15  and  C9_16 
REMARK   10  A    between atoms: C11_18  and  C12_19 
REMARK   11  A    between atoms: C15_22  and  C16_23 
REMARK   12  A    between atoms: C16_23  and  O3_24 
REMARK   13  A    between atoms: N3_26  and  O4_28 
ROOT
HETATM    1  C1  UNL     1      37.598  45.510  -0.403  1.00  0.00     0.012 C 
HETATM    2  C2  UNL     1      37.869  44.416   0.060  1.00  0.00    -0.117 C 
HETATM    3  C3  UNL     1      38.216  43.103   0.604  1.00  0.00     0.093 C 
ENDROOT
BRANCH   3   4
HETATM    4  C4  UNL     1      36.882  42.375   0.850  1.00  0.00     0.012 C 
BRANCH   4   5
HETATM    5  C5  UNL     1      36.082  42.507  -0.421  1.00  0.00     0.002 C 
BRANCH   5   6
HETATM    6  C6  UNL     1      36.438  41.399  -1.351  1.00  0.00     0.020 C 
BRANCH   6   7
HETATM    7  C7  UNL     1      36.653  41.954  -2.739  1.00  0.00     0.133 C 
BRANCH   7   8
HETATM    8  N1  UNL     1      35.354  41.814  -3.413  1.00  0.00    -0.303 N 
ATOM      9  H1  UNL     1      34.451  41.715  -2.948  1.00  0.00     0.173 HD
BRANCH   8  10
HETATM   10  S1  UNL     1      35.606  41.845  -5.099  1.00  0.00     0.314 S 
HETATM   11  O1  UNL     1      36.841  42.645  -5.460  1.00  0.00    -0.183 OA
HETATM   12  O2  UNL     1      35.886  40.446  -5.640  1.00  0.00    -0.183 OA
BRANCH  10  13
HETATM   13  N2  UNL     1      34.222  42.416  -5.889  1.00  0.00    -0.302 N 
ATOM     14  H2  UNL     1      33.364  42.642  -5.386  1.00  0.00     0.173 HD
BRANCH  13  15
HETATM   15  C8  UNL     1      34.336  42.563  -7.324  1.00  0.00     0.138 C 
BRANCH  15  16
HETATM   16  C9  UNL     1      33.375  41.578  -7.941  1.00  0.00     0.009 A 
HETATM   17  C10 UNL     1      33.045  41.613  -9.379  1.00  0.00     0.012 A 
HETATM   18  C11 UNL     1      34.028  40.613  -8.938  1.00  0.00    -0.004 A 
BRANCH  18  19
HETATM   19  C12 UNL     1      33.721  39.168  -8.744  1.00  0.00    -0.010 C 
HETATM   20  C13 UNL     1      35.051  38.457  -8.412  1.00  0.00     0.006 C 
HETATM   21  C14 UNL     1      35.871  38.488  -9.681  1.00  0.00     0.013 C 
HETATM   22  C15 UNL     1      35.233  37.634 -10.699  1.00  0.00     0.062 C 
HETATM   23  C17 UNL     1      33.780  37.942 -10.967  1.00  0.00     0.013 C 
HETATM   24  C18 UNL     1      33.000  38.488  -9.841  1.00  0.00     0.006 C 
BRANCH  22  25
HETATM   25  C16 UNL     1      35.468  36.209 -10.485  1.00  0.00     0.139 C 
HETATM   26  N3  UNL     1      36.543  35.616 -10.598  1.00  0.00    -0.251 N 
ATOM     27  H3  UNL     1      36.390  34.631 -10.384  1.00  0.00     0.196 HD
BRANCH  25  28
HETATM   28  O3  UNL     1      34.361  35.391 -10.109  1.00  0.00    -0.348 OA
ATOM     29  H3  UNL     1      33.854  35.643  -9.346  1.00  0.00     0.219 HD
ENDBRANCH  25  28
BRANCH  26  30
HETATM   30  O4  UNL     1      37.800  35.779 -10.888  1.00  0.00    -0.288 OA
ATOM     31  H4  UNL     1      38.402  36.290 -11.417  1.00  0.00     0.244 HD
ENDBRANCH  26  30
ENDBRANCH  22  25
ENDBRANCH  18  19
ENDBRANCH  15  16
ENDBRANCH  13  15
ENDBRANCH  10  13
ENDBRANCH   8  10
ENDBRANCH   7   8
ENDBRANCH   6   7
ENDBRANCH   5   6
ENDBRANCH   4   5
ENDBRANCH   3   4
TORSDOF 13
ENDMDL
MODEL 5
REMARK VINA RESULT: -7.802928641      2.880      3.500
REMARK  13 active torsions:
REMARK  status: ('A' for Active; 'I' for Inactive)
REMARK    1  A    between atoms: C3_3  and  C4_4 
REMARK    2  A    between atoms: C4_4  and  C5_5 
REMARK    3  A    between atoms: C5_5  and  C6_6 
REMARK    4  A    between atoms: C6_6  and  C7_7 
REMARK    5  A    between atoms: C7_7  and  N1_8 
REMARK    6  A    between atoms: N1_8  and  S1_10 
REMARK    7  A    between atoms: S1_10  and  N2_13 
REMARK    8  A    between atoms: N2_13  and  C8_15 
REMARK    9  A    between atoms: C8_15  and  C9_16 
REMARK   10  A    between atoms: C11_18  and  C12_19 
REMARK   11  A    between atoms: C15_22  and  C16_23 
REMARK   12  A    between atoms: C16_23  and  O3_24 
REMARK   13  A    between atoms: N3_26  and  O4_28 
ROOT
HETATM    1  C1  UNL     1      37.504  44.907  -0.492  1.00  0.00     0.012 C 
HETATM    2  C2  UNL     1      37.733  43.956   0.234  1.00  0.00    -0.117 C 
HETATM    3  C3  UNL     1      38.031  42.818   1.103  1.00  0.00     0.093 C 
ENDROOT
BRANCH   3   4
HETATM    4  C4  UNL     1      36.852  41.841   0.951  1.00  0.00     0.012 C 
BRANCH   4   5
HETATM    5  C5  UNL     1      37.048  41.136  -0.366  1.00  0.00     0.002 C 
BRANCH   5   6
HETATM    6  C6  UNL     1      35.876  41.396  -1.250  1.00  0.00     0.020 C 
BRANCH   6   7
HETATM    7  C7  UNL     1      36.354  41.932  -2.578  1.00  0.00     0.133 C 
BRANCH   7   8
HETATM    8  N1  UNL     1      35.171  41.906  -3.450  1.00  0.00    -0.303 N 
ATOM      9  H1  UNL     1      34.201  41.899  -3.135  1.00  0.00     0.173 HD
BRANCH   8  10
HETATM   10  S1  UNL     1      35.689  41.889  -5.074  1.00  0.00     0.314 S 
HETATM   11  O1  UNL     1      36.947  42.712  -5.264  1.00  0.00    -0.183 OA
HETATM   12  O2  UNL     1      36.083  40.482  -5.513  1.00  0.00    -0.183 OA
BRANCH  10  13
HETATM   13  N2  UNL     1      34.436  42.395  -6.095  1.00  0.00    -0.302 N 
ATOM     14  H2  UNL     1      33.893  43.238  -5.911  1.00  0.00     0.173 HD
BRANCH  13  15
HETATM   15  C8  UNL     1      34.186  41.552  -7.244  1.00  0.00     0.138 C 
BRANCH  15  16
HETATM   16  C9  UNL     1      33.300  42.338  -8.178  1.00  0.00     0.009 A 
HETATM   17  C10 UNL     1      33.858  43.270  -9.176  1.00  0.00     0.012 A 
HETATM   18  C11 UNL     1      33.444  41.943  -9.653  1.00  0.00    -0.004 A 
BRANCH  18  19
HETATM   19  C12 UNL     1      32.173  41.675 -10.383  1.00  0.00    -0.010 C 
HETATM   20  C13 UNL     1      31.872  40.166 -10.243  1.00  0.00     0.006 C 
HETATM   21  C14 UNL     1      32.922  39.452 -11.063  1.00  0.00     0.013 C 
HETATM   22  C15 UNL     1      32.712  39.745 -12.493  1.00  0.00     0.062 C 
HETATM   23  C17 UNL     1      32.641  41.213 -12.836  1.00  0.00     0.013 C 
HETATM   24  C18 UNL     1      32.113  42.113 -11.794  1.00  0.00     0.006 C 
BRANCH  22  25
HETATM   25  C16 UNL     1      31.615  38.984 -13.082  1.00  0.00     0.139 C 
HETATM   26  N3  UNL     1      31.477  37.758 -13.061  1.00  0.00    -0.251 N 
ATOM     27  H3  UNL     1      30.616  37.525 -13.554  1.00  0.00     0.196 HD
BRANCH  25  28
HETATM   28  O3  UNL     1      30.585  39.699 -13.761  1.00  0.00    -0.348 OA
ATOM     29  H3  UNL     1      30.283  39.366 -14.599  1.00  0.00     0.219 HD
ENDBRANCH  25  28
BRANCH  26  30
HETATM   30  O4  UNL     1      32.020  36.653 -12.645  1.00  0.00    -0.288 OA
ATOM     31  H4  UNL     1      32.815  36.133 -12.677  1.00  0.00     0.244 HD
ENDBRANCH  26  30
ENDBRANCH  22  25
ENDBRANCH  18  19
ENDBRANCH  15  16
ENDBRANCH  13  15
ENDBRANCH  10  13
ENDBRANCH   8  10
ENDBRANCH   7   8
ENDBRANCH   6   7
ENDBRANCH   5   6
ENDBRANCH   4   5
ENDBRANCH   3   4
TORSDOF 13
ENDMDL
