MODEL 1
REMARK VINA RESULT: -4.704476808      0.000      0.000
REMARK  2 active torsions:
REMARK  status: ('A' for Active; 'I' for Inactive)
REMARK       I    between atoms: C1_2  and  N2_4 
REMARK    1  A    between atoms: N2_4  and  C2_6 
REMARK    2  A    between atoms: C4_8  and  O2_9 
ROOT
HETATM    1  C2  UNL     1      73.863  44.137  25.847  1.00  0.00     0.117 A 
HETATM    2  C3  UNL     1      73.143  43.221  24.844  1.00  0.00     0.061 A 
HETATM    3  C4  UNL     1      74.625  43.408  24.827  1.00  0.00     0.143 A 
ENDROOT
BRANCH   1   4
HETATM    4  N2  UNL     1      73.508  45.514  25.741  1.00  0.00    -0.338 N 
HETATM    5  C1  UNL     1      72.818  46.244  26.744  1.00  0.00     0.329 C 
HETATM    6  N1  UNL     1      72.467  47.596  26.643  1.00  0.00    -0.040 NA
HETATM    7  O1  UNL     1      72.504  45.607  27.803  1.00  0.00    -0.251 OA
ATOM      8  H2  UNL     1      73.767  46.008  24.887  1.00  0.00     0.164 HD
ENDBRANCH   1   4
BRANCH   3   9
HETATM    9  O2  UNL     1      75.355  42.293  25.266  1.00  0.00    -0.393 OA
ATOM     10  H2  UNL     1      75.450  41.577  24.648  1.00  0.00     0.210 HD
ENDBRANCH   3   9
TORSDOF 2
ENDMDL
MODEL 2
REMARK VINA RESULT: -4.643468873      1.441      1.606
REMARK  2 active torsions:
REMARK  status: ('A' for Active; 'I' for Inactive)
REMARK       I    between atoms: C1_2  and  N2_4 
REMARK    1  A    between atoms: N2_4  and  C2_6 
REMARK    2  A    between atoms: C4_8  and  O2_9 
ROOT
HETATM    1  C2  UNL     1      73.792  44.255  25.253  1.00  0.00     0.117 A 
HETATM    2  C3  UNL     1      75.100  43.464  25.417  1.00  0.00     0.061 A 
HETATM    3  C4  UNL     1      73.816  42.805  25.031  1.00  0.00     0.143 A 
ENDROOT
BRANCH   1   4
HETATM    4  N2  UNL     1      73.326  44.868  26.453  1.00  0.00    -0.338 N 
HETATM    5  C1  UNL     1      72.842  46.200  26.539  1.00  0.00     0.329 C 
HETATM    6  N1  UNL     1      72.384  46.806  27.715  1.00  0.00    -0.040 NA
HETATM    7  O1  UNL     1      72.833  46.876  25.457  1.00  0.00    -0.251 OA
ATOM      8  H2  UNL     1      73.340  44.312  27.308  1.00  0.00     0.164 HD
ENDBRANCH   1   4
BRANCH   3   9
HETATM    9  O2  UNL     1      73.764  42.373  23.697  1.00  0.00    -0.393 OA
ATOM     10  H2  UNL     1      74.592  42.320  23.234  1.00  0.00     0.210 HD
ENDBRANCH   3   9
TORSDOF 2
ENDMDL
MODEL 3
REMARK VINA RESULT: -4.338609254      1.918      4.200
REMARK  2 active torsions:
REMARK  status: ('A' for Active; 'I' for Inactive)
REMARK       I    between atoms: C1_2  and  N2_4 
REMARK    1  A    between atoms: N2_4  and  C2_6 
REMARK    2  A    between atoms: C4_8  and  O2_9 
ROOT
HETATM    1  C2  UNL     1      72.944  45.328  26.110  1.00  0.00     0.117 A 
HETATM    2  C3  UNL     1      72.568  45.675  27.560  1.00  0.00     0.061 A 
HETATM    3  C4  UNL     1      72.915  46.726  26.556  1.00  0.00     0.143 A 
ENDROOT
BRANCH   1   4
HETATM    4  N2  UNL     1      74.139  44.559  25.985  1.00  0.00    -0.338 N 
HETATM    5  C1  UNL     1      74.274  43.417  25.153  1.00  0.00     0.329 C 
HETATM    6  N1  UNL     1      75.444  42.659  25.027  1.00  0.00    -0.040 NA
HETATM    7  O1  UNL     1      73.246  43.074  24.480  1.00  0.00    -0.251 OA
ATOM      8  H2  UNL     1      74.950  44.848  26.530  1.00  0.00     0.164 HD
ENDBRANCH   1   4
BRANCH   3   9
HETATM    9  O2  UNL     1      71.826  47.499  26.126  1.00  0.00    -0.393 OA
ATOM     10  H2  UNL     1      71.828  48.415  26.379  1.00  0.00     0.210 HD
ENDBRANCH   3   9
TORSDOF 2
ENDMDL
MODEL 4
REMARK VINA RESULT: -3.612689383      8.946      9.098
REMARK  2 active torsions:
REMARK  status: ('A' for Active; 'I' for Inactive)
REMARK       I    between atoms: C1_2  and  N2_4 
REMARK    1  A    between atoms: N2_4  and  C2_6 
REMARK    2  A    between atoms: C4_8  and  O2_9 
ROOT
HETATM    1  C2  UNL     1      68.809  42.632  18.798  1.00  0.00     0.117 A 
HETATM    2  C3  UNL     1      68.124  41.859  19.936  1.00  0.00     0.061 A 
HETATM    3  C4  UNL     1      68.644  41.176  18.713  1.00  0.00     0.143 A 
ENDROOT
BRANCH   1   4
HETATM    4  N2  UNL     1      67.962  43.568  18.135  1.00  0.00    -0.338 N 
HETATM    5  C1  UNL     1      67.673  44.871  18.618  1.00  0.00     0.329 C 
HETATM    6  N1  UNL     1      66.841  45.793  17.971  1.00  0.00    -0.040 NA
HETATM    7  O1  UNL     1      68.218  45.206  19.721  1.00  0.00    -0.251 OA
ATOM      8  H2  UNL     1      67.535  43.282  17.254  1.00  0.00     0.164 HD
ENDBRANCH   1   4
BRANCH   3   9
HETATM    9  O2  UNL     1      69.793  40.400  18.926  1.00  0.00    -0.393 OA
ATOM     10  H2  UNL     1      69.734  39.726  19.593  1.00  0.00     0.210 HD
ENDBRANCH   3   9
TORSDOF 2
ENDMDL
MODEL 5
REMARK VINA RESULT: -3.322706549     10.273     10.904
REMARK  2 active torsions:
REMARK  status: ('A' for Active; 'I' for Inactive)
REMARK       I    between atoms: C1_2  and  N2_4 
REMARK    1  A    between atoms: N2_4  and  C2_6 
REMARK    2  A    between atoms: C4_8  and  O2_9 
ROOT
HETATM    1  C2  UNL     1      81.170  37.689  26.358  1.00  0.00     0.117 A 
HETATM    2  C3  UNL     1      81.116  39.103  26.959  1.00  0.00     0.061 A 
HETATM    3  C4  UNL     1      80.605  37.907  27.694  1.00  0.00     0.143 A 
ENDROOT
BRANCH   1   4
HETATM    4  N2  UNL     1      80.385  37.525  25.179  1.00  0.00    -0.338 N 
HETATM    5  C1  UNL     1      79.922  36.276  24.690  1.00  0.00     0.329 C 
HETATM    6  N1  UNL     1      79.152  36.110  23.533  1.00  0.00    -0.040 NA
HETATM    7  O1  UNL     1      80.242  35.243  25.367  1.00  0.00    -0.251 OA
ATOM      8  H2  UNL     1      80.139  38.362  24.651  1.00  0.00     0.164 HD
ENDBRANCH   1   4
BRANCH   3   9
HETATM    9  O2  UNL     1      81.396  37.513  28.783  1.00  0.00    -0.393 OA
ATOM     10  H2  UNL     1      81.445  38.117  29.515  1.00  0.00     0.210 HD
ENDBRANCH   3   9
TORSDOF 2
ENDMDL
