MODEL 1
REMARK VINA RESULT: -9.689493450      0.000      0.000
REMARK  16 active torsions:
REMARK  status: ('A' for Active; 'I' for Inactive)
REMARK    1  A    between atoms: N1_1  and  C1_4 
REMARK    2  A    between atoms: C2_7  and  O1_8 
REMARK    3  A    between atoms: O1_8  and  S1_9 
REMARK    4  A    between atoms: C5_15  and  N3_16 
REMARK    5  A    between atoms: C7_18  and  C8_19 
REMARK    6  A    between atoms: C8_19  and  O5_20 
REMARK    7  A    between atoms: C8_19  and  C9_22 
REMARK    8  A    between atoms: C9_22  and  O6_23 
REMARK    9  A    between atoms: C9_22  and  C19_50 
REMARK   10  A    between atoms: O6_23  and  C10_24 
REMARK   11  A    between atoms: C13_27  and  C14_28 
REMARK   12  A    between atoms: C14_28  and  N4_29 
REMARK   13  A    between atoms: N4_29  and  N5_31 
REMARK   14  A    between atoms: N5_31  and  C15_33 
REMARK   15  A    between atoms: C16_38  and  S2_39 
REMARK   16  A    between atoms: S2_39  and  N8_40 
ROOT
HETATM    1  C9  UNL     1       6.395 -17.828  14.411  1.00  0.00     0.264 C 
ENDROOT
BRANCH   1   2
HETATM    2  C8  UNL     1       5.972 -16.852  13.333  1.00  0.00     0.210 C 
BRANCH   2   3
HETATM    3  C7  UNL     1       4.573 -16.382  13.564  1.00  0.00     0.072 A 
HETATM    4  C6  UNL     1       3.451 -16.882  12.872  1.00  0.00     0.143 A 
HETATM    5  N3  UNL     1       2.342 -16.248  13.289  1.00  0.00    -0.245 N 
HETATM    6  N10 UNL     1       2.737 -15.382  14.206  1.00  0.00    -0.015 NA
HETATM    7  N9  UNL     1       4.049 -15.460  14.368  1.00  0.00    -0.284 N 
ATOM      8  H9  UNL     1       4.586 -14.890  15.021  1.00  0.00     0.184 HD
BRANCH   5   9
HETATM    9  C5  UNL     1       1.018 -16.484  12.819  1.00  0.00     0.097 A 
HETATM   10  C1  UNL     1       0.103 -17.215  13.549  1.00  0.00     0.129 A 
HETATM   11  N2  UNL     1      -1.152 -17.442  13.114  1.00  0.00    -0.321 N 
HETATM   12  C2  UNL     1      -1.543 -16.937  11.909  1.00  0.00     0.165 A 
ATOM     13  H2  UNL     1      -1.802 -17.987  13.679  1.00  0.00     0.169 HD
HETATM   14  C3  UNL     1      -0.690 -16.196  11.117  1.00  0.00     0.060 A 
HETATM   15  C4  UNL     1       0.592 -15.985  11.602  1.00  0.00     0.039 A 
BRANCH  10  16
HETATM   16  N1  UNL     1       0.512 -17.683  14.699  1.00  0.00    -0.384 N 
ATOM     17  H12 UNL     1       1.112 -17.072  15.253  1.00  0.00     0.157 HD
ATOM     18  H11 UNL     1       0.238 -18.613  15.016  1.00  0.00     0.157 HD
ENDBRANCH  10  16
BRANCH  12  19
HETATM   19  O1  UNL     1      -2.837 -17.202  11.516  1.00  0.00    -0.196 OA
BRANCH  19  20
HETATM   20  S1  UNL     1      -3.541 -18.746  11.623  1.00  0.00     0.258 S 
HETATM   21  O2  UNL     1      -3.233 -19.601  10.440  1.00  0.00    -0.572 OA
HETATM   22  O3  UNL     1      -5.029 -18.598  11.716  1.00  0.00    -0.572 OA
HETATM   23  O4  UNL     1      -3.029 -19.509  13.048  1.00  0.00    -0.572 OA
ENDBRANCH  19  20
ENDBRANCH  12  19
ENDBRANCH   5   9
ENDBRANCH   2   3
BRANCH   2  24
HETATM   24  O5  UNL     1       6.736 -15.659  13.560  1.00  0.00    -0.386 OA
ATOM     25  H5  UNL     1       6.162 -15.155  14.124  1.00  0.00     0.210 HD
ENDBRANCH   2  24
ENDBRANCH   1   2
BRANCH   1  26
HETATM   26  O6  UNL     1       5.170 -18.426  14.876  1.00  0.00    -0.328 OA
BRANCH  26  27
HETATM   27  C10 UNL     1       4.818 -19.743  14.678  1.00  0.00     0.124 A 
HETATM   28  C11 UNL     1       4.361 -20.152  13.482  1.00  0.00     0.042 A 
HETATM   29  C12 UNL     1       3.983 -21.522  13.235  1.00  0.00     0.020 A 
HETATM   30  C13 UNL     1       4.048 -22.487  14.140  1.00  0.00     0.035 A 
HETATM   31  C17 UNL     1       4.538 -22.146  15.487  1.00  0.00     0.236 A 
HETATM   32  O9  UNL     1       4.597 -23.065  16.337  1.00  0.00    -0.283 OA
HETATM   33  C18 UNL     1       4.914 -20.761  15.716  1.00  0.00     0.255 A 
HETATM   34  O10 UNL     1       5.336 -20.481  16.885  1.00  0.00    -0.281 OA
BRANCH  30  35
HETATM   35  C14 UNL     1       3.646 -23.845  13.805  1.00  0.00     0.122 C 
BRANCH  35  36
HETATM   36  N4  UNL     1       2.427 -24.234  14.004  1.00  0.00    -0.309 N 
ATOM     37  H4  UNL     1       1.709 -24.099  13.293  1.00  0.00     0.186 HD
BRANCH  36  38
HETATM   38  N5  UNL     1       2.126 -24.843  15.223  1.00  0.00    -0.279 N 
ATOM     39  H5  UNL     1       2.575 -25.711  15.518  1.00  0.00     0.189 HD
BRANCH  38  40
HETATM   40  C15 UNL     1       1.231 -24.237  15.970  1.00  0.00     0.180 A 
HETATM   41  N6  UNL     1       1.446 -23.363  16.957  1.00  0.00    -0.277 N 
HETATM   42  N7  UNL     1       0.448 -22.878  17.572  1.00  0.00    -0.281 N 
ATOM     43  H6  UNL     1       2.396 -23.092  17.212  1.00  0.00     0.189 HD
HETATM   44  C16 UNL     1      -0.782 -23.236  17.235  1.00  0.00     0.208 A 
ATOM     45  H7  UNL     1       0.594 -22.209  18.329  1.00  0.00     0.188 HD
HETATM   46  S3  UNL     1      -0.481 -24.333  15.962  1.00  0.00    -0.018 SA
BRANCH  44  47
HETATM   47  S2  UNL     1      -2.300 -22.681  17.961  1.00  0.00     0.280 S 
HETATM   48  O7  UNL     1      -3.354 -22.512  16.934  1.00  0.00    -0.199 OA
HETATM   49  O8  UNL     1      -2.000 -21.402  18.694  1.00  0.00    -0.199 OA
BRANCH  47  50
HETATM   50  N8  UNL     1      -2.776 -23.856  19.142  1.00  0.00    -0.323 N 
ATOM     51  H82 UNL     1      -2.179 -24.594  19.516  1.00  0.00     0.169 HD
ATOM     52  H81 UNL     1      -3.749 -23.671  19.387  1.00  0.00     0.169 HD
ENDBRANCH  47  50
ENDBRANCH  44  47
ENDBRANCH  38  40
ENDBRANCH  36  38
ENDBRANCH  35  36
ENDBRANCH  30  35
ENDBRANCH  26  27
ENDBRANCH   1  26
BRANCH   1  53
HETATM   53  C19 UNL     1       6.959 -17.149  15.612  1.00  0.00     0.206 C 
HETATM   54  O11 UNL     1       8.186 -17.203  15.928  1.00  0.00    -0.646 OA
HETATM   55  O12 UNL     1       6.156 -16.410  16.455  1.00  0.00    -0.646 OA
ENDBRANCH   1  53
TORSDOF 16
ENDMDL
MODEL 2
REMARK VINA RESULT: -9.619367569      1.595      2.079
REMARK  16 active torsions:
REMARK  status: ('A' for Active; 'I' for Inactive)
REMARK    1  A    between atoms: N1_1  and  C1_4 
REMARK    2  A    between atoms: C2_7  and  O1_8 
REMARK    3  A    between atoms: O1_8  and  S1_9 
REMARK    4  A    between atoms: C5_15  and  N3_16 
REMARK    5  A    between atoms: C7_18  and  C8_19 
REMARK    6  A    between atoms: C8_19  and  O5_20 
REMARK    7  A    between atoms: C8_19  and  C9_22 
REMARK    8  A    between atoms: C9_22  and  O6_23 
REMARK    9  A    between atoms: C9_22  and  C19_50 
REMARK   10  A    between atoms: O6_23  and  C10_24 
REMARK   11  A    between atoms: C13_27  and  C14_28 
REMARK   12  A    between atoms: C14_28  and  N4_29 
REMARK   13  A    between atoms: N4_29  and  N5_31 
REMARK   14  A    between atoms: N5_31  and  C15_33 
REMARK   15  A    between atoms: C16_38  and  S2_39 
REMARK   16  A    between atoms: S2_39  and  N8_40 
ROOT
HETATM    1  C9  UNL     1       6.187 -17.492  13.153  1.00  0.00     0.264 C 
ENDROOT
BRANCH   1   2
HETATM    2  C8  UNL     1       5.466 -16.713  12.073  1.00  0.00     0.210 C 
BRANCH   2   3
HETATM    3  C7  UNL     1       4.108 -16.298  12.537  1.00  0.00     0.072 A 
HETATM    4  C6  UNL     1       2.907 -16.852  12.052  1.00  0.00     0.143 A 
HETATM    5  N3  UNL     1       1.859 -16.259  12.649  1.00  0.00    -0.245 N 
HETATM    6  N10 UNL     1       2.369 -15.365  13.478  1.00  0.00    -0.015 NA
HETATM    7  N9  UNL     1       3.692 -15.387  13.413  1.00  0.00    -0.284 N 
ATOM      8  H9  UNL     1       4.308 -14.786  13.961  1.00  0.00     0.184 HD
BRANCH   5   9
HETATM    9  C5  UNL     1       0.486 -16.554  12.415  1.00  0.00     0.097 A 
HETATM   10  C1  UNL     1      -0.284 -17.228  13.341  1.00  0.00     0.129 A 
HETATM   11  N2  UNL     1      -1.584 -17.512  13.129  1.00  0.00    -0.321 N 
HETATM   12  C2  UNL     1      -2.171 -17.124  11.961  1.00  0.00     0.165 A 
ATOM     13  H2  UNL     1      -2.124 -18.012  13.836  1.00  0.00     0.169 HD
HETATM   14  C3  UNL     1      -1.473 -16.447  10.983  1.00  0.00     0.060 A 
HETATM   15  C4  UNL     1      -0.137 -16.175  11.241  1.00  0.00     0.039 A 
BRANCH  10  16
HETATM   16  N1  UNL     1       0.311 -17.583  14.449  1.00  0.00    -0.384 N 
ATOM     17  H12 UNL     1      -0.029 -17.151  15.308  1.00  0.00     0.157 HD
ATOM     18  H11 UNL     1       1.075 -18.260  14.443  1.00  0.00     0.157 HD
ENDBRANCH  10  16
BRANCH  12  19
HETATM   19  O1  UNL     1      -3.503 -17.442  11.800  1.00  0.00    -0.196 OA
BRANCH  19  20
HETATM   20  S1  UNL     1      -4.042 -19.004  11.402  1.00  0.00     0.258 S 
HETATM   21  O2  UNL     1      -5.510 -19.175  11.605  1.00  0.00    -0.572 OA
HETATM   22  O3  UNL     1      -3.334 -20.000  12.269  1.00  0.00    -0.572 OA
HETATM   23  O4  UNL     1      -3.626 -19.360   9.797  1.00  0.00    -0.572 OA
ENDBRANCH  19  20
ENDBRANCH  12  19
ENDBRANCH   5   9
ENDBRANCH   2   3
BRANCH   2  24
HETATM   24  O5  UNL     1       6.151 -15.458  11.968  1.00  0.00    -0.386 OA
ATOM     25  H5  UNL     1       5.435 -14.846  11.848  1.00  0.00     0.210 HD
ENDBRANCH   2  24
ENDBRANCH   1   2
BRANCH   1  26
HETATM   26  O6  UNL     1       5.150 -17.949  14.042  1.00  0.00    -0.328 OA
BRANCH  26  27
HETATM   27  C10 UNL     1       4.964 -19.262  14.417  1.00  0.00     0.124 A 
HETATM   28  C11 UNL     1       5.372 -19.687  15.626  1.00  0.00     0.042 A 
HETATM   29  C12 UNL     1       5.196 -21.052  16.055  1.00  0.00     0.020 A 
HETATM   30  C13 UNL     1       4.629 -21.997  15.320  1.00  0.00     0.035 A 
HETATM   31  C17 UNL     1       4.145 -21.636  13.976  1.00  0.00     0.236 A 
HETATM   32  O9  UNL     1       3.610 -22.536  13.287  1.00  0.00    -0.283 OA
HETATM   33  C18 UNL     1       4.331 -20.256  13.561  1.00  0.00     0.255 A 
HETATM   34  O10 UNL     1       3.908 -19.959  12.397  1.00  0.00    -0.281 OA
BRANCH  30  35
HETATM   35  C14 UNL     1       4.491 -23.352  15.833  1.00  0.00     0.122 C 
BRANCH  35  36
HETATM   36  N4  UNL     1       3.360 -23.755  16.317  1.00  0.00    -0.309 N 
ATOM     37  H4  UNL     1       3.110 -23.575  17.290  1.00  0.00     0.186 HD
BRANCH  36  38
HETATM   38  N5  UNL     1       2.492 -24.442  15.468  1.00  0.00    -0.279 N 
ATOM     39  H5  UNL     1       2.789 -25.267  14.945  1.00  0.00     0.189 HD
BRANCH  38  40
HETATM   40  C15 UNL     1       1.269 -23.968  15.378  1.00  0.00     0.180 A 
HETATM   41  N6  UNL     1       0.686 -23.404  14.318  1.00  0.00    -0.277 N 
HETATM   42  N7  UNL     1      -0.513 -23.002  14.421  1.00  0.00    -0.281 N 
ATOM     43  H6  UNL     1       1.196 -23.298  13.441  1.00  0.00     0.189 HD
HETATM   44  C16 UNL     1      -1.167 -23.143  15.564  1.00  0.00     0.208 A 
ATOM     45  H7  UNL     1      -0.974 -22.569  13.621  1.00  0.00     0.188 HD
HETATM   46  S3  UNL     1       0.012 -23.897  16.542  1.00  0.00    -0.018 SA
BRANCH  44  47
HETATM   47  S2  UNL     1      -2.834 -22.653  15.916  1.00  0.00     0.280 S 
HETATM   48  O7  UNL     1      -3.043 -22.475  17.372  1.00  0.00    -0.199 OA
HETATM   49  O8  UNL     1      -3.739 -23.702  15.328  1.00  0.00    -0.199 OA
BRANCH  47  50
HETATM   50  N8  UNL     1      -3.135 -21.174  15.066  1.00  0.00    -0.323 N 
ATOM     51  H82 UNL     1      -3.466 -21.102  14.104  1.00  0.00     0.169 HD
ATOM     52  H81 UNL     1      -2.921 -20.405  15.701  1.00  0.00     0.169 HD
ENDBRANCH  47  50
ENDBRANCH  44  47
ENDBRANCH  38  40
ENDBRANCH  36  38
ENDBRANCH  35  36
ENDBRANCH  30  35
ENDBRANCH  26  27
ENDBRANCH   1  26
BRANCH   1  53
HETATM   53  C19 UNL     1       7.054 -16.626  14.003  1.00  0.00     0.206 C 
HETATM   54  O11 UNL     1       8.315 -16.572  13.881  1.00  0.00    -0.646 OA
HETATM   55  O12 UNL     1       6.512 -15.822  14.984  1.00  0.00    -0.646 OA
ENDBRANCH   1  53
TORSDOF 16
ENDMDL
MODEL 3
REMARK VINA RESULT: -9.616654858      1.780      2.308
REMARK  16 active torsions:
REMARK  status: ('A' for Active; 'I' for Inactive)
REMARK    1  A    between atoms: N1_1  and  C1_4 
REMARK    2  A    between atoms: C2_7  and  O1_8 
REMARK    3  A    between atoms: O1_8  and  S1_9 
REMARK    4  A    between atoms: C5_15  and  N3_16 
REMARK    5  A    between atoms: C7_18  and  C8_19 
REMARK    6  A    between atoms: C8_19  and  O5_20 
REMARK    7  A    between atoms: C8_19  and  C9_22 
REMARK    8  A    between atoms: C9_22  and  O6_23 
REMARK    9  A    between atoms: C9_22  and  C19_50 
REMARK   10  A    between atoms: O6_23  and  C10_24 
REMARK   11  A    between atoms: C13_27  and  C14_28 
REMARK   12  A    between atoms: C14_28  and  N4_29 
REMARK   13  A    between atoms: N4_29  and  N5_31 
REMARK   14  A    between atoms: N5_31  and  C15_33 
REMARK   15  A    between atoms: C16_38  and  S2_39 
REMARK   16  A    between atoms: S2_39  and  N8_40 
ROOT
HETATM    1  C9  UNL     1       5.888 -17.582  11.889  1.00  0.00     0.264 C 
ENDROOT
BRANCH   1   2
HETATM    2  C8  UNL     1       5.235 -16.284  11.463  1.00  0.00     0.210 C 
BRANCH   2   3
HETATM    3  C7  UNL     1       3.956 -16.067  12.203  1.00  0.00     0.072 A 
HETATM    4  C6  UNL     1       2.725 -16.645  11.833  1.00  0.00     0.143 A 
HETATM    5  N3  UNL     1       1.763 -16.245  12.682  1.00  0.00    -0.245 N 
HETATM    6  N10 UNL     1       2.352 -15.447  13.555  1.00  0.00    -0.015 NA
HETATM    7  N9  UNL     1       3.643 -15.341  13.273  1.00  0.00    -0.284 N 
ATOM      8  H9  UNL     1       4.306 -14.779  13.806  1.00  0.00     0.184 HD
BRANCH   5   9
HETATM    9  C5  UNL     1       0.390 -16.622  12.627  1.00  0.00     0.097 A 
HETATM   10  C1  UNL     1      -0.207 -17.353  13.633  1.00  0.00     0.129 A 
HETATM   11  N2  UNL     1      -1.504 -17.714  13.591  1.00  0.00    -0.321 N 
HETATM   12  C2  UNL     1      -2.265 -17.349  12.520  1.00  0.00     0.165 A 
ATOM     13  H2  UNL     1      -1.913 -18.255  14.353  1.00  0.00     0.169 HD
HETATM   14  C3  UNL     1      -1.746 -16.618  11.472  1.00  0.00     0.060 A 
HETATM   15  C4  UNL     1      -0.406 -16.267  11.554  1.00  0.00     0.039 A 
BRANCH  10  16
HETATM   16  N1  UNL     1       0.553 -17.685  14.645  1.00  0.00    -0.384 N 
ATOM     17  H12 UNL     1       1.265 -18.393  14.467  1.00  0.00     0.157 HD
ATOM     18  H11 UNL     1       0.430 -17.250  15.560  1.00  0.00     0.157 HD
ENDBRANCH  10  16
BRANCH  12  19
HETATM   19  O1  UNL     1      -3.585 -17.747  12.532  1.00  0.00    -0.196 OA
BRANCH  19  20
HETATM   20  S1  UNL     1      -4.295 -18.641  11.273  1.00  0.00     0.258 S 
HETATM   21  O2  UNL     1      -5.484 -19.421  11.723  1.00  0.00    -0.572 OA
HETATM   22  O3  UNL     1      -3.285 -19.604  10.729  1.00  0.00    -0.572 OA
HETATM   23  O4  UNL     1      -4.721 -17.600  10.004  1.00  0.00    -0.572 OA
ENDBRANCH  19  20
ENDBRANCH  12  19
ENDBRANCH   5   9
ENDBRANCH   2   3
BRANCH   2  24
HETATM   24  O5  UNL     1       6.068 -15.235  11.977  1.00  0.00    -0.386 OA
ATOM     25  H5  UNL     1       6.934 -15.510  11.701  1.00  0.00     0.210 HD
ENDBRANCH   2  24
ENDBRANCH   1   2
BRANCH   1  26
HETATM   26  O6  UNL     1       5.592 -17.706  13.293  1.00  0.00    -0.328 OA
BRANCH  26  27
HETATM   27  C10 UNL     1       5.288 -18.892  13.925  1.00  0.00     0.124 A 
HETATM   28  C11 UNL     1       4.947 -19.977  13.207  1.00  0.00     0.042 A 
HETATM   29  C12 UNL     1       4.622 -21.236  13.831  1.00  0.00     0.020 A 
HETATM   30  C13 UNL     1       4.628 -21.442  15.139  1.00  0.00     0.035 A 
HETATM   31  C17 UNL     1       4.990 -20.317  16.020  1.00  0.00     0.236 A 
HETATM   32  O9  UNL     1       4.993 -20.520  17.256  1.00  0.00    -0.283 OA
HETATM   33  C18 UNL     1       5.314 -19.057  15.373  1.00  0.00     0.255 A 
HETATM   34  O10 UNL     1       5.625 -18.093  16.146  1.00  0.00    -0.281 OA
BRANCH  30  35
HETATM   35  C14 UNL     1       4.287 -22.747  15.685  1.00  0.00     0.122 C 
BRANCH  35  36
HETATM   36  N4  UNL     1       3.509 -22.841  16.717  1.00  0.00    -0.309 N 
ATOM     37  H4  UNL     1       3.714 -22.333  17.577  1.00  0.00     0.186 HD
BRANCH  36  38
HETATM   38  N5  UNL     1       2.383 -23.658  16.615  1.00  0.00    -0.279 N 
ATOM     39  H5  UNL     1       2.429 -24.664  16.780  1.00  0.00     0.189 HD
BRANCH  38  40
HETATM   40  C15 UNL     1       1.258 -23.059  16.295  1.00  0.00     0.180 A 
HETATM   41  N6  UNL     1       0.853 -21.836  16.647  1.00  0.00    -0.277 N 
HETATM   42  N7  UNL     1      -0.275 -21.424  16.239  1.00  0.00    -0.281 N 
ATOM     43  H6  UNL     1       1.441 -21.244  17.235  1.00  0.00     0.189 HD
HETATM   44  C16 UNL     1      -1.032 -22.199  15.476  1.00  0.00     0.208 A 
ATOM     45  H7  UNL     1      -0.600 -20.493  16.498  1.00  0.00     0.188 HD
HETATM   46  S3  UNL     1      -0.062 -23.598  15.343  1.00  0.00    -0.018 SA
BRANCH  44  47
HETATM   47  S2  UNL     1      -2.627 -21.818  14.805  1.00  0.00     0.280 S 
HETATM   48  O7  UNL     1      -3.167 -22.958  14.028  1.00  0.00    -0.199 OA
HETATM   49  O8  UNL     1      -2.473 -20.575  13.972  1.00  0.00    -0.199 OA
BRANCH  47  50
HETATM   50  N8  UNL     1      -3.673 -21.427  16.130  1.00  0.00    -0.323 N 
ATOM     51  H82 UNL     1      -4.151 -22.104  16.725  1.00  0.00     0.169 HD
ATOM     52  H81 UNL     1      -3.717 -20.411  16.199  1.00  0.00     0.169 HD
ENDBRANCH  47  50
ENDBRANCH  44  47
ENDBRANCH  38  40
ENDBRANCH  36  38
ENDBRANCH  35  36
ENDBRANCH  30  35
ENDBRANCH  26  27
ENDBRANCH   1  26
BRANCH   1  53
HETATM   53  C19 UNL     1       7.377 -17.523  11.825  1.00  0.00     0.206 C 
HETATM   54  O11 UNL     1       8.056 -18.089  10.916  1.00  0.00    -0.646 OA
HETATM   55  O12 UNL     1       8.103 -16.832  12.772  1.00  0.00    -0.646 OA
ENDBRANCH   1  53
TORSDOF 16
ENDMDL
MODEL 4
REMARK VINA RESULT: -9.505749132      2.006      2.591
REMARK  16 active torsions:
REMARK  status: ('A' for Active; 'I' for Inactive)
REMARK    1  A    between atoms: N1_1  and  C1_4 
REMARK    2  A    between atoms: C2_7  and  O1_8 
REMARK    3  A    between atoms: O1_8  and  S1_9 
REMARK    4  A    between atoms: C5_15  and  N3_16 
REMARK    5  A    between atoms: C7_18  and  C8_19 
REMARK    6  A    between atoms: C8_19  and  O5_20 
REMARK    7  A    between atoms: C8_19  and  C9_22 
REMARK    8  A    between atoms: C9_22  and  O6_23 
REMARK    9  A    between atoms: C9_22  and  C19_50 
REMARK   10  A    between atoms: O6_23  and  C10_24 
REMARK   11  A    between atoms: C13_27  and  C14_28 
REMARK   12  A    between atoms: C14_28  and  N4_29 
REMARK   13  A    between atoms: N4_29  and  N5_31 
REMARK   14  A    between atoms: N5_31  and  C15_33 
REMARK   15  A    between atoms: C16_38  and  S2_39 
REMARK   16  A    between atoms: S2_39  and  N8_40 
ROOT
HETATM    1  C9  UNL     1       5.914 -17.773  11.990  1.00  0.00     0.264 C 
ENDROOT
BRANCH   1   2
HETATM    2  C8  UNL     1       5.399 -16.376  11.713  1.00  0.00     0.210 C 
BRANCH   2   3
HETATM    3  C7  UNL     1       4.126 -16.126  12.454  1.00  0.00     0.072 A 
HETATM    4  C6  UNL     1       2.878 -16.664  12.079  1.00  0.00     0.143 A 
HETATM    5  N3  UNL     1       1.927 -16.241  12.929  1.00  0.00    -0.245 N 
HETATM    6  N10 UNL     1       2.540 -15.467  13.808  1.00  0.00    -0.015 NA
HETATM    7  N9  UNL     1       3.833 -15.399  13.529  1.00  0.00    -0.284 N 
ATOM      8  H9  UNL     1       4.513 -14.861  14.066  1.00  0.00     0.184 HD
BRANCH   5   9
HETATM    9  C5  UNL     1       0.544 -16.576  12.871  1.00  0.00     0.097 A 
HETATM   10  C1  UNL     1      -0.058 -17.365  13.830  1.00  0.00     0.129 A 
HETATM   11  N2  UNL     1      -1.365 -17.686  13.784  1.00  0.00    -0.321 N 
HETATM   12  C2  UNL     1      -2.132 -17.221  12.756  1.00  0.00     0.165 A 
ATOM     13  H2  UNL     1      -1.777 -18.272  14.510  1.00  0.00     0.169 HD
HETATM   14  C3  UNL     1      -1.609 -16.427  11.757  1.00  0.00     0.060 A 
HETATM   15  C4  UNL     1      -0.259 -16.119  11.842  1.00  0.00     0.039 A 
BRANCH  10  16
HETATM   16  N1  UNL     1       0.708 -17.792  14.800  1.00  0.00    -0.384 N 
ATOM     17  H12 UNL     1       0.333 -17.713  15.745  1.00  0.00     0.157 HD
ATOM     18  H11 UNL     1       1.631 -18.182  14.609  1.00  0.00     0.157 HD
ENDBRANCH  10  16
BRANCH  12  19
HETATM   19  O1  UNL     1      -3.462 -17.583  12.762  1.00  0.00    -0.196 OA
BRANCH  19  20
HETATM   20  S1  UNL     1      -4.275 -18.146  11.380  1.00  0.00     0.258 S 
HETATM   21  O2  UNL     1      -4.746 -17.038  10.498  1.00  0.00    -0.572 OA
HETATM   22  O3  UNL     1      -5.472 -18.940  11.807  1.00  0.00    -0.572 OA
HETATM   23  O4  UNL     1      -3.267 -19.198  10.513  1.00  0.00    -0.572 OA
ENDBRANCH  19  20
ENDBRANCH  12  19
ENDBRANCH   5   9
ENDBRANCH   2   3
BRANCH   2  24
HETATM   24  O5  UNL     1       6.312 -15.482  12.364  1.00  0.00    -0.386 OA
ATOM     25  H5  UNL     1       6.889 -15.229  11.654  1.00  0.00     0.210 HD
ENDBRANCH   2  24
ENDBRANCH   1   2
BRANCH   1  26
HETATM   26  O6  UNL     1       5.645 -18.002  13.386  1.00  0.00    -0.328 OA
BRANCH  26  27
HETATM   27  C10 UNL     1       4.947 -19.083  13.880  1.00  0.00     0.124 A 
HETATM   28  C11 UNL     1       5.122 -20.305  13.348  1.00  0.00     0.042 A 
HETATM   29  C12 UNL     1       4.411 -21.461  13.837  1.00  0.00     0.020 A 
HETATM   30  C13 UNL     1       3.539 -21.432  14.832  1.00  0.00     0.035 A 
HETATM   31  C17 UNL     1       3.273 -20.140  15.488  1.00  0.00     0.236 A 
HETATM   32  O9  UNL     1       2.445 -20.121  16.429  1.00  0.00    -0.283 OA
HETATM   33  C18 UNL     1       3.998 -18.987  14.982  1.00  0.00     0.255 A 
HETATM   34  O10 UNL     1       3.759 -17.876  15.557  1.00  0.00    -0.281 OA
BRANCH  30  35
HETATM   35  C14 UNL     1       2.865 -22.648  15.263  1.00  0.00     0.122 C 
BRANCH  35  36
HETATM   36  N4  UNL     1       2.706 -22.896  16.524  1.00  0.00    -0.309 N 
ATOM     37  H4  UNL     1       3.473 -22.770  17.185  1.00  0.00     0.186 HD
BRANCH  36  38
HETATM   38  N5  UNL     1       1.453 -23.338  16.951  1.00  0.00    -0.279 N 
ATOM     39  H5  UNL     1       1.346 -23.966  17.748  1.00  0.00     0.189 HD
BRANCH  38  40
HETATM   40  C15 UNL     1       0.419 -22.901  16.269  1.00  0.00     0.180 A 
HETATM   41  N6  UNL     1      -0.137 -21.688  16.314  1.00  0.00    -0.277 N 
HETATM   42  N7  UNL     1      -1.140 -21.446  15.576  1.00  0.00    -0.281 N 
ATOM     43  H6  UNL     1       0.238 -20.968  16.932  1.00  0.00     0.189 HD
HETATM   44  C16 UNL     1      -1.621 -22.387  14.777  1.00  0.00     0.208 A 
ATOM     45  H7  UNL     1      -1.577 -20.525  15.597  1.00  0.00     0.188 HD
HETATM   46  S3  UNL     1      -0.568 -23.690  15.110  1.00  0.00    -0.018 SA
BRANCH  44  47
HETATM   47  S2  UNL     1      -3.003 -22.258  13.675  1.00  0.00     0.280 S 
HETATM   48  O7  UNL     1      -4.177 -22.993  14.200  1.00  0.00    -0.199 OA
HETATM   49  O8  UNL     1      -2.553 -22.774  12.335  1.00  0.00    -0.199 OA
BRANCH  47  50
HETATM   50  N8  UNL     1      -3.366 -20.575  13.486  1.00  0.00    -0.323 N 
ATOM     51  H82 UNL     1      -2.833 -19.915  12.919  1.00  0.00     0.169 HD
ATOM     52  H81 UNL     1      -4.199 -20.375  14.040  1.00  0.00     0.169 HD
ENDBRANCH  47  50
ENDBRANCH  44  47
ENDBRANCH  38  40
ENDBRANCH  36  38
ENDBRANCH  35  36
ENDBRANCH  30  35
ENDBRANCH  26  27
ENDBRANCH   1  26
BRANCH   1  53
HETATM   53  C19 UNL     1       7.398 -17.870  11.874  1.00  0.00     0.206 C 
HETATM   54  O11 UNL     1       7.983 -18.421  10.894  1.00  0.00    -0.646 OA
HETATM   55  O12 UNL     1       8.223 -17.351  12.850  1.00  0.00    -0.646 OA
ENDBRANCH   1  53
TORSDOF 16
ENDMDL
MODEL 5
REMARK VINA RESULT: -9.476694490      1.955      2.651
REMARK  16 active torsions:
REMARK  status: ('A' for Active; 'I' for Inactive)
REMARK    1  A    between atoms: N1_1  and  C1_4 
REMARK    2  A    between atoms: C2_7  and  O1_8 
REMARK    3  A    between atoms: O1_8  and  S1_9 
REMARK    4  A    between atoms: C5_15  and  N3_16 
REMARK    5  A    between atoms: C7_18  and  C8_19 
REMARK    6  A    between atoms: C8_19  and  O5_20 
REMARK    7  A    between atoms: C8_19  and  C9_22 
REMARK    8  A    between atoms: C9_22  and  O6_23 
REMARK    9  A    between atoms: C9_22  and  C19_50 
REMARK   10  A    between atoms: O6_23  and  C10_24 
REMARK   11  A    between atoms: C13_27  and  C14_28 
REMARK   12  A    between atoms: C14_28  and  N4_29 
REMARK   13  A    between atoms: N4_29  and  N5_31 
REMARK   14  A    between atoms: N5_31  and  C15_33 
REMARK   15  A    between atoms: C16_38  and  S2_39 
REMARK   16  A    between atoms: S2_39  and  N8_40 
ROOT
HETATM    1  C9  UNL     1       5.969 -17.567  11.948  1.00  0.00     0.264 C 
ENDROOT
BRANCH   1   2
HETATM    2  C8  UNL     1       5.370 -16.231  11.562  1.00  0.00     0.210 C 
BRANCH   2   3
HETATM    3  C7  UNL     1       4.058 -16.021  12.245  1.00  0.00     0.072 A 
HETATM    4  C6  UNL     1       2.850 -16.613  11.827  1.00  0.00     0.143 A 
HETATM    5  N3  UNL     1       1.848 -16.217  12.631  1.00  0.00    -0.245 N 
HETATM    6  N10 UNL     1       2.393 -15.407  13.522  1.00  0.00    -0.015 NA
HETATM    7  N9  UNL     1       3.693 -15.291  13.296  1.00  0.00    -0.284 N 
ATOM      8  H9  UNL     1       4.328 -14.720  13.853  1.00  0.00     0.184 HD
BRANCH   5   9
HETATM    9  C5  UNL     1       0.483 -16.607  12.520  1.00  0.00     0.097 A 
HETATM   10  C1  UNL     1      -0.152 -17.331  13.508  1.00  0.00     0.129 A 
HETATM   11  N2  UNL     1      -1.443 -17.705  13.413  1.00  0.00    -0.321 N 
HETATM   12  C2  UNL     1      -2.158 -17.360  12.304  1.00  0.00     0.165 A 
ATOM     13  H2  UNL     1      -1.881 -18.240  14.163  1.00  0.00     0.169 HD
HETATM   14  C3  UNL     1      -1.600 -16.638  11.271  1.00  0.00     0.060 A 
HETATM   15  C4  UNL     1      -0.268 -16.273  11.408  1.00  0.00     0.039 A 
BRANCH  10  16
HETATM   16  N1  UNL     1       0.564 -17.643  14.557  1.00  0.00    -0.384 N 
ATOM     17  H12 UNL     1       0.248 -18.444  15.103  1.00  0.00     0.157 HD
ATOM     18  H11 UNL     1       1.396 -17.106  14.804  1.00  0.00     0.157 HD
ENDBRANCH  10  16
BRANCH  12  19
HETATM   19  O1  UNL     1      -3.474 -17.769  12.263  1.00  0.00    -0.196 OA
BRANCH  19  20
HETATM   20  S1  UNL     1      -3.934 -19.403  12.166  1.00  0.00     0.258 S 
HETATM   21  O2  UNL     1      -5.407 -19.577  12.011  1.00  0.00    -0.572 OA
HETATM   22  O3  UNL     1      -3.512 -20.104  13.421  1.00  0.00    -0.572 OA
HETATM   23  O4  UNL     1      -3.116 -20.151  10.882  1.00  0.00    -0.572 OA
ENDBRANCH  19  20
ENDBRANCH  12  19
ENDBRANCH   5   9
ENDBRANCH   2   3
BRANCH   2  24
HETATM   24  O5  UNL     1       6.199 -15.235  12.178  1.00  0.00    -0.386 OA
ATOM     25  H5  UNL     1       6.958 -15.223  11.608  1.00  0.00     0.210 HD
ENDBRANCH   2  24
ENDBRANCH   1   2
BRANCH   1  26
HETATM   26  O6  UNL     1       5.743 -17.683  13.366  1.00  0.00    -0.328 OA
BRANCH  26  27
HETATM   27  C10 UNL     1       5.310 -18.828  13.998  1.00  0.00     0.124 A 
HETATM   28  C11 UNL     1       4.809 -19.851  13.282  1.00  0.00     0.042 A 
HETATM   29  C12 UNL     1       4.345 -21.065  13.906  1.00  0.00     0.020 A 
HETATM   30  C13 UNL     1       4.367 -21.287  15.211  1.00  0.00     0.035 A 
HETATM   31  C17 UNL     1       4.899 -20.230  16.088  1.00  0.00     0.236 A 
HETATM   32  O9  UNL     1       4.916 -20.448  17.322  1.00  0.00    -0.283 OA
HETATM   33  C18 UNL     1       5.361 -19.014  15.442  1.00  0.00     0.255 A 
HETATM   34  O10 UNL     1       5.818 -18.108  16.212  1.00  0.00    -0.281 OA
BRANCH  30  35
HETATM   35  C14 UNL     1       3.879 -22.545  15.757  1.00  0.00     0.122 C 
BRANCH  35  36
HETATM   36  N4  UNL     1       2.884 -22.556  16.585  1.00  0.00    -0.309 N 
ATOM     37  H4  UNL     1       2.779 -23.302  17.272  1.00  0.00     0.186 HD
BRANCH  36  38
HETATM   38  N5  UNL     1       1.958 -21.514  16.510  1.00  0.00    -0.279 N 
ATOM     39  H5  UNL     1       2.156 -20.589  16.892  1.00  0.00     0.189 HD
BRANCH  38  40
HETATM   40  C15 UNL     1       0.818 -21.791  15.918  1.00  0.00     0.180 A 
HETATM   41  N6  UNL     1      -0.228 -20.981  15.737  1.00  0.00    -0.277 N 
HETATM   42  N7  UNL     1      -1.252 -21.429  15.138  1.00  0.00    -0.281 N 
ATOM     43  H6  UNL     1      -0.203 -20.019  16.075  1.00  0.00     0.189 HD
HETATM   44  C16 UNL     1      -1.276 -22.680  14.703  1.00  0.00     0.208 A 
ATOM     45  H7  UNL     1      -2.060 -20.824  14.991  1.00  0.00     0.188 HD
HETATM   46  S3  UNL     1       0.264 -23.239  15.185  1.00  0.00    -0.018 SA
BRANCH  44  47
HETATM   47  S2  UNL     1      -2.597 -23.497  13.849  1.00  0.00     0.280 S 
HETATM   48  O7  UNL     1      -3.896 -23.255  14.520  1.00  0.00    -0.199 OA
HETATM   49  O8  UNL     1      -2.247 -24.958  13.782  1.00  0.00    -0.199 OA
BRANCH  47  50
HETATM   50  N8  UNL     1      -2.623 -22.894  12.225  1.00  0.00    -0.323 N 
ATOM     51  H82 UNL     1      -1.809 -22.802  11.616  1.00  0.00     0.169 HD
ATOM     52  H81 UNL     1      -3.588 -22.655  12.000  1.00  0.00     0.169 HD
ENDBRANCH  47  50
ENDBRANCH  44  47
ENDBRANCH  38  40
ENDBRANCH  36  38
ENDBRANCH  35  36
ENDBRANCH  30  35
ENDBRANCH  26  27
ENDBRANCH   1  26
BRANCH   1  53
HETATM   53  C19 UNL     1       7.452 -17.596  11.802  1.00  0.00     0.206 C 
HETATM   54  O11 UNL     1       8.045 -18.195  10.855  1.00  0.00    -0.646 OA
HETATM   55  O12 UNL     1       8.269 -16.954  12.710  1.00  0.00    -0.646 OA
ENDBRANCH   1  53
TORSDOF 16
ENDMDL
