MODEL 1
REMARK VINA RESULT: -9.056981002      0.000      0.000
REMARK  6 active torsions:
REMARK  status: ('A' for Active; 'I' for Inactive)
REMARK    1  A    between atoms: C5_13  and  C6_14 
REMARK    2  A    between atoms: N3_15  and  O5_17 
REMARK    3  A    between atoms: C7_21  and  N5_22 
REMARK    4  A    between atoms: N5_22  and  N6_24 
REMARK    5  A    between atoms: C8_26  and  C9_27 
REMARK    6  A    between atoms: C11_33  and  O8_34 
ROOT
HETATM    1  O1  UNL     1      68.736  95.730 116.340  1.00  0.00    -0.247 OA
HETATM    2  C1  UNL     1      67.844  96.215 117.092  1.00  0.00     0.325 C 
HETATM    3  N1  UNL     1      67.878  96.256 118.516  1.00  0.00    -0.275 N 
ATOM      4  H1  UNL     1      68.634  95.895 119.096  1.00  0.00     0.173 HD
HETATM    5  C2  UNL     1      66.696  96.879 119.004  1.00  0.00     0.286 C 
HETATM    6  O2  UNL     1      66.503  97.131 120.216  1.00  0.00    -0.267 OA
HETATM    7  C3  UNL     1      65.814  97.140 117.837  1.00  0.00     0.268 C 
HETATM    8  N2  UNL     1      66.626  96.820 116.680  1.00  0.00    -0.299 N 
ATOM      9  H2  UNL     1      66.362  97.001 115.712  1.00  0.00     0.168 HD
HETATM   10  O3  UNL     1      65.566  98.532 117.805  1.00  0.00    -0.273 OA
HETATM   11  C4  UNL     1      64.279  99.032 118.091  1.00  0.00     0.289 C 
HETATM   12  O4  UNL     1      63.863 100.080 117.555  1.00  0.00    -0.262 OA
HETATM   13  C5  UNL     1      63.522  98.207 119.055  1.00  0.00     0.220 C 
HETATM   14  N4  UNL     1      63.502  96.853 118.670  1.00  0.00    -0.379 N 
ATOM     15  H4  UNL     1      62.742  96.246 118.976  1.00  0.00     0.156 HD
HETATM   16  C7  UNL     1      64.537  96.337 117.858  1.00  0.00     0.261 C 
ENDROOT
BRANCH  16  17
HETATM   17  N5  UNL     1      64.833  94.913 118.101  1.00  0.00    -0.308 N 
ATOM     18  H5  UNL     1      65.051  94.327 117.295  1.00  0.00     0.182 HD
BRANCH  17  19
HETATM   19  N6  UNL     1      64.834  94.333 119.320  1.00  0.00    -0.311 N 
HETATM   20  C8  UNL     1      65.527  93.594 120.022  1.00  0.00     0.148 C 
ATOM     21  H6  UNL     1      63.986  94.591 119.824  1.00  0.00     0.185 HD
BRANCH  20  22
HETATM   22  C9  UNL     1      66.803  92.955 119.798  1.00  0.00     0.148 A 
HETATM   23  O6  UNL     1      67.518  93.091 118.675  1.00  0.00    -0.255 OA
HETATM   24  C10 UNL     1      68.616  92.412 118.744  1.00  0.00     0.372 A 
HETATM   25  O7  UNL     1      69.541  92.289 117.892  1.00  0.00    -0.238 OA
HETATM   26  N7  UNL     1      68.669  91.792 119.934  1.00  0.00    -0.280 N 
HETATM   27  C11 UNL     1      67.529  92.138 120.587  1.00  0.00     0.180 A 
ATOM     28  H7  UNL     1      69.414  91.186 120.277  1.00  0.00     0.173 HD
BRANCH  27  29
HETATM   29  O8  UNL     1      67.231  91.688 121.853  1.00  0.00    -0.344 OA
ATOM     30  H8  UNL     1      67.822  91.328 122.505  1.00  0.00     0.219 HD
ENDBRANCH  27  29
ENDBRANCH  20  22
ENDBRANCH  17  19
ENDBRANCH  16  17
BRANCH  13  31
HETATM   31  C6  UNL     1      62.099  98.704 119.028  1.00  0.00     0.121 C 
HETATM   32  N3  UNL     1      61.371  98.493 118.007  1.00  0.00    -0.282 N 
ATOM     33  H3  UNL     1      60.416  98.850 118.043  1.00  0.00     0.193 HD
BRANCH  32  34
HETATM   34  O5  UNL     1      61.734  97.841 116.876  1.00  0.00    -0.290 OA
ATOM     35  H5  UNL     1      62.091  98.231 116.086  1.00  0.00     0.244 HD
ENDBRANCH  32  34
ENDBRANCH  13  31
TORSDOF 6
ENDMDL
MODEL 2
REMARK VINA RESULT: -8.920039060      2.134      3.565
REMARK  6 active torsions:
REMARK  status: ('A' for Active; 'I' for Inactive)
REMARK    1  A    between atoms: C5_13  and  C6_14 
REMARK    2  A    between atoms: N3_15  and  O5_17 
REMARK    3  A    between atoms: C7_21  and  N5_22 
REMARK    4  A    between atoms: N5_22  and  N6_24 
REMARK    5  A    between atoms: C8_26  and  C9_27 
REMARK    6  A    between atoms: C11_33  and  O8_34 
ROOT
HETATM    1  O1  UNL     1      66.365  96.891 120.822  1.00  0.00    -0.247 OA
HETATM    2  C1  UNL     1      65.489  97.246 119.985  1.00  0.00     0.325 C 
HETATM    3  N1  UNL     1      64.343  96.492 119.598  1.00  0.00    -0.275 N 
ATOM      4  H1  UNL     1      64.097  95.570 119.958  1.00  0.00     0.173 HD
HETATM    5  C2  UNL     1      63.593  97.222 118.635  1.00  0.00     0.286 C 
HETATM    6  O2  UNL     1      62.487  96.836 118.190  1.00  0.00    -0.267 OA
HETATM    7  C3  UNL     1      64.364  98.449 118.306  1.00  0.00     0.268 C 
HETATM    8  N2  UNL     1      65.459  98.464 119.254  1.00  0.00    -0.299 N 
ATOM      9  H2  UNL     1      66.113  99.237 119.380  1.00  0.00     0.168 HD
HETATM   10  O3  UNL     1      63.534  99.555 118.601  1.00  0.00    -0.273 OA
HETATM   11  C4  UNL     1      63.021 100.358 117.561  1.00  0.00     0.289 C 
HETATM   12  O4  UNL     1      62.802 101.574 117.737  1.00  0.00    -0.262 OA
HETATM   13  C5  UNL     1      62.784  99.620 116.303  1.00  0.00     0.220 C 
HETATM   14  N4  UNL     1      63.923  98.892 115.911  1.00  0.00    -0.379 N 
ATOM     15  H4  UNL     1      64.069  98.662 114.928  1.00  0.00     0.156 HD
HETATM   16  C7  UNL     1      64.863  98.479 116.882  1.00  0.00     0.261 C 
ENDROOT
BRANCH  16  17
HETATM   17  N5  UNL     1      65.546  97.214 116.553  1.00  0.00    -0.308 N 
ATOM     18  H5  UNL     1      64.980  96.367 116.500  1.00  0.00     0.182 HD
BRANCH  17  19
HETATM   19  N6  UNL     1      66.870  97.103 116.317  1.00  0.00    -0.311 N 
HETATM   20  C8  UNL     1      67.802  96.310 116.472  1.00  0.00     0.148 C 
ATOM     21  H6  UNL     1      67.211  97.951 115.864  1.00  0.00     0.185 HD
BRANCH  20  22
HETATM   22  C9  UNL     1      67.868  94.988 117.048  1.00  0.00     0.148 A 
HETATM   23  O6  UNL     1      69.004  94.296 117.197  1.00  0.00    -0.255 OA
HETATM   24  C10 UNL     1      68.773  93.145 117.739  1.00  0.00     0.372 A 
HETATM   25  O7  UNL     1      69.580  92.219 118.036  1.00  0.00    -0.238 OA
HETATM   26  N7  UNL     1      67.455  93.032 117.974  1.00  0.00    -0.280 N 
HETATM   27  C11 UNL     1      66.898  94.191 117.537  1.00  0.00     0.180 A 
ATOM     28  H7  UNL     1      66.973  92.237 118.394  1.00  0.00     0.173 HD
BRANCH  27  29
HETATM   29  O8  UNL     1      65.546  94.442 117.615  1.00  0.00    -0.344 OA
ATOM     30  H8  UNL     1      65.004  94.942 117.015  1.00  0.00     0.219 HD
ENDBRANCH  27  29
ENDBRANCH  20  22
ENDBRANCH  17  19
ENDBRANCH  16  17
BRANCH  13  31
HETATM   31  C6  UNL     1      62.521 100.653 115.237  1.00  0.00     0.121 C 
HETATM   32  N3  UNL     1      63.438 101.468 114.901  1.00  0.00    -0.282 N 
ATOM     33  H3  UNL     1      63.206 102.145 114.175  1.00  0.00     0.193 HD
BRANCH  32  34
HETATM   34  O5  UNL     1      64.692 101.527 115.410  1.00  0.00    -0.290 OA
ATOM     35  H5  UNL     1      65.279 102.274 115.385  1.00  0.00     0.244 HD
ENDBRANCH  32  34
ENDBRANCH  13  31
TORSDOF 6
ENDMDL
MODEL 3
REMARK VINA RESULT: -8.861974380      6.514     11.444
REMARK  6 active torsions:
REMARK  status: ('A' for Active; 'I' for Inactive)
REMARK    1  A    between atoms: C5_13  and  C6_14 
REMARK    2  A    between atoms: N3_15  and  O5_17 
REMARK    3  A    between atoms: C7_21  and  N5_22 
REMARK    4  A    between atoms: N5_22  and  N6_24 
REMARK    5  A    between atoms: C8_26  and  C9_27 
REMARK    6  A    between atoms: C11_33  and  O8_34 
ROOT
HETATM    1  O1  UNL     1      63.606 106.564 116.738  1.00  0.00    -0.247 OA
HETATM    2  C1  UNL     1      63.539 105.374 116.321  1.00  0.00     0.325 C 
HETATM    3  N1  UNL     1      63.794 104.935 114.989  1.00  0.00    -0.275 N 
ATOM      4  H1  UNL     1      64.064 105.539 114.213  1.00  0.00     0.173 HD
HETATM    5  C2  UNL     1      63.616 103.526 114.908  1.00  0.00     0.286 C 
HETATM    6  O2  UNL     1      63.865 102.861 113.876  1.00  0.00    -0.267 OA
HETATM    7  C3  UNL     1      63.108 103.064 116.225  1.00  0.00     0.268 C 
HETATM    8  N2  UNL     1      63.196 104.227 117.085  1.00  0.00    -0.299 N 
ATOM      9  H2  UNL     1      63.035 104.222 118.092  1.00  0.00     0.168 HD
HETATM   10  O3  UNL     1      64.028 102.107 116.715  1.00  0.00    -0.273 OA
HETATM   11  C4  UNL     1      63.661 100.748 116.804  1.00  0.00     0.289 C 
HETATM   12  O4  UNL     1      64.138 100.010 117.690  1.00  0.00    -0.262 OA
HETATM   13  C5  UNL     1      62.692 100.326 115.770  1.00  0.00     0.220 C 
HETATM   14  N4  UNL     1      61.577 101.184 115.728  1.00  0.00    -0.379 N 
ATOM     15  H4  UNL     1      60.682 100.842 115.379  1.00  0.00     0.156 HD
HETATM   16  C7  UNL     1      61.701 102.521 116.169  1.00  0.00     0.261 C 
ENDROOT
BRANCH  16  17
HETATM   17  N5  UNL     1      60.817 103.467 115.463  1.00  0.00    -0.308 N 
ATOM     18  H5  UNL     1      60.787 103.422 114.444  1.00  0.00     0.182 HD
BRANCH  17  19
HETATM   19  N6  UNL     1      60.044 104.388 116.076  1.00  0.00    -0.311 N 
HETATM   20  C8  UNL     1      59.807 105.598 116.057  1.00  0.00     0.148 C 
ATOM     21  H6  UNL     1      59.468 103.936 116.787  1.00  0.00     0.185 HD
BRANCH  20  22
HETATM   22  C9  UNL     1      60.333 106.679 115.256  1.00  0.00     0.148 A 
HETATM   23  O6  UNL     1      60.347 107.958 115.649  1.00  0.00    -0.255 OA
HETATM   24  C10 UNL     1      60.873 108.712 114.739  1.00  0.00     0.372 A 
HETATM   25  O7  UNL     1      61.059 109.962 114.739  1.00  0.00    -0.238 OA
HETATM   26  N7  UNL     1      61.232 107.947 113.696  1.00  0.00    -0.280 N 
HETATM   27  C11 UNL     1      60.889 106.676 114.029  1.00  0.00     0.180 A 
ATOM     28  H7  UNL     1      61.673 108.258 112.830  1.00  0.00     0.173 HD
BRANCH  27  29
HETATM   29  O8  UNL     1      61.108 105.603 113.194  1.00  0.00    -0.344 OA
ATOM     30  H8  UNL     1      61.729 105.531 112.478  1.00  0.00     0.219 HD
ENDBRANCH  27  29
ENDBRANCH  20  22
ENDBRANCH  17  19
ENDBRANCH  16  17
BRANCH  13  31
HETATM   31  C6  UNL     1      62.195  98.961 116.174  1.00  0.00     0.121 C 
HETATM   32  N3  UNL     1      62.954  97.947 116.056  1.00  0.00    -0.282 N 
ATOM     33  H3  UNL     1      62.566  97.049 116.345  1.00  0.00     0.193 HD
BRANCH  32  34
HETATM   34  O5  UNL     1      64.224  97.939 115.586  1.00  0.00    -0.290 OA
ATOM     35  H5  UNL     1      65.021  97.946 116.105  1.00  0.00     0.244 HD
ENDBRANCH  32  34
ENDBRANCH  13  31
TORSDOF 6
ENDMDL
MODEL 4
REMARK VINA RESULT: -8.647299174      2.007      3.783
REMARK  6 active torsions:
REMARK  status: ('A' for Active; 'I' for Inactive)
REMARK    1  A    between atoms: C5_13  and  C6_14 
REMARK    2  A    between atoms: N3_15  and  O5_17 
REMARK    3  A    between atoms: C7_21  and  N5_22 
REMARK    4  A    between atoms: N5_22  and  N6_24 
REMARK    5  A    between atoms: C8_26  and  C9_27 
REMARK    6  A    between atoms: C11_33  and  O8_34 
ROOT
HETATM    1  O1  UNL     1      63.294  98.236 115.432  1.00  0.00    -0.247 OA
HETATM    2  C1  UNL     1      63.883  98.054 116.535  1.00  0.00     0.325 C 
HETATM    3  N1  UNL     1      65.020  98.771 117.007  1.00  0.00    -0.275 N 
ATOM      4  H1  UNL     1      65.494  99.521 116.503  1.00  0.00     0.173 HD
HETATM    5  C2  UNL     1      65.394  98.282 118.289  1.00  0.00     0.286 C 
HETATM    6  O2  UNL     1      66.306  98.794 118.980  1.00  0.00    -0.267 OA
HETATM    7  C3  UNL     1      64.524  97.117 118.594  1.00  0.00     0.268 C 
HETATM    8  N2  UNL     1      63.539  97.103 117.532  1.00  0.00    -0.299 N 
ATOM      9  H2  UNL     1      62.718  96.498 117.505  1.00  0.00     0.168 HD
HETATM   10  O3  UNL     1      63.842  97.411 119.798  1.00  0.00    -0.273 OA
HETATM   11  C4  UNL     1      64.140  96.696 120.977  1.00  0.00     0.289 C 
HETATM   12  O4  UNL     1      63.265  96.491 121.843  1.00  0.00    -0.262 OA
HETATM   13  C5  UNL     1      65.545  96.246 121.059  1.00  0.00     0.220 C 
HETATM   14  N4  UNL     1      65.933  95.554 119.896  1.00  0.00    -0.379 N 
ATOM     15  H4  UNL     1      66.687  94.868 119.937  1.00  0.00     0.156 HD
HETATM   16  C7  UNL     1      65.275  95.811 118.672  1.00  0.00     0.261 C 
ENDROOT
BRANCH  16  17
HETATM   17  N5  UNL     1      66.135  95.644 117.486  1.00  0.00    -0.308 N 
ATOM     18  H5  UNL     1      66.557  96.481 117.082  1.00  0.00     0.182 HD
BRANCH  17  19
HETATM   19  N6  UNL     1      66.399  94.459 116.898  1.00  0.00    -0.311 N 
HETATM   20  C8  UNL     1      66.834  93.337 117.170  1.00  0.00     0.148 C 
ATOM     21  H6  UNL     1      66.163  94.506 115.907  1.00  0.00     0.185 HD
BRANCH  20  22
HETATM   22  C9  UNL     1      67.304  92.748 118.401  1.00  0.00     0.148 A 
HETATM   23  O6  UNL     1      66.569  92.670 119.518  1.00  0.00    -0.255 OA
HETATM   24  C10 UNL     1      67.235  92.097 120.467  1.00  0.00     0.372 A 
HETATM   25  O7  UNL     1      66.887  91.844 121.655  1.00  0.00    -0.238 OA
HETATM   26  N7  UNL     1      68.453  91.768 120.006  1.00  0.00    -0.280 N 
HETATM   27  C11 UNL     1      68.486  92.181 118.712  1.00  0.00     0.180 A 
ATOM     28  H7  UNL     1      69.200  91.304 120.522  1.00  0.00     0.173 HD
BRANCH  27  29
HETATM   29  O8  UNL     1      69.589  92.011 117.905  1.00  0.00    -0.344 OA
ATOM     30  H8  UNL     1      70.112  91.228 117.779  1.00  0.00     0.219 HD
ENDBRANCH  27  29
ENDBRANCH  20  22
ENDBRANCH  17  19
ENDBRANCH  16  17
BRANCH  13  31
HETATM   31  C6  UNL     1      65.623  95.273 122.208  1.00  0.00     0.121 C 
HETATM   32  N3  UNL     1      65.018  94.157 122.139  1.00  0.00    -0.282 N 
ATOM     33  H3  UNL     1      65.104  93.538 122.944  1.00  0.00     0.193 HD
BRANCH  32  34
HETATM   34  O5  UNL     1      64.270  93.706 121.103  1.00  0.00    -0.290 OA
ATOM     35  H5  UNL     1      63.357  93.909 120.932  1.00  0.00     0.244 HD
ENDBRANCH  32  34
ENDBRANCH  13  31
TORSDOF 6
ENDMDL
MODEL 5
REMARK VINA RESULT: -8.587121962      2.610      6.116
REMARK  6 active torsions:
REMARK  status: ('A' for Active; 'I' for Inactive)
REMARK    1  A    between atoms: C5_13  and  C6_14 
REMARK    2  A    between atoms: N3_15  and  O5_17 
REMARK    3  A    between atoms: C7_21  and  N5_22 
REMARK    4  A    between atoms: N5_22  and  N6_24 
REMARK    5  A    between atoms: C8_26  and  C9_27 
REMARK    6  A    between atoms: C11_33  and  O8_34 
ROOT
HETATM    1  O1  UNL     1      68.891  95.580 116.226  1.00  0.00    -0.247 OA
HETATM    2  C1  UNL     1      67.938  95.695 117.047  1.00  0.00     0.325 C 
HETATM    3  N1  UNL     1      66.842  94.796 117.192  1.00  0.00    -0.275 N 
ATOM      4  H1  UNL     1      66.700  93.949 116.642  1.00  0.00     0.173 HD
HETATM    5  C2  UNL     1      65.976  95.261 118.220  1.00  0.00     0.286 C 
HETATM    6  O2  UNL     1      64.979  94.616 118.621  1.00  0.00    -0.267 OA
HETATM    7  C3  UNL     1      66.485  96.582 118.669  1.00  0.00     0.268 C 
HETATM    8  N2  UNL     1      67.758  96.737 117.996  1.00  0.00    -0.299 N 
ATOM      9  H2  UNL     1      68.428  97.485 118.176  1.00  0.00     0.168 HD
HETATM   10  O3  UNL     1      66.751  96.477 120.055  1.00  0.00    -0.273 OA
HETATM   11  C4  UNL     1      65.953  97.172 120.987  1.00  0.00     0.289 C 
HETATM   12  O4  UNL     1      66.432  97.578 122.066  1.00  0.00    -0.262 OA
HETATM   13  C5  UNL     1      64.552  97.351 120.553  1.00  0.00     0.220 C 
HETATM   14  N4  UNL     1      64.479  97.905 119.261  1.00  0.00    -0.379 N 
ATOM     15  H4  UNL     1      63.655  98.436 118.978  1.00  0.00     0.156 HD
HETATM   16  C7  UNL     1      65.550  97.724 118.356  1.00  0.00     0.261 C 
ENDROOT
BRANCH  16  17
HETATM   17  N5  UNL     1      65.134  97.672 116.943  1.00  0.00    -0.308 N 
ATOM     18  H5  UNL     1      65.182  96.771 116.465  1.00  0.00     0.182 HD
BRANCH  17  19
HETATM   19  N6  UNL     1      64.696  98.736 116.238  1.00  0.00    -0.311 N 
HETATM   20  C8  UNL     1      63.645  99.271 115.877  1.00  0.00     0.148 C 
ATOM     21  H6  UNL     1      65.492  99.272 115.893  1.00  0.00     0.185 HD
BRANCH  20  22
HETATM   22  C9  UNL     1      62.258  98.932 116.088  1.00  0.00     0.148 A 
HETATM   23  O6  UNL     1      61.237  99.568 115.501  1.00  0.00    -0.255 OA
HETATM   24  C10 UNL     1      60.106  99.059 115.868  1.00  0.00     0.372 A 
HETATM   25  O7  UNL     1      58.931  99.384 115.535  1.00  0.00    -0.238 OA
HETATM   26  N7  UNL     1      60.341  98.052 116.725  1.00  0.00    -0.280 N 
HETATM   27  C11 UNL     1      61.691  97.981 116.857  1.00  0.00     0.180 A 
ATOM     28  H7  UNL     1      59.647  97.462 117.183  1.00  0.00     0.173 HD
BRANCH  27  29
HETATM   29  O8  UNL     1      62.312  97.055 117.666  1.00  0.00    -0.344 OA
ATOM     30  H8  UNL     1      61.941  96.273 118.058  1.00  0.00     0.219 HD
ENDBRANCH  27  29
ENDBRANCH  20  22
ENDBRANCH  17  19
ENDBRANCH  16  17
BRANCH  13  31
HETATM   31  C6  UNL     1      63.926  98.340 121.503  1.00  0.00     0.121 C 
HETATM   32  N3  UNL     1      64.269  99.564 121.463  1.00  0.00    -0.282 N 
ATOM     33  H3  UNL     1      63.814 100.189 122.128  1.00  0.00     0.193 HD
BRANCH  32  34
HETATM   34  O5  UNL     1      65.176 100.122 120.626  1.00  0.00    -0.290 OA
ATOM     35  H5  UNL     1      65.630 100.948 120.751  1.00  0.00     0.244 HD
ENDBRANCH  32  34
ENDBRANCH  13  31
TORSDOF 6
ENDMDL
