MODEL 1
REMARK VINA RESULT: -9.220164196      0.000      0.000
REMARK  0 active torsions:
REMARK  status: ('A' for Active; 'I' for Inactive)
ROOT
HETATM    1  O1  UNL     1      -1.013  49.400 165.156  1.00  0.00    -0.285 OA
HETATM    2  C1  UNL     1      -1.391  50.580 164.973  1.00  0.00     0.216 A 
HETATM    3  C2  UNL     1      -2.711  50.858 164.690  1.00  0.00     0.119 A 
HETATM    4  N1  UNL     1      -3.829  50.126 164.541  1.00  0.00    -0.350 N 
ATOM      5  H1  UNL     1      -3.886  49.111 164.624  1.00  0.00     0.166 HD
HETATM    6  C3  UNL     1      -4.872  50.956 164.261  1.00  0.00     0.045 A 
HETATM    7  C4  UNL     1      -6.211  50.738 164.020  1.00  0.00     0.030 A 
HETATM    8  C5  UNL     1      -7.088  51.775 163.753  1.00  0.00     0.002 A 
HETATM    9  C6  UNL     1      -6.613  53.082 163.725  1.00  0.00     0.001 A 
HETATM   10  C7  UNL     1      -5.271  53.284 163.967  1.00  0.00     0.017 A 
HETATM   11  C8  UNL     1      -4.403  52.252 164.232  1.00  0.00     0.027 A 
HETATM   12  C9  UNL     1      -3.034  52.187 164.505  1.00  0.00     0.121 A 
HETATM   13  O2  UNL     1      -2.114  53.126 164.597  1.00  0.00    -0.289 OA
HETATM   14  C10 UNL     1      -0.864  52.911 164.861  1.00  0.00     0.164 A 
HETATM   15  N2  UNL     1       0.216  53.703 164.998  1.00  0.00    -0.335 N 
ATOM     16  H2  UNL     1       0.227  54.719 164.906  1.00  0.00     0.168 HD
HETATM   17  C11 UNL     1       1.268  52.932 165.274  1.00  0.00     0.045 A 
HETATM   18  C12 UNL     1       2.585  53.259 165.501  1.00  0.00     0.030 A 
HETATM   19  C13 UNL     1       3.489  52.275 165.767  1.00  0.00     0.002 A 
HETATM   20  C14 UNL     1       3.118  50.940 165.819  1.00  0.00     0.001 A 
HETATM   21  C15 UNL     1       1.803  50.595 165.594  1.00  0.00     0.015 A 
HETATM   22  C16 UNL     1       0.897  51.599 165.324  1.00  0.00     0.009 A 
HETATM   23  C17 UNL     1      -0.460  51.590 165.061  1.00  0.00     0.080 A 
ENDROOT
TORSDOF 0
ENDMDL
MODEL 2
REMARK VINA RESULT: -9.116548673      1.295      6.502
REMARK  0 active torsions:
REMARK  status: ('A' for Active; 'I' for Inactive)
ROOT
HETATM    1  O1  UNL     1      -2.529  49.447 164.858  1.00  0.00    -0.285 OA
HETATM    2  C1  UNL     1      -2.119  50.630 164.821  1.00  0.00     0.216 A 
HETATM    3  C2  UNL     1      -0.793  50.921 165.061  1.00  0.00     0.119 A 
HETATM    4  N1  UNL     1       0.303  50.201 165.355  1.00  0.00    -0.350 N 
ATOM      5  H1  UNL     1       0.333  49.186 165.463  1.00  0.00     0.166 HD
HETATM    6  C3  UNL     1       1.368  51.040 165.485  1.00  0.00     0.045 A 
HETATM    7  C4  UNL     1       2.699  50.835 165.776  1.00  0.00     0.030 A 
HETATM    8  C5  UNL     1       3.603  51.881 165.853  1.00  0.00     0.002 A 
HETATM    9  C6  UNL     1       3.165  53.182 165.633  1.00  0.00     0.001 A 
HETATM   10  C7  UNL     1       1.831  53.371 165.344  1.00  0.00     0.017 A 
HETATM   11  C8  UNL     1       0.935  52.331 165.268  1.00  0.00     0.027 A 
HETATM   12  C9  UNL     1      -0.434  52.252 164.998  1.00  0.00     0.121 A 
HETATM   13  O2  UNL     1      -1.326  53.182 164.723  1.00  0.00    -0.289 OA
HETATM   14  C10 UNL     1      -2.582  52.954 164.492  1.00  0.00     0.164 A 
HETATM   15  N2  UNL     1      -3.638  53.735 164.200  1.00  0.00    -0.335 N 
ATOM     16  H2  UNL     1      -3.621  54.750 164.100  1.00  0.00     0.168 HD
HETATM   17  C11 UNL     1      -4.710  52.955 164.062  1.00  0.00     0.045 A 
HETATM   18  C12 UNL     1      -6.016  53.268 163.766  1.00  0.00     0.030 A 
HETATM   19  C13 UNL     1      -6.946  52.276 163.678  1.00  0.00     0.002 A 
HETATM   20  C14 UNL     1      -6.613  50.945 163.880  1.00  0.00     0.001 A 
HETATM   21  C15 UNL     1      -5.308  50.614 164.178  1.00  0.00     0.015 A 
HETATM   22  C16 UNL     1      -4.376  51.626 164.264  1.00  0.00     0.009 A 
HETATM   23  C17 UNL     1      -3.020  51.630 164.538  1.00  0.00     0.080 A 
ENDROOT
TORSDOF 0
ENDMDL
MODEL 3
REMARK VINA RESULT: -9.003903704      1.537      6.544
REMARK  0 active torsions:
REMARK  status: ('A' for Active; 'I' for Inactive)
ROOT
HETATM    1  O1  UNL     1      -3.852  50.045 165.324  1.00  0.00    -0.285 OA
HETATM    2  C1  UNL     1      -3.143  50.960 164.845  1.00  0.00     0.216 A 
HETATM    3  C2  UNL     1      -1.772  50.934 164.989  1.00  0.00     0.119 A 
HETATM    4  N1  UNL     1      -0.890  50.102 165.567  1.00  0.00    -0.350 N 
ATOM      5  H1  UNL     1      -1.125  49.239 166.058  1.00  0.00     0.166 HD
HETATM    6  C3  UNL     1       0.369  50.593 165.391  1.00  0.00     0.045 A 
HETATM    7  C4  UNL     1       1.616  50.148 165.774  1.00  0.00     0.030 A 
HETATM    8  C5  UNL     1       2.771  50.845 165.466  1.00  0.00     0.002 A 
HETATM    9  C6  UNL     1       2.682  52.034 164.750  1.00  0.00     0.001 A 
HETATM   10  C7  UNL     1       1.428  52.467 164.375  1.00  0.00     0.017 A 
HETATM   11  C8  UNL     1       0.282  51.772 164.682  1.00  0.00     0.027 A 
HETATM   12  C9  UNL     1      -1.075  51.985 164.428  1.00  0.00     0.121 A 
HETATM   13  O2  UNL     1      -1.705  52.953 163.792  1.00  0.00    -0.289 OA
HETATM   14  C10 UNL     1      -2.990  53.017 163.634  1.00  0.00     0.164 A 
HETATM   15  N2  UNL     1      -3.818  53.893 163.035  1.00  0.00    -0.335 N 
ATOM     16  H2  UNL     1      -3.537  54.747 162.553  1.00  0.00     0.168 HD
HETATM   17  C11 UNL     1      -5.068  53.454 163.181  1.00  0.00     0.045 A 
HETATM   18  C12 UNL     1      -6.262  53.985 162.752  1.00  0.00     0.030 A 
HETATM   19  C13 UNL     1      -7.428  53.338 163.029  1.00  0.00     0.002 A 
HETATM   20  C14 UNL     1      -7.449  52.146 163.737  1.00  0.00     0.001 A 
HETATM   21  C15 UNL     1      -6.262  51.599 164.174  1.00  0.00     0.015 A 
HETATM   22  C16 UNL     1      -5.088  52.263 163.888  1.00  0.00     0.009 A 
HETATM   23  C17 UNL     1      -3.763  51.989 164.174  1.00  0.00     0.080 A 
ENDROOT
TORSDOF 0
ENDMDL
MODEL 4
REMARK VINA RESULT: -8.970052798      3.679      5.084
REMARK  0 active torsions:
REMARK  status: ('A' for Active; 'I' for Inactive)
ROOT
HETATM    1  O1  UNL     1      -5.165  53.855 164.197  1.00  0.00    -0.285 OA
HETATM    2  C1  UNL     1      -4.384  53.454 163.303  1.00  0.00     0.216 A 
HETATM    3  C2  UNL     1      -4.566  53.833 161.990  1.00  0.00     0.119 A 
HETATM    4  N1  UNL     1      -5.452  54.600 161.334  1.00  0.00    -0.350 N 
ATOM      5  H1  UNL     1      -6.239  55.092 161.759  1.00  0.00     0.166 HD
HETATM    6  C3  UNL     1      -5.134  54.617 160.009  1.00  0.00     0.045 A 
HETATM    7  C4  UNL     1      -5.698  55.232 158.912  1.00  0.00     0.030 A 
HETATM    8  C5  UNL     1      -5.173  55.089 157.640  1.00  0.00     0.002 A 
HETATM    9  C6  UNL     1      -4.042  54.302 157.451  1.00  0.00     0.001 A 
HETATM   10  C7  UNL     1      -3.490  53.694 158.557  1.00  0.00     0.017 A 
HETATM   11  C8  UNL     1      -4.013  53.837 159.820  1.00  0.00     0.027 A 
HETATM   12  C9  UNL     1      -3.655  53.343 161.077  1.00  0.00     0.121 A 
HETATM   13  O2  UNL     1      -2.670  52.555 161.459  1.00  0.00    -0.289 OA
HETATM   14  C10 UNL     1      -2.461  52.175 162.680  1.00  0.00     0.164 A 
HETATM   15  N2  UNL     1      -1.540  51.394 163.275  1.00  0.00    -0.335 N 
ATOM     16  H2  UNL     1      -0.767  50.920 162.807  1.00  0.00     0.168 HD
HETATM   17  C11 UNL     1      -1.811  51.345 164.579  1.00  0.00     0.045 A 
HETATM   18  C12 UNL     1      -1.172  50.689 165.605  1.00  0.00     0.030 A 
HETATM   19  C13 UNL     1      -1.648  50.797 166.876  1.00  0.00     0.002 A 
HETATM   20  C14 UNL     1      -2.770  51.557 167.173  1.00  0.00     0.001 A 
HETATM   21  C15 UNL     1      -3.422  52.221 166.156  1.00  0.00     0.015 A 
HETATM   22  C16 UNL     1      -2.931  52.104 164.873  1.00  0.00     0.009 A 
HETATM   23  C17 UNL     1      -3.342  52.630 163.662  1.00  0.00     0.080 A 
ENDROOT
TORSDOF 0
ENDMDL
MODEL 5
REMARK VINA RESULT: -8.909106720      0.729      6.900
REMARK  0 active torsions:
REMARK  status: ('A' for Active; 'I' for Inactive)
ROOT
HETATM    1  O1  UNL     1      -2.829  53.898 164.401  1.00  0.00    -0.285 OA
HETATM    2  C1  UNL     1      -2.267  52.814 164.681  1.00  0.00     0.216 A 
HETATM    3  C2  UNL     1      -0.911  52.769 164.924  1.00  0.00     0.119 A 
HETATM    4  N1  UNL     1       0.084  53.673 164.947  1.00  0.00    -0.350 N 
ATOM      5  H1  UNL     1      -0.019  54.671 164.763  1.00  0.00     0.166 HD
HETATM    6  C3  UNL     1       1.252  53.043 165.256  1.00  0.00     0.045 A 
HETATM    7  C4  UNL     1       2.549  53.485 165.408  1.00  0.00     0.030 A 
HETATM    8  C5  UNL     1       3.584  52.625 165.732  1.00  0.00     0.002 A 
HETATM    9  C6  UNL     1       3.318  51.272 165.912  1.00  0.00     0.001 A 
HETATM   10  C7  UNL     1       2.017  50.846 165.756  1.00  0.00     0.017 A 
HETATM   11  C8  UNL     1       0.991  51.702 165.434  1.00  0.00     0.027 A 
HETATM   12  C9  UNL     1      -0.380  51.531 165.224  1.00  0.00     0.121 A 
HETATM   13  O2  UNL     1      -1.146  50.459 165.270  1.00  0.00    -0.289 OA
HETATM   14  C10 UNL     1      -2.423  50.455 165.048  1.00  0.00     0.164 A 
HETATM   15  N2  UNL     1      -3.370  49.499 165.042  1.00  0.00    -0.335 N 
ATOM     16  H2  UNL     1      -3.221  48.509 165.234  1.00  0.00     0.168 HD
HETATM   17  C11 UNL     1      -4.538  50.069 164.743  1.00  0.00     0.045 A 
HETATM   18  C12 UNL     1      -5.795  49.526 164.615  1.00  0.00     0.030 A 
HETATM   19  C13 UNL     1      -6.849  50.329 164.297  1.00  0.00     0.002 A 
HETATM   20  C14 UNL     1      -6.692  51.692 164.097  1.00  0.00     0.001 A 
HETATM   21  C15 UNL     1      -5.438  52.252 164.221  1.00  0.00     0.015 A 
HETATM   22  C16 UNL     1      -4.380  51.430 164.543  1.00  0.00     0.009 A 
HETATM   23  C17 UNL     1      -3.032  51.672 164.738  1.00  0.00     0.080 A 
ENDROOT
TORSDOF 0
ENDMDL
