MODEL 1
REMARK VINA RESULT: -9.898551202      0.000      0.000
REMARK  0 active torsions:
REMARK  status: ('A' for Active; 'I' for Inactive)
ROOT
HETATM    1  O1  UNL     1      -3.555  48.404 166.304  1.00  0.00    -0.285 OA
HETATM    2  C1  UNL     1      -3.100  49.422 165.721  1.00  0.00     0.213 A 
HETATM    3  C2  UNL     1      -1.751  49.708 165.664  1.00  0.00     0.045 A 
HETATM    4  C3  UNL     1      -0.834  48.867 166.260  1.00  0.00     0.019 A 
HETATM    5  C4  UNL     1       0.521  49.112 166.229  1.00  0.00     0.015 A 
HETATM    6  C5  UNL     1       1.007  50.236 165.583  1.00  0.00    -0.007 A 
HETATM    7  C6  UNL     1       2.372  50.495 165.543  1.00  0.00     0.015 A 
HETATM    8  C7  UNL     1       2.809  51.607 164.900  1.00  0.00     0.018 A 
HETATM    9  C8  UNL     1       1.885  52.441 164.307  1.00  0.00     0.088 A 
HETATM   10  N1  UNL     1       0.558  52.167 164.359  1.00  0.00    -0.363 N 
ATOM     11  H1  UNL     1      -0.098  52.806 163.908  1.00  0.00     0.165 HD
HETATM   12  C9  UNL     1       0.079  51.067 164.991  1.00  0.00     0.070 A 
HETATM   13  C10 UNL     1      -1.281  50.833 165.014  1.00  0.00     0.075 A 
HETATM   14  N2  UNL     1      -2.175  51.663 164.427  1.00  0.00    -0.351 N 
ATOM     15  H2  UNL     1      -1.849  52.499 163.943  1.00  0.00     0.166 HD
HETATM   16  C11 UNL     1      -3.495  51.390 164.478  1.00  0.00     0.076 A 
HETATM   17  C12 UNL     1      -4.006  50.274 165.118  1.00  0.00     0.112 A 
HETATM   18  N3  UNL     1      -5.349  50.260 165.008  1.00  0.00    -0.350 N 
ATOM     19  H3  UNL     1      -5.963  49.542 165.393  1.00  0.00     0.166 HD
HETATM   20  C13 UNL     1      -5.757  51.337 164.311  1.00  0.00     0.045 A 
HETATM   21  C14 UNL     1      -7.011  51.804 163.915  1.00  0.00     0.030 A 
HETATM   22  C15 UNL     1      -7.057  52.960 163.203  1.00  0.00     0.002 A 
HETATM   23  C16 UNL     1      -5.926  53.673 162.864  1.00  0.00     0.001 A 
HETATM   24  C17 UNL     1      -4.678  53.222 163.252  1.00  0.00     0.016 A 
HETATM   25  C18 UNL     1      -4.616  52.045 163.978  1.00  0.00     0.020 A 
ENDROOT
TORSDOF 0
ENDMDL
MODEL 2
REMARK VINA RESULT: -9.707121557      1.120      6.183
REMARK  0 active torsions:
REMARK  status: ('A' for Active; 'I' for Inactive)
ROOT
HETATM    1  O1  UNL     1      -2.873  48.354 166.695  1.00  0.00    -0.285 OA
HETATM    2  C1  UNL     1      -2.738  49.383 165.984  1.00  0.00     0.213 A 
HETATM    3  C2  UNL     1      -3.811  50.059 165.439  1.00  0.00     0.045 A 
HETATM    4  C3  UNL     1      -5.099  49.616 165.660  1.00  0.00     0.019 A 
HETATM    5  C4  UNL     1      -6.199  50.258 165.136  1.00  0.00     0.015 A 
HETATM    6  C5  UNL     1      -6.035  51.390 164.356  1.00  0.00    -0.007 A 
HETATM    7  C6  UNL     1      -7.138  52.048 163.822  1.00  0.00     0.015 A 
HETATM    8  C7  UNL     1      -6.935  53.153 163.063  1.00  0.00     0.018 A 
HETATM    9  C8  UNL     1      -5.644  53.588 162.847  1.00  0.00     0.088 A 
HETATM   10  N1  UNL     1      -4.585  52.930 163.380  1.00  0.00    -0.363 N 
ATOM     11  H1  UNL     1      -3.643  53.280 163.201  1.00  0.00     0.165 HD
HETATM   12  C9  UNL     1      -4.742  51.821 164.144  1.00  0.00     0.070 A 
HETATM   13  C10 UNL     1      -3.631  51.188 164.663  1.00  0.00     0.075 A 
HETATM   14  N2  UNL     1      -2.370  51.627 164.442  1.00  0.00    -0.351 N 
ATOM     15  H2  UNL     1      -2.215  52.459 163.871  1.00  0.00     0.166 HD
HETATM   16  C11 UNL     1      -1.316  50.973 164.972  1.00  0.00     0.076 A 
HETATM   17  C12 UNL     1      -1.454  49.839 165.753  1.00  0.00     0.112 A 
HETATM   18  N3  UNL     1      -0.240  49.402 166.142  1.00  0.00    -0.350 N 
ATOM     19  H3  UNL     1      -0.068  48.584 166.726  1.00  0.00     0.166 HD
HETATM   20  C13 UNL     1       0.713  50.212 165.642  1.00  0.00     0.045 A 
HETATM   21  C14 UNL     1       2.106  50.222 165.730  1.00  0.00     0.030 A 
HETATM   22  C15 UNL     1       2.771  51.213 165.082  1.00  0.00     0.002 A 
HETATM   23  C16 UNL     1       2.127  52.192 164.354  1.00  0.00     0.001 A 
HETATM   24  C17 UNL     1       0.748  52.193 164.259  1.00  0.00     0.016 A 
HETATM   25  C18 UNL     1       0.057  51.188 164.914  1.00  0.00     0.020 A 
ENDROOT
TORSDOF 0
ENDMDL
MODEL 3
REMARK VINA RESULT: -9.376540731      2.337      3.254
REMARK  0 active torsions:
REMARK  status: ('A' for Active; 'I' for Inactive)
ROOT
HETATM    1  O1  UNL     1      -5.442  52.724 165.459  1.00  0.00    -0.285 OA
HETATM    2  C1  UNL     1      -4.449  52.546 164.707  1.00  0.00     0.213 A 
HETATM    3  C2  UNL     1      -3.316  51.871 165.115  1.00  0.00     0.045 A 
HETATM    4  C3  UNL     1      -3.233  51.359 166.393  1.00  0.00     0.019 A 
HETATM    5  C4  UNL     1      -2.122  50.680 166.845  1.00  0.00     0.015 A 
HETATM    6  C5  UNL     1      -1.038  50.491 166.006  1.00  0.00    -0.007 A 
HETATM    7  C6  UNL     1       0.089  49.807 166.448  1.00  0.00     0.015 A 
HETATM    8  C7  UNL     1       1.132  49.642 165.596  1.00  0.00     0.018 A 
HETATM    9  C8  UNL     1       1.039  50.158 164.320  1.00  0.00     0.088 A 
HETATM   10  N1  UNL     1      -0.071  50.821 163.911  1.00  0.00    -0.363 N 
ATOM     11  H1  UNL     1      -0.107  51.189 162.960  1.00  0.00     0.165 HD
HETATM   12  C9  UNL     1      -1.135  51.008 164.731  1.00  0.00     0.070 A 
HETATM   13  C10 UNL     1      -2.242  51.690 164.266  1.00  0.00     0.075 A 
HETATM   14  N2  UNL     1      -2.317  52.191 163.010  1.00  0.00    -0.351 N 
ATOM     15  H2  UNL     1      -1.534  52.068 162.368  1.00  0.00     0.166 HD
HETATM   16  C11 UNL     1      -3.421  52.850 162.603  1.00  0.00     0.076 A 
HETATM   17  C12 UNL     1      -4.518  53.053 163.423  1.00  0.00     0.112 A 
HETATM   18  N3  UNL     1      -5.467  53.737 162.754  1.00  0.00    -0.350 N 
ATOM     19  H3  UNL     1      -6.371  54.013 163.136  1.00  0.00     0.166 HD
HETATM   20  C13 UNL     1      -5.038  54.002 161.506  1.00  0.00     0.045 A 
HETATM   21  C14 UNL     1      -5.605  54.667 160.418  1.00  0.00     0.030 A 
HETATM   22  C15 UNL     1      -4.872  54.751 159.278  1.00  0.00     0.002 A 
HETATM   23  C16 UNL     1      -3.607  54.211 159.163  1.00  0.00     0.001 A 
HETATM   24  C17 UNL     1      -3.034  53.550 160.233  1.00  0.00     0.016 A 
HETATM   25  C18 UNL     1      -3.771  53.457 161.401  1.00  0.00     0.020 A 
ENDROOT
TORSDOF 0
ENDMDL
MODEL 4
REMARK VINA RESULT: -9.229509127      1.984      6.188
REMARK  0 active torsions:
REMARK  status: ('A' for Active; 'I' for Inactive)
ROOT
HETATM    1  O1  UNL     1      -5.128  51.372 165.961  1.00  0.00    -0.285 OA
HETATM    2  C1  UNL     1      -4.260  51.561 165.070  1.00  0.00     0.213 A 
HETATM    3  C2  UNL     1      -4.515  52.286 163.923  1.00  0.00     0.045 A 
HETATM    4  C3  UNL     1      -5.760  52.839 163.711  1.00  0.00     0.019 A 
HETATM    5  C4  UNL     1      -6.060  53.570 162.582  1.00  0.00     0.015 A 
HETATM    6  C5  UNL     1      -5.094  53.771 161.610  1.00  0.00    -0.007 A 
HETATM    7  C6  UNL     1      -5.383  54.506 160.466  1.00  0.00     0.015 A 
HETATM    8  C7  UNL     1      -4.410  54.680 159.537  1.00  0.00     0.018 A 
HETATM    9  C8  UNL     1      -3.168  54.123 159.759  1.00  0.00     0.088 A 
HETATM   10  N1  UNL     1      -2.910  53.410 160.883  1.00  0.00    -0.363 N 
ATOM     11  H1  UNL     1      -1.980  53.013 161.015  1.00  0.00     0.165 HD
HETATM   12  C9  UNL     1      -3.854  53.212 161.836  1.00  0.00     0.070 A 
HETATM   13  C10 UNL     1      -3.540  52.478 162.963  1.00  0.00     0.075 A 
HETATM   14  N2  UNL     1      -2.316  51.938 163.165  1.00  0.00    -0.351 N 
ATOM     15  H2  UNL     1      -1.582  52.068 162.468  1.00  0.00     0.166 HD
HETATM   16  C11 UNL     1      -2.059  51.228 164.284  1.00  0.00     0.076 A 
HETATM   17  C12 UNL     1      -3.007  51.013 165.269  1.00  0.00     0.112 A 
HETATM   18  N3  UNL     1      -2.472  50.276 166.263  1.00  0.00    -0.350 N 
ATOM     19  H3  UNL     1      -2.965  49.982 167.106  1.00  0.00     0.166 HD
HETATM   20  C13 UNL     1      -1.189  49.989 165.973  1.00  0.00     0.045 A 
HETATM   21  C14 UNL     1      -0.194  49.272 166.637  1.00  0.00     0.030 A 
HETATM   22  C15 UNL     1       1.022  49.178 166.039  1.00  0.00     0.002 A 
HETATM   23  C16 UNL     1       1.299  49.758 164.818  1.00  0.00     0.001 A 
HETATM   24  C17 UNL     1       0.321  50.470 164.149  1.00  0.00     0.016 A 
HETATM   25  C18 UNL     1      -0.922  50.574 164.748  1.00  0.00     0.020 A 
ENDROOT
TORSDOF 0
ENDMDL
MODEL 5
REMARK VINA RESULT: -9.182067381      1.324      6.163
REMARK  0 active torsions:
REMARK  status: ('A' for Active; 'I' for Inactive)
ROOT
HETATM    1  O1  UNL     1      -1.451  48.062 166.236  1.00  0.00    -0.285 OA
HETATM    2  C1  UNL     1      -1.627  49.228 165.799  1.00  0.00     0.213 A 
HETATM    3  C2  UNL     1      -2.861  49.691 165.386  1.00  0.00     0.045 A 
HETATM    4  C3  UNL     1      -3.967  48.869 165.439  1.00  0.00     0.019 A 
HETATM    5  C4  UNL     1      -5.217  49.287 165.037  1.00  0.00     0.015 A 
HETATM    6  C5  UNL     1      -5.396  50.574 164.559  1.00  0.00    -0.007 A 
HETATM    7  C6  UNL     1      -6.652  51.009 164.151  1.00  0.00     0.015 A 
HETATM    8  C7  UNL     1      -6.786  52.277 163.688  1.00  0.00     0.018 A 
HETATM    9  C8  UNL     1      -5.674  53.091 163.638  1.00  0.00     0.088 A 
HETATM   10  N1  UNL     1      -4.460  52.644 164.042  1.00  0.00    -0.363 N 
ATOM     11  H1  UNL     1      -3.658  53.273 163.993  1.00  0.00     0.165 HD
HETATM   12  C9  UNL     1      -4.281  51.384 164.512  1.00  0.00     0.070 A 
HETATM   13  C10 UNL     1      -3.023  50.978 164.911  1.00  0.00     0.075 A 
HETATM   14  N2  UNL     1      -1.942  51.790 164.856  1.00  0.00    -0.351 N 
ATOM     15  H2  UNL     1      -2.041  52.744 164.508  1.00  0.00     0.166 HD
HETATM   16  C11 UNL     1      -0.733  51.345 165.258  1.00  0.00     0.076 A 
HETATM   17  C12 UNL     1      -0.528  50.064 165.739  1.00  0.00     0.112 A 
HETATM   18  N3  UNL     1       0.770  49.901 166.064  1.00  0.00    -0.350 N 
ATOM     19  H3  UNL     1       1.178  49.046 166.442  1.00  0.00     0.166 HD
HETATM   20  C13 UNL     1       1.445  51.039 165.813  1.00  0.00     0.045 A 
HETATM   21  C14 UNL     1       2.781  51.412 165.960  1.00  0.00     0.030 A 
HETATM   22  C15 UNL     1       3.126  52.675 165.598  1.00  0.00     0.002 A 
HETATM   23  C16 UNL     1       2.215  53.583 165.099  1.00  0.00     0.001 A 
HETATM   24  C17 UNL     1       0.888  53.224 164.947  1.00  0.00     0.016 A 
HETATM   25  C18 UNL     1       0.523  51.941 165.313  1.00  0.00     0.020 A 
ENDROOT
TORSDOF 0
ENDMDL
