MODEL 1
REMARK VINA RESULT: -7.494777501      0.000      0.000
REMARK  4 active torsions:
REMARK  status: ('A' for Active; 'I' for Inactive)
REMARK    1  A    between atoms: C6_6  and  N1_7 
REMARK    2  A    between atoms: N1_7  and  C7_9 
REMARK    3  A    between atoms: C7_9  and  N2_11 
REMARK       I    between atoms: N2_11  and  C8_13 
REMARK    4  A    between atoms: C8_13  and  C9_15 
ROOT
HETATM    1  N1  UNL     1      -1.664  50.472 166.395  1.00  0.00    -0.332 N 
ATOM      2  H1  UNL     1      -1.954  50.754 167.332  1.00  0.00     0.168 HD
ENDROOT
BRANCH   1   3
HETATM    3  C6  UNL     1      -0.352  50.728 165.985  1.00  0.00     0.046 A 
HETATM    4  C4  UNL     1       0.011  52.001 165.530  1.00  0.00    -0.034 A 
HETATM    5  C3  UNL     1       1.306  52.235 165.131  1.00  0.00     0.015 A 
HETATM    6  C5  UNL     1      -1.004  53.086 165.480  1.00  0.00     0.050 C 
HETATM    7  C2  UNL     1       2.267  51.241 165.167  1.00  0.00    -0.061 A 
HETATM    8  C1  UNL     1       3.665  51.501 164.735  1.00  0.00     0.048 C 
HETATM    9  C15 UNL     1       1.887  49.992 165.620  1.00  0.00     0.015 A 
HETATM   10  C13 UNL     1       0.593  49.739 166.025  1.00  0.00    -0.034 A 
HETATM   11  C14 UNL     1       0.225  48.376 166.507  1.00  0.00     0.050 C 
ENDBRANCH   1   3
BRANCH   1  12
HETATM   12  C7  UNL     1      -2.607  49.831 165.547  1.00  0.00     0.178 C 
HETATM   13  S1  UNL     1      -3.513  48.627 166.160  1.00  0.00    -0.040 SA
BRANCH  12  14
HETATM   14  N2  UNL     1      -2.780  50.206 164.192  1.00  0.00    -0.303 N 
HETATM   15  C8  UNL     1      -3.583  51.287 163.763  1.00  0.00     0.231 C 
HETATM   16  O1  UNL     1      -4.185  51.963 164.634  1.00  0.00    -0.272 OA
ATOM     17  H2  UNL     1      -2.293  49.661 163.480  1.00  0.00     0.171 HD
BRANCH  15  18
HETATM   18  C9  UNL     1      -3.747  51.658 162.338  1.00  0.00     0.030 C 
HETATM   19  C10 UNL     1      -2.366  52.071 161.816  1.00  0.00     0.025 C 
HETATM   20  C11 UNL     1      -4.179  50.459 161.527  1.00  0.00     0.025 C 
HETATM   21  C12 UNL     1      -4.678  52.804 162.132  1.00  0.00     0.025 C 
ENDBRANCH  15  18
ENDBRANCH  12  14
ENDBRANCH   1  12
TORSDOF 4
ENDMDL
MODEL 2
REMARK VINA RESULT: -7.482319266      0.031      1.948
REMARK  4 active torsions:
REMARK  status: ('A' for Active; 'I' for Inactive)
REMARK    1  A    between atoms: C6_6  and  N1_7 
REMARK    2  A    between atoms: N1_7  and  C7_9 
REMARK    3  A    between atoms: C7_9  and  N2_11 
REMARK       I    between atoms: N2_11  and  C8_13 
REMARK    4  A    between atoms: C8_13  and  C9_15 
ROOT
HETATM    1  N1  UNL     1      -1.685  50.461 166.404  1.00  0.00    -0.332 N 
ATOM      2  H1  UNL     1      -1.971  50.734 167.344  1.00  0.00     0.168 HD
ENDROOT
BRANCH   1   3
HETATM    3  C6  UNL     1      -0.373  50.717 165.994  1.00  0.00     0.046 A 
HETATM    4  C4  UNL     1       0.589  49.701 166.025  1.00  0.00    -0.034 A 
HETATM    5  C3  UNL     1       1.875  49.971 165.618  1.00  0.00     0.015 A 
HETATM    6  C5  UNL     1       0.214  48.342 166.497  1.00  0.00     0.050 C 
HETATM    7  C2  UNL     1       2.247  51.228 165.176  1.00  0.00    -0.061 A 
HETATM    8  C1  UNL     1       3.638  51.512 164.738  1.00  0.00     0.048 C 
HETATM    9  C15 UNL     1       1.282  52.216 165.154  1.00  0.00     0.015 A 
HETATM   10  C13 UNL     1      -0.013  51.964 165.558  1.00  0.00    -0.034 A 
HETATM   11  C14 UNL     1      -1.025  53.059 165.518  1.00  0.00     0.050 C 
ENDBRANCH   1   3
BRANCH   1  12
HETATM   12  C7  UNL     1      -2.632  49.833 165.551  1.00  0.00     0.178 C 
HETATM   13  S1  UNL     1      -3.558  48.641 166.160  1.00  0.00    -0.040 SA
BRANCH  12  14
HETATM   14  N2  UNL     1      -2.793  50.211 164.195  1.00  0.00    -0.303 N 
HETATM   15  C8  UNL     1      -3.587  51.297 163.762  1.00  0.00     0.231 C 
HETATM   16  O1  UNL     1      -4.190  51.977 164.629  1.00  0.00    -0.272 OA
ATOM     17  H2  UNL     1      -2.305  49.663 163.486  1.00  0.00     0.171 HD
BRANCH  15  18
HETATM   18  C9  UNL     1      -3.738  51.670 162.335  1.00  0.00     0.030 C 
HETATM   19  C10 UNL     1      -2.354  52.095 161.830  1.00  0.00     0.025 C 
HETATM   20  C11 UNL     1      -4.152  50.470 161.517  1.00  0.00     0.025 C 
HETATM   21  C12 UNL     1      -4.675  52.810 162.123  1.00  0.00     0.025 C 
ENDBRANCH  15  18
ENDBRANCH  12  14
ENDBRANCH   1  12
TORSDOF 4
ENDMDL
MODEL 3
REMARK VINA RESULT: -6.979009995      1.031      2.129
REMARK  4 active torsions:
REMARK  status: ('A' for Active; 'I' for Inactive)
REMARK    1  A    between atoms: C6_6  and  N1_7 
REMARK    2  A    between atoms: N1_7  and  C7_9 
REMARK    3  A    between atoms: C7_9  and  N2_11 
REMARK       I    between atoms: N2_11  and  C8_13 
REMARK    4  A    between atoms: C8_13  and  C9_15 
ROOT
HETATM    1  N1  UNL     1      -1.629  49.631 166.171  1.00  0.00    -0.332 N 
ATOM      2  H1  UNL     1      -1.414  49.049 166.980  1.00  0.00     0.168 HD
ENDROOT
BRANCH   1   3
HETATM    3  C6  UNL     1      -0.820  50.740 165.900  1.00  0.00     0.046 A 
HETATM    4  C4  UNL     1       0.408  50.578 165.249  1.00  0.00    -0.034 A 
HETATM    5  C3  UNL     1       1.190  51.679 164.990  1.00  0.00     0.015 A 
HETATM    6  C5  UNL     1       0.856  49.219 164.844  1.00  0.00     0.050 C 
HETATM    7  C2  UNL     1       0.794  52.952 165.358  1.00  0.00    -0.061 A 
HETATM    8  C1  UNL     1       1.645  54.137 165.076  1.00  0.00     0.048 C 
HETATM    9  C15 UNL     1      -0.421  53.089 166.000  1.00  0.00     0.015 A 
HETATM   10  C13 UNL     1      -1.220  51.996 166.267  1.00  0.00    -0.034 A 
HETATM   11  C14 UNL     1      -2.526  52.190 166.962  1.00  0.00     0.050 C 
ENDBRANCH   1   3
BRANCH   1  12
HETATM   12  C7  UNL     1      -2.740  49.292 165.354  1.00  0.00     0.178 C 
HETATM   13  S1  UNL     1      -3.875  48.293 165.957  1.00  0.00    -0.040 SA
BRANCH  12  14
HETATM   14  N2  UNL     1      -2.890  49.793 164.037  1.00  0.00    -0.303 N 
HETATM   15  C8  UNL     1      -3.722  50.882 163.691  1.00  0.00     0.231 C 
HETATM   16  O1  UNL     1      -4.374  51.447 164.605  1.00  0.00    -0.272 OA
ATOM     17  H2  UNL     1      -2.363  49.339 163.291  1.00  0.00     0.171 HD
BRANCH  15  18
HETATM   18  C9  UNL     1      -3.861  51.386 162.304  1.00  0.00     0.030 C 
HETATM   19  C10 UNL     1      -2.479  51.884 161.864  1.00  0.00     0.025 C 
HETATM   20  C11 UNL     1      -4.238  50.261 161.369  1.00  0.00     0.025 C 
HETATM   21  C12 UNL     1      -4.819  52.522 162.185  1.00  0.00     0.025 C 
ENDBRANCH  15  18
ENDBRANCH  12  14
ENDBRANCH   1  12
TORSDOF 4
ENDMDL
MODEL 4
REMARK VINA RESULT: -6.977295928      1.035      1.448
REMARK  4 active torsions:
REMARK  status: ('A' for Active; 'I' for Inactive)
REMARK    1  A    between atoms: C6_6  and  N1_7 
REMARK    2  A    between atoms: N1_7  and  C7_9 
REMARK    3  A    between atoms: C7_9  and  N2_11 
REMARK       I    between atoms: N2_11  and  C8_13 
REMARK    4  A    between atoms: C8_13  and  C9_15 
ROOT
HETATM    1  N1  UNL     1      -1.623  49.625 166.168  1.00  0.00    -0.332 N 
ATOM      2  H1  UNL     1      -1.402  49.041 166.975  1.00  0.00     0.168 HD
ENDROOT
BRANCH   1   3
HETATM    3  C6  UNL     1      -0.818  50.737 165.897  1.00  0.00     0.046 A 
HETATM    4  C4  UNL     1      -1.233  52.019 166.274  1.00  0.00    -0.034 A 
HETATM    5  C3  UNL     1      -0.430  53.101 165.999  1.00  0.00     0.015 A 
HETATM    6  C5  UNL     1      -2.537  52.201 166.966  1.00  0.00     0.050 C 
HETATM    7  C2  UNL     1       0.786  52.956 165.356  1.00  0.00    -0.061 A 
HETATM    8  C1  UNL     1       1.649  54.130 165.062  1.00  0.00     0.048 C 
HETATM    9  C15 UNL     1       1.176  51.682 164.992  1.00  0.00     0.015 A 
HETATM   10  C13 UNL     1       0.383  50.585 165.260  1.00  0.00    -0.034 A 
HETATM   11  C14 UNL     1       0.843  49.226 164.851  1.00  0.00     0.050 C 
ENDBRANCH   1   3
BRANCH   1  12
HETATM   12  C7  UNL     1      -2.737  49.285 165.356  1.00  0.00     0.178 C 
HETATM   13  S1  UNL     1      -3.870  48.288 165.965  1.00  0.00    -0.040 SA
BRANCH  12  14
HETATM   14  N2  UNL     1      -2.891  49.785 164.039  1.00  0.00    -0.303 N 
HETATM   15  C8  UNL     1      -3.726  50.872 163.694  1.00  0.00     0.231 C 
HETATM   16  O1  UNL     1      -4.375  51.437 164.609  1.00  0.00    -0.272 OA
ATOM     17  H2  UNL     1      -2.366  49.331 163.292  1.00  0.00     0.171 HD
BRANCH  15  18
HETATM   18  C9  UNL     1      -3.869  51.375 162.308  1.00  0.00     0.030 C 
HETATM   19  C10 UNL     1      -2.489  51.873 161.862  1.00  0.00     0.025 C 
HETATM   20  C11 UNL     1      -4.248  50.249 161.375  1.00  0.00     0.025 C 
HETATM   21  C12 UNL     1      -4.827  52.511 162.190  1.00  0.00     0.025 C 
ENDBRANCH  15  18
ENDBRANCH  12  14
ENDBRANCH   1  12
TORSDOF 4
ENDMDL
MODEL 5
REMARK VINA RESULT: -6.925539861      1.440      1.934
REMARK  4 active torsions:
REMARK  status: ('A' for Active; 'I' for Inactive)
REMARK    1  A    between atoms: C6_6  and  N1_7 
REMARK    2  A    between atoms: N1_7  and  C7_9 
REMARK    3  A    between atoms: C7_9  and  N2_11 
REMARK       I    between atoms: N2_11  and  C8_13 
REMARK    4  A    between atoms: C8_13  and  C9_15 
ROOT
HETATM    1  N1  UNL     1      -2.001  49.519 164.381  1.00  0.00    -0.332 N 
ATOM      2  H1  UNL     1      -1.989  48.738 163.725  1.00  0.00     0.168 HD
ENDROOT
BRANCH   1   3
HETATM    3  C6  UNL     1      -0.803  50.180 164.670  1.00  0.00     0.046 A 
HETATM    4  C4  UNL     1      -0.362  51.232 163.858  1.00  0.00    -0.034 A 
HETATM    5  C3  UNL     1       0.818  51.871 164.157  1.00  0.00     0.015 A 
HETATM    6  C5  UNL     1      -1.172  51.648 162.683  1.00  0.00     0.050 C 
HETATM    7  C2  UNL     1       1.588  51.501 165.245  1.00  0.00    -0.061 A 
HETATM    8  C1  UNL     1       2.862  52.196 165.561  1.00  0.00     0.048 C 
HETATM    9  C15 UNL     1       1.135  50.460 166.032  1.00  0.00     0.015 A 
HETATM   10  C13 UNL     1      -0.047  49.807 165.748  1.00  0.00    -0.034 A 
HETATM   11  C14 UNL     1      -0.501  48.689 166.625  1.00  0.00     0.050 C 
ENDBRANCH   1   3
BRANCH   1  12
HETATM   12  C7  UNL     1      -3.234  49.901 164.974  1.00  0.00     0.178 C 
HETATM   13  S1  UNL     1      -3.998  48.835 165.938  1.00  0.00    -0.040 SA
BRANCH  12  14
HETATM   14  N2  UNL     1      -3.816  51.173 164.752  1.00  0.00    -0.303 N 
HETATM   15  C8  UNL     1      -4.498  51.541 163.570  1.00  0.00     0.231 C 
HETATM   16  O1  UNL     1      -4.600  50.688 162.653  1.00  0.00    -0.272 OA
ATOM     17  H2  UNL     1      -3.737  51.869 165.494  1.00  0.00     0.171 HD
BRANCH  15  18
HETATM   18  C9  UNL     1      -5.098  52.880 163.364  1.00  0.00     0.030 C 
HETATM   19  C10 UNL     1      -4.609  53.775 164.509  1.00  0.00     0.025 C 
HETATM   20  C11 UNL     1      -4.588  53.495 162.082  1.00  0.00     0.025 C 
HETATM   21  C12 UNL     1      -6.588  52.867 163.394  1.00  0.00     0.025 C 
ENDBRANCH  15  18
ENDBRANCH  12  14
ENDBRANCH   1  12
TORSDOF 4
ENDMDL
