MODEL 1
REMARK VINA RESULT: -7.431590235      0.000      0.000
REMARK  5 active torsions:
REMARK  status: ('A' for Active; 'I' for Inactive)
REMARK    1  A    between atoms: C2_2  and  C3_3 
REMARK    2  A    between atoms: C2_2  and  C13_14 
REMARK    3  A    between atoms: C3_3  and  C4_4 
REMARK    4  A    between atoms: C4_4  and  C5_5 
REMARK    5  A    between atoms: C8_8  and  C9_9 
ROOT
HETATM    1  C13 UNL     1      27.077   9.149  17.437  1.00  0.00     0.238 C 
HETATM    2  O2  UNL     1      27.995   9.920  18.107  1.00  0.00    -0.290 OA
HETATM    3  C14 UNL     1      28.373  11.215  18.006  1.00  0.00     0.302 C 
HETATM    4  O3  UNL     1      28.547  11.828  19.131  1.00  0.00    -0.259 OA
HETATM    5  C15 UNL     1      28.617  12.042  16.831  1.00  0.00     0.082 C 
HETATM    6 BR1  UNL     1      27.550  13.708  16.713  1.00  0.00    -0.045 Br
HETATM    7  C16 UNL     1      29.458  11.845  15.854  1.00  0.00     0.005 C 
HETATM    8  C17 UNL     1      30.427  10.840  15.520  1.00  0.00     0.045 C 
HETATM    9  C18 UNL     1      31.092  10.052  16.620  1.00  0.00     0.046 C 
HETATM   10  C19 UNL     1      30.775   8.651  16.124  1.00  0.00     0.227 C 
HETATM   11  C20 UNL     1      31.153   8.770  14.643  1.00  0.00     0.072 C 
HETATM   12  C21 UNL     1      29.939   9.681  14.676  1.00  0.00     0.233 C 
HETATM   13  N1  UNL     1      29.428   8.798  15.703  1.00  0.00     0.107 N 
HETATM   14  C22 UNL     1      28.690   7.695  15.215  1.00  0.00     0.375 C 
HETATM   15  C23 UNL     1      27.811   7.065  16.225  1.00  0.00     0.249 C 
HETATM   16  O4  UNL     1      27.404   5.888  16.061  1.00  0.00    -0.271 OA
HETATM   17  N2  UNL     1      27.376   7.734  17.426  1.00  0.00    -0.327 N 
HETATM   18  C24 UNL     1      27.247   6.972  18.654  1.00  0.00     0.155 C 
ENDROOT
BRANCH   1  19
HETATM   19  C2  UNL     1      25.640   9.462  17.865  1.00  0.00     0.031 C 
HETATM   20  C1  UNL     1      25.655  10.695  18.691  1.00  0.00     0.014 C 
BRANCH  19  21
HETATM   21  C3  UNL     1      24.624   9.313  16.819  1.00  0.00     0.011 C 
BRANCH  21  22
HETATM   22  C4  UNL     1      23.951   8.003  16.691  1.00  0.00     0.032 C 
BRANCH  22  23
HETATM   23  C5  UNL     1      23.511   7.524  15.368  1.00  0.00     0.122 C 
HETATM   24  C6  UNL     1      24.606   7.966  14.382  1.00  0.00     0.034 C 
HETATM   25  C7  UNL     1      23.809   7.941  13.086  1.00  0.00     0.035 C 
HETATM   26  C8  UNL     1      22.458   8.368  13.564  1.00  0.00     0.129 C 
HETATM   27  O1  UNL     1      22.348   8.118  14.900  1.00  0.00    -0.380 OA
BRANCH  26  28
HETATM   28  C9  UNL     1      21.375   7.742  12.719  1.00  0.00    -0.025 C 
HETATM   29  C10 UNL     1      21.799   7.605  11.273  1.00  0.00     0.017 C 
HETATM   30  C11 UNL     1      20.958   6.395  13.215  1.00  0.00     0.017 C 
HETATM   31  C12 UNL     1      20.169   8.672  12.731  1.00  0.00     0.017 C 
ENDBRANCH  26  28
ENDBRANCH  22  23
ENDBRANCH  21  22
ENDBRANCH  19  21
ENDBRANCH   1  19
TORSDOF 5
ENDMDL
MODEL 2
REMARK VINA RESULT: -7.306040457      1.876      3.050
REMARK  5 active torsions:
REMARK  status: ('A' for Active; 'I' for Inactive)
REMARK    1  A    between atoms: C2_2  and  C3_3 
REMARK    2  A    between atoms: C2_2  and  C13_14 
REMARK    3  A    between atoms: C3_3  and  C4_4 
REMARK    4  A    between atoms: C4_4  and  C5_5 
REMARK    5  A    between atoms: C8_8  and  C9_9 
ROOT
HETATM    1  C13 UNL     1      27.713   7.864  16.392  1.00  0.00     0.238 C 
HETATM    2  O2  UNL     1      27.699   8.371  17.669  1.00  0.00    -0.290 OA
HETATM    3  C14 UNL     1      26.795   9.086  18.376  1.00  0.00     0.302 C 
HETATM    4  O3  UNL     1      26.641   8.718  19.606  1.00  0.00    -0.259 OA
HETATM    5  C15 UNL     1      25.957  10.211  17.979  1.00  0.00     0.082 C 
HETATM    6 BR1  UNL     1      24.006   9.963  18.232  1.00  0.00    -0.045 Br
HETATM    7  C16 UNL     1      26.316  11.367  17.498  1.00  0.00     0.005 C 
HETATM    8  C17 UNL     1      27.563  12.002  17.174  1.00  0.00     0.045 C 
HETATM    9  C18 UNL     1      28.813  11.614  17.922  1.00  0.00     0.046 C 
HETATM   10  C19 UNL     1      29.695  11.271  16.734  1.00  0.00     0.227 C 
HETATM   11  C20 UNL     1      29.439  12.475  15.819  1.00  0.00     0.072 C 
HETATM   12  C21 UNL     1      28.076  11.810  15.762  1.00  0.00     0.233 C 
HETATM   13  N1  UNL     1      28.790  10.560  15.905  1.00  0.00     0.107 N 
HETATM   14  C22 UNL     1      29.213   9.982  14.685  1.00  0.00     0.375 C 
HETATM   15  C23 UNL     1      29.527   8.540  14.778  1.00  0.00     0.249 C 
HETATM   16  O4  UNL     1      30.256   7.995  13.912  1.00  0.00    -0.271 OA
HETATM   17  N2  UNL     1      29.034   7.688  15.832  1.00  0.00    -0.327 N 
HETATM   18  C24 UNL     1      29.889   6.636  16.350  1.00  0.00     0.155 C 
ENDROOT
BRANCH   1  19
HETATM   19  C2  UNL     1      26.824   6.625  16.255  1.00  0.00     0.031 C 
HETATM   20  C1  UNL     1      26.830   5.898  17.548  1.00  0.00     0.014 C 
BRANCH  19  21
HETATM   21  C3  UNL     1      25.552   6.835  15.557  1.00  0.00     0.011 C 
BRANCH  21  22
HETATM   22  C4  UNL     1      25.326   8.146  14.913  1.00  0.00     0.032 C 
BRANCH  22  23
HETATM   23  C5  UNL     1      24.212   8.322  13.963  1.00  0.00     0.122 C 
HETATM   24  C6  UNL     1      22.951   8.483  14.829  1.00  0.00     0.034 C 
HETATM   25  C7  UNL     1      21.891   8.085  13.812  1.00  0.00     0.035 C 
HETATM   26  C8  UNL     1      22.615   7.040  13.026  1.00  0.00     0.129 C 
HETATM   27  O1  UNL     1      23.959   7.215  13.165  1.00  0.00    -0.380 OA
BRANCH  26  28
HETATM   28  C9  UNL     1      22.130   7.022  11.596  1.00  0.00    -0.025 C 
HETATM   29  C10 UNL     1      20.974   7.975  11.382  1.00  0.00     0.017 C 
HETATM   30  C11 UNL     1      23.206   7.363  10.615  1.00  0.00     0.017 C 
HETATM   31  C12 UNL     1      21.604   5.626  11.292  1.00  0.00     0.017 C 
ENDBRANCH  26  28
ENDBRANCH  22  23
ENDBRANCH  21  22
ENDBRANCH  19  21
ENDBRANCH   1  19
TORSDOF 5
ENDMDL
MODEL 3
REMARK VINA RESULT: -7.305064280      1.874      2.922
REMARK  5 active torsions:
REMARK  status: ('A' for Active; 'I' for Inactive)
REMARK    1  A    between atoms: C2_2  and  C3_3 
REMARK    2  A    between atoms: C2_2  and  C13_14 
REMARK    3  A    between atoms: C3_3  and  C4_4 
REMARK    4  A    between atoms: C4_4  and  C5_5 
REMARK    5  A    between atoms: C8_8  and  C9_9 
ROOT
HETATM    1  C13 UNL     1      28.273   8.054  17.779  1.00  0.00     0.238 C 
HETATM    2  O2  UNL     1      28.030   9.019  18.725  1.00  0.00    -0.290 OA
HETATM    3  C14 UNL     1      26.939   9.749  19.050  1.00  0.00     0.302 C 
HETATM    4  O3  UNL     1      26.726   9.889  20.318  1.00  0.00    -0.259 OA
HETATM    5  C15 UNL     1      25.953  10.408  18.202  1.00  0.00     0.082 C 
HETATM    6 BR1  UNL     1      24.067   9.876  18.499  1.00  0.00    -0.045 Br
HETATM    7  C16 UNL     1      26.141  11.318  17.287  1.00  0.00     0.005 C 
HETATM    8  C17 UNL     1      27.275  12.016  16.750  1.00  0.00     0.045 C 
HETATM    9  C18 UNL     1      28.489  12.241  17.616  1.00  0.00     0.046 C 
HETATM   10  C19 UNL     1      29.540  11.641  16.697  1.00  0.00     0.227 C 
HETATM   11  C20 UNL     1      29.164  12.285  15.357  1.00  0.00     0.072 C 
HETATM   12  C21 UNL     1      27.961  11.381  15.559  1.00  0.00     0.233 C 
HETATM   13  N1  UNL     1      28.876  10.480  16.226  1.00  0.00     0.107 N 
HETATM   14  C22 UNL     1      29.526   9.562  15.369  1.00  0.00     0.375 C 
HETATM   15  C23 UNL     1      30.090   8.384  16.064  1.00  0.00     0.249 C 
HETATM   16  O4  UNL     1      30.996   7.704  15.520  1.00  0.00    -0.271 OA
HETATM   17  N2  UNL     1      29.656   7.950  17.369  1.00  0.00    -0.327 N 
HETATM   18  C24 UNL     1      30.632   7.408  18.295  1.00  0.00     0.155 C 
ENDROOT
BRANCH   1  19
HETATM   19  C2  UNL     1      27.650   6.707  18.157  1.00  0.00     0.031 C 
HETATM   20  C1  UNL     1      27.270   6.752  19.591  1.00  0.00     0.014 C 
BRANCH  19  21
HETATM   21  C3  UNL     1      26.704   6.154  17.182  1.00  0.00     0.011 C 
BRANCH  21  22
HETATM   22  C4  UNL     1      25.404   6.837  17.016  1.00  0.00     0.032 C 
BRANCH  22  23
HETATM   23  C5  UNL     1      24.825   7.009  15.671  1.00  0.00     0.122 C 
HETATM   24  C6  UNL     1      25.422   8.319  15.127  1.00  0.00     0.034 C 
HETATM   25  C7  UNL     1      24.375   8.660  14.077  1.00  0.00     0.035 C 
HETATM   26  C8  UNL     1      23.129   8.154  14.729  1.00  0.00     0.129 C 
HETATM   27  O1  UNL     1      23.452   7.210  15.658  1.00  0.00    -0.380 OA
BRANCH  26  28
HETATM   28  C9  UNL     1      22.136   7.694  13.689  1.00  0.00    -0.025 C 
HETATM   29  C10 UNL     1      21.539   6.348  14.039  1.00  0.00     0.017 C 
HETATM   30  C11 UNL     1      21.017   8.664  13.487  1.00  0.00     0.017 C 
HETATM   31  C12 UNL     1      22.880   7.509  12.373  1.00  0.00     0.017 C 
ENDBRANCH  26  28
ENDBRANCH  22  23
ENDBRANCH  21  22
ENDBRANCH  19  21
ENDBRANCH   1  19
TORSDOF 5
ENDMDL
MODEL 4
REMARK VINA RESULT: -7.213710768      3.540      5.416
REMARK  5 active torsions:
REMARK  status: ('A' for Active; 'I' for Inactive)
REMARK    1  A    between atoms: C2_2  and  C3_3 
REMARK    2  A    between atoms: C2_2  and  C13_14 
REMARK    3  A    between atoms: C3_3  and  C4_4 
REMARK    4  A    between atoms: C4_4  and  C5_5 
REMARK    5  A    between atoms: C8_8  and  C9_9 
ROOT
HETATM    1  C13 UNL     1      25.950   9.184  19.646  1.00  0.00     0.238 C 
HETATM    2  O2  UNL     1      26.057   7.948  20.235  1.00  0.00    -0.290 OA
HETATM    3  C14 UNL     1      25.313   7.285  21.150  1.00  0.00     0.302 C 
HETATM    4  O3  UNL     1      25.124   6.030  20.904  1.00  0.00    -0.259 OA
HETATM    5  C15 UNL     1      24.683   7.755  22.378  1.00  0.00     0.082 C 
HETATM    6 BR1  UNL     1      22.727   7.465  22.507  1.00  0.00    -0.045 Br
HETATM    7  C16 UNL     1      25.235   8.323  23.413  1.00  0.00     0.005 C 
HETATM    8  C17 UNL     1      26.568   8.705  23.787  1.00  0.00     0.045 C 
HETATM    9  C18 UNL     1      27.744   7.943  23.231  1.00  0.00     0.046 C 
HETATM   10  C19 UNL     1      28.522   9.112  22.651  1.00  0.00     0.227 C 
HETATM   11  C20 UNL     1      28.467  10.110  23.814  1.00  0.00     0.072 C 
HETATM   12  C21 UNL     1      27.005  10.104  23.407  1.00  0.00     0.233 C 
HETATM   13  N1  UNL     1      27.484   9.878  22.060  1.00  0.00     0.107 N 
HETATM   14  C22 UNL     1      27.768  11.056  21.331  1.00  0.00     0.375 C 
HETATM   15  C23 UNL     1      27.818  10.861  19.866  1.00  0.00     0.249 C 
HETATM   16  O4  UNL     1      28.417  11.692  19.138  1.00  0.00    -0.271 OA
HETATM   17  N2  UNL     1      27.204   9.743  19.193  1.00  0.00    -0.327 N 
HETATM   18  C24 UNL     1      27.867   9.159  18.042  1.00  0.00     0.155 C 
ENDROOT
BRANCH   1  19
HETATM   19  C2  UNL     1      24.849   9.221  18.582  1.00  0.00     0.031 C 
HETATM   20  C1  UNL     1      24.771  10.599  18.037  1.00  0.00     0.014 C 
BRANCH  19  21
HETATM   21  C3  UNL     1      24.825   8.083  17.659  1.00  0.00     0.011 C 
BRANCH  21  22
HETATM   22  C4  UNL     1      23.512   7.633  17.150  1.00  0.00     0.032 C 
BRANCH  22  23
HETATM   23  C5  UNL     1      23.322   7.390  15.708  1.00  0.00     0.122 C 
HETATM   24  C6  UNL     1      24.350   8.287  14.997  1.00  0.00     0.034 C 
HETATM   25  C7  UNL     1      23.698   8.386  13.626  1.00  0.00     0.035 C 
HETATM   26  C8  UNL     1      22.248   8.372  13.989  1.00  0.00     0.129 C 
HETATM   27  O1  UNL     1      22.090   7.798  15.215  1.00  0.00    -0.380 OA
BRANCH  26  28
HETATM   28  C9  UNL     1      21.433   7.733  12.890  1.00  0.00    -0.025 C 
HETATM   29  C10 UNL     1      22.208   7.648  11.592  1.00  0.00     0.017 C 
HETATM   30  C11 UNL     1      20.960   6.360  13.243  1.00  0.00     0.017 C 
HETATM   31  C12 UNL     1      20.227   8.622  12.617  1.00  0.00     0.017 C 
ENDBRANCH  26  28
ENDBRANCH  22  23
ENDBRANCH  21  22
ENDBRANCH  19  21
ENDBRANCH   1  19
TORSDOF 5
ENDMDL
MODEL 5
REMARK VINA RESULT: -7.123568048      2.985      6.811
REMARK  5 active torsions:
REMARK  status: ('A' for Active; 'I' for Inactive)
REMARK    1  A    between atoms: C2_2  and  C3_3 
REMARK    2  A    between atoms: C2_2  and  C13_14 
REMARK    3  A    between atoms: C3_3  and  C4_4 
REMARK    4  A    between atoms: C4_4  and  C5_5 
REMARK    5  A    between atoms: C8_8  and  C9_9 
ROOT
HETATM    1  C13 UNL     1      26.894   8.518  16.897  1.00  0.00     0.238 C 
HETATM    2  O2  UNL     1      27.556   8.735  15.713  1.00  0.00    -0.290 OA
HETATM    3  C14 UNL     1      28.859   8.682  15.353  1.00  0.00     0.302 C 
HETATM    4  O3  UNL     1      29.094   8.124  14.211  1.00  0.00    -0.259 OA
HETATM    5  C15 UNL     1      30.053   9.154  16.045  1.00  0.00     0.082 C 
HETATM    6 BR1  UNL     1      31.448   7.789  16.385  1.00  0.00    -0.045 Br
HETATM    7  C16 UNL     1      30.337  10.359  16.453  1.00  0.00     0.005 C 
HETATM    8  C17 UNL     1      29.685  11.638  16.414  1.00  0.00     0.045 C 
HETATM    9  C18 UNL     1      28.714  11.945  15.302  1.00  0.00     0.046 C 
HETATM   10  C19 UNL     1      27.518  12.351  16.146  1.00  0.00     0.227 C 
HETATM   11  C20 UNL     1      28.177  13.298  17.156  1.00  0.00     0.072 C 
HETATM   12  C21 UNL     1      28.796  11.982  17.591  1.00  0.00     0.233 C 
HETATM   13  N1  UNL     1      27.551  11.373  17.173  1.00  0.00     0.107 N 
HETATM   14  C22 UNL     1      26.554  11.329  18.174  1.00  0.00     0.375 C 
HETATM   15  C23 UNL     1      25.484  10.341  17.915  1.00  0.00     0.249 C 
HETATM   16  O4  UNL     1      24.371  10.450  18.489  1.00  0.00    -0.271 OA
HETATM   17  N2  UNL     1      25.637   9.222  17.018  1.00  0.00    -0.327 N 
HETATM   18  C24 UNL     1      24.508   8.801  16.211  1.00  0.00     0.155 C 
ENDROOT
BRANCH   1  19
HETATM   19  C2  UNL     1      26.790   7.027  17.234  1.00  0.00     0.031 C 
HETATM   20  C1  UNL     1      26.916   6.252  15.975  1.00  0.00     0.014 C 
BRANCH  19  21
HETATM   21  C3  UNL     1      27.537   6.595  18.419  1.00  0.00     0.011 C 
BRANCH  21  22
HETATM   22  C4  UNL     1      28.374   7.597  19.112  1.00  0.00     0.032 C 
BRANCH  22  23
HETATM   23  C5  UNL     1      28.044   8.013  20.487  1.00  0.00     0.122 C 
HETATM   24  C6  UNL     1      26.513   7.909  20.596  1.00  0.00     0.034 C 
HETATM   25  C7  UNL     1      26.274   8.857  21.762  1.00  0.00     0.035 C 
HETATM   26  C8  UNL     1      27.338   9.880  21.531  1.00  0.00     0.129 C 
HETATM   27  O1  UNL     1      28.333   9.341  20.771  1.00  0.00    -0.380 OA
BRANCH  26  28
HETATM   28  C9  UNL     1      27.802  10.468  22.842  1.00  0.00    -0.025 C 
HETATM   29  C10 UNL     1      28.865   9.611  23.497  1.00  0.00     0.017 C 
HETATM   30  C11 UNL     1      28.343  11.854  22.698  1.00  0.00     0.017 C 
HETATM   31  C12 UNL     1      26.616  10.492  23.797  1.00  0.00     0.017 C 
ENDBRANCH  26  28
ENDBRANCH  22  23
ENDBRANCH  21  22
ENDBRANCH  19  21
ENDBRANCH   1  19
TORSDOF 5
ENDMDL
