MODEL 1
REMARK VINA RESULT: -3.718221564      0.000      0.000
REMARK  2 active torsions:
REMARK  status: ('A' for Active; 'I' for Inactive)
REMARK    1  A    between atoms: N2_4  and  N3_6 
REMARK    2  A    between atoms: N3_6  and  C1_8 
ROOT
HETATM    1  N3  UNL     1      96.686  60.800 -10.963  1.00  0.00    -0.270 N 
ATOM      2  H3  UNL     1      96.818  60.546 -11.941  1.00  0.00     0.190 HD
ENDROOT
BRANCH   1   3
HETATM    3  N2  UNL     1      97.339  60.074  -9.971  1.00  0.00    -0.248 N 
HETATM    4  N1  UNL     1      96.880  60.010  -8.798  1.00  0.00    -0.331 N 
ATOM      5  H12 UNL     1      96.013  60.505  -8.589  1.00  0.00     0.178 HD
ATOM      6  H11 UNL     1      97.359  59.477  -8.071  1.00  0.00     0.178 HD
ATOM      7  H2  UNL     1      98.205  59.585 -10.197  1.00  0.00     0.207 HD
ENDBRANCH   1   3
BRANCH   1   8
HETATM    8  C1  UNL     1      95.841  61.885 -10.631  1.00  0.00     0.136 A 
HETATM    9  N4  UNL     1      95.751  63.200 -10.615  1.00  0.00    -0.346 N 
HETATM   10  C2  UNL     1      94.629  62.523 -10.140  1.00  0.00     0.139 A 
ATOM     11  H4  UNL     1      96.195  64.096 -10.814  1.00  0.00     0.167 HD
ENDBRANCH   1   8
TORSDOF 2
ENDMDL
MODEL 2
REMARK VINA RESULT: -3.704242799     10.621     11.456
REMARK  2 active torsions:
REMARK  status: ('A' for Active; 'I' for Inactive)
REMARK    1  A    between atoms: N2_4  and  N3_6 
REMARK    2  A    between atoms: N3_6  and  C1_8 
ROOT
HETATM    1  N3  UNL     1     105.178  56.255  -5.616  1.00  0.00    -0.270 N 
ATOM      2  H3  UNL     1     104.297  55.760  -5.755  1.00  0.00     0.190 HD
ENDROOT
BRANCH   1   3
HETATM    3  N2  UNL     1     106.116  55.749  -4.723  1.00  0.00    -0.248 N 
HETATM    4  N1  UNL     1     105.803  54.871  -3.873  1.00  0.00    -0.331 N 
ATOM      5  H12 UNL     1     104.840  54.536  -3.854  1.00  0.00     0.178 HD
ATOM      6  H11 UNL     1     106.492  54.499  -3.218  1.00  0.00     0.178 HD
ATOM      7  H2  UNL     1     107.075  56.094  -4.755  1.00  0.00     0.207 HD
ENDBRANCH   1   3
BRANCH   1   8
HETATM    8  C1  UNL     1     105.428  57.448  -6.335  1.00  0.00     0.136 A 
HETATM    9  N4  UNL     1     105.358  58.763  -6.277  1.00  0.00    -0.346 N 
HETATM   10  C2  UNL     1     105.863  58.248  -7.470  1.00  0.00     0.139 A 
ATOM     11  H4  UNL     1     105.108  59.588  -5.734  1.00  0.00     0.167 HD
ENDBRANCH   1   8
TORSDOF 2
ENDMDL
MODEL 3
REMARK VINA RESULT: -3.695002241      0.803      1.268
REMARK  2 active torsions:
REMARK  status: ('A' for Active; 'I' for Inactive)
REMARK    1  A    between atoms: N2_4  and  N3_6 
REMARK    2  A    between atoms: N3_6  and  C1_8 
ROOT
HETATM    1  N3  UNL     1      95.662  60.717  -8.979  1.00  0.00    -0.270 N 
ATOM      2  H3  UNL     1      94.924  60.260  -8.444  1.00  0.00     0.190 HD
ENDROOT
BRANCH   1   3
HETATM    3  N2  UNL     1      96.943  60.173  -8.986  1.00  0.00    -0.248 N 
HETATM    4  N1  UNL     1      97.548  59.939 -10.068  1.00  0.00    -0.331 N 
ATOM      5  H12 UNL     1      97.075  60.158 -10.945  1.00  0.00     0.178 HD
ATOM      6  H11 UNL     1      98.487  59.540 -10.073  1.00  0.00     0.178 HD
ATOM      7  H2  UNL     1      97.401  59.960  -8.101  1.00  0.00     0.207 HD
ENDBRANCH   1   3
BRANCH   1   8
HETATM    8  C1  UNL     1      95.370  61.897  -9.704  1.00  0.00     0.136 A 
HETATM    9  N4  UNL     1      95.903  62.875 -10.409  1.00  0.00    -0.346 N 
HETATM   10  C2  UNL     1      94.518  62.936 -10.262  1.00  0.00     0.139 A 
ATOM     11  H4  UNL     1      96.746  63.296 -10.797  1.00  0.00     0.167 HD
ENDBRANCH   1   8
TORSDOF 2
ENDMDL
MODEL 4
REMARK VINA RESULT: -3.594404971      1.718      3.254
REMARK  2 active torsions:
REMARK  status: ('A' for Active; 'I' for Inactive)
REMARK    1  A    between atoms: N2_4  and  N3_6 
REMARK    2  A    between atoms: N3_6  and  C1_8 
ROOT
HETATM    1  N3  UNL     1      95.652  62.262  -9.596  1.00  0.00    -0.270 N 
ATOM      2  H3  UNL     1      94.750  62.380  -9.134  1.00  0.00     0.190 HD
ENDROOT
BRANCH   1   3
HETATM    3  N2  UNL     1      95.959  63.039 -10.709  1.00  0.00    -0.248 N 
HETATM    4  N1  UNL     1      97.120  63.047 -11.201  1.00  0.00    -0.331 N 
ATOM      5  H12 UNL     1      97.836  62.468 -10.762  1.00  0.00     0.178 HD
ATOM      6  H11 UNL     1      97.345  63.617 -12.017  1.00  0.00     0.178 HD
ATOM      7  H2  UNL     1      95.231  63.612 -11.136  1.00  0.00     0.207 HD
ENDBRANCH   1   3
BRANCH   1   8
HETATM    8  C1  UNL     1      96.573  61.312  -9.097  1.00  0.00     0.136 A 
HETATM    9  N4  UNL     1      96.982  60.063  -9.206  1.00  0.00    -0.346 N 
HETATM   10  C2  UNL     1      97.658  60.828  -8.257  1.00  0.00     0.139 A 
ATOM     11  H4  UNL     1      96.876  59.160  -9.667  1.00  0.00     0.167 HD
ENDBRANCH   1   8
TORSDOF 2
ENDMDL
MODEL 5
REMARK VINA RESULT: -3.570265028      1.616      1.941
REMARK  2 active torsions:
REMARK  status: ('A' for Active; 'I' for Inactive)
REMARK    1  A    between atoms: N2_4  and  N3_6 
REMARK    2  A    between atoms: N3_6  and  C1_8 
ROOT
HETATM    1  N3  UNL     1      96.976  60.496 -10.948  1.00  0.00    -0.270 N 
ATOM      2  H3  UNL     1      96.463  59.888 -11.587  1.00  0.00     0.190 HD
ENDROOT
BRANCH   1   3
HETATM    3  N2  UNL     1      97.260  60.054  -9.659  1.00  0.00    -0.248 N 
HETATM    4  N1  UNL     1      96.423  60.182  -8.724  1.00  0.00    -0.331 N 
ATOM      5  H12 UNL     1      95.526  60.619  -8.933  1.00  0.00     0.178 HD
ATOM      6  H11 UNL     1      96.632  59.857  -7.780  1.00  0.00     0.178 HD
ATOM      7  H2  UNL     1      98.162  59.618  -9.467  1.00  0.00     0.207 HD
ENDBRANCH   1   3
BRANCH   1   8
HETATM    8  C1  UNL     1      97.388  61.777 -11.383  1.00  0.00     0.136 A 
HETATM    9  N4  UNL     1      97.186  63.071 -11.232  1.00  0.00    -0.346 N 
HETATM   10  C2  UNL     1      98.168  62.728 -12.160  1.00  0.00     0.139 A 
ATOM     11  H4  UNL     1      96.668  63.812 -10.761  1.00  0.00     0.167 HD
ENDBRANCH   1   8
TORSDOF 2
ENDMDL
