MODEL 1
REMARK VINA RESULT: -6.762515569      0.000      0.000
REMARK  19 active torsions:
REMARK  status: ('A' for Active; 'I' for Inactive)
REMARK    1  A    between atoms: C2_2  and  C3_3 
REMARK    2  A    between atoms: C3_3  and  C4_4 
REMARK    3  A    between atoms: C4_4  and  C5_5 
REMARK    4  A    between atoms: C5_5  and  C6_6 
REMARK    5  A    between atoms: C6_6  and  C7_7 
REMARK    6  A    between atoms: C7_7  and  C8_8 
REMARK    7  A    between atoms: C8_8  and  C9_9 
REMARK    8  A    between atoms: C9_9  and  C10_10 
REMARK    9  A    between atoms: C10_10  and  C11_11 
REMARK   10  A    between atoms: C12_12  and  C13_13 
REMARK   11  A    between atoms: C17_18  and  C18_19 
REMARK   12  A    between atoms: C18_19  and  O2_20 
REMARK   13  A    between atoms: C18_19  and  C19_22 
REMARK   14  A    between atoms: C19_22  and  O3_23 
REMARK   15  A    between atoms: C24_31  and  O6_33 
REMARK   16  A    between atoms: C26_36  and  C27_37 
REMARK   17  A    between atoms: C27_37  and  O8_38 
REMARK   18  A    between atoms: C27_37  and  C28_40 
REMARK   19  A    between atoms: C28_40  and  O9_41 
ROOT
HETATM    1  C13 UNL     1      26.257  30.200  19.012  1.00  0.00     0.080 C 
HETATM    2  C14 UNL     1      25.206  30.094  20.015  1.00  0.00    -0.037 C 
HETATM    3  C15 UNL     1      24.583  31.139  20.510  1.00  0.00     0.059 C 
HETATM    4  C16 UNL     1      23.553  30.872  21.503  1.00  0.00     0.181 C 
HETATM    5  O1  UNL     1      23.298  31.659  22.442  1.00  0.00    -0.290 OA
HETATM    6  C17 UNL     1      22.843  29.578  21.286  1.00  0.00     0.226 C 
HETATM    7  O4  UNL     1      23.690  28.550  21.105  1.00  0.00    -0.366 OA
HETATM    8  C20 UNL     1      24.891  28.738  20.476  1.00  0.00     0.155 C 
HETATM    9  C21 UNL     1      25.184  27.688  19.427  1.00  0.00     0.080 C 
HETATM   10  C22 UNL     1      25.076  28.212  18.028  1.00  0.00     0.130 A 
HETATM   11  O5  UNL     1      24.389  27.348  17.335  1.00  0.00    -0.360 OA
HETATM   12  C23 UNL     1      25.605  27.380  16.860  1.00  0.00     0.222 A 
HETATM   13  C24 UNL     1      26.995  27.640  17.043  1.00  0.00     0.188 C 
HETATM   14  C25 UNL     1      27.802  27.470  15.717  1.00  0.00     0.082 C 
HETATM   15  O7  UNL     1      27.055  29.007  17.241  1.00  0.00    -0.335 OA
HETATM   16  C26 UNL     1      25.805  29.452  17.741  1.00  0.00     0.137 C 
ENDROOT
BRANCH   1  17
HETATM   17  C12 UNL     1      27.592  29.828  19.500  1.00  0.00    -0.019 C 
HETATM   18  C11 UNL     1      28.629  30.696  19.482  1.00  0.00    -0.030 C 
BRANCH  18  19
HETATM   19  C10 UNL     1      29.969  30.339  19.966  1.00  0.00     0.027 C 
BRANCH  19  20
HETATM   20  C9  UNL     1      31.072  31.024  19.226  1.00  0.00     0.004 C 
BRANCH  20  21
HETATM   21  C8  UNL     1      32.427  30.399  19.438  1.00  0.00     0.000 C 
BRANCH  21  22
HETATM   22  C7  UNL     1      33.401  30.829  18.389  1.00  0.00     0.000 C 
BRANCH  22  23
HETATM   23  C6  UNL     1      34.796  30.556  18.960  1.00  0.00     0.000 C 
BRANCH  23  24
HETATM   24  C5  UNL     1      34.735  29.720  20.204  1.00  0.00     0.000 C 
BRANCH  24  25
HETATM   25  C4  UNL     1      36.055  29.045  20.499  1.00  0.00     0.000 C 
BRANCH  25  26
HETATM   26  C3  UNL     1      35.745  27.771  21.247  1.00  0.00    -0.000 C 
BRANCH  26  27
HETATM   27  C2  UNL     1      34.270  27.425  21.154  1.00  0.00    -0.005 C 
HETATM   28  C1  UNL     1      33.986  26.041  21.653  1.00  0.00     0.005 C 
ENDBRANCH  26  27
ENDBRANCH  25  26
ENDBRANCH  24  25
ENDBRANCH  23  24
ENDBRANCH  22  23
ENDBRANCH  21  22
ENDBRANCH  20  21
ENDBRANCH  19  20
ENDBRANCH  18  19
ENDBRANCH   1  17
BRANCH  16  29
HETATM   29  C27 UNL     1      25.184  30.501  16.937  1.00  0.00     0.180 C 
BRANCH  29  30
HETATM   30  O8  UNL     1      23.779  30.292  16.909  1.00  0.00    -0.390 OA
ATOM     31  H8  UNL     1      23.417  30.505  17.761  1.00  0.00     0.210 HD
ENDBRANCH  29  30
BRANCH  29  32
HETATM   32  C28 UNL     1      25.558  30.955  15.618  1.00  0.00     0.199 C 
BRANCH  32  33
HETATM   33  O9  UNL     1      26.897  31.236  15.366  1.00  0.00    -0.398 OA
ATOM     34  H9  UNL     1      27.107  31.898  14.718  1.00  0.00     0.209 HD
ENDBRANCH  32  33
ENDBRANCH  29  32
ENDBRANCH  16  29
BRANCH  13  35
HETATM   35  O6  UNL     1      27.738  26.846  17.872  1.00  0.00    -0.363 OA
ATOM     36  H6  UNL     1      28.625  26.604  17.632  1.00  0.00     0.213 HD
ENDBRANCH  13  35
BRANCH   6  37
HETATM   37  C18 UNL     1      22.047  29.324  22.573  1.00  0.00     0.178 C 
BRANCH  37  38
HETATM   38  O2  UNL     1      22.940  29.153  23.631  1.00  0.00    -0.390 OA
ATOM     39  H2  UNL     1      22.948  29.944  24.158  1.00  0.00     0.210 HD
ENDBRANCH  37  38
BRANCH  37  40
HETATM   40  C19 UNL     1      21.229  28.061  22.444  1.00  0.00     0.198 C 
BRANCH  40  41
HETATM   41  O3  UNL     1      21.948  26.938  22.800  1.00  0.00    -0.398 OA
ATOM     42  H3  UNL     1      21.386  26.186  22.946  1.00  0.00     0.209 HD
ENDBRANCH  40  41
ENDBRANCH  37  40
ENDBRANCH   6  37
TORSDOF 19
ENDMDL
MODEL 2
REMARK VINA RESULT: -6.628900044      1.701      2.376
REMARK  19 active torsions:
REMARK  status: ('A' for Active; 'I' for Inactive)
REMARK    1  A    between atoms: C2_2  and  C3_3 
REMARK    2  A    between atoms: C3_3  and  C4_4 
REMARK    3  A    between atoms: C4_4  and  C5_5 
REMARK    4  A    between atoms: C5_5  and  C6_6 
REMARK    5  A    between atoms: C6_6  and  C7_7 
REMARK    6  A    between atoms: C7_7  and  C8_8 
REMARK    7  A    between atoms: C8_8  and  C9_9 
REMARK    8  A    between atoms: C9_9  and  C10_10 
REMARK    9  A    between atoms: C10_10  and  C11_11 
REMARK   10  A    between atoms: C12_12  and  C13_13 
REMARK   11  A    between atoms: C17_18  and  C18_19 
REMARK   12  A    between atoms: C18_19  and  O2_20 
REMARK   13  A    between atoms: C18_19  and  C19_22 
REMARK   14  A    between atoms: C19_22  and  O3_23 
REMARK   15  A    between atoms: C24_31  and  O6_33 
REMARK   16  A    between atoms: C26_36  and  C27_37 
REMARK   17  A    between atoms: C27_37  and  O8_38 
REMARK   18  A    between atoms: C27_37  and  C28_40 
REMARK   19  A    between atoms: C28_40  and  O9_41 
ROOT
HETATM    1  C13 UNL     1      26.241  28.355  17.591  1.00  0.00     0.080 C 
HETATM    2  C14 UNL     1      25.424  28.889  18.672  1.00  0.00    -0.037 C 
HETATM    3  C15 UNL     1      24.702  29.979  18.550  1.00  0.00     0.059 C 
HETATM    4  C16 UNL     1      23.937  30.386  19.719  1.00  0.00     0.181 C 
HETATM    5  O1  UNL     1      23.698  31.584  19.989  1.00  0.00    -0.290 OA
HETATM    6  C17 UNL     1      23.471  29.238  20.551  1.00  0.00     0.226 C 
HETATM    7  O4  UNL     1      24.462  28.373  20.835  1.00  0.00    -0.366 OA
HETATM    8  C20 UNL     1      25.471  28.152  19.938  1.00  0.00     0.155 C 
HETATM    9  C21 UNL     1      25.780  26.683  19.741  1.00  0.00     0.080 C 
HETATM   10  C22 UNL     1      25.326  26.163  18.411  1.00  0.00     0.130 A 
HETATM   11  O5  UNL     1      24.714  25.031  18.619  1.00  0.00    -0.360 OA
HETATM   12  C23 UNL     1      25.797  24.791  17.930  1.00  0.00     0.222 A 
HETATM   13  C24 UNL     1      27.117  25.161  17.538  1.00  0.00     0.188 C 
HETATM   14  C25 UNL     1      27.697  24.197  16.454  1.00  0.00     0.082 C 
HETATM   15  O7  UNL     1      26.937  26.327  16.817  1.00  0.00    -0.335 OA
HETATM   16  C26 UNL     1      25.731  26.943  17.237  1.00  0.00     0.137 C 
ENDROOT
BRANCH   1  17
HETATM   17  C12 UNL     1      27.687  28.442  17.831  1.00  0.00    -0.019 C 
HETATM   18  C11 UNL     1      28.436  29.457  17.340  1.00  0.00    -0.030 C 
BRANCH  18  19
HETATM   19  C10 UNL     1      29.882  29.557  17.572  1.00  0.00     0.027 C 
BRANCH  19  20
HETATM   20  C9  UNL     1      30.235  30.282  18.832  1.00  0.00     0.004 C 
BRANCH  20  21
HETATM   21  C8  UNL     1      30.979  31.572  18.602  1.00  0.00     0.000 C 
BRANCH  21  22
HETATM   22  C7  UNL     1      32.445  31.338  18.429  1.00  0.00     0.000 C 
BRANCH  22  23
HETATM   23  C6  UNL     1      32.845  30.312  19.493  1.00  0.00     0.000 C 
BRANCH  23  24
HETATM   24  C5  UNL     1      34.335  30.173  19.600  1.00  0.00     0.000 C 
BRANCH  24  25
HETATM   25  C4  UNL     1      34.738  29.212  20.695  1.00  0.00     0.000 C 
BRANCH  25  26
HETATM   26  C3  UNL     1      33.508  28.421  21.066  1.00  0.00    -0.000 C 
BRANCH  26  27
HETATM   27  C2  UNL     1      33.859  26.981  21.394  1.00  0.00    -0.005 C 
HETATM   28  C1  UNL     1      35.336  26.740  21.355  1.00  0.00     0.005 C 
ENDBRANCH  26  27
ENDBRANCH  25  26
ENDBRANCH  24  25
ENDBRANCH  23  24
ENDBRANCH  22  23
ENDBRANCH  21  22
ENDBRANCH  20  21
ENDBRANCH  19  20
ENDBRANCH  18  19
ENDBRANCH   1  17
BRANCH  16  29
HETATM   29  C27 UNL     1      24.782  27.188  16.154  1.00  0.00     0.180 C 
BRANCH  29  30
HETATM   30  O8  UNL     1      23.474  26.863  16.603  1.00  0.00    -0.390 OA
ATOM     31  H8  UNL     1      22.898  27.601  16.437  1.00  0.00     0.210 HD
ENDBRANCH  29  30
BRANCH  29  32
HETATM   32  C28 UNL     1      24.864  26.755  14.779  1.00  0.00     0.199 C 
BRANCH  32  33
HETATM   33  O9  UNL     1      25.079  25.406  14.519  1.00  0.00    -0.398 OA
ATOM     34  H9  UNL     1      25.442  25.158  13.676  1.00  0.00     0.209 HD
ENDBRANCH  32  33
ENDBRANCH  29  32
ENDBRANCH  16  29
BRANCH  13  35
HETATM   35  O6  UNL     1      28.138  25.128  18.448  1.00  0.00    -0.363 OA
ATOM     36  H6  UNL     1      28.881  24.553  18.311  1.00  0.00     0.213 HD
ENDBRANCH  13  35
BRANCH   6  37
HETATM   37  C18 UNL     1      22.980  29.855  21.867  1.00  0.00     0.178 C 
BRANCH  37  38
HETATM   38  O2  UNL     1      24.082  30.125  22.679  1.00  0.00    -0.390 OA
ATOM     39  H2  UNL     1      24.008  31.011  23.014  1.00  0.00     0.210 HD
ENDBRANCH  37  38
BRANCH  37  40
HETATM   40  C19 UNL     1      22.086  28.884  22.601  1.00  0.00     0.198 C 
BRANCH  40  41
HETATM   41  O3  UNL     1      22.355  27.573  22.262  1.00  0.00    -0.398 OA
ATOM     42  H3  UNL     1      21.642  26.990  22.495  1.00  0.00     0.209 HD
ENDBRANCH  40  41
ENDBRANCH  37  40
ENDBRANCH   6  37
TORSDOF 19
ENDMDL
MODEL 3
REMARK VINA RESULT: -6.487454946      6.575      8.523
REMARK  19 active torsions:
REMARK  status: ('A' for Active; 'I' for Inactive)
REMARK    1  A    between atoms: C2_2  and  C3_3 
REMARK    2  A    between atoms: C3_3  and  C4_4 
REMARK    3  A    between atoms: C4_4  and  C5_5 
REMARK    4  A    between atoms: C5_5  and  C6_6 
REMARK    5  A    between atoms: C6_6  and  C7_7 
REMARK    6  A    between atoms: C7_7  and  C8_8 
REMARK    7  A    between atoms: C8_8  and  C9_9 
REMARK    8  A    between atoms: C9_9  and  C10_10 
REMARK    9  A    between atoms: C10_10  and  C11_11 
REMARK   10  A    between atoms: C12_12  and  C13_13 
REMARK   11  A    between atoms: C17_18  and  C18_19 
REMARK   12  A    between atoms: C18_19  and  O2_20 
REMARK   13  A    between atoms: C18_19  and  C19_22 
REMARK   14  A    between atoms: C19_22  and  O3_23 
REMARK   15  A    between atoms: C24_31  and  O6_33 
REMARK   16  A    between atoms: C26_36  and  C27_37 
REMARK   17  A    between atoms: C27_37  and  O8_38 
REMARK   18  A    between atoms: C27_37  and  C28_40 
REMARK   19  A    between atoms: C28_40  and  O9_41 
ROOT
HETATM    1  C13 UNL     1      32.396  32.702  15.359  1.00  0.00     0.080 C 
HETATM    2  C14 UNL     1      31.371  33.551  14.768  1.00  0.00    -0.037 C 
HETATM    3  C15 UNL     1      31.340  34.854  14.930  1.00  0.00     0.059 C 
HETATM    4  C16 UNL     1      30.254  35.566  14.275  1.00  0.00     0.181 C 
HETATM    5  O1  UNL     1      29.742  36.604  14.749  1.00  0.00    -0.290 OA
HETATM    6  C17 UNL     1      29.821  34.936  12.993  1.00  0.00     0.226 C 
HETATM    7  O4  UNL     1      29.596  33.616  13.119  1.00  0.00    -0.366 OA
HETATM    8  C20 UNL     1      30.335  32.863  13.990  1.00  0.00     0.155 C 
HETATM    9  C21 UNL     1      30.833  31.569  13.382  1.00  0.00     0.080 C 
HETATM   10  C22 UNL     1      32.307  31.578  13.114  1.00  0.00     0.130 A 
HETATM   11  O5  UNL     1      32.491  31.105  11.913  1.00  0.00    -0.360 OA
HETATM   12  C23 UNL     1      33.025  30.274  12.767  1.00  0.00     0.222 A 
HETATM   13  C24 UNL     1      33.085  29.724  14.081  1.00  0.00     0.188 C 
HETATM   14  C25 UNL     1      34.259  28.706  14.237  1.00  0.00     0.082 C 
HETATM   15  O7  UNL     1      33.516  30.779  14.864  1.00  0.00    -0.335 OA
HETATM   16  C26 UNL     1      33.167  31.996  14.225  1.00  0.00     0.137 C 
ENDROOT
BRANCH   1  17
HETATM   17  C12 UNL     1      31.901  31.808  16.413  1.00  0.00    -0.019 C 
HETATM   18  C11 UNL     1      31.431  32.278  17.591  1.00  0.00    -0.030 C 
BRANCH  18  19
HETATM   19  C10 UNL     1      30.933  31.396  18.654  1.00  0.00     0.027 C 
BRANCH  19  20
HETATM   20  C9  UNL     1      31.902  30.324  19.041  1.00  0.00     0.004 C 
BRANCH  20  21
HETATM   21  C8  UNL     1      33.217  30.851  19.555  1.00  0.00     0.000 C 
BRANCH  21  22
HETATM   22  C7  UNL     1      34.352  30.457  18.666  1.00  0.00     0.000 C 
BRANCH  22  23
HETATM   23  C6  UNL     1      35.582  30.332  19.568  1.00  0.00     0.000 C 
BRANCH  23  24
HETATM   24  C5  UNL     1      35.666  28.980  20.212  1.00  0.00     0.000 C 
BRANCH  24  25
HETATM   25  C4  UNL     1      35.645  29.067  21.721  1.00  0.00     0.000 C 
BRANCH  25  26
HETATM   26  C3  UNL     1      34.288  28.585  22.174  1.00  0.00    -0.000 C 
BRANCH  26  27
HETATM   27  C2  UNL     1      33.759  27.494  21.261  1.00  0.00    -0.005 C 
HETATM   28  C1  UNL     1      34.232  26.136  21.677  1.00  0.00     0.005 C 
ENDBRANCH  26  27
ENDBRANCH  25  26
ENDBRANCH  24  25
ENDBRANCH  23  24
ENDBRANCH  22  23
ENDBRANCH  21  22
ENDBRANCH  20  21
ENDBRANCH  19  20
ENDBRANCH  18  19
ENDBRANCH   1  17
BRANCH  16  29
HETATM   29  C27 UNL     1      34.300  32.885  13.984  1.00  0.00     0.180 C 
BRANCH  29  30
HETATM   30  O8  UNL     1      34.213  33.398  12.662  1.00  0.00    -0.390 OA
ATOM     31  H8  UNL     1      33.540  32.921  12.189  1.00  0.00     0.210 HD
ENDBRANCH  29  30
BRANCH  29  32
HETATM   32  C28 UNL     1      35.701  32.637  14.236  1.00  0.00     0.199 C 
BRANCH  32  33
HETATM   33  O9  UNL     1      36.075  32.145  15.482  1.00  0.00    -0.398 OA
ATOM     34  H9  UNL     1      36.305  31.227  15.557  1.00  0.00     0.209 HD
ENDBRANCH  32  33
ENDBRANCH  29  32
ENDBRANCH  16  29
BRANCH  13  35
HETATM   35  O6  UNL     1      32.052  28.963  14.555  1.00  0.00    -0.363 OA
ATOM     36  H6  UNL     1      31.336  29.372  15.027  1.00  0.00     0.213 HD
ENDBRANCH  13  35
BRANCH   6  37
HETATM   37  C18 UNL     1      28.496  35.616  12.626  1.00  0.00     0.178 C 
BRANCH  37  38
HETATM   38  O2  UNL     1      27.575  35.397  13.651  1.00  0.00    -0.390 OA
ATOM     39  H2  UNL     1      26.714  35.666  13.354  1.00  0.00     0.210 HD
ENDBRANCH  37  38
BRANCH  37  40
HETATM   40  C19 UNL     1      27.934  35.021  11.357  1.00  0.00     0.198 C 
BRANCH  40  41
HETATM   41  O3  UNL     1      27.068  33.978  11.613  1.00  0.00    -0.398 OA
ATOM     42  H3  UNL     1      26.769  33.974  12.515  1.00  0.00     0.209 HD
ENDBRANCH  40  41
ENDBRANCH  37  40
ENDBRANCH   6  37
TORSDOF 19
ENDMDL
MODEL 4
REMARK VINA RESULT: -6.438244133      2.690      4.001
REMARK  19 active torsions:
REMARK  status: ('A' for Active; 'I' for Inactive)
REMARK    1  A    between atoms: C2_2  and  C3_3 
REMARK    2  A    between atoms: C3_3  and  C4_4 
REMARK    3  A    between atoms: C4_4  and  C5_5 
REMARK    4  A    between atoms: C5_5  and  C6_6 
REMARK    5  A    between atoms: C6_6  and  C7_7 
REMARK    6  A    between atoms: C7_7  and  C8_8 
REMARK    7  A    between atoms: C8_8  and  C9_9 
REMARK    8  A    between atoms: C9_9  and  C10_10 
REMARK    9  A    between atoms: C10_10  and  C11_11 
REMARK   10  A    between atoms: C12_12  and  C13_13 
REMARK   11  A    between atoms: C17_18  and  C18_19 
REMARK   12  A    between atoms: C18_19  and  O2_20 
REMARK   13  A    between atoms: C18_19  and  C19_22 
REMARK   14  A    between atoms: C19_22  and  O3_23 
REMARK   15  A    between atoms: C24_31  and  O6_33 
REMARK   16  A    between atoms: C26_36  and  C27_37 
REMARK   17  A    between atoms: C27_37  and  O8_38 
REMARK   18  A    between atoms: C27_37  and  C28_40 
REMARK   19  A    between atoms: C28_40  and  O9_41 
ROOT
HETATM    1  C13 UNL     1      28.199  29.501  17.101  1.00  0.00     0.080 C 
HETATM    2  C14 UNL     1      27.431  28.406  17.677  1.00  0.00    -0.037 C 
HETATM    3  C15 UNL     1      26.342  28.593  18.387  1.00  0.00     0.059 C 
HETATM    4  C16 UNL     1      25.683  27.399  18.894  1.00  0.00     0.181 C 
HETATM    5  O1  UNL     1      25.058  27.378  19.978  1.00  0.00    -0.290 OA
HETATM    6  C17 UNL     1      25.827  26.216  17.995  1.00  0.00     0.226 C 
HETATM    7  O4  UNL     1      27.102  26.006  17.623  1.00  0.00    -0.366 OA
HETATM    8  C20 UNL     1      27.959  27.057  17.446  1.00  0.00     0.155 C 
HETATM    9  C21 UNL     1      28.761  26.963  16.166  1.00  0.00     0.080 C 
HETATM   10  C22 UNL     1      28.325  27.951  15.128  1.00  0.00     0.130 A 
HETATM   11  O5  UNL     1      28.227  27.315  13.994  1.00  0.00    -0.360 OA
HETATM   12  C23 UNL     1      29.192  28.189  13.892  1.00  0.00     0.222 A 
HETATM   13  C24 UNL     1      30.193  29.000  14.503  1.00  0.00     0.188 C 
HETATM   14  C25 UNL     1      30.906  29.928  13.469  1.00  0.00     0.082 C 
HETATM   15  O7  UNL     1      29.471  29.909  15.254  1.00  0.00    -0.335 OA
HETATM   16  C26 UNL     1      28.208  29.345  15.567  1.00  0.00     0.137 C 
ENDROOT
BRANCH   1  17
HETATM   17  C12 UNL     1      29.525  29.687  17.706  1.00  0.00    -0.019 C 
HETATM   18  C11 UNL     1      29.679  30.173  18.960  1.00  0.00    -0.030 C 
BRANCH  18  19
HETATM   19  C10 UNL     1      30.997  30.365  19.577  1.00  0.00     0.027 C 
BRANCH  19  20
HETATM   20  C9  UNL     1      31.843  31.379  18.874  1.00  0.00     0.004 C 
BRANCH  20  21
HETATM   21  C8  UNL     1      33.258  30.925  18.628  1.00  0.00     0.000 C 
BRANCH  21  22
HETATM   22  C7  UNL     1      33.722  29.974  19.685  1.00  0.00     0.000 C 
BRANCH  22  23
HETATM   23  C6  UNL     1      35.227  30.204  19.839  1.00  0.00     0.000 C 
BRANCH  23  24
HETATM   24  C5  UNL     1      35.901  29.047  20.517  1.00  0.00     0.000 C 
BRANCH  24  25
HETATM   25  C4  UNL     1      35.886  29.185  22.022  1.00  0.00     0.000 C 
BRANCH  25  26
HETATM   26  C3  UNL     1      35.366  27.884  22.583  1.00  0.00    -0.000 C 
BRANCH  26  27
HETATM   27  C2  UNL     1      35.352  26.796  21.523  1.00  0.00    -0.005 C 
HETATM   28  C1  UNL     1      34.054  26.049  21.504  1.00  0.00     0.005 C 
ENDBRANCH  26  27
ENDBRANCH  25  26
ENDBRANCH  24  25
ENDBRANCH  23  24
ENDBRANCH  22  23
ENDBRANCH  21  22
ENDBRANCH  20  21
ENDBRANCH  19  20
ENDBRANCH  18  19
ENDBRANCH   1  17
BRANCH  16  29
HETATM   29  C27 UNL     1      27.073  30.159  15.139  1.00  0.00     0.180 C 
BRANCH  29  30
HETATM   30  O8  UNL     1      26.081  29.310  14.579  1.00  0.00    -0.390 OA
ATOM     31  H8  UNL     1      26.344  29.066  13.699  1.00  0.00     0.210 HD
ENDBRANCH  29  30
BRANCH  29  32
HETATM   32  C28 UNL     1      27.087  31.360  14.337  1.00  0.00     0.199 C 
BRANCH  32  33
HETATM   33  O9  UNL     1      28.074  32.309  14.579  1.00  0.00    -0.398 OA
ATOM     34  H9  UNL     1      27.880  33.024  15.174  1.00  0.00     0.209 HD
ENDBRANCH  32  33
ENDBRANCH  29  32
ENDBRANCH  16  29
BRANCH  13  35
HETATM   35  O6  UNL     1      31.284  28.418  15.087  1.00  0.00    -0.363 OA
ATOM     36  H6  UNL     1      31.374  27.472  15.094  1.00  0.00     0.213 HD
ENDBRANCH  13  35
BRANCH   6  37
HETATM   37  C18 UNL     1      25.362  25.011  18.822  1.00  0.00     0.178 C 
BRANCH  37  38
HETATM   38  O2  UNL     1      26.156  24.914  19.966  1.00  0.00    -0.390 OA
ATOM     39  H2  UNL     1      26.736  24.166  19.876  1.00  0.00     0.210 HD
ENDBRANCH  37  38
BRANCH  37  40
HETATM   40  C19 UNL     1      25.527  23.736  18.030  1.00  0.00     0.198 C 
BRANCH  40  41
HETATM   41  O3  UNL     1      26.697  23.075  18.347  1.00  0.00    -0.398 OA
ATOM     42  H3  UNL     1      26.876  22.359  17.749  1.00  0.00     0.209 HD
ENDBRANCH  40  41
ENDBRANCH  37  40
ENDBRANCH   6  37
TORSDOF 19
ENDMDL
MODEL 5
REMARK VINA RESULT: -6.359914835      8.592     12.795
REMARK  19 active torsions:
REMARK  status: ('A' for Active; 'I' for Inactive)
REMARK    1  A    between atoms: C2_2  and  C3_3 
REMARK    2  A    between atoms: C3_3  and  C4_4 
REMARK    3  A    between atoms: C4_4  and  C5_5 
REMARK    4  A    between atoms: C5_5  and  C6_6 
REMARK    5  A    between atoms: C6_6  and  C7_7 
REMARK    6  A    between atoms: C7_7  and  C8_8 
REMARK    7  A    between atoms: C8_8  and  C9_9 
REMARK    8  A    between atoms: C9_9  and  C10_10 
REMARK    9  A    between atoms: C10_10  and  C11_11 
REMARK   10  A    between atoms: C12_12  and  C13_13 
REMARK   11  A    between atoms: C17_18  and  C18_19 
REMARK   12  A    between atoms: C18_19  and  O2_20 
REMARK   13  A    between atoms: C18_19  and  C19_22 
REMARK   14  A    between atoms: C19_22  and  O3_23 
REMARK   15  A    between atoms: C24_31  and  O6_33 
REMARK   16  A    between atoms: C26_36  and  C27_37 
REMARK   17  A    between atoms: C27_37  and  O8_38 
REMARK   18  A    between atoms: C27_37  and  C28_40 
REMARK   19  A    between atoms: C28_40  and  O9_41 
ROOT
HETATM    1  C13 UNL     1      36.821  32.854  13.918  1.00  0.00     0.080 C 
HETATM    2  C14 UNL     1      37.027  34.167  14.515  1.00  0.00    -0.037 C 
HETATM    3  C15 UNL     1      37.917  34.393  15.453  1.00  0.00     0.059 C 
HETATM    4  C16 UNL     1      38.008  35.758  15.949  1.00  0.00     0.181 C 
HETATM    5  O1  UNL     1      38.316  36.030  17.130  1.00  0.00    -0.290 OA
HETATM    6  C17 UNL     1      37.698  36.786  14.912  1.00  0.00     0.226 C 
HETATM    7  O4  UNL     1      36.552  36.529  14.259  1.00  0.00    -0.366 OA
HETATM    8  C20 UNL     1      36.155  35.240  14.027  1.00  0.00     0.155 C 
HETATM    9  C21 UNL     1      35.693  35.007  12.604  1.00  0.00     0.080 C 
HETATM   10  C22 UNL     1      36.661  34.196  11.799  1.00  0.00     0.130 A 
HETATM   11  O5  UNL     1      36.809  34.787  10.647  1.00  0.00    -0.360 OA
HETATM   12  C23 UNL     1      36.238  33.630  10.444  1.00  0.00     0.222 A 
HETATM   13  C24 UNL     1      35.446  32.545  10.920  1.00  0.00     0.188 C 
HETATM   14  C25 UNL     1      35.342  31.392   9.871  1.00  0.00     0.082 C 
HETATM   15  O7  UNL     1      36.227  31.967  11.903  1.00  0.00    -0.335 OA
HETATM   16  C26 UNL     1      37.123  32.944  12.408  1.00  0.00     0.137 C 
ENDROOT
BRANCH   1  17
HETATM   17  C12 UNL     1      35.528  32.241  14.249  1.00  0.00    -0.019 C 
HETATM   18  C11 UNL     1      35.308  31.625  15.433  1.00  0.00    -0.030 C 
BRANCH  18  19
HETATM   19  C10 UNL     1      34.021  31.008  15.777  1.00  0.00     0.027 C 
BRANCH  19  20
HETATM   20  C9  UNL     1      33.731  31.013  17.244  1.00  0.00     0.004 C 
BRANCH  20  21
HETATM   21  C8  UNL     1      32.439  31.699  17.606  1.00  0.00     0.000 C 
BRANCH  21  22
HETATM   22  C7  UNL     1      32.067  31.454  19.033  1.00  0.00     0.000 C 
BRANCH  22  23
HETATM   23  C6  UNL     1      32.937  30.289  19.510  1.00  0.00     0.000 C 
BRANCH  23  24
HETATM   24  C5  UNL     1      32.189  29.376  20.436  1.00  0.00     0.000 C 
BRANCH  24  25
HETATM   25  C4  UNL     1      33.101  28.722  21.448  1.00  0.00     0.000 C 
BRANCH  25  26
HETATM   26  C3  UNL     1      34.461  28.595  20.803  1.00  0.00    -0.000 C 
BRANCH  26  27
HETATM   27  C2  UNL     1      35.102  27.259  21.131  1.00  0.00    -0.005 C 
HETATM   28  C1  UNL     1      34.092  26.245  21.575  1.00  0.00     0.005 C 
ENDBRANCH  26  27
ENDBRANCH  25  26
ENDBRANCH  24  25
ENDBRANCH  23  24
ENDBRANCH  22  23
ENDBRANCH  21  22
ENDBRANCH  20  21
ENDBRANCH  19  20
ENDBRANCH  18  19
ENDBRANCH   1  17
BRANCH  16  29
HETATM   29  C27 UNL     1      38.529  32.560  12.323  1.00  0.00     0.180 C 
BRANCH  29  30
HETATM   30  O8  UNL     1      39.267  33.628  11.747  1.00  0.00    -0.390 OA
ATOM     31  H8  UNL     1      39.272  33.527  10.802  1.00  0.00     0.210 HD
ENDBRANCH  29  30
BRANCH  29  32
HETATM   32  C28 UNL     1      39.092  31.340  11.792  1.00  0.00     0.199 C 
BRANCH  32  33
HETATM   33  O9  UNL     1      38.773  30.136  12.413  1.00  0.00    -0.398 OA
ATOM     34  H9  UNL     1      39.336  29.823  13.110  1.00  0.00     0.209 HD
ENDBRANCH  32  33
ENDBRANCH  29  32
ENDBRANCH  16  29
BRANCH  13  35
HETATM   35  O6  UNL     1      34.118  32.732  11.192  1.00  0.00    -0.363 OA
ATOM     36  H6  UNL     1      33.525  31.990  11.203  1.00  0.00     0.213 HD
ENDBRANCH  13  35
BRANCH   6  37
HETATM   37  C18 UNL     1      37.532  38.105  15.676  1.00  0.00     0.178 C 
BRANCH  37  38
HETATM   38  O2  UNL     1      36.224  38.187  16.157  1.00  0.00    -0.390 OA
ATOM     39  H2  UNL     1      35.985  39.102  16.244  1.00  0.00     0.210 HD
ENDBRANCH  37  38
BRANCH  37  40
HETATM   40  C19 UNL     1      37.765  39.279  14.756  1.00  0.00     0.198 C 
BRANCH  40  41
HETATM   41  O3  UNL     1      36.829  39.338  13.743  1.00  0.00    -0.398 OA
ATOM     42  H3  UNL     1      37.227  39.260  12.884  1.00  0.00     0.209 HD
ENDBRANCH  40  41
ENDBRANCH  37  40
ENDBRANCH   6  37
TORSDOF 19
ENDMDL
