MODEL 1
REMARK VINA RESULT: -5.969376488      0.000      0.000
REMARK  9 active torsions:
REMARK  status: ('A' for Active; 'I' for Inactive)
REMARK    1  A    between atoms: C2_2  and  C3_3 
REMARK    2  A    between atoms: C3_3  and  C4_4 
REMARK    3  A    between atoms: C4_4  and  O1_5 
REMARK    4  A    between atoms: O1_5  and  C5_6 
REMARK    5  A    between atoms: C5_6  and  C6_7 
REMARK    6  A    between atoms: C6_7  and  C7_8 
REMARK    7  A    between atoms: C7_8  and  N1_9 
REMARK    8  A    between atoms: C8_10  and  N2_11 
REMARK    9  A    between atoms: C9_18  and  N5_19 
ROOT
HETATM    1  N1  UNL     1       4.668   5.278  -2.581  1.00  0.00    -0.012 N 
HETATM    2  C8  UNL     1       4.675   3.977  -2.319  1.00  0.00     0.707 A 
HETATM    3  N3  UNL     1       5.645   3.416  -3.055  1.00  0.00    -0.117 N 
ATOM      4  H3  UNL     1       5.890   2.425  -3.066  1.00  0.00     0.206 HD
HETATM    5  N4  UNL     1       6.220   4.350  -3.753  1.00  0.00    -0.117 N 
ATOM      6  H4  UNL     1       6.993   4.215  -4.404  1.00  0.00     0.206 HD
HETATM    7  C9  UNL     1       5.628   5.520  -3.477  1.00  0.00     0.707 A 
ENDROOT
BRANCH   1   8
HETATM    8  C7  UNL     1       3.752   6.227  -1.970  1.00  0.00     0.169 C 
BRANCH   8   9
HETATM    9  C6  UNL     1       2.651   6.627  -2.859  1.00  0.00     0.048 C 
BRANCH   9  10
HETATM   10  C5  UNL     1       1.749   5.564  -3.383  1.00  0.00     0.169 C 
BRANCH  10  11
HETATM   11  O1  UNL     1       1.438   4.485  -2.679  1.00  0.00    -0.391 OA
BRANCH  11  12
HETATM   12  C4  UNL     1       0.345   3.742  -2.830  1.00  0.00     0.171 C 
BRANCH  12  13
HETATM   13  C3  UNL     1      -0.859   4.451  -3.457  1.00  0.00     0.052 C 
BRANCH  13  14
HETATM   14  C2  UNL     1      -1.305   3.667  -4.640  1.00  0.00    -0.035 C 
HETATM   15  C1  UNL     1      -0.512   3.599  -5.690  1.00  0.00     0.007 C 
ENDBRANCH  13  14
ENDBRANCH  12  13
ENDBRANCH  11  12
ENDBRANCH  10  11
ENDBRANCH   9  10
ENDBRANCH   8   9
ENDBRANCH   1   8
BRANCH   2  16
HETATM   16  N2  UNL     1       3.921   3.277  -1.513  1.00  0.00    -0.233 N 
ATOM     17  H22 UNL     1       3.050   3.645  -1.129  1.00  0.00     0.174 HD
ATOM     18  H21 UNL     1       4.047   2.331  -1.152  1.00  0.00     0.174 HD
ENDBRANCH   2  16
BRANCH   7  19
HETATM   19  N5  UNL     1       5.949   6.683  -4.001  1.00  0.00    -0.233 N 
ATOM     20  H52 UNL     1       5.541   7.087  -4.844  1.00  0.00     0.174 HD
ATOM     21  H51 UNL     1       6.643   7.345  -3.652  1.00  0.00     0.174 HD
ENDBRANCH   7  19
TORSDOF 9
ENDMDL
MODEL 2
REMARK VINA RESULT: -5.901434801      0.074      1.941
REMARK  9 active torsions:
REMARK  status: ('A' for Active; 'I' for Inactive)
REMARK    1  A    between atoms: C2_2  and  C3_3 
REMARK    2  A    between atoms: C3_3  and  C4_4 
REMARK    3  A    between atoms: C4_4  and  O1_5 
REMARK    4  A    between atoms: O1_5  and  C5_6 
REMARK    5  A    between atoms: C5_6  and  C6_7 
REMARK    6  A    between atoms: C6_7  and  C7_8 
REMARK    7  A    between atoms: C7_8  and  N1_9 
REMARK    8  A    between atoms: C8_10  and  N2_11 
REMARK    9  A    between atoms: C9_18  and  N5_19 
ROOT
HETATM    1  N1  UNL     1       4.638   5.327  -2.564  1.00  0.00    -0.012 N 
HETATM    2  C8  UNL     1       5.576   5.608  -3.460  1.00  0.00     0.707 A 
HETATM    3  N3  UNL     1       6.207   4.464  -3.766  1.00  0.00    -0.117 N 
ATOM      4  H3  UNL     1       6.977   4.365  -4.428  1.00  0.00     0.206 HD
HETATM    5  N4  UNL     1       5.669   3.504  -3.074  1.00  0.00    -0.117 N 
ATOM      6  H4  UNL     1       5.946   2.523  -3.104  1.00  0.00     0.206 HD
HETATM    7  C9  UNL     1       4.690   4.016  -2.316  1.00  0.00     0.707 A 
ENDROOT
BRANCH   1   8
HETATM    8  C7  UNL     1       3.741   6.314  -1.988  1.00  0.00     0.169 C 
BRANCH   8   9
HETATM    9  C6  UNL     1       2.636   6.687  -2.884  1.00  0.00     0.048 C 
BRANCH   9  10
HETATM   10  C5  UNL     1       1.763   5.603  -3.414  1.00  0.00     0.169 C 
BRANCH  10  11
HETATM   11  O1  UNL     1       1.446   4.533  -2.698  1.00  0.00    -0.391 OA
BRANCH  11  12
HETATM   12  C4  UNL     1       0.332   3.815  -2.819  1.00  0.00     0.171 C 
BRANCH  12  13
HETATM   13  C3  UNL     1      -0.848   4.528  -3.486  1.00  0.00     0.052 C 
BRANCH  13  14
HETATM   14  C2  UNL     1      -1.313   3.700  -4.633  1.00  0.00    -0.035 C 
HETATM   15  C1  UNL     1      -0.517   3.559  -5.674  1.00  0.00     0.007 C 
ENDBRANCH  13  14
ENDBRANCH  12  13
ENDBRANCH  11  12
ENDBRANCH  10  11
ENDBRANCH   9  10
ENDBRANCH   8   9
ENDBRANCH   1   8
BRANCH   2  16
HETATM   16  N2  UNL     1       5.906   6.750  -4.004  1.00  0.00    -0.233 N 
ATOM     17  H22 UNL     1       5.444   7.624  -3.751  1.00  0.00     0.174 HD
ATOM     18  H21 UNL     1       6.610   6.962  -4.710  1.00  0.00     0.174 HD
ENDBRANCH   2  16
BRANCH   7  19
HETATM   19  N5  UNL     1       3.928   3.335  -1.487  1.00  0.00    -0.233 N 
ATOM     20  H52 UNL     1       2.924   3.463  -1.362  1.00  0.00     0.174 HD
ATOM     21  H51 UNL     1       4.220   2.590  -0.855  1.00  0.00     0.174 HD
ENDBRANCH   7  19
TORSDOF 9
ENDMDL
MODEL 3
REMARK VINA RESULT: -5.892579516      1.114      1.194
REMARK  9 active torsions:
REMARK  status: ('A' for Active; 'I' for Inactive)
REMARK    1  A    between atoms: C2_2  and  C3_3 
REMARK    2  A    between atoms: C3_3  and  C4_4 
REMARK    3  A    between atoms: C4_4  and  O1_5 
REMARK    4  A    between atoms: O1_5  and  C5_6 
REMARK    5  A    between atoms: C5_6  and  C6_7 
REMARK    6  A    between atoms: C6_7  and  C7_8 
REMARK    7  A    between atoms: C7_8  and  N1_9 
REMARK    8  A    between atoms: C8_10  and  N2_11 
REMARK    9  A    between atoms: C9_18  and  N5_19 
ROOT
HETATM    1  N1  UNL     1       5.548   5.121  -3.587  1.00  0.00    -0.012 N 
HETATM    2  C8  UNL     1       5.448   3.804  -3.719  1.00  0.00     0.707 A 
HETATM    3  N3  UNL     1       6.394   3.405  -4.582  1.00  0.00    -0.117 N 
ATOM      4  H3  UNL     1       6.564   2.445  -4.883  1.00  0.00     0.206 HD
HETATM    5  N4  UNL     1       7.059   4.453  -4.970  1.00  0.00    -0.117 N 
ATOM      6  H4  UNL     1       7.840   4.452  -5.627  1.00  0.00     0.206 HD
HETATM    7  C9  UNL     1       6.550   5.535  -4.366  1.00  0.00     0.707 A 
ENDROOT
BRANCH   1   8
HETATM    8  C7  UNL     1       4.689   5.921  -2.730  1.00  0.00     0.169 C 
BRANCH   8   9
HETATM    9  C6  UNL     1       3.496   6.435  -3.420  1.00  0.00     0.048 C 
BRANCH   9  10
HETATM   10  C5  UNL     1       2.215   5.695  -3.255  1.00  0.00     0.169 C 
BRANCH  10  11
HETATM   11  O1  UNL     1       2.010   4.499  -3.790  1.00  0.00    -0.391 OA
BRANCH  11  12
HETATM   12  C4  UNL     1       1.018   3.667  -3.485  1.00  0.00     0.171 C 
BRANCH  12  13
HETATM   13  C3  UNL     1      -0.377   4.296  -3.405  1.00  0.00     0.052 C 
BRANCH  13  14
HETATM   14  C2  UNL     1      -1.202   3.757  -4.520  1.00  0.00    -0.035 C 
HETATM   15  C1  UNL     1      -0.631   3.554  -5.690  1.00  0.00     0.007 C 
ENDBRANCH  13  14
ENDBRANCH  12  13
ENDBRANCH  11  12
ENDBRANCH  10  11
ENDBRANCH   9  10
ENDBRANCH   8   9
ENDBRANCH   1   8
BRANCH   2  16
HETATM   16  N2  UNL     1       4.618   2.963  -3.161  1.00  0.00    -0.233 N 
ATOM     17  H22 UNL     1       3.766   3.272  -2.693  1.00  0.00     0.174 HD
ATOM     18  H21 UNL     1       4.661   1.946  -3.092  1.00  0.00     0.174 HD
ENDBRANCH   2  16
BRANCH   7  19
HETATM   19  N5  UNL     1       6.975   6.770  -4.522  1.00  0.00    -0.233 N 
ATOM     20  H52 UNL     1       6.882   7.521  -3.838  1.00  0.00     0.174 HD
ATOM     21  H51 UNL     1       7.453   7.158  -5.335  1.00  0.00     0.174 HD
ENDBRANCH   7  19
TORSDOF 9
ENDMDL
MODEL 4
REMARK VINA RESULT: -5.882964937      1.115      2.249
REMARK  9 active torsions:
REMARK  status: ('A' for Active; 'I' for Inactive)
REMARK    1  A    between atoms: C2_2  and  C3_3 
REMARK    2  A    between atoms: C3_3  and  C4_4 
REMARK    3  A    between atoms: C4_4  and  O1_5 
REMARK    4  A    between atoms: O1_5  and  C5_6 
REMARK    5  A    between atoms: C5_6  and  C6_7 
REMARK    6  A    between atoms: C6_7  and  C7_8 
REMARK    7  A    between atoms: C7_8  and  N1_9 
REMARK    8  A    between atoms: C8_10  and  N2_11 
REMARK    9  A    between atoms: C9_18  and  N5_19 
ROOT
HETATM    1  N1  UNL     1       5.529   5.111  -3.580  1.00  0.00    -0.012 N 
HETATM    2  C8  UNL     1       6.520   5.560  -4.339  1.00  0.00     0.707 A 
HETATM    3  N3  UNL     1       7.063   4.508  -4.970  1.00  0.00    -0.117 N 
ATOM      4  H3  UNL     1       7.847   4.541  -5.623  1.00  0.00     0.206 HD
HETATM    5  N4  UNL     1       6.420   3.438  -4.606  1.00  0.00    -0.117 N 
ATOM      6  H4  UNL     1       6.614   2.490  -4.927  1.00  0.00     0.206 HD
HETATM    7  C9  UNL     1       5.459   3.787  -3.739  1.00  0.00     0.707 A 
ENDROOT
BRANCH   1   8
HETATM    8  C7  UNL     1       4.696   5.958  -2.742  1.00  0.00     0.169 C 
BRANCH   8   9
HETATM    9  C6  UNL     1       3.492   6.449  -3.428  1.00  0.00     0.048 C 
BRANCH   9  10
HETATM   10  C5  UNL     1       2.222   5.692  -3.246  1.00  0.00     0.169 C 
BRANCH  10  11
HETATM   11  O1  UNL     1       2.018   4.503  -3.795  1.00  0.00    -0.391 OA
BRANCH  11  12
HETATM   12  C4  UNL     1       1.028   3.664  -3.497  1.00  0.00     0.171 C 
BRANCH  12  13
HETATM   13  C3  UNL     1      -0.367   4.289  -3.408  1.00  0.00     0.052 C 
BRANCH  13  14
HETATM   14  C2  UNL     1      -1.201   3.738  -4.511  1.00  0.00    -0.035 C 
HETATM   15  C1  UNL     1      -0.645   3.542  -5.689  1.00  0.00     0.007 C 
ENDBRANCH  13  14
ENDBRANCH  12  13
ENDBRANCH  11  12
ENDBRANCH  10  11
ENDBRANCH   9  10
ENDBRANCH   8   9
ENDBRANCH   1   8
BRANCH   2  16
HETATM   16  N2  UNL     1       6.965   6.777  -4.510  1.00  0.00    -0.233 N 
ATOM     17  H22 UNL     1       6.393   7.509  -4.930  1.00  0.00     0.174 HD
ATOM     18  H21 UNL     1       7.872   7.183  -4.280  1.00  0.00     0.174 HD
ENDBRANCH   2  16
BRANCH   7  19
HETATM   19  N5  UNL     1       4.612   2.962  -3.162  1.00  0.00    -0.233 N 
ATOM     20  H52 UNL     1       3.600   2.970  -3.284  1.00  0.00     0.174 HD
ATOM     21  H51 UNL     1       4.835   2.203  -2.517  1.00  0.00     0.174 HD
ENDBRANCH   7  19
TORSDOF 9
ENDMDL
MODEL 5
REMARK VINA RESULT: -5.818507433      1.001      1.150
REMARK  9 active torsions:
REMARK  status: ('A' for Active; 'I' for Inactive)
REMARK    1  A    between atoms: C2_2  and  C3_3 
REMARK    2  A    between atoms: C3_3  and  C4_4 
REMARK    3  A    between atoms: C4_4  and  O1_5 
REMARK    4  A    between atoms: O1_5  and  C5_6 
REMARK    5  A    between atoms: C5_6  and  C6_7 
REMARK    6  A    between atoms: C6_7  and  C7_8 
REMARK    7  A    between atoms: C7_8  and  N1_9 
REMARK    8  A    between atoms: C8_10  and  N2_11 
REMARK    9  A    between atoms: C9_18  and  N5_19 
ROOT
HETATM    1  N1  UNL     1       4.363   4.742  -2.543  1.00  0.00    -0.012 N 
HETATM    2  C8  UNL     1       3.696   3.598  -2.460  1.00  0.00     0.707 A 
HETATM    3  N3  UNL     1       4.396   2.665  -3.122  1.00  0.00    -0.117 N 
ATOM      4  H3  UNL     1       4.133   1.685  -3.232  1.00  0.00     0.206 HD
HETATM    5  N4  UNL     1       5.468   3.224  -3.600  1.00  0.00    -0.117 N 
ATOM      6  H4  UNL     1       6.189   2.754  -4.148  1.00  0.00     0.206 HD
HETATM    7  C9  UNL     1       5.471   4.518  -3.254  1.00  0.00     0.707 A 
ENDROOT
BRANCH   1   8
HETATM    8  C7  UNL     1       3.918   5.989  -1.945  1.00  0.00     0.169 C 
BRANCH   8   9
HETATM    9  C6  UNL     1       3.451   6.974  -2.932  1.00  0.00     0.048 C 
BRANCH   9  10
HETATM   10  C5  UNL     1       2.002   6.990  -3.277  1.00  0.00     0.169 C 
BRANCH  10  11
HETATM   11  O1  UNL     1       1.209   5.949  -3.065  1.00  0.00    -0.391 OA
BRANCH  11  12
HETATM   12  C4  UNL     1       0.497   5.308  -3.988  1.00  0.00     0.171 C 
BRANCH  12  13
HETATM   13  C3  UNL     1      -0.581   4.360  -3.457  1.00  0.00     0.052 C 
BRANCH  13  14
HETATM   14  C2  UNL     1      -1.275   3.736  -4.616  1.00  0.00    -0.035 C 
HETATM   15  C1  UNL     1      -0.591   3.522  -5.722  1.00  0.00     0.007 C 
ENDBRANCH  13  14
ENDBRANCH  12  13
ENDBRANCH  11  12
ENDBRANCH  10  11
ENDBRANCH   9  10
ENDBRANCH   8   9
ENDBRANCH   1   8
BRANCH   2  16
HETATM   16  N2  UNL     1       2.561   3.326  -1.871  1.00  0.00    -0.233 N 
ATOM     17  H22 UNL     1       1.672   3.696  -2.209  1.00  0.00     0.174 HD
ATOM     18  H21 UNL     1       2.369   2.756  -1.047  1.00  0.00     0.174 HD
ENDBRANCH   2  16
BRANCH   7  19
HETATM   19  N5  UNL     1       6.403   5.392  -3.566  1.00  0.00    -0.233 N 
ATOM     20  H52 UNL     1       6.326   6.404  -3.464  1.00  0.00     0.174 HD
ATOM     21  H51 UNL     1       7.327   5.195  -3.950  1.00  0.00     0.174 HD
ENDBRANCH   7  19
TORSDOF 9
ENDMDL
