MODEL 1
REMARK VINA RESULT: -8.167329337      0.000      0.000
REMARK  10 active torsions:
REMARK  status: ('A' for Active; 'I' for Inactive)
REMARK    1  A    between atoms: C2_2  and  N1_3 
REMARK       I    between atoms: N1_3  and  C3_5 
REMARK       I    between atoms: C3_5  and  N2_7 
REMARK    2  A    between atoms: N2_7  and  C4_9 
REMARK    3  A    between atoms: C4_9  and  C5_10 
REMARK    4  A    between atoms: C5_10  and  N3_11 
REMARK    5  A    between atoms: C8_17  and  C9_18 
REMARK    6  A    between atoms: C9_18  and  N4_19 
REMARK    7  A    between atoms: N4_19  and  S1_21 
REMARK    8  A    between atoms: S1_21  and  C10_24 
REMARK    9  A    between atoms: C10_24  and  C11_25 
REMARK   10  A    between atoms: C11_25  and  C12_26 
ROOT
HETATM    1  C5  UNL     1      27.175  41.734  29.001  1.00  0.00     0.139 C 
HETATM    2  C6  UNL     1      26.416  41.608  30.330  1.00  0.00     0.041 C 
HETATM    3  C7  UNL     1      27.484  41.797  31.417  1.00  0.00     0.009 C 
HETATM    4  C8  UNL     1      28.072  43.187  31.340  1.00  0.00     0.004 C 
HETATM    5  C18 UNL     1      28.643  43.423  29.980  1.00  0.00     0.009 C 
HETATM    6  C19 UNL     1      27.607  43.167  28.883  1.00  0.00     0.041 C 
ENDROOT
BRANCH   4   7
HETATM    7  C9  UNL     1      29.171  43.280  32.371  1.00  0.00     0.136 C 
BRANCH   7   8
HETATM    8  N4  UNL     1      28.750  42.988  33.687  1.00  0.00    -0.319 N 
ATOM      9  H4  UNL     1      27.808  42.644  33.870  1.00  0.00     0.172 HD
BRANCH   8  10
HETATM   10  S1  UNL     1      29.844  43.224  34.942  1.00  0.00     0.227 S 
HETATM   11  O2  UNL     1      31.202  42.735  34.491  1.00  0.00    -0.206 OA
HETATM   12  O3  UNL     1      29.460  42.222  36.039  1.00  0.00    -0.206 OA
BRANCH  10  13
HETATM   13  C10 UNL     1      29.877  44.783  35.691  1.00  0.00     0.172 C 
BRANCH  13  14
HETATM   14  C11 UNL     1      30.571  45.895  35.028  1.00  0.00    -0.026 C 
HETATM   15  C14 UNL     1      29.965  46.450  33.780  1.00  0.00     0.010 C 
HETATM   16  C15 UNL     1      31.077  47.336  33.187  1.00  0.00     0.001 C 
HETATM   17  C16 UNL     1      32.377  46.712  33.658  1.00  0.00     0.001 C 
HETATM   18  C17 UNL     1      31.989  45.579  34.591  1.00  0.00     0.010 C 
BRANCH  14  19
HETATM   19  C12 UNL     1      30.597  47.058  36.032  1.00  0.00     0.006 C 
HETATM   20  C13 UNL     1      31.651  46.906  37.076  1.00  0.00     0.006 C 
ENDBRANCH  14  19
ENDBRANCH  13  14
ENDBRANCH  10  13
ENDBRANCH   8  10
ENDBRANCH   7   8
ENDBRANCH   4   7
BRANCH   1  21
HETATM   21  C4  UNL     1      26.321  41.282  27.849  1.00  0.00     0.163 C 
BRANCH  21  22
HETATM   22  N2  UNL     1      26.692  41.851  26.600  1.00  0.00    -0.341 N 
HETATM   23  C3  UNL     1      27.546  41.119  25.728  1.00  0.00     0.316 C 
HETATM   24  N1  UNL     1      27.959  41.619  24.470  1.00  0.00    -0.344 N 
HETATM   25  O1  UNL     1      27.977  39.963  26.061  1.00  0.00    -0.247 OA
ATOM     26  H1  UNL     1      27.642  42.537  24.160  1.00  0.00     0.164 HD
ATOM     27  H2  UNL     1      26.348  42.773  26.332  1.00  0.00     0.164 HD
BRANCH  24  28
HETATM   28  C2  UNL     1      28.823  40.837  23.628  1.00  0.00     0.120 C 
HETATM   29  C1  UNL     1      29.918  41.703  23.051  1.00  0.00     0.026 C 
ENDBRANCH  24  28
ENDBRANCH  21  22
ENDBRANCH   1  21
BRANCH   1  30
HETATM   30  N3  UNL     1      28.371  40.910  29.007  1.00  0.00    -0.069 N 
ATOM     31  H33 UNL     1      28.389  40.239  29.775  1.00  0.00     0.275 HD
ATOM     32  H32 UNL     1      28.395  40.237  28.241  1.00  0.00     0.275 HD
ATOM     33  H31 UNL     1      29.176  41.538  29.009  1.00  0.00     0.275 HD
ENDBRANCH   1  30
TORSDOF 10
ENDMDL
MODEL 2
REMARK VINA RESULT: -7.904137875      1.941      2.638
REMARK  10 active torsions:
REMARK  status: ('A' for Active; 'I' for Inactive)
REMARK    1  A    between atoms: C2_2  and  N1_3 
REMARK       I    between atoms: N1_3  and  C3_5 
REMARK       I    between atoms: C3_5  and  N2_7 
REMARK    2  A    between atoms: N2_7  and  C4_9 
REMARK    3  A    between atoms: C4_9  and  C5_10 
REMARK    4  A    between atoms: C5_10  and  N3_11 
REMARK    5  A    between atoms: C8_17  and  C9_18 
REMARK    6  A    between atoms: C9_18  and  N4_19 
REMARK    7  A    between atoms: N4_19  and  S1_21 
REMARK    8  A    between atoms: S1_21  and  C10_24 
REMARK    9  A    between atoms: C10_24  and  C11_25 
REMARK   10  A    between atoms: C11_25  and  C12_26 
ROOT
HETATM    1  C5  UNL     1      27.057  41.259  29.151  1.00  0.00     0.139 C 
HETATM    2  C6  UNL     1      25.982  40.874  30.178  1.00  0.00     0.041 C 
HETATM    3  C7  UNL     1      26.708  40.868  31.530  1.00  0.00     0.009 C 
HETATM    4  C8  UNL     1      27.203  42.257  31.866  1.00  0.00     0.004 C 
HETATM    5  C18 UNL     1      28.098  42.753  30.779  1.00  0.00     0.009 C 
HETATM    6  C19 UNL     1      27.411  42.695  29.413  1.00  0.00     0.041 C 
ENDROOT
BRANCH   4   7
HETATM    7  C9  UNL     1      27.980  42.168  33.158  1.00  0.00     0.136 C 
BRANCH   7   8
HETATM    8  N4  UNL     1      28.862  43.250  33.372  1.00  0.00    -0.319 N 
ATOM      9  H4  UNL     1      28.947  43.999  32.686  1.00  0.00     0.172 HD
BRANCH   8  10
HETATM   10  S1  UNL     1      29.769  43.267  34.788  1.00  0.00     0.227 S 
HETATM   11  O2  UNL     1      31.095  42.594  34.516  1.00  0.00    -0.206 OA
HETATM   12  O3  UNL     1      29.075  42.296  35.753  1.00  0.00    -0.206 OA
BRANCH  10  13
HETATM   13  C10 UNL     1      29.910  44.774  35.627  1.00  0.00     0.172 C 
BRANCH  13  14
HETATM   14  C11 UNL     1      30.604  45.901  34.988  1.00  0.00    -0.026 C 
HETATM   15  C14 UNL     1      30.032  46.441  33.718  1.00  0.00     0.010 C 
HETATM   16  C15 UNL     1      31.145  47.351  33.166  1.00  0.00     0.001 C 
HETATM   17  C16 UNL     1      32.441  46.757  33.685  1.00  0.00     0.001 C 
HETATM   18  C17 UNL     1      32.044  45.616  34.605  1.00  0.00     0.010 C 
BRANCH  14  19
HETATM   19  C12 UNL     1      30.567  47.065  35.991  1.00  0.00     0.006 C 
HETATM   20  C13 UNL     1      31.617  46.962  37.044  1.00  0.00     0.006 C 
ENDBRANCH  14  19
ENDBRANCH  13  14
ENDBRANCH  10  13
ENDBRANCH   8  10
ENDBRANCH   7   8
ENDBRANCH   4   7
BRANCH   1  21
HETATM   21  C4  UNL     1      26.572  41.021  27.748  1.00  0.00     0.163 C 
BRANCH  21  22
HETATM   22  N2  UNL     1      25.898  42.134  27.175  1.00  0.00    -0.341 N 
HETATM   23  C3  UNL     1      24.489  42.071  26.982  1.00  0.00     0.316 C 
HETATM   24  N1  UNL     1      23.749  43.137  26.418  1.00  0.00    -0.344 N 
HETATM   25  O1  UNL     1      23.835  41.027  27.320  1.00  0.00    -0.247 OA
ATOM     26  H1  UNL     1      24.227  43.991  26.132  1.00  0.00     0.164 HD
ATOM     27  H2  UNL     1      26.419  42.969  26.906  1.00  0.00     0.164 HD
BRANCH  24  28
HETATM   28  C2  UNL     1      22.327  43.020  26.245  1.00  0.00     0.120 C 
HETATM   29  C1  UNL     1      21.993  42.763  24.795  1.00  0.00     0.026 C 
ENDBRANCH  24  28
ENDBRANCH  21  22
ENDBRANCH   1  21
BRANCH   1  30
HETATM   30  N3  UNL     1      28.260  40.466  29.337  1.00  0.00    -0.069 N 
ATOM     31  H33 UNL     1      28.128  39.482  29.105  1.00  0.00     0.275 HD
ATOM     32  H32 UNL     1      28.982  40.671  28.646  1.00  0.00     0.275 HD
ATOM     33  H31 UNL     1      28.577  40.610  30.296  1.00  0.00     0.275 HD
ENDBRANCH   1  30
TORSDOF 10
ENDMDL
MODEL 3
REMARK VINA RESULT: -7.892094649      3.273      9.540
REMARK  10 active torsions:
REMARK  status: ('A' for Active; 'I' for Inactive)
REMARK    1  A    between atoms: C2_2  and  N1_3 
REMARK       I    between atoms: N1_3  and  C3_5 
REMARK       I    between atoms: C3_5  and  N2_7 
REMARK    2  A    between atoms: N2_7  and  C4_9 
REMARK    3  A    between atoms: C4_9  and  C5_10 
REMARK    4  A    between atoms: C5_10  and  N3_11 
REMARK    5  A    between atoms: C8_17  and  C9_18 
REMARK    6  A    between atoms: C9_18  and  N4_19 
REMARK    7  A    between atoms: N4_19  and  S1_21 
REMARK    8  A    between atoms: S1_21  and  C10_24 
REMARK    9  A    between atoms: C10_24  and  C11_25 
REMARK   10  A    between atoms: C11_25  and  C12_26 
ROOT
HETATM    1  C5  UNL     1      27.755  42.164  30.100  1.00  0.00     0.139 C 
HETATM    2  C6  UNL     1      28.161  43.280  29.127  1.00  0.00     0.041 C 
HETATM    3  C7  UNL     1      28.358  42.578  27.776  1.00  0.00     0.009 C 
HETATM    4  C8  UNL     1      27.052  41.986  27.296  1.00  0.00     0.004 C 
HETATM    5  C18 UNL     1      26.516  41.040  28.320  1.00  0.00     0.009 C 
HETATM    6  C19 UNL     1      26.384  41.709  29.691  1.00  0.00     0.041 C 
ENDROOT
BRANCH   4   7
HETATM    7  C9  UNL     1      27.329  41.237  26.014  1.00  0.00     0.136 C 
BRANCH   7   8
HETATM    8  N4  UNL     1      28.250  41.883  25.161  1.00  0.00    -0.319 N 
ATOM      9  H4  UNL     1      28.495  42.863  25.300  1.00  0.00     0.172 HD
BRANCH   8  10
HETATM   10  S1  UNL     1      28.932  40.991  23.909  1.00  0.00     0.227 S 
HETATM   11  O2  UNL     1      30.260  41.617  23.543  1.00  0.00    -0.206 OA
HETATM   12  O3  UNL     1      28.067  41.259  22.670  1.00  0.00    -0.206 OA
BRANCH  10  13
HETATM   13  C10 UNL     1      29.000  39.272  24.097  1.00  0.00     0.172 C 
BRANCH  13  14
HETATM   14  C11 UNL     1      30.143  38.659  24.785  1.00  0.00    -0.026 C 
HETATM   15  C14 UNL     1      30.789  39.433  25.888  1.00  0.00     0.010 C 
HETATM   16  C15 UNL     1      32.105  38.678  26.153  1.00  0.00     0.001 C 
HETATM   17  C16 UNL     1      32.471  38.039  24.827  1.00  0.00     0.001 C 
HETATM   18  C17 UNL     1      31.318  38.332  23.883  1.00  0.00     0.010 C 
BRANCH  14  19
HETATM   19  C12 UNL     1      29.624  37.365  25.432  1.00  0.00     0.006 C 
HETATM   20  C13 UNL     1      28.602  37.610  26.490  1.00  0.00     0.006 C 
ENDBRANCH  14  19
ENDBRANCH  13  14
ENDBRANCH  10  13
ENDBRANCH   8  10
ENDBRANCH   7   8
ENDBRANCH   4   7
BRANCH   1  21
HETATM   21  C4  UNL     1      27.812  42.644  31.524  1.00  0.00     0.163 C 
BRANCH  21  22
HETATM   22  N2  UNL     1      28.548  43.848  31.697  1.00  0.00    -0.341 N 
HETATM   23  C3  UNL     1      29.499  43.938  32.752  1.00  0.00     0.316 C 
HETATM   24  N1  UNL     1      30.268  45.102  32.988  1.00  0.00    -0.344 N 
HETATM   25  O1  UNL     1      29.691  42.948  33.537  1.00  0.00    -0.247 OA
ATOM     26  H1  UNL     1      30.149  45.918  32.389  1.00  0.00     0.164 HD
ATOM     27  H2  UNL     1      28.397  44.639  31.070  1.00  0.00     0.164 HD
BRANCH  24  28
HETATM   28  C2  UNL     1      31.214  45.138  34.069  1.00  0.00     0.120 C 
HETATM   29  C1  UNL     1      32.172  46.292  33.890  1.00  0.00     0.026 C 
ENDBRANCH  24  28
ENDBRANCH  21  22
ENDBRANCH   1  21
BRANCH   1  30
HETATM   30  N3  UNL     1      28.651  41.026  29.987  1.00  0.00    -0.069 N 
ATOM     31  H33 UNL     1      28.809  40.554  30.878  1.00  0.00     0.275 HD
ATOM     32  H32 UNL     1      28.233  40.238  29.492  1.00  0.00     0.275 HD
ATOM     33  H31 UNL     1      29.513  41.356  29.554  1.00  0.00     0.275 HD
ENDBRANCH   1  30
TORSDOF 10
ENDMDL
MODEL 4
REMARK VINA RESULT: -7.812258250      2.953      9.351
REMARK  10 active torsions:
REMARK  status: ('A' for Active; 'I' for Inactive)
REMARK    1  A    between atoms: C2_2  and  N1_3 
REMARK       I    between atoms: N1_3  and  C3_5 
REMARK       I    between atoms: C3_5  and  N2_7 
REMARK    2  A    between atoms: N2_7  and  C4_9 
REMARK    3  A    between atoms: C4_9  and  C5_10 
REMARK    4  A    between atoms: C5_10  and  N3_11 
REMARK    5  A    between atoms: C8_17  and  C9_18 
REMARK    6  A    between atoms: C9_18  and  N4_19 
REMARK    7  A    between atoms: N4_19  and  S1_21 
REMARK    8  A    between atoms: S1_21  and  C10_24 
REMARK    9  A    between atoms: C10_24  and  C11_25 
REMARK   10  A    between atoms: C11_25  and  C12_26 
ROOT
HETATM    1  C5  UNL     1      27.538  41.592  29.487  1.00  0.00     0.139 C 
HETATM    2  C6  UNL     1      27.166  42.821  28.646  1.00  0.00     0.041 C 
HETATM    3  C7  UNL     1      26.434  42.257  27.420  1.00  0.00     0.009 C 
HETATM    4  C8  UNL     1      25.154  41.571  27.843  1.00  0.00     0.004 C 
HETATM    5  C18 UNL     1      25.459  40.492  28.830  1.00  0.00     0.009 C 
HETATM    6  C19 UNL     1      26.254  41.028  30.023  1.00  0.00     0.041 C 
ENDROOT
BRANCH   4   7
HETATM    7  C9  UNL     1      24.528  40.964  26.610  1.00  0.00     0.136 C 
BRANCH   7   8
HETATM    8  N4  UNL     1      25.322  41.079  25.448  1.00  0.00    -0.319 N 
ATOM      9  H4  UNL     1      25.474  41.985  25.006  1.00  0.00     0.172 HD
BRANCH   8  10
HETATM   10  S1  UNL     1      26.009  39.681  24.814  1.00  0.00     0.227 S 
HETATM   11  O2  UNL     1      25.816  39.691  23.314  1.00  0.00    -0.206 OA
HETATM   12  O3  UNL     1      25.118  38.519  25.272  1.00  0.00    -0.206 OA
BRANCH  10  13
HETATM   13  C10 UNL     1      27.620  39.287  25.308  1.00  0.00     0.172 C 
BRANCH  13  14
HETATM   14  C11 UNL     1      28.756  40.029  24.745  1.00  0.00    -0.026 C 
HETATM   15  C14 UNL     1      28.552  41.472  24.415  1.00  0.00     0.010 C 
HETATM   16  C15 UNL     1      29.784  41.840  23.568  1.00  0.00     0.001 C 
HETATM   17  C16 UNL     1      30.197  40.550  22.885  1.00  0.00     0.001 C 
HETATM   18  C17 UNL     1      29.288  39.467  23.440  1.00  0.00     0.010 C 
BRANCH  14  19
HETATM   19  C12 UNL     1      29.870  39.997  25.803  1.00  0.00     0.006 C 
HETATM   20  C13 UNL     1      30.277  38.613  26.180  1.00  0.00     0.006 C 
ENDBRANCH  14  19
ENDBRANCH  13  14
ENDBRANCH  10  13
ENDBRANCH   8  10
ENDBRANCH   7   8
ENDBRANCH   4   7
BRANCH   1  21
HETATM   21  C4  UNL     1      28.514  41.957  30.571  1.00  0.00     0.163 C 
BRANCH  21  22
HETATM   22  N2  UNL     1      28.161  43.129  31.294  1.00  0.00    -0.341 N 
HETATM   23  C3  UNL     1      29.150  43.791  32.075  1.00  0.00     0.316 C 
HETATM   24  N1  UNL     1      28.875  44.960  32.822  1.00  0.00    -0.344 N 
HETATM   25  O1  UNL     1      30.345  43.339  32.126  1.00  0.00    -0.247 OA
ATOM     26  H1  UNL     1      27.936  45.358  32.813  1.00  0.00     0.164 HD
ATOM     27  H2  UNL     1      27.208  43.492  31.254  1.00  0.00     0.164 HD
BRANCH  24  28
HETATM   28  C2  UNL     1      29.912  45.588  33.594  1.00  0.00     0.120 C 
HETATM   29  C1  UNL     1      29.313  46.532  34.610  1.00  0.00     0.026 C 
ENDBRANCH  24  28
ENDBRANCH  21  22
ENDBRANCH   1  21
BRANCH   1  30
HETATM   30  N3  UNL     1      28.161  40.569  28.666  1.00  0.00    -0.069 N 
ATOM     31  H33 UNL     1      28.780  40.954  27.952  1.00  0.00     0.275 HD
ATOM     32  H32 UNL     1      28.861  40.025  29.170  1.00  0.00     0.275 HD
ATOM     33  H31 UNL     1      27.414  39.993  28.276  1.00  0.00     0.275 HD
ENDBRANCH   1  30
TORSDOF 10
ENDMDL
MODEL 5
REMARK VINA RESULT: -7.808591134      3.416      9.421
REMARK  10 active torsions:
REMARK  status: ('A' for Active; 'I' for Inactive)
REMARK    1  A    between atoms: C2_2  and  N1_3 
REMARK       I    between atoms: N1_3  and  C3_5 
REMARK       I    between atoms: C3_5  and  N2_7 
REMARK    2  A    between atoms: N2_7  and  C4_9 
REMARK    3  A    between atoms: C4_9  and  C5_10 
REMARK    4  A    between atoms: C5_10  and  N3_11 
REMARK    5  A    between atoms: C8_17  and  C9_18 
REMARK    6  A    between atoms: C9_18  and  N4_19 
REMARK    7  A    between atoms: N4_19  and  S1_21 
REMARK    8  A    between atoms: S1_21  and  C10_24 
REMARK    9  A    between atoms: C10_24  and  C11_25 
REMARK   10  A    between atoms: C11_25  and  C12_26 
ROOT
HETATM    1  C5  UNL     1      27.586  41.547  30.146  1.00  0.00     0.139 C 
HETATM    2  C6  UNL     1      28.143  42.727  29.338  1.00  0.00     0.041 C 
HETATM    3  C7  UNL     1      28.366  42.172  27.925  1.00  0.00     0.009 C 
HETATM    4  C8  UNL     1      27.049  41.759  27.309  1.00  0.00     0.004 C 
HETATM    5  C18 UNL     1      26.373  40.753  28.181  1.00  0.00     0.009 C 
HETATM    6  C19 UNL     1      26.211  41.267  29.613  1.00  0.00     0.041 C 
ENDROOT
BRANCH   4   7
HETATM    7  C9  UNL     1      27.343  41.143  25.962  1.00  0.00     0.136 C 
BRANCH   7   8
HETATM    8  N4  UNL     1      28.628  41.443  25.462  1.00  0.00    -0.319 N 
ATOM      9  H4  UNL     1      29.187  42.192  25.870  1.00  0.00     0.172 HD
BRANCH   8  10
HETATM   10  S1  UNL     1      29.213  40.532  24.175  1.00  0.00     0.227 S 
HETATM   11  O2  UNL     1      30.472  41.190  23.656  1.00  0.00    -0.206 OA
HETATM   12  O3  UNL     1      28.217  40.727  23.024  1.00  0.00    -0.206 OA
BRANCH  10  13
HETATM   13  C10 UNL     1      29.364  38.824  24.409  1.00  0.00     0.172 C 
BRANCH  13  14
HETATM   14  C11 UNL     1      30.313  38.306  25.402  1.00  0.00    -0.026 C 
HETATM   15  C14 UNL     1      31.609  39.030  25.572  1.00  0.00     0.010 C 
HETATM   16  C15 UNL     1      32.468  38.066  26.412  1.00  0.00     0.001 C 
HETATM   17  C16 UNL     1      31.960  36.679  26.070  1.00  0.00     0.001 C 
HETATM   18  C17 UNL     1      30.764  36.879  25.155  1.00  0.00     0.010 C 
BRANCH  14  19
HETATM   19  C12 UNL     1      29.610  38.386  26.766  1.00  0.00     0.006 C 
HETATM   20  C13 UNL     1      28.366  37.566  26.831  1.00  0.00     0.006 C 
ENDBRANCH  14  19
ENDBRANCH  13  14
ENDBRANCH  10  13
ENDBRANCH   8  10
ENDBRANCH   7   8
ENDBRANCH   4   7
BRANCH   1  21
HETATM   21  C4  UNL     1      27.593  41.851  31.619  1.00  0.00     0.163 C 
BRANCH  21  22
HETATM   22  N2  UNL     1      27.634  43.240  31.920  1.00  0.00    -0.341 N 
HETATM   23  C3  UNL     1      28.737  43.762  32.653  1.00  0.00     0.316 C 
HETATM   24  N1  UNL     1      28.847  45.131  32.991  1.00  0.00    -0.344 N 
HETATM   25  O1  UNL     1      29.682  42.992  33.038  1.00  0.00    -0.247 OA
ATOM     26  H1  UNL     1      28.118  45.785  32.707  1.00  0.00     0.164 HD
ATOM     27  H2  UNL     1      26.881  43.857  31.613  1.00  0.00     0.164 HD
BRANCH  24  28
HETATM   28  C2  UNL     1      29.983  45.605  33.734  1.00  0.00     0.120 C 
HETATM   29  C1  UNL     1      29.576  46.728  34.658  1.00  0.00     0.026 C 
ENDBRANCH  24  28
ENDBRANCH  21  22
ENDBRANCH   1  21
BRANCH   1  30
HETATM   30  N3  UNL     1      28.390  40.354  29.944  1.00  0.00    -0.069 N 
ATOM     31  H33 UNL     1      29.229  40.336  30.524  1.00  0.00     0.275 HD
ATOM     32  H32 UNL     1      27.952  39.511  30.317  1.00  0.00     0.275 HD
ATOM     33  H31 UNL     1      28.594  40.288  28.946  1.00  0.00     0.275 HD
ENDBRANCH   1  30
TORSDOF 10
ENDMDL
