MODEL 1
REMARK VINA RESULT: -4.809891247      0.000      0.000
REMARK  2 active torsions:
REMARK  status: ('A' for Active; 'I' for Inactive)
REMARK    1  A    between atoms: N2_4  and  C2_5 
REMARK    2  A    between atoms: C2_5  and  C3_6 
ROOT
HETATM    1  C1  UNL     1      30.529  24.570  68.453  1.00  0.00     0.198 A 
HETATM    2  N1  UNL     1      29.618  24.803  69.428  1.00  0.00    -0.293 N 
ATOM      3  H1  UNL     1      29.703  25.526  70.143  1.00  0.00     0.188 HD
HETATM    4  N2  UNL     1      28.603  23.960  69.320  1.00  0.00    -0.286 N 
HETATM    5  C6  UNL     1      28.893  23.189  68.257  1.00  0.00     0.201 A 
HETATM    6  N3  UNL     1      30.072  23.554  67.718  1.00  0.00    -0.346 N 
ATOM      7  H3  UNL     1      30.526  23.136  66.906  1.00  0.00     0.167 HD
ENDROOT
BRANCH   4   8
HETATM    8  C2  UNL     1      27.421  23.885  70.177  1.00  0.00     0.154 C 
BRANCH   8   9
HETATM    9  C3  UNL     1      27.709  23.235  71.486  1.00  0.00     0.005 A 
HETATM   10  C4  UNL     1      27.162  23.775  72.760  1.00  0.00     0.007 A 
HETATM   11  C5  UNL     1      26.535  22.574  72.165  1.00  0.00     0.007 A 
ENDBRANCH   8   9
ENDBRANCH   4   8
TORSDOF 2
ENDMDL
MODEL 2
REMARK VINA RESULT: -4.697157556      0.904      1.306
REMARK  2 active torsions:
REMARK  status: ('A' for Active; 'I' for Inactive)
REMARK    1  A    between atoms: N2_4  and  C2_5 
REMARK    2  A    between atoms: C2_5  and  C3_6 
ROOT
HETATM    1  C1  UNL     1      29.257  23.562  67.740  1.00  0.00     0.198 A 
HETATM    2  N1  UNL     1      28.207  23.388  68.577  1.00  0.00    -0.293 N 
ATOM      3  H1  UNL     1      27.392  22.806  68.377  1.00  0.00     0.188 HD
HETATM    4  N2  UNL     1      28.387  24.080  69.692  1.00  0.00    -0.286 N 
HETATM    5  C6  UNL     1      29.574  24.695  69.539  1.00  0.00     0.201 A 
HETATM    6  N3  UNL     1      30.116  24.384  68.346  1.00  0.00    -0.346 N 
ATOM      7  H3  UNL     1      31.008  24.713  67.978  1.00  0.00     0.167 HD
ENDROOT
BRANCH   4   8
HETATM    8  C2  UNL     1      27.486  24.158  70.840  1.00  0.00     0.154 C 
BRANCH   8   9
HETATM    9  C3  UNL     1      27.442  22.887  71.615  1.00  0.00     0.005 A 
HETATM   10  C4  UNL     1      27.250  22.881  73.090  1.00  0.00     0.007 A 
HETATM   11  C5  UNL     1      26.108  22.530  72.219  1.00  0.00     0.007 A 
ENDBRANCH   8   9
ENDBRANCH   4   8
TORSDOF 2
ENDMDL
MODEL 3
REMARK VINA RESULT: -4.528409606      2.412      4.650
REMARK  2 active torsions:
REMARK  status: ('A' for Active; 'I' for Inactive)
REMARK    1  A    between atoms: N2_4  and  C2_5 
REMARK    2  A    between atoms: C2_5  and  C3_6 
ROOT
HETATM    1  C1  UNL     1      27.160  21.914  73.452  1.00  0.00     0.198 A 
HETATM    2  N1  UNL     1      27.244  22.094  72.113  1.00  0.00    -0.293 N 
ATOM      3  H1  UNL     1      27.245  21.342  71.423  1.00  0.00     0.188 HD
HETATM    4  N2  UNL     1      27.325  23.384  71.826  1.00  0.00    -0.286 N 
HETATM    5  C6  UNL     1      27.292  24.014  73.014  1.00  0.00     0.201 A 
HETATM    6  N3  UNL     1      27.191  23.123  74.018  1.00  0.00    -0.346 N 
ATOM      7  H3  UNL     1      27.146  23.331  75.015  1.00  0.00     0.167 HD
ENDROOT
BRANCH   4   8
HETATM    8  C2  UNL     1      27.431  23.990  70.500  1.00  0.00     0.154 C 
BRANCH   8   9
HETATM    9  C3  UNL     1      28.617  23.502  69.745  1.00  0.00     0.005 A 
HETATM   10  C4  UNL     1      28.673  23.558  68.259  1.00  0.00     0.007 A 
HETATM   11  C5  UNL     1      29.431  24.559  69.041  1.00  0.00     0.007 A 
ENDBRANCH   8   9
ENDBRANCH   4   8
TORSDOF 2
ENDMDL
MODEL 4
REMARK VINA RESULT: -4.435732288      2.429      4.510
REMARK  2 active torsions:
REMARK  status: ('A' for Active; 'I' for Inactive)
REMARK    1  A    between atoms: N2_4  and  C2_5 
REMARK    2  A    between atoms: C2_5  and  C3_6 
ROOT
HETATM    1  C1  UNL     1      27.180  23.178  74.001  1.00  0.00     0.198 A 
HETATM    2  N1  UNL     1      27.277  24.043  72.964  1.00  0.00    -0.293 N 
ATOM      3  H1  UNL     1      27.328  25.058  73.056  1.00  0.00     0.188 HD
HETATM    4  N2  UNL     1      27.296  23.385  71.815  1.00  0.00    -0.286 N 
HETATM    5  C6  UNL     1      27.207  22.085  72.150  1.00  0.00     0.201 A 
HETATM    6  N3  UNL     1      27.136  21.946  73.488  1.00  0.00    -0.346 N 
ATOM      7  H3  UNL     1      27.062  21.072  74.007  1.00  0.00     0.167 HD
ENDROOT
BRANCH   4   8
HETATM    8  C2  UNL     1      27.390  23.953  70.472  1.00  0.00     0.154 C 
BRANCH   8   9
HETATM    9  C3  UNL     1      28.620  23.515  69.755  1.00  0.00     0.005 A 
HETATM   10  C4  UNL     1      28.705  23.537  68.270  1.00  0.00     0.007 A 
HETATM   11  C5  UNL     1      29.387  24.600  69.041  1.00  0.00     0.007 A 
ENDBRANCH   8   9
ENDBRANCH   4   8
TORSDOF 2
ENDMDL
MODEL 5
REMARK VINA RESULT: -4.340155356      0.968      1.170
REMARK  2 active torsions:
REMARK  status: ('A' for Active; 'I' for Inactive)
REMARK    1  A    between atoms: N2_4  and  C2_5 
REMARK    2  A    between atoms: C2_5  and  C3_6 
ROOT
HETATM    1  C1  UNL     1      30.416  24.078  67.166  1.00  0.00     0.198 A 
HETATM    2  N1  UNL     1      30.250  24.604  68.402  1.00  0.00    -0.293 N 
ATOM      3  H1  UNL     1      30.903  25.244  68.856  1.00  0.00     0.188 HD
HETATM    4  N2  UNL     1      29.119  24.170  68.939  1.00  0.00    -0.286 N 
HETATM    5  C6  UNL     1      28.577  23.358  68.014  1.00  0.00     0.201 A 
HETATM    6  N3  UNL     1      29.364  23.294  66.923  1.00  0.00    -0.346 N 
ATOM      7  H3  UNL     1      29.189  22.752  66.077  1.00  0.00     0.167 HD
ENDROOT
BRANCH   4   8
HETATM    8  C2  UNL     1      28.581  24.504  70.256  1.00  0.00     0.154 C 
BRANCH   8   9
HETATM    9  C3  UNL     1      27.430  23.639  70.635  1.00  0.00     0.005 A 
HETATM   10  C4  UNL     1      27.533  22.641  71.734  1.00  0.00     0.007 A 
HETATM   11  C5  UNL     1      26.818  23.912  71.986  1.00  0.00     0.007 A 
ENDBRANCH   8   9
ENDBRANCH   4   8
TORSDOF 2
ENDMDL
