MODEL 1
REMARK VINA RESULT: -5.113409316      0.000      0.000
REMARK  3 active torsions:
REMARK  status: ('A' for Active; 'I' for Inactive)
REMARK    1  A    between atoms: C2_2  and  C3_3 
REMARK    2  A    between atoms: N1_5  and  C5_6 
REMARK    3  A    between atoms: N2_7  and  N3_9 
ROOT
HETATM    1  C5  UNL     1      28.092  24.127  70.703  1.00  0.00     0.196 C 
HETATM    2  N2  UNL     1      27.839  23.595  69.563  1.00  0.00    -0.282 N 
ATOM      3  H2  UNL     1      27.136  22.860  69.487  1.00  0.00     0.189 HD
ENDROOT
BRANCH   1   4
HETATM    4  N1  UNL     1      27.392  23.691  71.862  1.00  0.00    -0.375 N 
HETATM    5  C4  UNL     1      26.624  22.500  72.158  1.00  0.00     0.133 A 
HETATM    6  C3  UNL     1      26.253  23.081  73.512  1.00  0.00     0.043 A 
HETATM    7  C6  UNL     1      27.163  24.240  73.182  1.00  0.00     0.133 A 
BRANCH   6   8
HETATM    8  C2  UNL     1      24.802  23.406  73.542  1.00  0.00    -0.029 C 
HETATM    9  C1  UNL     1      23.941  22.417  73.601  1.00  0.00     0.007 C 
ENDBRANCH   6   8
ENDBRANCH   1   4
BRANCH   2  10
HETATM   10  N3  UNL     1      28.525  24.022  68.425  1.00  0.00    -0.248 N 
HETATM   11  N4  UNL     1      29.284  23.224  67.779  1.00  0.00    -0.331 N 
ATOM     12  H42 UNL     1      29.379  22.265  68.112  1.00  0.00     0.178 HD
ATOM     13  H41 UNL     1      29.785  23.536  66.947  1.00  0.00     0.178 HD
ATOM     14  H3  UNL     1      28.419  24.985  68.106  1.00  0.00     0.207 HD
ENDBRANCH   2  10
TORSDOF 3
ENDMDL
MODEL 2
REMARK VINA RESULT: -4.990638374     11.003     11.560
REMARK  3 active torsions:
REMARK  status: ('A' for Active; 'I' for Inactive)
REMARK    1  A    between atoms: C2_2  and  C3_3 
REMARK    2  A    between atoms: N1_5  and  C5_6 
REMARK    3  A    between atoms: N2_7  and  N3_9 
ROOT
HETATM    1  C5  UNL     1      18.034  19.631  77.698  1.00  0.00     0.196 C 
HETATM    2  N2  UNL     1      18.845  19.238  76.784  1.00  0.00    -0.282 N 
ATOM      3  H2  UNL     1      19.151  19.888  76.059  1.00  0.00     0.189 HD
ENDROOT
BRANCH   1   4
HETATM    4  N1  UNL     1      17.562  20.973  77.701  1.00  0.00    -0.375 N 
HETATM    5  C4  UNL     1      17.101  21.858  76.651  1.00  0.00     0.133 A 
HETATM    6  C3  UNL     1      16.979  22.986  77.660  1.00  0.00     0.043 A 
HETATM    7  C6  UNL     1      17.355  21.979  78.721  1.00  0.00     0.133 A 
BRANCH   6   8
HETATM    8  C2  UNL     1      18.006  24.025  77.383  1.00  0.00    -0.029 C 
HETATM    9  C1  UNL     1      17.661  25.288  77.484  1.00  0.00     0.007 C 
ENDBRANCH   6   8
ENDBRANCH   1   4
BRANCH   2  10
HETATM   10  N3  UNL     1      19.308  17.922  76.780  1.00  0.00    -0.248 N 
HETATM   11  N4  UNL     1      18.853  17.069  75.946  1.00  0.00    -0.331 N 
ATOM     12  H42 UNL     1      18.140  17.370  75.281  1.00  0.00     0.178 HD
ATOM     13  H41 UNL     1      19.192  16.107  75.943  1.00  0.00     0.178 HD
ATOM     14  H3  UNL     1      20.020  17.638  77.452  1.00  0.00     0.207 HD
ENDBRANCH   2  10
TORSDOF 3
ENDMDL
MODEL 3
REMARK VINA RESULT: -4.643688262     11.168     11.649
REMARK  3 active torsions:
REMARK  status: ('A' for Active; 'I' for Inactive)
REMARK    1  A    between atoms: C2_2  and  C3_3 
REMARK    2  A    between atoms: N1_5  and  C5_6 
REMARK    3  A    between atoms: N2_7  and  N3_9 
ROOT
HETATM    1  C5  UNL     1      18.088  22.402  78.321  1.00  0.00     0.196 C 
HETATM    2  N2  UNL     1      18.346  23.332  77.475  1.00  0.00    -0.282 N 
ATOM      3  H2  UNL     1      18.387  23.117  76.478  1.00  0.00     0.189 HD
ENDROOT
BRANCH   1   4
HETATM    4  N1  UNL     1      17.859  21.072  77.870  1.00  0.00    -0.375 N 
HETATM    5  C4  UNL     1      17.774  19.800  78.557  1.00  0.00     0.133 A 
HETATM    6  C3  UNL     1      17.646  19.092  77.219  1.00  0.00     0.043 A 
HETATM    7  C6  UNL     1      17.626  20.459  76.579  1.00  0.00     0.133 A 
BRANCH   6   8
HETATM    8  C2  UNL     1      18.868  18.288  76.954  1.00  0.00    -0.029 C 
HETATM    9  C1  UNL     1      18.738  17.138  76.334  1.00  0.00     0.007 C 
ENDBRANCH   6   8
ENDBRANCH   1   4
BRANCH   2  10
HETATM   10  N3  UNL     1      18.570  24.636  77.916  1.00  0.00    -0.248 N 
HETATM   11  N4  UNL     1      18.977  24.865  79.104  1.00  0.00    -0.331 N 
ATOM     12  H42 UNL     1      19.136  24.073  79.727  1.00  0.00     0.178 HD
ATOM     13  H41 UNL     1      19.141  25.819  79.428  1.00  0.00     0.178 HD
ATOM     14  H3  UNL     1      18.406  25.416  77.281  1.00  0.00     0.207 HD
ENDBRANCH   2  10
TORSDOF 3
ENDMDL
MODEL 4
REMARK VINA RESULT: -4.468438895      2.688      5.715
REMARK  3 active torsions:
REMARK  status: ('A' for Active; 'I' for Inactive)
REMARK    1  A    between atoms: C2_2  and  C3_3 
REMARK    2  A    between atoms: N1_5  and  C5_6 
REMARK    3  A    between atoms: N2_7  and  N3_9 
ROOT
HETATM    1  C5  UNL     1      27.743  23.626  71.008  1.00  0.00     0.196 C 
HETATM    2  N2  UNL     1      26.463  23.617  71.106  1.00  0.00    -0.282 N 
ATOM      3  H2  UNL     1      25.888  23.845  70.295  1.00  0.00     0.189 HD
ENDROOT
BRANCH   1   4
HETATM    4  N1  UNL     1      28.359  23.954  69.768  1.00  0.00    -0.375 N 
HETATM    5  C4  UNL     1      28.102  23.546  68.403  1.00  0.00     0.133 A 
HETATM    6  C3  UNL     1      29.323  24.324  67.945  1.00  0.00     0.043 A 
HETATM    7  C6  UNL     1      29.463  24.802  69.371  1.00  0.00     0.133 A 
BRANCH   6   8
HETATM    8  C2  UNL     1      30.379  23.384  67.487  1.00  0.00    -0.029 C 
HETATM    9  C1  UNL     1      30.955  23.605  66.328  1.00  0.00     0.007 C 
ENDBRANCH   6   8
ENDBRANCH   1   4
BRANCH   2  10
HETATM   10  N3  UNL     1      25.858  23.296  72.321  1.00  0.00    -0.248 N 
HETATM   11  N4  UNL     1      25.876  24.115  73.300  1.00  0.00    -0.331 N 
ATOM     12  H42 UNL     1      26.343  25.013  73.175  1.00  0.00     0.178 HD
ATOM     13  H41 UNL     1      25.433  23.881  74.189  1.00  0.00     0.178 HD
ATOM     14  H3  UNL     1      25.395  22.394  72.429  1.00  0.00     0.207 HD
ENDBRANCH   2  10
TORSDOF 3
ENDMDL
MODEL 5
REMARK VINA RESULT: -4.301761710      1.086      1.749
REMARK  3 active torsions:
REMARK  status: ('A' for Active; 'I' for Inactive)
REMARK    1  A    between atoms: C2_2  and  C3_3 
REMARK    2  A    between atoms: N1_5  and  C5_6 
REMARK    3  A    between atoms: N2_7  and  N3_9 
ROOT
HETATM    1  C5  UNL     1      28.166  24.297  70.384  1.00  0.00     0.196 C 
HETATM    2  N2  UNL     1      28.154  23.593  69.311  1.00  0.00    -0.282 N 
ATOM      3  H2  UNL     1      27.622  22.723  69.276  1.00  0.00     0.189 HD
ENDROOT
BRANCH   1   4
HETATM    4  N1  UNL     1      27.436  23.864  71.526  1.00  0.00    -0.375 N 
HETATM    5  C4  UNL     1      27.415  24.303  72.906  1.00  0.00     0.133 A 
HETATM    6  C3  UNL     1      26.465  23.169  73.247  1.00  0.00     0.043 A 
HETATM    7  C6  UNL     1      26.444  22.839  71.774  1.00  0.00     0.133 A 
BRANCH   6   8
HETATM    8  C2  UNL     1      27.155  22.173  74.109  1.00  0.00    -0.029 C 
HETATM    9  C1  UNL     1      27.210  20.925  73.702  1.00  0.00     0.007 C 
ENDBRANCH   6   8
ENDBRANCH   1   4
BRANCH   2  10
HETATM   10  N3  UNL     1      28.870  24.016  68.190  1.00  0.00    -0.248 N 
HETATM   11  N4  UNL     1      30.018  23.528  67.922  1.00  0.00    -0.331 N 
ATOM     12  H42 UNL     1      30.404  22.819  68.546  1.00  0.00     0.178 HD
ATOM     13  H41 UNL     1      30.541  23.837  67.102  1.00  0.00     0.178 HD
ATOM     14  H3  UNL     1      28.469  24.726  67.577  1.00  0.00     0.207 HD
ENDBRANCH   2  10
TORSDOF 3
ENDMDL
