MODEL 1
REMARK VINA RESULT: -9.723075595      0.000      0.000
REMARK  11 active torsions:
REMARK  status: ('A' for Active; 'I' for Inactive)
REMARK    1  A    between atoms: C4_4  and  C5_5 
REMARK    2  A    between atoms: C7_7  and  O1_8 
REMARK    3  A    between atoms: C9_11  and  O2_12 
REMARK    4  A    between atoms: C13_17  and  C14_18 
REMARK    5  A    between atoms: C14_18  and  C15_19 
REMARK    6  A    between atoms: C16_20  and  C17_21 
REMARK    7  A    between atoms: N1_23  and  C19_24 
REMARK    8  A    between atoms: C22_27  and  O3_28 
REMARK    9  A    between atoms: C25_34  and  C26_35 
REMARK   10  A    between atoms: C26_35  and  O4_36 
REMARK   11  A    between atoms: C28_39  and  O5_40 
ROOT
HETATM    1  C5  UNL     1       4.555  44.013  15.865  1.00  0.00    -0.003 C 
HETATM    2  C6  UNL     1       3.903  44.998  16.907  1.00  0.00     0.037 C 
HETATM    3  C7  UNL     1       2.904  44.317  17.758  1.00  0.00     0.125 C 
HETATM    4  C8  UNL     1       3.591  43.241  18.536  1.00  0.00     0.048 C 
HETATM    5  C9  UNL     1       2.669  42.321  19.292  1.00  0.00     0.125 C 
HETATM    6  C10 UNL     1       3.528  41.087  19.454  1.00  0.00     0.032 C 
HETATM    7  C11 UNL     1       4.606  41.170  18.358  1.00  0.00     0.008 C 
HETATM    8  C12 UNL     1       4.119  42.258  17.465  1.00  0.00    -0.001 C 
HETATM    9  C13 UNL     1       5.232  43.004  16.713  1.00  0.00    -0.002 C 
ENDROOT
BRANCH   9  10
HETATM   10  C14 UNL     1       6.085  41.954  16.123  1.00  0.00     0.032 C 
BRANCH  10  11
HETATM   11  C15 UNL     1       7.533  42.071  16.316  1.00  0.00    -0.025 C 
HETATM   12  C16 UNL     1       8.531  41.611  16.915  1.00  0.00     0.011 C 
BRANCH  12  13
HETATM   13  C17 UNL     1       9.148  40.731  17.792  1.00  0.00     0.007 A 
HETATM   14  C18 UNL     1      10.227  40.986  18.577  1.00  0.00     0.124 A 
HETATM   15  N1  UNL     1      10.689  39.873  19.136  1.00  0.00    -0.297 N 
HETATM   16  N2  UNL     1       9.887  39.093  18.662  1.00  0.00    -0.300 N 
HETATM   17  C25 UNL     1       8.928  39.050  17.931  1.00  0.00     0.061 A 
ATOM     18  H2  UNL     1      10.096  38.153  18.996  1.00  0.00     0.187 HD
BRANCH  15  19
HETATM   19  C19 UNL     1      11.860  39.746  20.022  1.00  0.00     0.107 C 
HETATM   20  C20 UNL     1      13.000  40.470  19.361  1.00  0.00     0.030 C 
HETATM   21  C21 UNL     1      14.339  39.843  19.650  1.00  0.00     0.034 C 
HETATM   22  C22 UNL     1      14.393  38.510  18.944  1.00  0.00     0.118 C 
HETATM   23  C23 UNL     1      13.064  37.789  19.034  1.00  0.00     0.034 C 
HETATM   24  C24 UNL     1      12.241  38.306  20.196  1.00  0.00     0.030 C 
BRANCH  22  25
HETATM   25  O3  UNL     1      15.418  37.754  19.505  1.00  0.00    -0.396 OA
ATOM     26  H3  UNL     1      15.557  36.986  18.964  1.00  0.00     0.210 HD
ENDBRANCH  22  25
ENDBRANCH  15  19
BRANCH  17  27
HETATM   27  C26 UNL     1       7.784  38.999  17.061  1.00  0.00     0.223 C 
BRANCH  27  28
HETATM   28  O4  UNL     1       7.018  37.911  17.423  1.00  0.00    -0.395 OA
ATOM     29  H4  UNL     1       7.134  37.235  16.765  1.00  0.00     0.209 HD
ENDBRANCH  27  28
ENDBRANCH  17  27
ENDBRANCH  12  13
ENDBRANCH  10  11
ENDBRANCH   9  10
BRANCH   1  30
HETATM   30  C4  UNL     1       5.424  44.914  15.088  1.00  0.00    -0.003 C 
HETATM   31  C3  UNL     1       5.337  44.820  13.594  1.00  0.00     0.041 C 
HETATM   32  C2  UNL     1       5.730  46.178  13.162  1.00  0.00    -0.060 C 
HETATM   33  C1  UNL     1       5.487  46.812  12.048  1.00  0.00     0.017 C 
HETATM   34  C28 UNL     1       6.511  46.790  14.329  1.00  0.00     0.146 C 
HETATM   35  C27 UNL     1       5.544  46.345  15.477  1.00  0.00     0.041 C 
BRANCH  34  36
HETATM   36  O5  UNL     1       6.630  48.140  14.252  1.00  0.00    -0.391 OA
ATOM     37  H5  UNL     1       7.530  48.440  14.200  1.00  0.00     0.210 HD
ENDBRANCH  34  36
ENDBRANCH   1  30
BRANCH   3  38
HETATM   38  O1  UNL     1       1.775  43.898  17.078  1.00  0.00    -0.395 OA
ATOM     39  H1  UNL     1       1.931  43.186  16.469  1.00  0.00     0.210 HD
ENDBRANCH   3  38
BRANCH   5  40
HETATM   40  O2  UNL     1       2.241  42.852  20.494  1.00  0.00    -0.395 OA
ATOM     41  H2  UNL     1       1.560  42.334  20.908  1.00  0.00     0.210 HD
ENDBRANCH   5  40
TORSDOF 11
ENDMDL
MODEL 2
REMARK VINA RESULT: -9.627038089      2.605      3.567
REMARK  11 active torsions:
REMARK  status: ('A' for Active; 'I' for Inactive)
REMARK    1  A    between atoms: C4_4  and  C5_5 
REMARK    2  A    between atoms: C7_7  and  O1_8 
REMARK    3  A    between atoms: C9_11  and  O2_12 
REMARK    4  A    between atoms: C13_17  and  C14_18 
REMARK    5  A    between atoms: C14_18  and  C15_19 
REMARK    6  A    between atoms: C16_20  and  C17_21 
REMARK    7  A    between atoms: N1_23  and  C19_24 
REMARK    8  A    between atoms: C22_27  and  O3_28 
REMARK    9  A    between atoms: C25_34  and  C26_35 
REMARK   10  A    between atoms: C26_35  and  O4_36 
REMARK   11  A    between atoms: C28_39  and  O5_40 
ROOT
HETATM    1  C5  UNL     1       3.055  44.812  15.802  1.00  0.00    -0.003 C 
HETATM    2  C6  UNL     1       1.532  44.910  16.187  1.00  0.00     0.037 C 
HETATM    3  C7  UNL     1       1.025  43.644  16.759  1.00  0.00     0.125 C 
HETATM    4  C8  UNL     1       1.781  43.350  18.015  1.00  0.00     0.048 C 
HETATM    5  C9  UNL     1       1.525  41.987  18.602  1.00  0.00     0.125 C 
HETATM    6  C10 UNL     1       2.772  41.766  19.427  1.00  0.00     0.032 C 
HETATM    7  C11 UNL     1       3.843  42.707  18.843  1.00  0.00     0.008 C 
HETATM    8  C12 UNL     1       3.246  43.165  17.558  1.00  0.00    -0.001 C 
HETATM    9  C13 UNL     1       3.727  44.550  17.096  1.00  0.00    -0.002 C 
ENDROOT
BRANCH   9  10
HETATM   10  C14 UNL     1       5.198  44.515  17.204  1.00  0.00     0.032 C 
BRANCH  10  11
HETATM   11  C15 UNL     1       5.944  43.919  16.091  1.00  0.00    -0.025 C 
HETATM   12  C16 UNL     1       6.547  42.900  15.686  1.00  0.00     0.011 C 
BRANCH  12  13
HETATM   13  C17 UNL     1       7.012  41.601  15.831  1.00  0.00     0.007 A 
HETATM   14  C18 UNL     1       6.909  40.817  16.936  1.00  0.00     0.124 A 
HETATM   15  N1  UNL     1       7.638  39.713  16.811  1.00  0.00    -0.297 N 
HETATM   16  N2  UNL     1       8.086  39.923  15.702  1.00  0.00    -0.300 N 
HETATM   17  C25 UNL     1       8.060  40.734  14.810  1.00  0.00     0.061 A 
ATOM     18  H2  UNL     1       8.691  39.148  15.432  1.00  0.00     0.187 HD
BRANCH  15  19
HETATM   19  C19 UNL     1       7.803  38.643  17.811  1.00  0.00     0.107 C 
HETATM   20  C20 UNL     1       7.302  39.178  19.125  1.00  0.00     0.030 C 
HETATM   21  C21 UNL     1       8.050  38.620  20.308  1.00  0.00     0.034 C 
HETATM   22  C22 UNL     1       9.451  39.178  20.281  1.00  0.00     0.118 C 
HETATM   23  C23 UNL     1       9.992  39.234  18.867  1.00  0.00     0.034 C 
HETATM   24  C24 UNL     1       9.248  38.274  17.962  1.00  0.00     0.030 C 
BRANCH  22  25
HETATM   25  O3  UNL     1      10.256  38.390  21.100  1.00  0.00    -0.396 OA
ATOM     26  H3  UNL     1       9.938  37.495  21.062  1.00  0.00     0.210 HD
ENDBRANCH  22  25
ENDBRANCH  15  19
BRANCH  17  27
HETATM   27  C26 UNL     1       8.029  41.701  13.745  1.00  0.00     0.223 C 
BRANCH  27  28
HETATM   28  O4  UNL     1       9.277  41.737  13.160  1.00  0.00    -0.395 OA
ATOM     29  H4  UNL     1       9.175  41.555  12.233  1.00  0.00     0.209 HD
ENDBRANCH  27  28
ENDBRANCH  17  27
ENDBRANCH  12  13
ENDBRANCH  10  11
ENDBRANCH   9  10
BRANCH   1  30
HETATM   30  C4  UNL     1       3.303  46.125  15.183  1.00  0.00    -0.003 C 
HETATM   31  C3  UNL     1       2.125  46.818  14.564  1.00  0.00     0.041 C 
HETATM   32  C2  UNL     1       2.498  48.244  14.669  1.00  0.00    -0.060 C 
HETATM   33  C1  UNL     1       1.751  49.314  14.660  1.00  0.00     0.017 C 
HETATM   34  C28 UNL     1       4.020  48.279  14.830  1.00  0.00     0.146 C 
HETATM   35  C27 UNL     1       4.140  47.132  15.889  1.00  0.00     0.041 C 
BRANCH  34  36
HETATM   36  O5  UNL     1       4.489  49.463  15.301  1.00  0.00    -0.391 OA
ATOM     37  H5  UNL     1       5.430  49.476  15.427  1.00  0.00     0.210 HD
ENDBRANCH  34  36
ENDBRANCH   1  30
BRANCH   3  38
HETATM   38  O1  UNL     1       0.983  42.595  15.858  1.00  0.00    -0.395 OA
ATOM     39  H1  UNL     1       0.115  42.234  15.724  1.00  0.00     0.210 HD
ENDBRANCH   3  38
BRANCH   5  40
HETATM   40  O2  UNL     1       0.360  41.927  19.344  1.00  0.00    -0.395 OA
ATOM     41  H2  UNL     1       0.261  41.109  19.815  1.00  0.00     0.210 HD
ENDBRANCH   5  40
TORSDOF 11
ENDMDL
MODEL 3
REMARK VINA RESULT: -9.596941245      2.747      9.477
REMARK  11 active torsions:
REMARK  status: ('A' for Active; 'I' for Inactive)
REMARK    1  A    between atoms: C4_4  and  C5_5 
REMARK    2  A    between atoms: C7_7  and  O1_8 
REMARK    3  A    between atoms: C9_11  and  O2_12 
REMARK    4  A    between atoms: C13_17  and  C14_18 
REMARK    5  A    between atoms: C14_18  and  C15_19 
REMARK    6  A    between atoms: C16_20  and  C17_21 
REMARK    7  A    between atoms: N1_23  and  C19_24 
REMARK    8  A    between atoms: C22_27  and  O3_28 
REMARK    9  A    between atoms: C25_34  and  C26_35 
REMARK   10  A    between atoms: C26_35  and  O4_36 
REMARK   11  A    between atoms: C28_39  and  O5_40 
ROOT
HETATM    1  C5  UNL     1       8.966  38.781  18.409  1.00  0.00    -0.003 C 
HETATM    2  C6  UNL     1       9.603  37.855  19.512  1.00  0.00     0.037 C 
HETATM    3  C7  UNL     1      11.072  37.763  19.372  1.00  0.00     0.125 C 
HETATM    4  C8  UNL     1      11.657  39.128  19.548  1.00  0.00     0.048 C 
HETATM    5  C9  UNL     1      13.124  39.233  19.226  1.00  0.00     0.125 C 
HETATM    6  C10 UNL     1      13.269  40.708  18.925  1.00  0.00     0.032 C 
HETATM    7  C11 UNL     1      11.859  41.211  18.564  1.00  0.00     0.008 C 
HETATM    8  C12 UNL     1      11.074  39.959  18.382  1.00  0.00    -0.001 C 
HETATM    9  C13 UNL     1       9.572  40.107  18.673  1.00  0.00    -0.002 C 
ENDROOT
BRANCH   9  10
HETATM   10  C14 UNL     1       9.142  41.308  17.932  1.00  0.00     0.032 C 
BRANCH  10  11
HETATM   11  C15 UNL     1       8.490  41.106  16.634  1.00  0.00    -0.025 C 
HETATM   12  C16 UNL     1       7.588  41.502  15.864  1.00  0.00     0.011 C 
BRANCH  12  13
HETATM   13  C17 UNL     1       6.535  42.338  15.522  1.00  0.00     0.007 A 
HETATM   14  C18 UNL     1       6.535  43.297  14.559  1.00  0.00     0.124 A 
HETATM   15  N1  UNL     1       5.445  44.052  14.631  1.00  0.00    -0.297 N 
HETATM   16  N2  UNL     1       4.916  43.506  15.579  1.00  0.00    -0.300 N 
HETATM   17  C25 UNL     1       5.079  42.603  16.361  1.00  0.00     0.061 A 
ATOM     18  H2  UNL     1       4.032  43.971  15.783  1.00  0.00     0.187 HD
BRANCH  15  19
HETATM   19  C19 UNL     1       5.109  45.206  13.778  1.00  0.00     0.107 C 
HETATM   20  C20 UNL     1       6.314  46.104  13.746  1.00  0.00     0.030 C 
HETATM   21  C21 UNL     1       5.956  47.563  13.631  1.00  0.00     0.034 C 
HETATM   22  C22 UNL     1       5.310  47.990  14.925  1.00  0.00     0.118 C 
HETATM   23  C23 UNL     1       4.386  46.914  15.457  1.00  0.00     0.034 C 
HETATM   24  C24 UNL     1       3.954  45.972  14.352  1.00  0.00     0.030 C 
BRANCH  22  25
HETATM   25  O3  UNL     1       4.624  49.182  14.704  1.00  0.00    -0.396 OA
ATOM     26  H3  UNL     1       3.705  49.040  14.898  1.00  0.00     0.210 HD
ENDBRANCH  22  25
ENDBRANCH  15  19
BRANCH  17  27
HETATM   27  C26 UNL     1       5.272  41.525  17.293  1.00  0.00     0.223 C 
BRANCH  27  28
HETATM   28  O4  UNL     1       4.737  41.904  18.507  1.00  0.00    -0.395 OA
ATOM     29  H4  UNL     1       5.038  41.292  19.167  1.00  0.00     0.209 HD
ENDBRANCH  27  28
ENDBRANCH  17  27
ENDBRANCH  12  13
ENDBRANCH  10  11
ENDBRANCH   9  10
BRANCH   1  30
HETATM   30  C4  UNL     1       7.525  38.646  18.687  1.00  0.00    -0.003 C 
HETATM   31  C3  UNL     1       6.932  37.275  18.546  1.00  0.00     0.041 C 
HETATM   32  C2  UNL     1       5.788  37.322  19.481  1.00  0.00    -0.060 C 
HETATM   33  C1  UNL     1       5.142  36.355  20.072  1.00  0.00     0.017 C 
HETATM   34  C28 UNL     1       5.465  38.804  19.690  1.00  0.00     0.146 C 
HETATM   35  C27 UNL     1       6.935  39.309  19.880  1.00  0.00     0.041 C 
BRANCH  34  36
HETATM   36  O5  UNL     1       4.695  39.042  20.782  1.00  0.00    -0.391 OA
ATOM     37  H5  UNL     1       4.071  39.748  20.661  1.00  0.00     0.210 HD
ENDBRANCH  34  36
ENDBRANCH   1  30
BRANCH   3  38
HETATM   38  O1  UNL     1      11.490  37.106  18.228  1.00  0.00    -0.395 OA
ATOM     39  H1  UNL     1      12.433  37.085  18.117  1.00  0.00     0.210 HD
ENDBRANCH   3  38
BRANCH   5  40
HETATM   40  O2  UNL     1      13.937  38.803  20.258  1.00  0.00    -0.395 OA
ATOM     41  H2  UNL     1      14.169  37.884  20.190  1.00  0.00     0.210 HD
ENDBRANCH   5  40
TORSDOF 11
ENDMDL
MODEL 4
REMARK VINA RESULT: -9.453752641      4.239      7.060
REMARK  11 active torsions:
REMARK  status: ('A' for Active; 'I' for Inactive)
REMARK    1  A    between atoms: C4_4  and  C5_5 
REMARK    2  A    between atoms: C7_7  and  O1_8 
REMARK    3  A    between atoms: C9_11  and  O2_12 
REMARK    4  A    between atoms: C13_17  and  C14_18 
REMARK    5  A    between atoms: C14_18  and  C15_19 
REMARK    6  A    between atoms: C16_20  and  C17_21 
REMARK    7  A    between atoms: N1_23  and  C19_24 
REMARK    8  A    between atoms: C22_27  and  O3_28 
REMARK    9  A    between atoms: C25_34  and  C26_35 
REMARK   10  A    between atoms: C26_35  and  O4_36 
REMARK   11  A    between atoms: C28_39  and  O5_40 
ROOT
HETATM    1  C5  UNL     1       5.209  44.860  14.145  1.00  0.00    -0.003 C 
HETATM    2  C6  UNL     1       6.385  45.827  14.546  1.00  0.00     0.037 C 
HETATM    3  C7  UNL     1       6.134  47.214  14.102  1.00  0.00     0.125 C 
HETATM    4  C8  UNL     1       4.898  47.717  14.776  1.00  0.00     0.048 C 
HETATM    5  C9  UNL     1       4.393  49.041  14.266  1.00  0.00     0.125 C 
HETATM    6  C10 UNL     1       2.935  48.990  14.662  1.00  0.00     0.032 C 
HETATM    7  C11 UNL     1       2.596  47.500  14.853  1.00  0.00     0.008 C 
HETATM    8  C12 UNL     1       3.768  46.794  14.264  1.00  0.00    -0.001 C 
HETATM    9  C13 UNL     1       4.041  45.408  14.872  1.00  0.00    -0.002 C 
ENDROOT
BRANCH   9  10
HETATM   10  C14 UNL     1       2.740  44.712  14.871  1.00  0.00     0.032 C 
BRANCH  10  11
HETATM   11  C15 UNL     1       2.064  44.538  16.161  1.00  0.00    -0.025 C 
HETATM   12  C16 UNL     1       1.945  43.808  17.169  1.00  0.00     0.011 C 
BRANCH  12  13
HETATM   13  C17 UNL     1       2.256  42.688  17.926  1.00  0.00     0.007 A 
HETATM   14  C18 UNL     1       3.086  41.671  17.575  1.00  0.00     0.124 A 
HETATM   15  N1  UNL     1       3.001  40.661  18.434  1.00  0.00    -0.297 N 
HETATM   16  N2  UNL     1       2.173  41.139  19.184  1.00  0.00    -0.300 N 
HETATM   17  C25 UNL     1       1.503  42.129  19.345  1.00  0.00     0.061 A 
ATOM     18  H2  UNL     1       1.979  40.477  19.934  1.00  0.00     0.187 HD
BRANCH  15  19
HETATM   19  C19 UNL     1       3.721  39.377  18.367  1.00  0.00     0.107 C 
HETATM   20  C20 UNL     1       3.341  38.587  19.588  1.00  0.00     0.030 C 
HETATM   21  C21 UNL     1       4.456  37.705  20.086  1.00  0.00     0.034 C 
HETATM   22  C22 UNL     1       5.542  38.592  20.641  1.00  0.00     0.118 C 
HETATM   23  C23 UNL     1       5.735  39.824  19.781  1.00  0.00     0.034 C 
HETATM   24  C24 UNL     1       5.204  39.599  18.380  1.00  0.00     0.030 C 
BRANCH  22  25
HETATM   25  O3  UNL     1       6.716  37.849  20.731  1.00  0.00    -0.396 OA
ATOM     26  H3  UNL     1       7.446  38.410  20.497  1.00  0.00     0.210 HD
ENDBRANCH  22  25
ENDBRANCH  15  19
BRANCH  17  27
HETATM   27  C26 UNL     1       0.705  43.309  19.538  1.00  0.00     0.223 C 
BRANCH  27  28
HETATM   28  O4  UNL     1       0.700  43.609  20.885  1.00  0.00    -0.395 OA
ATOM     29  H4  UNL     1       0.599  44.549  20.978  1.00  0.00     0.209 HD
ENDBRANCH  27  28
ENDBRANCH  17  27
ENDBRANCH  12  13
ENDBRANCH  10  11
ENDBRANCH   9  10
BRANCH   1  30
HETATM   30  C4  UNL     1       5.715  43.552  14.598  1.00  0.00    -0.003 C 
HETATM   31  C3  UNL     1       6.536  42.766  13.618  1.00  0.00     0.041 C 
HETATM   32  C2  UNL     1       7.397  41.951  14.501  1.00  0.00    -0.060 C 
HETATM   33  C1  UNL     1       8.543  41.375  14.264  1.00  0.00     0.017 C 
HETATM   34  C28 UNL     1       6.694  41.901  15.861  1.00  0.00     0.146 C 
HETATM   35  C27 UNL     1       6.317  43.419  15.951  1.00  0.00     0.041 C 
BRANCH  34  36
HETATM   36  O5  UNL     1       7.504  41.512  16.877  1.00  0.00    -0.391 OA
ATOM     37  H5  UNL     1       7.149  40.800  17.395  1.00  0.00     0.210 HD
ENDBRANCH  34  36
ENDBRANCH   1  30
BRANCH   3  38
HETATM   38  O1  UNL     1       6.141  47.377  12.728  1.00  0.00    -0.395 OA
ATOM     39  H1  UNL     1       5.944  46.585  12.243  1.00  0.00     0.210 HD
ENDBRANCH   3  38
BRANCH   5  40
HETATM   40  O2  UNL     1       5.068  50.121  14.803  1.00  0.00    -0.395 OA
ATOM     41  H2  UNL     1       4.554  50.601  15.440  1.00  0.00     0.210 HD
ENDBRANCH   5  40
TORSDOF 11
ENDMDL
MODEL 5
REMARK VINA RESULT: -9.410825363      2.958      7.910
REMARK  11 active torsions:
REMARK  status: ('A' for Active; 'I' for Inactive)
REMARK    1  A    between atoms: C4_4  and  C5_5 
REMARK    2  A    between atoms: C7_7  and  O1_8 
REMARK    3  A    between atoms: C9_11  and  O2_12 
REMARK    4  A    between atoms: C13_17  and  C14_18 
REMARK    5  A    between atoms: C14_18  and  C15_19 
REMARK    6  A    between atoms: C16_20  and  C17_21 
REMARK    7  A    between atoms: N1_23  and  C19_24 
REMARK    8  A    between atoms: C22_27  and  O3_28 
REMARK    9  A    between atoms: C25_34  and  C26_35 
REMARK   10  A    between atoms: C26_35  and  O4_36 
REMARK   11  A    between atoms: C28_39  and  O5_40 
ROOT
HETATM    1  C5  UNL     1       8.473  41.150  17.544  1.00  0.00    -0.003 C 
HETATM    2  C6  UNL     1       9.907  41.714  17.221  1.00  0.00     0.037 C 
HETATM    3  C7  UNL     1      10.806  41.639  18.392  1.00  0.00     0.125 C 
HETATM    4  C8  UNL     1      10.971  40.203  18.778  1.00  0.00     0.048 C 
HETATM    5  C9  UNL     1      11.690  39.978  20.082  1.00  0.00     0.125 C 
HETATM    6  C10 UNL     1      11.200  38.602  20.471  1.00  0.00     0.032 C 
HETATM    7  C11 UNL     1       9.883  38.384  19.703  1.00  0.00     0.008 C 
HETATM    8  C12 UNL     1       9.552  39.738  19.179  1.00  0.00    -0.001 C 
HETATM    9  C13 UNL     1       8.724  39.729  17.884  1.00  0.00    -0.002 C 
ENDROOT
BRANCH   9  10
HETATM   10  C14 UNL     1       7.612  38.792  18.131  1.00  0.00     0.032 C 
BRANCH  10  11
HETATM   11  C15 UNL     1       6.661  39.133  19.194  1.00  0.00    -0.025 C 
HETATM   12  C16 UNL     1       5.549  39.641  19.454  1.00  0.00     0.011 C 
BRANCH  12  13
HETATM   13  C17 UNL     1       4.356  40.251  19.095  1.00  0.00     0.007 A 
HETATM   14  C18 UNL     1       4.208  41.389  18.367  1.00  0.00     0.124 A 
HETATM   15  N1  UNL     1       2.949  41.810  18.382  1.00  0.00    -0.297 N 
HETATM   16  N2  UNL     1       2.479  40.933  19.078  1.00  0.00    -0.300 N 
HETATM   17  C25 UNL     1       2.789  39.931  19.675  1.00  0.00     0.061 A 
ATOM     18  H2  UNL     1       1.480  41.100  19.200  1.00  0.00     0.187 HD
BRANCH  15  19
HETATM   19  C19 UNL     1       2.412  43.021  17.736  1.00  0.00     0.107 C 
HETATM   20  C20 UNL     1       3.307  43.340  16.571  1.00  0.00     0.030 C 
HETATM   21  C21 UNL     1       3.418  44.819  16.304  1.00  0.00     0.034 C 
HETATM   22  C22 UNL     1       4.188  45.443  17.442  1.00  0.00     0.118 C 
HETATM   23  C23 UNL     1       3.793  44.832  18.771  1.00  0.00     0.034 C 
HETATM   24  C24 UNL     1       2.427  44.181  18.686  1.00  0.00     0.030 C 
BRANCH  22  25
HETATM   25  O3  UNL     1       3.961  46.816  17.428  1.00  0.00    -0.396 OA
ATOM     26  H3  UNL     1       3.059  46.974  17.680  1.00  0.00     0.210 HD
ENDBRANCH  22  25
ENDBRANCH  15  19
BRANCH  17  27
HETATM   27  C26 UNL     1       3.158  38.737  20.385  1.00  0.00     0.223 C 
BRANCH  27  28
HETATM   28  O4  UNL     1       2.087  38.351  21.164  1.00  0.00    -0.395 OA
ATOM     29  H4  UNL     1       2.128  37.409  21.280  1.00  0.00     0.209 HD
ENDBRANCH  27  28
ENDBRANCH  17  27
ENDBRANCH  12  13
ENDBRANCH  10  11
ENDBRANCH   9  10
BRANCH   1  30
HETATM   30  C4  UNL     1       7.748  41.410  16.288  1.00  0.00    -0.003 C 
HETATM   31  C3  UNL     1       6.758  42.537  16.297  1.00  0.00     0.041 C 
HETATM   32  C2  UNL     1       6.741  42.961  14.881  1.00  0.00    -0.060 C 
HETATM   33  C1  UNL     1       6.386  44.096  14.345  1.00  0.00     0.017 C 
HETATM   34  C28 UNL     1       7.271  41.775  14.070  1.00  0.00     0.146 C 
HETATM   35  C27 UNL     1       8.484  41.422  14.996  1.00  0.00     0.041 C 
BRANCH  34  36
HETATM   36  O5  UNL     1       7.663  42.108  12.815  1.00  0.00    -0.391 OA
ATOM     37  H5  UNL     1       7.377  41.491  12.151  1.00  0.00     0.210 HD
ENDBRANCH  34  36
ENDBRANCH   1  30
BRANCH   3  38
HETATM   38  O1  UNL     1      10.444  42.472  19.436  1.00  0.00    -0.395 OA
ATOM     39  H1  UNL     1       9.939  42.043  20.117  1.00  0.00     0.210 HD
ENDBRANCH   3  38
BRANCH   5  40
HETATM   40  O2  UNL     1      13.065  40.056  19.963  1.00  0.00    -0.395 OA
ATOM     41  H2  UNL     1      13.525  39.595  20.655  1.00  0.00     0.210 HD
ENDBRANCH   5  40
TORSDOF 11
ENDMDL
