MODEL 1
REMARK VINA RESULT: -10.353041511      0.000      0.000
REMARK  6 active torsions:
REMARK  status: ('A' for Active; 'I' for Inactive)
REMARK    1  A    between atoms: C5_5  and  O1_6 
REMARK    2  A    between atoms: O1_6  and  C6_7 
REMARK    3  A    between atoms: C11_12  and  C12_13 
REMARK       I    between atoms: C12_13  and  N1_15 
REMARK    4  A    between atoms: N1_15  and  C13_17 
REMARK    5  A    between atoms: C16_20  and  N2_21 
REMARK       I    between atoms: N2_21  and  C17_23 
REMARK    6  A    between atoms: C17_23  and  C18_25 
ROOT
HETATM    1  C12 UNL     1      61.498   2.009  -4.867  1.00  0.00     0.259 C 
HETATM    2  O2  UNL     1      61.259   1.212  -3.876  1.00  0.00    -0.267 OA
HETATM    3  N1  UNL     1      61.801   3.316  -4.527  1.00  0.00    -0.323 N 
ATOM      4  H1  UNL     1      62.006   3.973  -5.279  1.00  0.00     0.169 HD
ENDROOT
BRANCH   3   5
HETATM    5  C13 UNL     1      61.843   3.790  -3.201  1.00  0.00     0.035 A 
HETATM    6  C14 UNL     1      62.841   3.563  -2.301  1.00  0.00     0.032 A 
HETATM    7  C15 UNL     1      62.831   4.091  -1.026  1.00  0.00     0.032 A 
HETATM    8  C16 UNL     1      61.765   4.899  -0.600  1.00  0.00     0.035 A 
HETATM    9  C22 UNL     1      60.753   5.140  -1.484  1.00  0.00     0.032 A 
HETATM   10  C23 UNL     1      60.800   4.587  -2.767  1.00  0.00     0.032 A 
BRANCH   8  11
HETATM   11  N2  UNL     1      61.793   5.407   0.705  1.00  0.00    -0.323 N 
HETATM   12  C17 UNL     1      61.728   6.727   1.160  1.00  0.00     0.257 C 
HETATM   13  O3  UNL     1      61.631   7.689   0.366  1.00  0.00    -0.267 OA
ATOM     14  H2  UNL     1      61.875   4.703   1.439  1.00  0.00     0.169 HD
BRANCH  12  15
HETATM   15  C18 UNL     1      61.769   7.059   2.590  1.00  0.00     0.049 A 
HETATM   16  C19 UNL     1      62.628   6.561   3.566  1.00  0.00     0.035 A 
HETATM   17  C20 UNL     1      62.321   7.139   4.773  1.00  0.00     0.088 A 
HETATM   18  N3  UNL     1      61.301   7.970   4.544  1.00  0.00    -0.374 N 
HETATM   19  C21 UNL     1      60.944   7.944   3.236  1.00  0.00     0.104 A 
ATOM     20  H3  UNL     1      60.851   8.545   5.256  1.00  0.00     0.164 HD
ENDBRANCH  12  15
ENDBRANCH   8  11
ENDBRANCH   3   5
BRANCH   1  21
HETATM   21  C11 UNL     1      61.404   1.381  -6.162  1.00  0.00     0.066 A 
HETATM   22  C6  UNL     1      62.446   1.342  -7.041  1.00  0.00     0.091 A 
HETATM   23  C7  UNL     1      62.246   0.704  -8.275  1.00  0.00     0.038 A 
HETATM   24  C8  UNL     1      61.059   0.123  -8.638  1.00  0.00     0.003 A 
HETATM   25  C9  UNL     1      60.013   0.166  -7.746  1.00  0.00     0.001 A 
HETATM   26  C10 UNL     1      60.175   0.782  -6.528  1.00  0.00     0.020 A 
BRANCH  22  27
HETATM   27  O1  UNL     1      63.663   1.898  -6.756  1.00  0.00    -0.310 OA
BRANCH  27  28
HETATM   28  C5  UNL     1      64.758   1.098  -6.470  1.00  0.00     0.076 A 
HETATM   29  C4  UNL     1      66.035   1.635  -6.523  1.00  0.00     0.038 A 
HETATM   30  C3  UNL     1      67.149   0.870  -6.245  1.00  0.00     0.009 A 
HETATM   31  C2  UNL     1      67.041  -0.462  -5.905  1.00  0.00    -0.062 A 
HETATM   32  C1  UNL     1      68.268  -1.247  -5.615  1.00  0.00     0.048 C 
HETATM   33  C25 UNL     1      65.777  -1.005  -5.850  1.00  0.00     0.009 A 
HETATM   34  C24 UNL     1      64.659  -0.236  -6.130  1.00  0.00     0.038 A 
ENDBRANCH  27  28
ENDBRANCH  22  27
ENDBRANCH   1  21
TORSDOF 6
ENDMDL
MODEL 2
REMARK VINA RESULT: -10.169277514      0.134      1.202
REMARK  6 active torsions:
REMARK  status: ('A' for Active; 'I' for Inactive)
REMARK    1  A    between atoms: C5_5  and  O1_6 
REMARK    2  A    between atoms: O1_6  and  C6_7 
REMARK    3  A    between atoms: C11_12  and  C12_13 
REMARK       I    between atoms: C12_13  and  N1_15 
REMARK    4  A    between atoms: N1_15  and  C13_17 
REMARK    5  A    between atoms: C16_20  and  N2_21 
REMARK       I    between atoms: N2_21  and  C17_23 
REMARK    6  A    between atoms: C17_23  and  C18_25 
ROOT
HETATM    1  C12 UNL     1      61.369   2.040  -4.877  1.00  0.00     0.259 C 
HETATM    2  O2  UNL     1      61.091   1.303  -3.850  1.00  0.00    -0.267 OA
HETATM    3  N1  UNL     1      61.666   3.363  -4.604  1.00  0.00    -0.323 N 
ATOM      4  H1  UNL     1      61.901   3.974  -5.386  1.00  0.00     0.169 HD
ENDROOT
BRANCH   3   5
HETATM    5  C13 UNL     1      61.663   3.914  -3.308  1.00  0.00     0.035 A 
HETATM    6  C14 UNL     1      60.667   4.668  -2.761  1.00  0.00     0.032 A 
HETATM    7  C15 UNL     1      60.718   5.147  -1.468  1.00  0.00     0.032 A 
HETATM    8  C16 UNL     1      61.825   4.871  -0.651  1.00  0.00     0.035 A 
HETATM    9  C22 UNL     1      62.835   4.118  -1.176  1.00  0.00     0.032 A 
HETATM   10  C23 UNL     1      62.747   3.651  -2.490  1.00  0.00     0.032 A 
BRANCH   8  11
HETATM   11  N2  UNL     1      61.837   5.384   0.652  1.00  0.00    -0.323 N 
HETATM   12  C17 UNL     1      61.767   6.707   1.101  1.00  0.00     0.257 C 
HETATM   13  O3  UNL     1      61.680   7.665   0.302  1.00  0.00    -0.267 OA
ATOM     14  H2  UNL     1      61.908   4.683   1.390  1.00  0.00     0.169 HD
BRANCH  12  15
HETATM   15  C18 UNL     1      61.789   7.044   2.531  1.00  0.00     0.049 A 
HETATM   16  C19 UNL     1      62.642   6.559   3.518  1.00  0.00     0.035 A 
HETATM   17  C20 UNL     1      62.317   7.138   4.719  1.00  0.00     0.088 A 
HETATM   18  N3  UNL     1      61.292   7.958   4.475  1.00  0.00    -0.374 N 
HETATM   19  C21 UNL     1      60.949   7.925   3.164  1.00  0.00     0.104 A 
ATOM     20  H3  UNL     1      60.830   8.533   5.180  1.00  0.00     0.164 HD
ENDBRANCH  12  15
ENDBRANCH   8  11
ENDBRANCH   3   5
BRANCH   1  21
HETATM   21  C11 UNL     1      61.318   1.337  -6.136  1.00  0.00     0.066 A 
HETATM   22  C6  UNL     1      62.377   1.279  -6.993  1.00  0.00     0.091 A 
HETATM   23  C7  UNL     1      62.219   0.568  -8.192  1.00  0.00     0.038 A 
HETATM   24  C8  UNL     1      61.057  -0.069  -8.542  1.00  0.00     0.003 A 
HETATM   25  C9  UNL     1      59.993  -0.007  -7.672  1.00  0.00     0.001 A 
HETATM   26  C10 UNL     1      60.113   0.682  -6.489  1.00  0.00     0.020 A 
BRANCH  22  27
HETATM   27  O1  UNL     1      63.571   1.887  -6.719  1.00  0.00    -0.310 OA
BRANCH  27  28
HETATM   28  C5  UNL     1      64.699   1.134  -6.434  1.00  0.00     0.076 A 
HETATM   29  C4  UNL     1      64.564  -0.198  -6.074  1.00  0.00     0.038 A 
HETATM   30  C3  UNL     1      65.663  -0.980  -5.783  1.00  0.00     0.009 A 
HETATM   31  C2  UNL     1      66.942  -0.470  -5.834  1.00  0.00    -0.062 A 
HETATM   32  C1  UNL     1      68.096  -1.349  -5.512  1.00  0.00     0.048 C 
HETATM   33  C25 UNL     1      67.088   0.852  -6.190  1.00  0.00     0.009 A 
HETATM   34  C24 UNL     1      65.984   1.636  -6.483  1.00  0.00     0.038 A 
ENDBRANCH  27  28
ENDBRANCH  22  27
ENDBRANCH   1  21
TORSDOF 6
ENDMDL
MODEL 3
REMARK VINA RESULT: -8.736555405      1.874      2.633
REMARK  6 active torsions:
REMARK  status: ('A' for Active; 'I' for Inactive)
REMARK    1  A    between atoms: C5_5  and  O1_6 
REMARK    2  A    between atoms: O1_6  and  C6_7 
REMARK    3  A    between atoms: C11_12  and  C12_13 
REMARK       I    between atoms: C12_13  and  N1_15 
REMARK    4  A    between atoms: N1_15  and  C13_17 
REMARK    5  A    between atoms: C16_20  and  N2_21 
REMARK       I    between atoms: N2_21  and  C17_23 
REMARK    6  A    between atoms: C17_23  and  C18_25 
ROOT
HETATM    1  C12 UNL     1      61.465   4.523  -3.603  1.00  0.00     0.259 C 
HETATM    2  O2  UNL     1      62.651   4.280  -3.146  1.00  0.00    -0.267 OA
HETATM    3  N1  UNL     1      60.607   5.172  -2.733  1.00  0.00    -0.323 N 
ATOM      4  H1  UNL     1      59.666   5.391  -3.060  1.00  0.00     0.169 HD
ENDROOT
BRANCH   3   5
HETATM    5  C13 UNL     1      60.958   5.547  -1.422  1.00  0.00     0.035 A 
HETATM    6  C14 UNL     1      61.442   6.763  -1.040  1.00  0.00     0.032 A 
HETATM    7  C15 UNL     1      61.733   7.072   0.273  1.00  0.00     0.032 A 
HETATM    8  C16 UNL     1      61.538   6.120   1.286  1.00  0.00     0.035 A 
HETATM    9  C22 UNL     1      61.055   4.895   0.928  1.00  0.00     0.032 A 
HETATM   10  C23 UNL     1      60.773   4.621  -0.412  1.00  0.00     0.032 A 
BRANCH   8  11
HETATM   11  N2  UNL     1      61.854   6.475   2.604  1.00  0.00    -0.323 N 
HETATM   12  C17 UNL     1      61.361   7.514   3.401  1.00  0.00     0.257 C 
HETATM   13  O3  UNL     1      60.503   8.316   2.973  1.00  0.00    -0.267 OA
ATOM     14  H2  UNL     1      62.553   5.884   3.054  1.00  0.00     0.169 HD
BRANCH  12  15
HETATM   15  C18 UNL     1      61.823   7.720   4.781  1.00  0.00     0.049 A 
HETATM   16  C19 UNL     1      61.541   6.953   5.908  1.00  0.00     0.035 A 
HETATM   17  C20 UNL     1      62.175   7.501   6.995  1.00  0.00     0.088 A 
HETATM   18  N3  UNL     1      62.830   8.574   6.546  1.00  0.00    -0.374 N 
HETATM   19  C21 UNL     1      62.638   8.734   5.214  1.00  0.00     0.104 A 
ATOM     20  H3  UNL     1      63.399   9.190   7.128  1.00  0.00     0.164 HD
ENDBRANCH  12  15
ENDBRANCH   8  11
ENDBRANCH   3   5
BRANCH   1  21
HETATM   21  C11 UNL     1      61.252   4.067  -4.956  1.00  0.00     0.066 A 
HETATM   22  C6  UNL     1      61.965   3.047  -5.512  1.00  0.00     0.091 A 
HETATM   23  C7  UNL     1      61.676   2.684  -6.836  1.00  0.00     0.038 A 
HETATM   24  C8  UNL     1      60.716   3.303  -7.593  1.00  0.00     0.003 A 
HETATM   25  C9  UNL     1      60.000   4.331  -7.025  1.00  0.00     0.001 A 
HETATM   26  C10 UNL     1      60.258   4.712  -5.730  1.00  0.00     0.020 A 
BRANCH  22  27
HETATM   27  O1  UNL     1      62.940   2.378  -4.824  1.00  0.00    -0.310 OA
BRANCH  27  28
HETATM   28  C5  UNL     1      63.915   1.660  -5.498  1.00  0.00     0.076 A 
HETATM   29  C4  UNL     1      65.044   2.311  -5.974  1.00  0.00     0.038 A 
HETATM   30  C3  UNL     1      66.036   1.630  -6.649  1.00  0.00     0.009 A 
HETATM   31  C2  UNL     1      65.948   0.275  -6.882  1.00  0.00    -0.062 A 
HETATM   32  C1  UNL     1      67.040  -0.416  -7.614  1.00  0.00     0.048 C 
HETATM   33  C25 UNL     1      64.832  -0.382  -6.414  1.00  0.00     0.009 A 
HETATM   34  C24 UNL     1      63.836   0.303  -5.736  1.00  0.00     0.038 A 
ENDBRANCH  27  28
ENDBRANCH  22  27
ENDBRANCH   1  21
TORSDOF 6
ENDMDL
MODEL 4
REMARK VINA RESULT: -7.568258086      2.123      3.303
REMARK  6 active torsions:
REMARK  status: ('A' for Active; 'I' for Inactive)
REMARK    1  A    between atoms: C5_5  and  O1_6 
REMARK    2  A    between atoms: O1_6  and  C6_7 
REMARK    3  A    between atoms: C11_12  and  C12_13 
REMARK       I    between atoms: C12_13  and  N1_15 
REMARK    4  A    between atoms: N1_15  and  C13_17 
REMARK    5  A    between atoms: C16_20  and  N2_21 
REMARK       I    between atoms: N2_21  and  C17_23 
REMARK    6  A    between atoms: C17_23  and  C18_25 
ROOT
HETATM    1  C12 UNL     1      60.324   4.380  -2.718  1.00  0.00     0.259 C 
HETATM    2  O2  UNL     1      60.201   3.637  -1.666  1.00  0.00    -0.267 OA
HETATM    3  N1  UNL     1      60.731   5.682  -2.488  1.00  0.00    -0.323 N 
ATOM      4  H1  UNL     1      60.851   6.297  -3.293  1.00  0.00     0.169 HD
ENDROOT
BRANCH   3   5
HETATM    5  C13 UNL     1      60.990   6.208  -1.208  1.00  0.00     0.035 A 
HETATM    6  C14 UNL     1      61.217   7.519  -0.911  1.00  0.00     0.032 A 
HETATM    7  C15 UNL     1      61.429   7.967   0.376  1.00  0.00     0.032 A 
HETATM    8  C16 UNL     1      61.422   7.066   1.452  1.00  0.00     0.035 A 
HETATM    9  C22 UNL     1      61.198   5.748   1.181  1.00  0.00     0.032 A 
HETATM   10  C23 UNL     1      60.986   5.333  -0.137  1.00  0.00     0.032 A 
BRANCH   8  11
HETATM   11  N2  UNL     1      61.650   7.566   2.742  1.00  0.00    -0.323 N 
HETATM   12  C17 UNL     1      62.232   6.953   3.855  1.00  0.00     0.257 C 
HETATM   13  O3  UNL     1      62.650   5.775   3.811  1.00  0.00    -0.267 OA
ATOM     14  H2  UNL     1      61.342   8.527   2.891  1.00  0.00     0.169 HD
BRANCH  12  15
HETATM   15  C18 UNL     1      62.387   7.656   5.136  1.00  0.00     0.049 A 
HETATM   16  C19 UNL     1      61.957   7.255   6.398  1.00  0.00     0.035 A 
HETATM   17  C20 UNL     1      62.309   8.211   7.318  1.00  0.00     0.088 A 
HETATM   18  N3  UNL     1      62.939   9.173   6.639  1.00  0.00    -0.374 N 
HETATM   19  C21 UNL     1      63.003   8.868   5.320  1.00  0.00     0.104 A 
ATOM     20  H3  UNL     1      63.321  10.021   7.057  1.00  0.00     0.164 HD
ENDBRANCH  12  15
ENDBRANCH   8  11
ENDBRANCH   3   5
BRANCH   1  21
HETATM   21  C11 UNL     1      60.012   3.705  -3.954  1.00  0.00     0.066 A 
HETATM   22  C6  UNL     1      60.967   3.331  -4.853  1.00  0.00     0.091 A 
HETATM   23  C7  UNL     1      60.552   2.680  -6.024  1.00  0.00     0.038 A 
HETATM   24  C8  UNL     1      59.241   2.403  -6.307  1.00  0.00     0.003 A 
HETATM   25  C9  UNL     1      58.283   2.782  -5.396  1.00  0.00     0.001 A 
HETATM   26  C10 UNL     1      58.654   3.423  -4.238  1.00  0.00     0.020 A 
BRANCH  22  27
HETATM   27  O1  UNL     1      62.298   3.570  -4.646  1.00  0.00    -0.310 OA
BRANCH  27  28
HETATM   28  C5  UNL     1      63.261   2.787  -5.261  1.00  0.00     0.076 A 
HETATM   29  C4  UNL     1      63.022   1.437  -5.468  1.00  0.00     0.038 A 
HETATM   30  C3  UNL     1      63.956   0.625  -6.077  1.00  0.00     0.009 A 
HETATM   31  C2  UNL     1      65.169   1.120  -6.505  1.00  0.00    -0.062 A 
HETATM   32  C1  UNL     1      66.145   0.208  -7.155  1.00  0.00     0.048 C 
HETATM   33  C25 UNL     1      65.418   2.459  -6.305  1.00  0.00     0.009 A 
HETATM   34  C24 UNL     1      64.478   3.274  -5.693  1.00  0.00     0.038 A 
ENDBRANCH  27  28
ENDBRANCH  22  27
ENDBRANCH   1  21
TORSDOF 6
ENDMDL
MODEL 5
REMARK VINA RESULT: -7.558387289      2.300      3.482
REMARK  6 active torsions:
REMARK  status: ('A' for Active; 'I' for Inactive)
REMARK    1  A    between atoms: C5_5  and  O1_6 
REMARK    2  A    between atoms: O1_6  and  C6_7 
REMARK    3  A    between atoms: C11_12  and  C12_13 
REMARK       I    between atoms: C12_13  and  N1_15 
REMARK    4  A    between atoms: N1_15  and  C13_17 
REMARK    5  A    between atoms: C16_20  and  N2_21 
REMARK       I    between atoms: N2_21  and  C17_23 
REMARK    6  A    between atoms: C17_23  and  C18_25 
ROOT
HETATM    1  C12 UNL     1      61.573   1.875  -4.658  1.00  0.00     0.259 C 
HETATM    2  O2  UNL     1      62.201   1.188  -3.758  1.00  0.00    -0.267 OA
HETATM    3  N1  UNL     1      61.119   3.118  -4.255  1.00  0.00    -0.323 N 
ATOM      4  H1  UNL     1      60.628   3.695  -4.939  1.00  0.00     0.169 HD
ENDROOT
BRANCH   3   5
HETATM    5  C13 UNL     1      61.296   3.634  -2.957  1.00  0.00     0.035 A 
HETATM    6  C14 UNL     1      62.430   3.540  -2.206  1.00  0.00     0.032 A 
HETATM    7  C15 UNL     1      62.543   4.101  -0.951  1.00  0.00     0.032 A 
HETATM    8  C16 UNL     1      61.467   4.804  -0.388  1.00  0.00     0.035 A 
HETATM    9  C22 UNL     1      60.320   4.911  -1.120  1.00  0.00     0.032 A 
HETATM   10  C23 UNL     1      60.245   4.329  -2.388  1.00  0.00     0.032 A 
BRANCH   8  11
HETATM   11  N2  UNL     1      61.624   5.351   0.893  1.00  0.00    -0.323 N 
HETATM   12  C17 UNL     1      61.598   6.684   1.313  1.00  0.00     0.257 C 
HETATM   13  O3  UNL     1      61.416   7.621   0.505  1.00  0.00    -0.267 OA
ATOM     14  H2  UNL     1      61.782   4.669   1.635  1.00  0.00     0.169 HD
BRANCH  12  15
HETATM   15  C18 UNL     1      61.781   7.058   2.722  1.00  0.00     0.049 A 
HETATM   16  C19 UNL     1      62.731   6.586   3.623  1.00  0.00     0.035 A 
HETATM   17  C20 UNL     1      62.546   7.201   4.836  1.00  0.00     0.088 A 
HETATM   18  N3  UNL     1      61.511   8.030   4.683  1.00  0.00    -0.374 N 
HETATM   19  C21 UNL     1      61.026   7.967   3.418  1.00  0.00     0.104 A 
ATOM     20  H3  UNL     1      61.136   8.629   5.418  1.00  0.00     0.164 HD
ENDBRANCH  12  15
ENDBRANCH   8  11
ENDBRANCH   3   5
BRANCH   1  21
HETATM   21  C11 UNL     1      61.460   1.209  -5.933  1.00  0.00     0.066 A 
HETATM   22  C6  UNL     1      62.163   1.599  -7.034  1.00  0.00     0.091 A 
HETATM   23  C7  UNL     1      61.978   0.880  -8.225  1.00  0.00     0.038 A 
HETATM   24  C8  UNL     1      61.128  -0.189  -8.334  1.00  0.00     0.003 A 
HETATM   25  C9  UNL     1      60.423  -0.577  -7.219  1.00  0.00     0.001 A 
HETATM   26  C10 UNL     1      60.580   0.105  -6.036  1.00  0.00     0.020 A 
BRANCH  22  27
HETATM   27  O1  UNL     1      63.032   2.656  -7.010  1.00  0.00    -0.310 OA
BRANCH  27  28
HETATM   28  C5  UNL     1      62.639   3.882  -6.495  1.00  0.00     0.076 A 
HETATM   29  C4  UNL     1      63.499   4.587  -5.666  1.00  0.00     0.038 A 
HETATM   30  C3  UNL     1      63.144   5.810  -5.135  1.00  0.00     0.009 A 
HETATM   31  C2  UNL     1      61.920   6.383  -5.403  1.00  0.00    -0.062 A 
HETATM   32  C1  UNL     1      61.581   7.701  -4.809  1.00  0.00     0.048 C 
HETATM   33  C25 UNL     1      61.059   5.691  -6.225  1.00  0.00     0.009 A 
HETATM   34  C24 UNL     1      61.416   4.463  -6.758  1.00  0.00     0.038 A 
ENDBRANCH  27  28
ENDBRANCH  22  27
ENDBRANCH   1  21
TORSDOF 6
ENDMDL
