MODEL 1
REMARK VINA RESULT: -6.611358842      0.000      0.000
REMARK  5 active torsions:
REMARK  status: ('A' for Active; 'I' for Inactive)
REMARK       I    between atoms: C2_2  and  N1_4 
REMARK    1  A    between atoms: N1_4  and  C3_6 
REMARK    2  A    between atoms: C4_9  and  C5_10 
REMARK    3  A    between atoms: C8_13  and  C9_14 
REMARK    4  A    between atoms: C9_14  and  N3_15 
REMARK    5  A    between atoms: N3_15  and  C11_17 
ROOT
HETATM    1  C3  UNL     1      33.080  75.372  22.506  1.00  0.00     0.152 A 
HETATM    2  N2  UNL     1      32.758  76.622  22.987  1.00  0.00    -0.335 N 
ATOM      3  H2  UNL     1      32.960  76.893  23.949  1.00  0.00     0.168 HD
HETATM    4  C4  UNL     1      32.178  77.449  22.146  1.00  0.00     0.050 A 
HETATM    5  C8  UNL     1      31.954  77.005  20.867  1.00  0.00     0.041 A 
HETATM    6  S1  UNL     1      32.563  75.425  20.906  1.00  0.00    -0.054 SA
ENDROOT
BRANCH   5   7
HETATM    7  C9  UNL     1      31.456  77.791  19.692  1.00  0.00     0.321 C 
BRANCH   7   8
HETATM    8  N3  UNL     1      31.987  77.338  18.455  1.00  0.00     0.092 N 
HETATM    9  C10 UNL     1      32.913  78.206  17.799  1.00  0.00     0.310 C 
BRANCH   8  10
HETATM   10  C11 UNL     1      30.827  77.100  17.578  1.00  0.00     0.215 C 
HETATM   11  C12 UNL     1      30.607  78.126  16.539  1.00  0.00     0.042 C 
HETATM   12  C13 UNL     1      30.737  75.683  17.124  1.00  0.00     0.042 C 
ENDBRANCH   8  10
ENDBRANCH   7   8
ENDBRANCH   5   7
BRANCH   4  13
HETATM   13  C5  UNL     1      31.515  78.740  22.647  1.00  0.00    -0.060 C 
HETATM   14  C6  UNL     1      30.286  78.556  23.402  1.00  0.00     0.045 C 
HETATM   15  C7  UNL     1      32.505  79.786  23.024  1.00  0.00     0.045 C 
ENDBRANCH   4  13
BRANCH   1  16
HETATM   16  N1  UNL     1      33.649  74.451  23.266  1.00  0.00    -0.307 N 
HETATM   17  C2  UNL     1      32.912  73.629  24.087  1.00  0.00     0.219 C 
HETATM   18  C1  UNL     1      32.235  72.393  23.646  1.00  0.00     0.117 C 
HETATM   19  O1  UNL     1      32.811  73.971  25.329  1.00  0.00    -0.274 OA
ATOM     20  H1  UNL     1      34.664  74.348  23.243  1.00  0.00     0.171 HD
ENDBRANCH   1  16
TORSDOF 5
ENDMDL
MODEL 2
REMARK VINA RESULT: -6.403999293      2.684      6.178
REMARK  5 active torsions:
REMARK  status: ('A' for Active; 'I' for Inactive)
REMARK       I    between atoms: C2_2  and  N1_4 
REMARK    1  A    between atoms: N1_4  and  C3_6 
REMARK    2  A    between atoms: C4_9  and  C5_10 
REMARK    3  A    between atoms: C8_13  and  C9_14 
REMARK    4  A    between atoms: C9_14  and  N3_15 
REMARK    5  A    between atoms: N3_15  and  C11_17 
ROOT
HETATM    1  C3  UNL     1      31.833  77.561  21.646  1.00  0.00     0.152 A 
HETATM    2  N2  UNL     1      31.803  76.593  20.666  1.00  0.00    -0.335 N 
ATOM      3  H2  UNL     1      31.373  76.765  19.758  1.00  0.00     0.168 HD
HETATM    4  C4  UNL     1      32.356  75.437  20.958  1.00  0.00     0.050 A 
HETATM    5  C8  UNL     1      32.922  75.296  22.200  1.00  0.00     0.041 A 
HETATM    6  S1  UNL     1      32.639  76.806  22.915  1.00  0.00    -0.054 SA
ENDROOT
BRANCH   5   7
HETATM    7  C9  UNL     1      33.739  74.152  22.717  1.00  0.00     0.321 C 
BRANCH   7   8
HETATM    8  N3  UNL     1      32.982  73.231  23.489  1.00  0.00     0.092 N 
HETATM    9  C10 UNL     1      32.995  73.420  24.905  1.00  0.00     0.310 C 
BRANCH   8  10
HETATM   10  C11 UNL     1      33.512  71.895  23.164  1.00  0.00     0.215 C 
HETATM   11  C12 UNL     1      32.579  70.776  23.404  1.00  0.00     0.042 C 
HETATM   12  C13 UNL     1      34.237  71.871  21.861  1.00  0.00     0.042 C 
ENDBRANCH   8  10
ENDBRANCH   7   8
ENDBRANCH   5   7
BRANCH   4  13
HETATM   13  C5  UNL     1      32.121  74.207  20.069  1.00  0.00    -0.060 C 
HETATM   14  C6  UNL     1      31.067  73.311  20.514  1.00  0.00     0.045 C 
HETATM   15  C7  UNL     1      32.333  74.494  18.624  1.00  0.00     0.045 C 
ENDBRANCH   4  13
BRANCH   1  16
HETATM   16  N1  UNL     1      31.292  78.755  21.472  1.00  0.00    -0.307 N 
HETATM   17  C2  UNL     1      31.084  79.620  22.521  1.00  0.00     0.219 C 
HETATM   18  C1  UNL     1      32.113  80.518  23.083  1.00  0.00     0.117 C 
HETATM   19  O1  UNL     1      29.904  79.639  23.046  1.00  0.00    -0.274 OA
ATOM     20  H1  UNL     1      31.020  79.043  20.531  1.00  0.00     0.171 HD
ENDBRANCH   1  16
TORSDOF 5
ENDMDL
MODEL 3
REMARK VINA RESULT: -6.244680473      2.632      6.081
REMARK  5 active torsions:
REMARK  status: ('A' for Active; 'I' for Inactive)
REMARK       I    between atoms: C2_2  and  N1_4 
REMARK    1  A    between atoms: N1_4  and  C3_6 
REMARK    2  A    between atoms: C4_9  and  C5_10 
REMARK    3  A    between atoms: C8_13  and  C9_14 
REMARK    4  A    between atoms: C9_14  and  N3_15 
REMARK    5  A    between atoms: N3_15  and  C11_17 
ROOT
HETATM    1  C3  UNL     1      32.120  75.845  19.427  1.00  0.00     0.152 A 
HETATM    2  N2  UNL     1      31.789  76.448  20.621  1.00  0.00    -0.335 N 
ATOM      3  H2  UNL     1      31.178  77.264  20.655  1.00  0.00     0.168 HD
HETATM    4  C4  UNL     1      32.296  75.921  21.712  1.00  0.00     0.050 A 
HETATM    5  C8  UNL     1      33.099  74.816  21.573  1.00  0.00     0.041 A 
HETATM    6  S1  UNL     1      33.114  74.572  19.897  1.00  0.00    -0.054 SA
ENDROOT
BRANCH   5   7
HETATM    7  C9  UNL     1      33.668  73.948  22.653  1.00  0.00     0.321 C 
BRANCH   7   8
HETATM    8  N3  UNL     1      32.875  72.801  22.921  1.00  0.00     0.092 N 
HETATM    9  C10 UNL     1      32.252  72.739  24.206  1.00  0.00     0.310 C 
BRANCH   8  10
HETATM   10  C11 UNL     1      33.767  71.641  22.748  1.00  0.00     0.215 C 
HETATM   11  C12 UNL     1      33.720  70.647  23.839  1.00  0.00     0.042 C 
HETATM   12  C13 UNL     1      33.723  71.089  21.363  1.00  0.00     0.042 C 
ENDBRANCH   8  10
ENDBRANCH   7   8
ENDBRANCH   5   7
BRANCH   4  13
HETATM   13  C5  UNL     1      32.240  76.675  23.048  1.00  0.00    -0.060 C 
HETATM   14  C6  UNL     1      32.658  78.066  22.995  1.00  0.00     0.045 C 
HETATM   15  C7  UNL     1      31.101  76.243  23.903  1.00  0.00     0.045 C 
ENDBRANCH   4  13
BRANCH   1  16
HETATM   16  N1  UNL     1      31.683  76.299  18.264  1.00  0.00    -0.307 N 
HETATM   17  C2  UNL     1      31.730  77.636  17.941  1.00  0.00     0.219 C 
HETATM   18  C1  UNL     1      32.920  78.327  17.405  1.00  0.00     0.117 C 
HETATM   19  O1  UNL     1      30.655  78.327  18.125  1.00  0.00    -0.274 OA
ATOM     20  H1  UNL     1      31.299  75.639  17.587  1.00  0.00     0.171 HD
ENDBRANCH   1  16
TORSDOF 5
ENDMDL
MODEL 4
REMARK VINA RESULT: -6.224181040      2.513      5.972
REMARK  5 active torsions:
REMARK  status: ('A' for Active; 'I' for Inactive)
REMARK       I    between atoms: C2_2  and  N1_4 
REMARK    1  A    between atoms: N1_4  and  C3_6 
REMARK    2  A    between atoms: C4_9  and  C5_10 
REMARK    3  A    between atoms: C8_13  and  C9_14 
REMARK    4  A    between atoms: C9_14  and  N3_15 
REMARK    5  A    between atoms: N3_15  and  C11_17 
ROOT
HETATM    1  C3  UNL     1      32.303  77.813  22.558  1.00  0.00     0.152 A 
HETATM    2  N2  UNL     1      32.216  77.523  21.214  1.00  0.00    -0.335 N 
ATOM      3  H2  UNL     1      32.273  78.253  20.505  1.00  0.00     0.168 HD
HETATM    4  C4  UNL     1      32.055  76.260  20.889  1.00  0.00     0.050 A 
HETATM    5  C8  UNL     1      31.999  75.342  21.908  1.00  0.00     0.041 A 
HETATM    6  S1  UNL     1      32.165  76.305  23.291  1.00  0.00    -0.054 SA
ENDROOT
BRANCH   5   7
HETATM    7  C9  UNL     1      31.976  73.847  21.802  1.00  0.00     0.321 C 
BRANCH   7   8
HETATM    8  N3  UNL     1      33.137  73.233  22.340  1.00  0.00     0.092 N 
HETATM    9  C10 UNL     1      33.857  72.354  21.474  1.00  0.00     0.310 C 
BRANCH   8  10
HETATM   10  C11 UNL     1      32.689  72.493  23.534  1.00  0.00     0.215 C 
HETATM   11  C12 UNL     1      32.620  71.026  23.371  1.00  0.00     0.042 C 
HETATM   12  C13 UNL     1      33.339  72.980  24.784  1.00  0.00     0.042 C 
ENDBRANCH   8  10
ENDBRANCH   7   8
ENDBRANCH   5   7
BRANCH   4  13
HETATM   13  C5  UNL     1      31.651  75.861  19.462  1.00  0.00    -0.060 C 
HETATM   14  C6  UNL     1      31.067  76.924  18.661  1.00  0.00     0.045 C 
HETATM   15  C7  UNL     1      32.575  74.860  18.863  1.00  0.00     0.045 C 
ENDBRANCH   4  13
BRANCH   1  16
HETATM   16  N1  UNL     1      32.447  79.050  23.002  1.00  0.00    -0.307 N 
HETATM   17  C2  UNL     1      31.582  80.057  22.643  1.00  0.00     0.219 C 
HETATM   18  C1  UNL     1      30.279  80.313  23.290  1.00  0.00     0.117 C 
HETATM   19  O1  UNL     1      31.942  80.826  21.670  1.00  0.00    -0.274 OA
ATOM     20  H1  UNL     1      33.223  79.263  23.630  1.00  0.00     0.171 HD
ENDBRANCH   1  16
TORSDOF 5
ENDMDL
MODEL 5
REMARK VINA RESULT: -6.180480675      2.458      4.424
REMARK  5 active torsions:
REMARK  status: ('A' for Active; 'I' for Inactive)
REMARK       I    between atoms: C2_2  and  N1_4 
REMARK    1  A    between atoms: N1_4  and  C3_6 
REMARK    2  A    between atoms: C4_9  and  C5_10 
REMARK    3  A    between atoms: C8_13  and  C9_14 
REMARK    4  A    between atoms: C9_14  and  N3_15 
REMARK    5  A    between atoms: N3_15  and  C11_17 
ROOT
HETATM    1  C3  UNL     1      31.862  77.139  21.697  1.00  0.00     0.152 A 
HETATM    2  N2  UNL     1      32.019  75.781  21.521  1.00  0.00    -0.335 N 
ATOM      3  H2  UNL     1      32.072  75.143  22.314  1.00  0.00     0.168 HD
HETATM    4  C4  UNL     1      32.097  75.349  20.282  1.00  0.00     0.050 A 
HETATM    5  C8  UNL     1      32.005  76.278  19.276  1.00  0.00     0.041 A 
HETATM    6  S1  UNL     1      31.823  77.733  20.123  1.00  0.00    -0.054 SA
ENDROOT
BRANCH   5   7
HETATM    7  C9  UNL     1      31.911  76.033  17.801  1.00  0.00     0.321 C 
BRANCH   7   8
HETATM    8  N3  UNL     1      30.590  75.750  17.366  1.00  0.00     0.092 N 
HETATM    9  C10 UNL     1      30.318  74.403  16.976  1.00  0.00     0.310 C 
BRANCH   8  10
HETATM   10  C11 UNL     1      30.332  76.655  16.231  1.00  0.00     0.215 C 
HETATM   11  C12 UNL     1      29.147  76.316  15.418  1.00  0.00     0.042 C 
HETATM   12  C13 UNL     1      30.479  78.091  16.602  1.00  0.00     0.042 C 
ENDBRANCH   8  10
ENDBRANCH   7   8
ENDBRANCH   5   7
BRANCH   4  13
HETATM   13  C5  UNL     1      32.566  73.919  19.978  1.00  0.00    -0.060 C 
HETATM   14  C6  UNL     1      33.940  73.623  20.349  1.00  0.00     0.045 C 
HETATM   15  C7  UNL     1      31.484  72.912  20.149  1.00  0.00     0.045 C 
ENDBRANCH   4  13
BRANCH   1  16
HETATM   16  N1  UNL     1      31.790  77.689  22.897  1.00  0.00    -0.307 N 
HETATM   17  C2  UNL     1      31.683  79.050  23.069  1.00  0.00     0.219 C 
HETATM   18  C1  UNL     1      30.417  79.806  22.994  1.00  0.00     0.117 C 
HETATM   19  O1  UNL     1      32.770  79.703  23.310  1.00  0.00    -0.274 OA
ATOM     20  H1  UNL     1      31.816  77.086  23.720  1.00  0.00     0.171 HD
ENDBRANCH   1  16
TORSDOF 5
ENDMDL
