MODEL 1
REMARK VINA RESULT: -8.637825723      0.000      0.000
REMARK  13 active torsions:
REMARK  status: ('A' for Active; 'I' for Inactive)
REMARK    1  A    between atoms: C3_3  and  C4_4 
REMARK       I    between atoms: C4_4  and  N1_6 
REMARK    2  A    between atoms: N1_6  and  C5_8 
REMARK    3  A    between atoms: C7_10  and  N2_11 
REMARK    4  A    between atoms: C9_15  and  C10_16 
REMARK    5  A    between atoms: N3_17  and  O4_19 
REMARK    6  A    between atoms: O4_19  and  C11_20 
REMARK    7  A    between atoms: C12_22  and  C13_23 
REMARK    8  A    between atoms: C13_23  and  O6_24 
REMARK    9  A    between atoms: C14_26  and  O7_27 
REMARK   10  A    between atoms: C15_29  and  O8_30 
REMARK   11  A    between atoms: C16_32  and  O9_33 
REMARK   12  A    between atoms: C17_35  and  N4_36 
REMARK   13  A    between atoms: N4_36  and  O10_38 
ROOT
HETATM    1  C5  UNL     1      27.261 -31.516  10.146  1.00  0.00     0.067 A 
HETATM    2  C6  UNL     1      26.769 -32.102   9.012  1.00  0.00     0.068 A 
HETATM    3  C7  UNL     1      25.611 -32.874   9.007  1.00  0.00     0.106 A 
HETATM    4  C8  UNL     1      24.953 -33.036  10.213  1.00  0.00     0.051 A 
HETATM    5  C9  UNL     1      25.422 -32.460  11.369  1.00  0.00     0.014 A 
HETATM    6  C17 UNL     1      26.556 -31.707  11.356  1.00  0.00     0.092 A 
ENDROOT
BRANCH   5   7
HETATM    7  C10 UNL     1      24.708 -32.650  12.614  1.00  0.00     0.128 C 
HETATM    8  N3  UNL     1      23.614 -32.032  12.825  1.00  0.00    -0.274 N 
ATOM      9  H3  UNL     1      23.271 -31.411  12.092  1.00  0.00     0.193 HD
BRANCH   8  10
HETATM   10  O4  UNL     1      22.867 -32.146  13.967  1.00  0.00    -0.245 OA
BRANCH  10  11
HETATM   11  C11 UNL     1      23.432 -32.748  15.083  1.00  0.00     0.320 C 
HETATM   12  O5  UNL     1      22.958 -32.276  16.289  1.00  0.00    -0.346 OA
HETATM   13  C12 UNL     1      21.636 -32.454  16.530  1.00  0.00     0.179 C 
HETATM   14  C14 UNL     1      20.897 -33.400  15.675  1.00  0.00     0.180 C 
HETATM   15  C15 UNL     1      21.704 -34.491  15.056  1.00  0.00     0.183 C 
HETATM   16  C16 UNL     1      23.168 -34.232  15.000  1.00  0.00     0.206 C 
BRANCH  13  17
HETATM   17  C13 UNL     1      21.477 -32.829  18.008  1.00  0.00     0.198 C 
BRANCH  17  18
HETATM   18  O6  UNL     1      20.152 -33.197  18.287  1.00  0.00    -0.398 OA
ATOM     19  H6  UNL     1      20.119 -33.819  19.004  1.00  0.00     0.209 HD
ENDBRANCH  17  18
ENDBRANCH  13  17
BRANCH  14  20
HETATM   20  O7  UNL     1      20.132 -32.701  14.712  1.00  0.00    -0.390 OA
ATOM     21  H7  UNL     1      19.790 -31.896  15.082  1.00  0.00     0.210 HD
ENDBRANCH  14  20
BRANCH  15  22
HETATM   22  O8  UNL     1      21.506 -35.738  15.673  1.00  0.00    -0.390 OA
ATOM     23  H8  UNL     1      20.594 -35.910  15.879  1.00  0.00     0.210 HD
ENDBRANCH  15  22
BRANCH  16  24
HETATM   24  O9  UNL     1      23.866 -34.828  16.055  1.00  0.00    -0.388 OA
ATOM     25  H9  UNL     1      24.752 -34.487  16.025  1.00  0.00     0.210 HD
ENDBRANCH  16  24
ENDBRANCH  10  11
ENDBRANCH   8  10
ENDBRANCH   5   7
BRANCH   6  26
HETATM   26  N4  UNL     1      27.045 -31.109  12.550  1.00  0.00    -0.266 N 
ATOM     27  H4  UNL     1      26.743 -30.159  12.771  1.00  0.00     0.194 HD
BRANCH  26  28
HETATM   28  O10 UNL     1      27.818 -31.675  13.337  1.00  0.00    -0.289 OA
ATOM     29  H10 UNL     1      28.709 -31.388  13.498  1.00  0.00     0.244 HD
ENDBRANCH  26  28
ENDBRANCH   6  26
BRANCH   3  30
HETATM   30  N2  UNL     1      25.103 -33.476   7.850  1.00  0.00    -0.116 N 
HETATM   31  O2  UNL     1      23.981 -33.999   7.858  1.00  0.00    -0.532 OA
HETATM   32  O3  UNL     1      25.841 -33.494   6.701  1.00  0.00    -0.532 OA
ENDBRANCH   3  30
BRANCH   1  33
HETATM   33  N1  UNL     1      28.426 -30.736  10.162  1.00  0.00    -0.322 N 
HETATM   34  C4  UNL     1      29.686 -31.070  10.649  1.00  0.00     0.245 C 
HETATM   35  O1  UNL     1      29.937 -32.169  11.158  1.00  0.00    -0.268 OA
ATOM     36  H1  UNL     1      28.339 -29.801   9.765  1.00  0.00     0.169 HD
BRANCH  34  37
HETATM   37  C3  UNL     1      30.801 -30.103  10.577  1.00  0.00     0.070 C 
HETATM   38  C2  UNL     1      30.637 -28.818  10.737  1.00  0.00    -0.026 C 
HETATM   39  C1  UNL     1      29.351 -28.176  11.002  1.00  0.00     0.036 C 
ENDBRANCH  34  37
ENDBRANCH   1  33
TORSDOF 13
ENDMDL
MODEL 2
REMARK VINA RESULT: -8.291748091      2.051      4.289
REMARK  13 active torsions:
REMARK  status: ('A' for Active; 'I' for Inactive)
REMARK    1  A    between atoms: C3_3  and  C4_4 
REMARK       I    between atoms: C4_4  and  N1_6 
REMARK    2  A    between atoms: N1_6  and  C5_8 
REMARK    3  A    between atoms: C7_10  and  N2_11 
REMARK    4  A    between atoms: C9_15  and  C10_16 
REMARK    5  A    between atoms: N3_17  and  O4_19 
REMARK    6  A    between atoms: O4_19  and  C11_20 
REMARK    7  A    between atoms: C12_22  and  C13_23 
REMARK    8  A    between atoms: C13_23  and  O6_24 
REMARK    9  A    between atoms: C14_26  and  O7_27 
REMARK   10  A    between atoms: C15_29  and  O8_30 
REMARK   11  A    between atoms: C16_32  and  O9_33 
REMARK   12  A    between atoms: C17_35  and  N4_36 
REMARK   13  A    between atoms: N4_36  and  O10_38 
ROOT
HETATM    1  C5  UNL     1      27.294 -32.764  10.176  1.00  0.00     0.067 A 
HETATM    2  C6  UNL     1      28.548 -32.711  10.723  1.00  0.00     0.068 A 
HETATM    3  C7  UNL     1      28.771 -32.402  12.061  1.00  0.00     0.106 A 
HETATM    4  C8  UNL     1      27.660 -32.141  12.844  1.00  0.00     0.051 A 
HETATM    5  C9  UNL     1      26.389 -32.186  12.324  1.00  0.00     0.014 A 
HETATM    6  C17 UNL     1      26.188 -32.491  11.013  1.00  0.00     0.092 A 
ENDROOT
BRANCH   5   7
HETATM    7  C10 UNL     1      25.249 -31.909  13.173  1.00  0.00     0.128 C 
HETATM    8  N3  UNL     1      24.745 -32.833  13.889  1.00  0.00    -0.274 N 
ATOM      9  H3  UNL     1      25.172 -33.758  13.839  1.00  0.00     0.193 HD
BRANCH   8  10
HETATM   10  O4  UNL     1      23.671 -32.670  14.723  1.00  0.00    -0.245 OA
BRANCH  10  11
HETATM   11  C11 UNL     1      23.171 -33.774  15.400  1.00  0.00     0.320 C 
HETATM   12  O5  UNL     1      23.055 -33.604  16.763  1.00  0.00    -0.346 OA
HETATM   13  C12 UNL     1      22.211 -32.630  17.182  1.00  0.00     0.179 C 
HETATM   14  C14 UNL     1      21.259 -32.072  16.204  1.00  0.00     0.180 C 
HETATM   15  C15 UNL     1      20.874 -32.971  15.078  1.00  0.00     0.183 C 
HETATM   16  C16 UNL     1      21.812 -34.100  14.830  1.00  0.00     0.206 C 
BRANCH  13  17
HETATM   17  C13 UNL     1      21.468 -33.154  18.416  1.00  0.00     0.198 C 
BRANCH  17  18
HETATM   18  O6  UNL     1      20.079 -33.113  18.213  1.00  0.00    -0.398 OA
ATOM     19  H6  UNL     1      19.784 -33.890  17.753  1.00  0.00     0.209 HD
ENDBRANCH  17  18
ENDBRANCH  13  17
BRANCH  14  20
HETATM   20  O7  UNL     1      21.707 -30.813  15.742  1.00  0.00    -0.390 OA
ATOM     21  H7  UNL     1      21.199 -30.536  14.989  1.00  0.00     0.210 HD
ENDBRANCH  14  20
BRANCH  15  22
HETATM   22  O8  UNL     1      19.580 -33.503  15.217  1.00  0.00    -0.390 OA
ATOM     23  H8  UNL     1      19.232 -33.849  14.404  1.00  0.00     0.210 HD
ENDBRANCH  15  22
BRANCH  16  24
HETATM   24  O9  UNL     1      21.396 -35.293  15.427  1.00  0.00    -0.388 OA
ATOM     25  H9  UNL     1      20.508 -35.154  15.732  1.00  0.00     0.210 HD
ENDBRANCH  16  24
ENDBRANCH  10  11
ENDBRANCH   8  10
ENDBRANCH   5   7
BRANCH   6  26
HETATM   26  N4  UNL     1      24.875 -32.539  10.470  1.00  0.00    -0.266 N 
ATOM     27  H4  UNL     1      24.200 -33.172  10.900  1.00  0.00     0.194 HD
BRANCH  26  28
HETATM   28  O10 UNL     1      24.505 -31.856   9.504  1.00  0.00    -0.289 OA
ATOM     29  H10 UNL     1      23.944 -31.094   9.582  1.00  0.00     0.244 HD
ENDBRANCH  26  28
ENDBRANCH   6  26
BRANCH   3  30
HETATM   30  N2  UNL     1      30.049 -32.346  12.626  1.00  0.00    -0.116 N 
HETATM   31  O2  UNL     1      31.051 -32.264  11.902  1.00  0.00    -0.532 OA
HETATM   32  O3  UNL     1      30.207 -32.382  13.983  1.00  0.00    -0.532 OA
ENDBRANCH   3  30
BRANCH   1  33
HETATM   33  N1  UNL     1      27.058 -33.075   8.829  1.00  0.00    -0.322 N 
HETATM   34  C4  UNL     1      27.176 -34.304   8.189  1.00  0.00     0.245 C 
HETATM   35  O1  UNL     1      27.528 -35.334   8.778  1.00  0.00    -0.268 OA
ATOM     36  H1  UNL     1      26.761 -32.296   8.241  1.00  0.00     0.169 HD
BRANCH  34  37
HETATM   37  C3  UNL     1      26.881 -34.433   6.748  1.00  0.00     0.070 C 
HETATM   38  C2  UNL     1      25.666 -34.482   6.273  1.00  0.00    -0.026 C 
HETATM   39  C1  UNL     1      24.457 -34.418   7.091  1.00  0.00     0.036 C 
ENDBRANCH  34  37
ENDBRANCH   1  33
TORSDOF 13
ENDMDL
MODEL 3
REMARK VINA RESULT: -8.271120133      2.858      8.720
REMARK  13 active torsions:
REMARK  status: ('A' for Active; 'I' for Inactive)
REMARK    1  A    between atoms: C3_3  and  C4_4 
REMARK       I    between atoms: C4_4  and  N1_6 
REMARK    2  A    between atoms: N1_6  and  C5_8 
REMARK    3  A    between atoms: C7_10  and  N2_11 
REMARK    4  A    between atoms: C9_15  and  C10_16 
REMARK    5  A    between atoms: N3_17  and  O4_19 
REMARK    6  A    between atoms: O4_19  and  C11_20 
REMARK    7  A    between atoms: C12_22  and  C13_23 
REMARK    8  A    between atoms: C13_23  and  O6_24 
REMARK    9  A    between atoms: C14_26  and  O7_27 
REMARK   10  A    between atoms: C15_29  and  O8_30 
REMARK   11  A    between atoms: C16_32  and  O9_33 
REMARK   12  A    between atoms: C17_35  and  N4_36 
REMARK   13  A    between atoms: N4_36  and  O10_38 
ROOT
HETATM    1  C5  UNL     1      25.300 -32.328  12.417  1.00  0.00     0.067 A 
HETATM    2  C6  UNL     1      24.915 -32.807  11.193  1.00  0.00     0.068 A 
HETATM    3  C7  UNL     1      25.582 -32.481  10.016  1.00  0.00     0.106 A 
HETATM    4  C8  UNL     1      26.673 -31.637  10.120  1.00  0.00     0.051 A 
HETATM    5  C9  UNL     1      27.084 -31.141  11.333  1.00  0.00     0.014 A 
HETATM    6  C17 UNL     1      26.421 -31.470  12.475  1.00  0.00     0.092 A 
ENDROOT
BRANCH   5   7
HETATM    7  C10 UNL     1      28.231 -30.260  11.404  1.00  0.00     0.128 C 
HETATM    8  N3  UNL     1      28.752 -29.800  10.336  1.00  0.00    -0.274 N 
ATOM      9  H3  UNL     1      28.333 -30.074   9.448  1.00  0.00     0.193 HD
BRANCH   8  10
HETATM   10  O4  UNL     1      29.835 -28.962  10.300  1.00  0.00    -0.245 OA
BRANCH  10  11
HETATM   11  C11 UNL     1      29.629 -27.606  10.087  1.00  0.00     0.320 C 
HETATM   12  O5  UNL     1      29.377 -26.879  11.231  1.00  0.00    -0.346 OA
HETATM   13  C12 UNL     1      30.361 -26.856  12.162  1.00  0.00     0.179 C 
HETATM   14  C14 UNL     1      31.706 -27.307  11.758  1.00  0.00     0.180 C 
HETATM   15  C15 UNL     1      32.035 -27.174  10.310  1.00  0.00     0.183 C 
HETATM   16  C16 UNL     1      30.856 -27.045   9.410  1.00  0.00     0.206 C 
BRANCH  13  17
HETATM   17  C13 UNL     1      30.423 -25.439  12.743  1.00  0.00     0.198 C 
BRANCH  17  18
HETATM   18  O6  UNL     1      29.968 -25.427  14.071  1.00  0.00    -0.398 OA
ATOM     19  H6  UNL     1      29.263 -24.800  14.179  1.00  0.00     0.209 HD
ENDBRANCH  17  18
ENDBRANCH  13  17
BRANCH  14  20
HETATM   20  O7  UNL     1      31.951 -28.616  12.235  1.00  0.00    -0.390 OA
ATOM     21  H7  UNL     1      32.885 -28.775  12.301  1.00  0.00     0.210 HD
ENDBRANCH  14  20
BRANCH  15  22
HETATM   22  O8  UNL     1      32.907 -26.104  10.041  1.00  0.00    -0.390 OA
ATOM     23  H8  UNL     1      32.664 -25.614   9.265  1.00  0.00     0.210 HD
ENDBRANCH  15  22
BRANCH  16  24
HETATM   24  O9  UNL     1      30.567 -25.718   9.080  1.00  0.00    -0.388 OA
ATOM     25  H9  UNL     1      30.361 -25.703   8.153  1.00  0.00     0.210 HD
ENDBRANCH  16  24
ENDBRANCH  10  11
ENDBRANCH   8  10
ENDBRANCH   5   7
BRANCH   6  26
HETATM   26  N4  UNL     1      26.842 -30.959  13.734  1.00  0.00    -0.266 N 
ATOM     27  H4  UNL     1      27.739 -31.275  14.105  1.00  0.00     0.194 HD
BRANCH  26  28
HETATM   28  O10 UNL     1      26.182 -30.152  14.404  1.00  0.00    -0.289 OA
ATOM     29  H10 UNL     1      25.299 -29.881  14.183  1.00  0.00     0.244 HD
ENDBRANCH  26  28
ENDBRANCH   6  26
BRANCH   3  30
HETATM   30  N2  UNL     1      25.193 -32.966   8.763  1.00  0.00    -0.116 N 
HETATM   31  O2  UNL     1      24.054 -33.419   8.593  1.00  0.00    -0.532 OA
HETATM   32  O3  UNL     1      26.068 -32.946   7.713  1.00  0.00    -0.532 OA
ENDBRANCH   3  30
BRANCH   1  33
HETATM   33  N1  UNL     1      24.636 -32.650  13.609  1.00  0.00    -0.322 N 
HETATM   34  C4  UNL     1      23.629 -31.945  14.258  1.00  0.00     0.245 C 
HETATM   35  O1  UNL     1      23.174 -30.878  13.827  1.00  0.00    -0.268 OA
ATOM     36  H1  UNL     1      24.931 -33.517  14.059  1.00  0.00     0.169 HD
BRANCH  34  37
HETATM   37  C3  UNL     1      23.049 -32.451  15.519  1.00  0.00     0.070 C 
HETATM   38  C2  UNL     1      21.870 -33.008  15.586  1.00  0.00    -0.026 C 
HETATM   39  C1  UNL     1      20.983 -33.201  14.441  1.00  0.00     0.036 C 
ENDBRANCH  34  37
ENDBRANCH   1  33
TORSDOF 13
ENDMDL
MODEL 4
REMARK VINA RESULT: -8.254483924      3.401      9.282
REMARK  13 active torsions:
REMARK  status: ('A' for Active; 'I' for Inactive)
REMARK    1  A    between atoms: C3_3  and  C4_4 
REMARK       I    between atoms: C4_4  and  N1_6 
REMARK    2  A    between atoms: N1_6  and  C5_8 
REMARK    3  A    between atoms: C7_10  and  N2_11 
REMARK    4  A    between atoms: C9_15  and  C10_16 
REMARK    5  A    between atoms: N3_17  and  O4_19 
REMARK    6  A    between atoms: O4_19  and  C11_20 
REMARK    7  A    between atoms: C12_22  and  C13_23 
REMARK    8  A    between atoms: C13_23  and  O6_24 
REMARK    9  A    between atoms: C14_26  and  O7_27 
REMARK   10  A    between atoms: C15_29  and  O8_30 
REMARK   11  A    between atoms: C16_32  and  O9_33 
REMARK   12  A    between atoms: C17_35  and  N4_36 
REMARK   13  A    between atoms: N4_36  and  O10_38 
ROOT
HETATM    1  C5  UNL     1      26.587 -33.544  10.635  1.00  0.00     0.067 A 
HETATM    2  C6  UNL     1      25.613 -33.189  11.529  1.00  0.00     0.068 A 
HETATM    3  C7  UNL     1      25.620 -31.972  12.203  1.00  0.00     0.106 A 
HETATM    4  C8  UNL     1      26.667 -31.108  11.938  1.00  0.00     0.051 A 
HETATM    5  C9  UNL     1      27.659 -31.434  11.045  1.00  0.00     0.014 A 
HETATM    6  C17 UNL     1      27.637 -32.629  10.393  1.00  0.00     0.092 A 
ENDROOT
BRANCH   5   7
HETATM    7  C10 UNL     1      28.740 -30.505  10.791  1.00  0.00     0.128 C 
HETATM    8  N3  UNL     1      28.486 -29.280  10.551  1.00  0.00    -0.274 N 
ATOM      9  H3  UNL     1      27.509 -28.989  10.546  1.00  0.00     0.193 HD
BRANCH   8  10
HETATM   10  O4  UNL     1      29.437 -28.326  10.300  1.00  0.00    -0.245 OA
BRANCH  10  11
HETATM   11  C11 UNL     1      30.723 -28.514  10.787  1.00  0.00     0.320 C 
HETATM   12  O5  UNL     1      31.689 -28.648   9.812  1.00  0.00    -0.346 OA
HETATM   13  C12 UNL     1      31.868 -27.586   8.989  1.00  0.00     0.179 C 
HETATM   14  C14 UNL     1      31.282 -26.294   9.388  1.00  0.00     0.180 C 
HETATM   15  C15 UNL     1      31.087 -26.088  10.853  1.00  0.00     0.183 C 
HETATM   16  C16 UNL     1      31.071 -27.335  11.663  1.00  0.00     0.206 C 
BRANCH  13  17
HETATM   17  C13 UNL     1      33.373 -27.438   8.737  1.00  0.00     0.198 C 
BRANCH  17  18
HETATM   18  O6  UNL     1      34.011 -26.881   9.856  1.00  0.00    -0.398 OA
ATOM     19  H6  UNL     1      34.914 -26.664   9.654  1.00  0.00     0.209 HD
ENDBRANCH  17  18
ENDBRANCH  13  17
BRANCH  14  20
HETATM   20  O7  UNL     1      30.097 -26.043   8.659  1.00  0.00    -0.390 OA
ATOM     21  H7  UNL     1      30.101 -25.158   8.314  1.00  0.00     0.210 HD
ENDBRANCH  14  20
BRANCH  15  22
HETATM   22  O8  UNL     1      32.034 -25.214  11.415  1.00  0.00    -0.390 OA
ATOM     23  H8  UNL     1      31.994 -25.185  12.364  1.00  0.00     0.210 HD
ENDBRANCH  15  22
BRANCH  16  24
HETATM   24  O9  UNL     1      32.308 -27.618  12.251  1.00  0.00    -0.388 OA
ATOM     25  H9  UNL     1      32.128 -27.978  13.111  1.00  0.00     0.210 HD
ENDBRANCH  16  24
ENDBRANCH  10  11
ENDBRANCH   8  10
ENDBRANCH   5   7
BRANCH   6  26
HETATM   26  N4  UNL     1      28.662 -32.973   9.469  1.00  0.00    -0.266 N 
ATOM     27  H4  UNL     1      28.741 -32.422   8.613  1.00  0.00     0.194 HD
BRANCH  26  28
HETATM   28  O10 UNL     1      29.463 -33.902   9.644  1.00  0.00    -0.289 OA
ATOM     29  H10 UNL     1      29.750 -34.488   8.953  1.00  0.00     0.244 HD
ENDBRANCH  26  28
ENDBRANCH   6  26
BRANCH   3  30
HETATM   30  N2  UNL     1      24.628 -31.605  13.119  1.00  0.00    -0.116 N 
HETATM   31  O2  UNL     1      24.927 -31.329  14.289  1.00  0.00    -0.532 OA
HETATM   32  O3  UNL     1      23.319 -31.546  12.731  1.00  0.00    -0.532 OA
ENDBRANCH   3  30
BRANCH   1  33
HETATM   33  N1  UNL     1      26.590 -34.767   9.950  1.00  0.00    -0.322 N 
HETATM   34  C4  UNL     1      26.462 -34.997   8.584  1.00  0.00     0.245 C 
HETATM   35  O1  UNL     1      26.321 -34.083   7.762  1.00  0.00    -0.268 OA
ATOM     36  H1  UNL     1      26.700 -35.599  10.530  1.00  0.00     0.169 HD
BRANCH  34  37
HETATM   37  C3  UNL     1      26.488 -36.372   8.046  1.00  0.00     0.070 C 
HETATM   38  C2  UNL     1      27.324 -37.283   8.465  1.00  0.00    -0.026 C 
HETATM   39  C1  UNL     1      28.330 -37.065   9.503  1.00  0.00     0.036 C 
ENDBRANCH  34  37
ENDBRANCH   1  33
TORSDOF 13
ENDMDL
MODEL 5
REMARK VINA RESULT: -8.246928805      2.882      8.922
REMARK  13 active torsions:
REMARK  status: ('A' for Active; 'I' for Inactive)
REMARK    1  A    between atoms: C3_3  and  C4_4 
REMARK       I    between atoms: C4_4  and  N1_6 
REMARK    2  A    between atoms: N1_6  and  C5_8 
REMARK    3  A    between atoms: C7_10  and  N2_11 
REMARK    4  A    between atoms: C9_15  and  C10_16 
REMARK    5  A    between atoms: N3_17  and  O4_19 
REMARK    6  A    between atoms: O4_19  and  C11_20 
REMARK    7  A    between atoms: C12_22  and  C13_23 
REMARK    8  A    between atoms: C13_23  and  O6_24 
REMARK    9  A    between atoms: C14_26  and  O7_27 
REMARK   10  A    between atoms: C15_29  and  O8_30 
REMARK   11  A    between atoms: C16_32  and  O9_33 
REMARK   12  A    between atoms: C17_35  and  N4_36 
REMARK   13  A    between atoms: N4_36  and  O10_38 
ROOT
HETATM    1  C5  UNL     1      25.498 -32.517  12.436  1.00  0.00     0.067 A 
HETATM    2  C6  UNL     1      25.071 -33.113  11.280  1.00  0.00     0.068 A 
HETATM    3  C7  UNL     1      25.774 -33.020  10.083  1.00  0.00     0.106 A 
HETATM    4  C8  UNL     1      26.948 -32.287  10.094  1.00  0.00     0.051 A 
HETATM    5  C9  UNL     1      27.402 -31.677  11.237  1.00  0.00     0.014 A 
HETATM    6  C17 UNL     1      26.702 -31.779  12.401  1.00  0.00     0.092 A 
ENDROOT
BRANCH   5   7
HETATM    7  C10 UNL     1      28.635 -30.918  11.213  1.00  0.00     0.128 C 
HETATM    8  N3  UNL     1      28.822 -30.031  10.318  1.00  0.00    -0.274 N 
ATOM      9  H3  UNL     1      28.080 -29.882   9.635  1.00  0.00     0.193 HD
BRANCH   8  10
HETATM   10  O4  UNL     1      29.951 -29.262  10.212  1.00  0.00    -0.245 OA
BRANCH  10  11
HETATM   11  C11 UNL     1      30.181 -28.272  11.156  1.00  0.00     0.320 C 
HETATM   12  O5  UNL     1      31.500 -27.888  11.273  1.00  0.00    -0.346 OA
HETATM   13  C12 UNL     1      32.071 -27.344  10.171  1.00  0.00     0.179 C 
HETATM   14  C14 UNL     1      31.185 -26.905   9.077  1.00  0.00     0.180 C 
HETATM   15  C15 UNL     1      29.796 -26.530   9.470  1.00  0.00     0.183 C 
HETATM   16  C16 UNL     1      29.352 -27.066  10.785  1.00  0.00     0.206 C 
BRANCH  13  17
HETATM   17  C13 UNL     1      32.968 -26.189  10.631  1.00  0.00     0.198 C 
BRANCH  17  18
HETATM   18  O6  UNL     1      32.214 -25.210  11.298  1.00  0.00    -0.398 OA
ATOM     19  H6  UNL     1      32.781 -24.629  11.793  1.00  0.00     0.209 HD
ENDBRANCH  17  18
ENDBRANCH  13  17
BRANCH  14  20
HETATM   20  O7  UNL     1      31.198 -27.849   8.024  1.00  0.00    -0.390 OA
ATOM     21  H7  UNL     1      31.932 -28.444   8.121  1.00  0.00     0.210 HD
ENDBRANCH  14  20
BRANCH  15  22
HETATM   22  O8  UNL     1      29.582 -25.141   9.470  1.00  0.00    -0.390 OA
ATOM     23  H8  UNL     1      28.879 -24.875  10.051  1.00  0.00     0.210 HD
ENDBRANCH  15  22
BRANCH  16  24
HETATM   24  O9  UNL     1      29.491 -26.142  11.824  1.00  0.00    -0.388 OA
ATOM     25  H9  UNL     1      30.160 -25.524  11.555  1.00  0.00     0.210 HD
ENDBRANCH  16  24
ENDBRANCH  10  11
ENDBRANCH   8  10
ENDBRANCH   5   7
BRANCH   6  26
HETATM   26  N4  UNL     1      27.168 -31.149  13.588  1.00  0.00    -0.266 N 
ATOM     27  H4  UNL     1      28.145 -31.282  13.851  1.00  0.00     0.194 HD
BRANCH  26  28
HETATM   28  O10 UNL     1      26.455 -30.448  14.320  1.00  0.00    -0.289 OA
ATOM     29  H10 UNL     1      26.787 -29.734  14.851  1.00  0.00     0.244 HD
ENDBRANCH  26  28
ENDBRANCH   6  26
BRANCH   3  30
HETATM   30  N2  UNL     1      25.343 -33.627   8.898  1.00  0.00    -0.116 N 
HETATM   31  O2  UNL     1      24.210 -33.398   8.454  1.00  0.00    -0.532 OA
HETATM   32  O3  UNL     1      26.168 -34.479   8.219  1.00  0.00    -0.532 OA
ENDBRANCH   3  30
BRANCH   1  33
HETATM   33  N1  UNL     1      24.797 -32.605  13.647  1.00  0.00    -0.322 N 
HETATM   34  C4  UNL     1      23.483 -32.239  13.918  1.00  0.00     0.245 C 
HETATM   35  O1  UNL     1      22.731 -31.760  13.059  1.00  0.00    -0.268 OA
ATOM     36  H1  UNL     1      25.321 -32.988  14.434  1.00  0.00     0.169 HD
BRANCH  34  37
HETATM   37  C3  UNL     1      22.918 -32.409  15.272  1.00  0.00     0.070 C 
HETATM   38  C2  UNL     1      22.532 -33.564  15.741  1.00  0.00    -0.026 C 
HETATM   39  C1  UNL     1      22.606 -34.822  15.000  1.00  0.00     0.036 C 
ENDBRANCH  34  37
ENDBRANCH   1  33
TORSDOF 13
ENDMDL
