MODEL 1
REMARK VINA RESULT: -3.046466964      0.000      0.000
REMARK  2 active torsions:
REMARK  status: ('A' for Active; 'I' for Inactive)
REMARK    1  A    between atoms: C1_4  and  C2_5 
REMARK    2  A    between atoms: C1_4  and  O1_7 
ROOT
HETATM    1  N1  UNL     1      84.902  -7.112   8.502  1.00  0.00    -0.382 N 
ATOM      2  H11 UNL     1      84.835  -7.332   9.495  1.00  0.00     0.158 HD
ATOM      3  H12 UNL     1      84.204  -7.441   7.834  1.00  0.00     0.158 HD
HETATM    4  C1  UNL     1      85.875  -6.412   8.066  1.00  0.00     0.137 C 
ENDROOT
BRANCH   4   5
HETATM    5  C2  UNL     1      85.973  -6.091   6.618  1.00  0.00     0.170 C 
HETATM    6  S1  UNL     1      87.698  -5.744   6.135  1.00  0.00    -0.089 SA
ENDBRANCH   4   5
BRANCH   4   7
HETATM    7  O1  UNL     1      86.823  -5.965   8.972  1.00  0.00    -0.252 OA
HETATM    8  S2  UNL     1      86.637  -4.418   9.674  1.00  0.00     0.101 SA
ENDBRANCH   4   7
TORSDOF 2
ENDMDL
MODEL 2
REMARK VINA RESULT: -2.980838367      1.015      1.015
REMARK  2 active torsions:
REMARK  status: ('A' for Active; 'I' for Inactive)
REMARK    1  A    between atoms: C1_4  and  C2_5 
REMARK    2  A    between atoms: C1_4  and  O1_7 
ROOT
HETATM    1  N1  UNL     1      85.350  -7.331   7.654  1.00  0.00    -0.382 N 
ATOM      2  H11 UNL     1      84.965  -7.536   8.576  1.00  0.00     0.158 HD
ATOM      3  H12 UNL     1      85.565  -8.074   6.988  1.00  0.00     0.158 HD
HETATM    4  C1  UNL     1      85.575  -6.124   7.309  1.00  0.00     0.137 C 
ENDROOT
BRANCH   4   5
HETATM    5  C2  UNL     1      86.135  -5.824   5.966  1.00  0.00     0.170 C 
HETATM    6  S1  UNL     1      87.959  -5.763   6.011  1.00  0.00    -0.089 SA
ENDBRANCH   4   5
BRANCH   4   7
HETATM    7  O1  UNL     1      85.283  -5.116   8.213  1.00  0.00    -0.252 OA
HETATM    8  S2  UNL     1      86.450  -4.686   9.386  1.00  0.00     0.101 SA
ENDBRANCH   4   7
TORSDOF 2
ENDMDL
MODEL 3
REMARK VINA RESULT: -2.804689479      1.524      2.683
REMARK  2 active torsions:
REMARK  status: ('A' for Active; 'I' for Inactive)
REMARK    1  A    between atoms: C1_4  and  C2_5 
REMARK    2  A    between atoms: C1_4  and  O1_7 
ROOT
HETATM    1  N1  UNL     1      84.992  -7.116   8.372  1.00  0.00    -0.382 N 
ATOM      2  H11 UNL     1      84.126  -7.449   7.949  1.00  0.00     0.158 HD
ATOM      3  H12 UNL     1      85.271  -7.403   9.311  1.00  0.00     0.158 HD
HETATM    4  C1  UNL     1      85.755  -6.323   7.729  1.00  0.00     0.137 C 
ENDROOT
BRANCH   4   5
HETATM    5  C2  UNL     1      87.017  -5.838   8.346  1.00  0.00     0.170 C 
HETATM    6  S1  UNL     1      86.688  -4.540   9.586  1.00  0.00    -0.089 SA
ENDBRANCH   4   5
BRANCH   4   7
HETATM    7  O1  UNL     1      85.376  -5.934   6.454  1.00  0.00    -0.252 OA
HETATM    8  S2  UNL     1      86.211  -4.652   5.693  1.00  0.00     0.101 SA
ENDBRANCH   4   7
TORSDOF 2
ENDMDL
MODEL 4
REMARK VINA RESULT: -2.754325583      2.508      2.525
REMARK  2 active torsions:
REMARK  status: ('A' for Active; 'I' for Inactive)
REMARK    1  A    between atoms: C1_4  and  C2_5 
REMARK    2  A    between atoms: C1_4  and  O1_7 
ROOT
HETATM    1  N1  UNL     1      86.069  -3.589   5.577  1.00  0.00    -0.382 N 
ATOM      2  H11 UNL     1      85.692  -2.703   5.914  1.00  0.00     0.158 HD
ATOM      3  H12 UNL     1      86.518  -3.665   4.664  1.00  0.00     0.158 HD
HETATM    4  C1  UNL     1      85.984  -4.637   6.299  1.00  0.00     0.137 C 
ENDROOT
BRANCH   4   5
HETATM    5  C2  UNL     1      86.533  -5.928   5.808  1.00  0.00     0.170 C 
HETATM    6  S1  UNL     1      88.343  -6.000   6.028  1.00  0.00    -0.089 SA
ENDBRANCH   4   5
BRANCH   4   7
HETATM    7  O1  UNL     1      85.374  -4.534   7.539  1.00  0.00    -0.252 OA
HETATM    8  S2  UNL     1      86.036  -5.388   8.864  1.00  0.00     0.101 SA
ENDBRANCH   4   7
TORSDOF 2
ENDMDL
MODEL 5
REMARK VINA RESULT: -2.503449905      2.438      2.438
REMARK  2 active torsions:
REMARK  status: ('A' for Active; 'I' for Inactive)
REMARK    1  A    between atoms: C1_4  and  C2_5 
REMARK    2  A    between atoms: C1_4  and  O1_7 
ROOT
HETATM    1  N1  UNL     1      88.442  -6.398   5.953  1.00  0.00    -0.382 N 
ATOM      2  H11 UNL     1      89.271  -6.686   6.473  1.00  0.00     0.158 HD
ATOM      3  H12 UNL     1      88.404  -6.456   4.935  1.00  0.00     0.158 HD
HETATM    4  C1  UNL     1      87.421  -5.953   6.573  1.00  0.00     0.137 C 
ENDROOT
BRANCH   4   5
HETATM    5  C2  UNL     1      86.212  -5.534   5.817  1.00  0.00     0.170 C 
HETATM    6  S1  UNL     1      86.231  -3.739   5.486  1.00  0.00    -0.089 SA
ENDBRANCH   4   5
BRANCH   4   7
HETATM    7  O1  UNL     1      87.473  -5.874   7.956  1.00  0.00    -0.252 OA
HETATM    8  S2  UNL     1      86.048  -5.499   8.821  1.00  0.00     0.101 SA
ENDBRANCH   4   7
TORSDOF 2
ENDMDL
