MODEL 1
REMARK VINA RESULT: -6.535962804      0.000      0.000
REMARK  3 active torsions:
REMARK  status: ('A' for Active; 'I' for Inactive)
REMARK       I    between atoms: C1_4  and  N3_6 
REMARK       I    between atoms: N3_6  and  C2_8 
REMARK       I    between atoms: C2_8  and  N5_12 
REMARK    1  A    between atoms: C6_16  and  C7_17 
REMARK       I    between atoms: C7_17  and  N6_19 
REMARK    2  A    between atoms: N6_19  and  S1_21 
REMARK    3  A    between atoms: S1_21  and  N7_22 
ROOT
HETATM    1  N1  UNL     1       4.004  20.728  18.974  1.00  0.00    -0.373 N 
ATOM      2  H11 UNL     1       4.060  19.710  18.988  1.00  0.00     0.158 HD
ATOM      3  H12 UNL     1       3.451  21.215  18.269  1.00  0.00     0.158 HD
HETATM    4  C1  UNL     1       4.652  21.357  19.880  1.00  0.00     0.200 C 
HETATM    5  N2  UNL     1       4.572  22.796  19.861  1.00  0.00    -0.063 NA
HETATM    6  N3  UNL     1       5.417  20.684  20.854  1.00  0.00    -0.164 N 
ATOM      7  H3  UNL     1       6.273  21.108  21.210  1.00  0.00     0.187 HD
HETATM    8  C2  UNL     1       5.001  19.427  21.337  1.00  0.00     0.677 C 
HETATM    9  N4  UNL     1       4.250  18.719  20.560  1.00  0.00    -0.234 N 
ATOM     10  H41 UNL     1       3.950  17.808  20.909  1.00  0.00     0.174 HD
ATOM     11  H42 UNL     1       3.984  19.079  19.644  1.00  0.00     0.174 HD
HETATM   12  N5  UNL     1       5.370  18.930  22.602  1.00  0.00    -0.204 N 
HETATM   13  C3  UNL     1       6.621  19.183  23.253  1.00  0.00     0.142 C 
HETATM   14  C4  UNL     1       6.996  17.758  23.688  1.00  0.00     0.023 C 
HETATM   15  C5  UNL     1       5.665  17.199  24.100  1.00  0.00     0.037 C 
HETATM   16  C6  UNL     1       4.595  18.096  23.467  1.00  0.00     0.195 C 
ENDROOT
BRANCH  16  17
HETATM   17  C7  UNL     1       3.912  18.789  24.564  1.00  0.00     0.255 C 
HETATM   18  O1  UNL     1       3.377  19.908  24.260  1.00  0.00    -0.270 OA
HETATM   19  N6  UNL     1       3.792  18.349  25.897  1.00  0.00    -0.236 N 
ATOM     20  H6  UNL     1       4.210  17.461  26.174  1.00  0.00     0.183 HD
BRANCH  19  21
HETATM   21  S1  UNL     1       2.946  19.294  27.063  1.00  0.00     0.319 S 
HETATM   22  O2  UNL     1       3.869  20.333  27.683  1.00  0.00    -0.183 OA
HETATM   23  O3  UNL     1       2.497  18.407  28.192  1.00  0.00    -0.183 OA
BRANCH  21  24
HETATM   24  N7  UNL     1       1.614  20.104  26.437  1.00  0.00    -0.311 N 
ATOM     25  H72 UNL     1       1.630  20.553  25.521  1.00  0.00     0.170 HD
ATOM     26  H71 UNL     1       0.804  20.101  27.056  1.00  0.00     0.170 HD
ENDBRANCH  21  24
ENDBRANCH  19  21
ENDBRANCH  16  17
TORSDOF 3
ENDMDL
MODEL 2
REMARK VINA RESULT: -6.496007767      3.002      4.516
REMARK  3 active torsions:
REMARK  status: ('A' for Active; 'I' for Inactive)
REMARK       I    between atoms: C1_4  and  N3_6 
REMARK       I    between atoms: N3_6  and  C2_8 
REMARK       I    between atoms: C2_8  and  N5_12 
REMARK    1  A    between atoms: C6_16  and  C7_17 
REMARK       I    between atoms: C7_17  and  N6_19 
REMARK    2  A    between atoms: N6_19  and  S1_21 
REMARK    3  A    between atoms: S1_21  and  N7_22 
ROOT
HETATM    1  N1  UNL     1       7.061  17.899  22.751  1.00  0.00    -0.373 N 
ATOM      2  H11 UNL     1       6.987  18.823  23.176  1.00  0.00     0.158 HD
ATOM      3  H12 UNL     1       7.969  17.463  22.596  1.00  0.00     0.158 HD
HETATM    4  C1  UNL     1       5.967  17.319  22.431  1.00  0.00     0.200 C 
HETATM    5  N2  UNL     1       6.071  16.012  21.831  1.00  0.00    -0.063 NA
HETATM    6  N3  UNL     1       4.711  17.923  22.646  1.00  0.00    -0.164 N 
ATOM      7  H3  UNL     1       3.947  17.752  21.993  1.00  0.00     0.187 HD
HETATM    8  C2  UNL     1       4.510  18.761  23.761  1.00  0.00     0.677 C 
HETATM    9  N4  UNL     1       5.553  19.339  24.257  1.00  0.00    -0.234 N 
ATOM     10  H41 UNL     1       5.407  19.946  25.063  1.00  0.00     0.174 HD
ATOM     11  H42 UNL     1       6.471  19.177  23.841  1.00  0.00     0.174 HD
HETATM   12  N5  UNL     1       3.243  18.985  24.334  1.00  0.00    -0.204 N 
HETATM   13  C3  UNL     1       2.007  19.026  23.610  1.00  0.00     0.142 C 
HETATM   14  C4  UNL     1       1.394  20.311  24.188  1.00  0.00     0.023 C 
HETATM   15  C5  UNL     1       1.788  20.218  25.634  1.00  0.00     0.037 C 
HETATM   16  C6  UNL     1       2.941  19.211  25.713  1.00  0.00     0.195 C 
ENDROOT
BRANCH  16  17
HETATM   17  C7  UNL     1       2.443  18.044  26.448  1.00  0.00     0.255 C 
HETATM   18  O1  UNL     1       2.820  17.959  27.666  1.00  0.00    -0.270 OA
HETATM   19  N6  UNL     1       1.605  17.027  25.951  1.00  0.00    -0.236 N 
ATOM     20  H6  UNL     1       1.288  17.064  24.983  1.00  0.00     0.183 HD
BRANCH  19  21
HETATM   21  S1  UNL     1       1.109  15.723  26.962  1.00  0.00     0.319 S 
HETATM   22  O2  UNL     1       2.144  14.607  26.942  1.00  0.00    -0.183 OA
HETATM   23  O3  UNL     1      -0.160  15.126  26.419  1.00  0.00    -0.183 OA
BRANCH  21  24
HETATM   24  N7  UNL     1       0.868  16.165  28.565  1.00  0.00    -0.311 N 
ATOM     25  H72 UNL     1       0.433  15.540  29.243  1.00  0.00     0.170 HD
ATOM     26  H71 UNL     1       1.196  17.106  28.784  1.00  0.00     0.170 HD
ENDBRANCH  21  24
ENDBRANCH  19  21
ENDBRANCH  16  17
TORSDOF 3
ENDMDL
MODEL 3
REMARK VINA RESULT: -6.199970403      3.408      6.245
REMARK  3 active torsions:
REMARK  status: ('A' for Active; 'I' for Inactive)
REMARK       I    between atoms: C1_4  and  N3_6 
REMARK       I    between atoms: N3_6  and  C2_8 
REMARK       I    between atoms: C2_8  and  N5_12 
REMARK    1  A    between atoms: C6_16  and  C7_17 
REMARK       I    between atoms: C7_17  and  N6_19 
REMARK    2  A    between atoms: N6_19  and  S1_21 
REMARK    3  A    between atoms: S1_21  and  N7_22 
ROOT
HETATM    1  N1  UNL     1       0.712  16.376  27.000  1.00  0.00    -0.373 N 
ATOM      2  H11 UNL     1       0.265  16.556  26.101  1.00  0.00     0.158 HD
ATOM      3  H12 UNL     1       0.434  15.581  27.575  1.00  0.00     0.158 HD
HETATM    4  C1  UNL     1       1.633  17.186  27.362  1.00  0.00     0.200 C 
HETATM    5  N2  UNL     1       2.265  16.931  28.632  1.00  0.00    -0.063 NA
HETATM    6  N3  UNL     1       2.016  18.284  26.566  1.00  0.00    -0.164 N 
ATOM      7  H3  UNL     1       2.323  19.150  27.009  1.00  0.00     0.187 HD
HETATM    8  C2  UNL     1       1.978  18.189  25.161  1.00  0.00     0.677 C 
HETATM    9  N4  UNL     1       1.157  17.330  24.653  1.00  0.00    -0.234 N 
ATOM     10  H41 UNL     1       1.129  17.261  23.636  1.00  0.00     0.174 HD
ATOM     11  H42 UNL     1       0.576  16.758  25.266  1.00  0.00     0.174 HD
HETATM   12  N5  UNL     1       2.780  18.979  24.315  1.00  0.00    -0.204 N 
HETATM   13  C3  UNL     1       3.181  20.328  24.585  1.00  0.00     0.142 C 
HETATM   14  C4  UNL     1       2.851  20.986  23.236  1.00  0.00     0.023 C 
HETATM   15  C5  UNL     1       3.260  19.920  22.263  1.00  0.00     0.037 C 
HETATM   16  C6  UNL     1       3.340  18.608  23.053  1.00  0.00     0.195 C 
ENDROOT
BRANCH  16  17
HETATM   17  C7  UNL     1       4.751  18.209  23.082  1.00  0.00     0.255 C 
HETATM   18  O1  UNL     1       4.973  16.995  23.409  1.00  0.00    -0.270 OA
HETATM   19  N6  UNL     1       5.864  19.021  22.792  1.00  0.00    -0.236 N 
ATOM     20  H6  UNL     1       5.722  19.997  22.530  1.00  0.00     0.183 HD
BRANCH  19  21
HETATM   21  S1  UNL     1       7.463  18.384  22.872  1.00  0.00     0.319 S 
HETATM   22  O2  UNL     1       8.475  19.501  23.084  1.00  0.00    -0.183 OA
HETATM   23  O3  UNL     1       7.813  17.747  21.556  1.00  0.00    -0.183 OA
BRANCH  21  24
HETATM   24  N7  UNL     1       7.680  17.261  24.103  1.00  0.00    -0.311 N 
ATOM     25  H72 UNL     1       7.652  17.520  25.089  1.00  0.00     0.170 HD
ATOM     26  H71 UNL     1       7.839  16.312  23.767  1.00  0.00     0.170 HD
ENDBRANCH  21  24
ENDBRANCH  19  21
ENDBRANCH  16  17
TORSDOF 3
ENDMDL
MODEL 4
REMARK VINA RESULT: -6.116426924      5.549      8.403
REMARK  3 active torsions:
REMARK  status: ('A' for Active; 'I' for Inactive)
REMARK       I    between atoms: C1_4  and  N3_6 
REMARK       I    between atoms: N3_6  and  C2_8 
REMARK       I    between atoms: C2_8  and  N5_12 
REMARK    1  A    between atoms: C6_16  and  C7_17 
REMARK       I    between atoms: C7_17  and  N6_19 
REMARK    2  A    between atoms: N6_19  and  S1_21 
REMARK    3  A    between atoms: S1_21  and  N7_22 
ROOT
HETATM    1  N1  UNL     1       3.860  19.168  21.028  1.00  0.00    -0.373 N 
ATOM      2  H11 UNL     1       3.578  19.179  20.048  1.00  0.00     0.158 HD
ATOM      3  H12 UNL     1       3.865  18.300  21.563  1.00  0.00     0.158 HD
HETATM    4  C1  UNL     1       4.208  20.284  21.545  1.00  0.00     0.200 C 
HETATM    5  N2  UNL     1       4.607  20.269  22.930  1.00  0.00    -0.063 NA
HETATM    6  N3  UNL     1       4.200  21.484  20.804  1.00  0.00    -0.164 N 
ATOM      7  H3  UNL     1       3.975  22.365  21.266  1.00  0.00     0.187 HD
HETATM    8  C2  UNL     1       4.503  21.469  19.428  1.00  0.00     0.677 C 
HETATM    9  N4  UNL     1       4.295  20.363  18.793  1.00  0.00    -0.234 N 
ATOM     10  H41 UNL     1       4.514  20.353  17.797  1.00  0.00     0.174 HD
ATOM     11  H42 UNL     1       3.928  19.552  19.291  1.00  0.00     0.174 HD
HETATM   12  N5  UNL     1       5.009  22.589  18.741  1.00  0.00    -0.204 N 
HETATM   13  C3  UNL     1       4.679  23.953  19.033  1.00  0.00     0.142 C 
HETATM   14  C4  UNL     1       4.373  24.470  17.619  1.00  0.00     0.023 C 
HETATM   15  C5  UNL     1       5.419  23.771  16.801  1.00  0.00     0.037 C 
HETATM   16  C6  UNL     1       5.925  22.594  17.643  1.00  0.00     0.195 C 
ENDROOT
BRANCH  16  17
HETATM   17  C7  UNL     1       7.321  22.883  17.989  1.00  0.00     0.255 C 
HETATM   18  O1  UNL     1       7.817  22.165  18.921  1.00  0.00    -0.270 OA
HETATM   19  N6  UNL     1       8.152  23.859  17.405  1.00  0.00    -0.236 N 
ATOM     20  H6  UNL     1       7.786  24.452  16.660  1.00  0.00     0.183 HD
BRANCH  19  21
HETATM   21  S1  UNL     1       9.779  24.062  17.934  1.00  0.00     0.319 S 
HETATM   22  O2  UNL     1       9.841  25.013  19.120  1.00  0.00    -0.183 OA
HETATM   23  O3  UNL     1      10.583  24.706  16.839  1.00  0.00    -0.183 OA
BRANCH  21  24
HETATM   24  N7  UNL     1      10.523  22.627  18.392  1.00  0.00    -0.311 N 
ATOM     25  H72 UNL     1      11.537  22.526  18.427  1.00  0.00     0.170 HD
ATOM     26  H71 UNL     1       9.867  21.883  18.628  1.00  0.00     0.170 HD
ENDBRANCH  21  24
ENDBRANCH  19  21
ENDBRANCH  16  17
TORSDOF 3
ENDMDL
MODEL 5
REMARK VINA RESULT: -6.111827409      4.798      6.095
REMARK  3 active torsions:
REMARK  status: ('A' for Active; 'I' for Inactive)
REMARK       I    between atoms: C1_4  and  N3_6 
REMARK       I    between atoms: N3_6  and  C2_8 
REMARK       I    between atoms: C2_8  and  N5_12 
REMARK    1  A    between atoms: C6_16  and  C7_17 
REMARK       I    between atoms: C7_17  and  N6_19 
REMARK    2  A    between atoms: N6_19  and  S1_21 
REMARK    3  A    between atoms: S1_21  and  N7_22 
ROOT
HETATM    1  N1  UNL     1       2.829  22.158  15.731  1.00  0.00    -0.373 N 
ATOM      2  H11 UNL     1       3.707  22.017  15.230  1.00  0.00     0.158 HD
ATOM      3  H12 UNL     1       1.939  21.879  15.319  1.00  0.00     0.158 HD
HETATM    4  C1  UNL     1       2.902  22.693  16.889  1.00  0.00     0.200 C 
HETATM    5  N2  UNL     1       1.662  22.893  17.597  1.00  0.00    -0.063 NA
HETATM    6  N3  UNL     1       4.133  23.080  17.457  1.00  0.00    -0.164 N 
ATOM      7  H3  UNL     1       4.178  23.899  18.063  1.00  0.00     0.187 HD
HETATM    8  C2  UNL     1       5.301  22.337  17.190  1.00  0.00     0.677 C 
HETATM    9  N4  UNL     1       5.326  21.660  16.090  1.00  0.00    -0.234 N 
ATOM     10  H41 UNL     1       6.172  21.123  15.897  1.00  0.00     0.174 HD
ATOM     11  H42 UNL     1       4.523  21.678  15.463  1.00  0.00     0.174 HD
HETATM   12  N5  UNL     1       6.410  22.313  18.057  1.00  0.00    -0.204 N 
HETATM   13  C3  UNL     1       6.846  23.412  18.868  1.00  0.00     0.142 C 
HETATM   14  C4  UNL     1       8.350  23.405  18.553  1.00  0.00     0.023 C 
HETATM   15  C5  UNL     1       8.646  21.934  18.489  1.00  0.00     0.037 C 
HETATM   16  C6  UNL     1       7.302  21.222  18.296  1.00  0.00     0.195 C 
ENDROOT
BRANCH  16  17
HETATM   17  C7  UNL     1       7.044  20.454  19.519  1.00  0.00     0.255 C 
HETATM   18  O1  UNL     1       5.813  20.267  19.802  1.00  0.00    -0.270 OA
HETATM   19  N6  UNL     1       8.005  19.913  20.395  1.00  0.00    -0.236 N 
ATOM     20  H6  UNL     1       8.997  20.046  20.200  1.00  0.00     0.183 HD
BRANCH  19  21
HETATM   21  S1  UNL     1       7.522  19.029  21.793  1.00  0.00     0.319 S 
HETATM   22  O2  UNL     1       8.344  19.449  23.003  1.00  0.00    -0.183 OA
HETATM   23  O3  UNL     1       7.807  17.567  21.581  1.00  0.00    -0.183 OA
BRANCH  21  24
HETATM   24  N7  UNL     1       5.900  19.222  22.187  1.00  0.00    -0.311 N 
ATOM     25  H72 UNL     1       5.380  20.068  21.956  1.00  0.00     0.170 HD
ATOM     26  H71 UNL     1       5.498  18.420  22.671  1.00  0.00     0.170 HD
ENDBRANCH  21  24
ENDBRANCH  19  21
ENDBRANCH  16  17
TORSDOF 3
ENDMDL
