MODEL 1
REMARK VINA RESULT: -7.317541462      0.000      0.000
REMARK  13 active torsions:
REMARK  status: ('A' for Active; 'I' for Inactive)
REMARK    1  A    between atoms: C3_5  and  C4_6 
REMARK    2  A    between atoms: C7_9  and  C8_10 
REMARK    3  A    between atoms: C8_10  and  C9_11 
REMARK    4  A    between atoms: C10_14  and  C11_15 
REMARK    5  A    between atoms: C11_15  and  C12_16 
REMARK    6  A    between atoms: C12_16  and  C13_17 
REMARK    7  A    between atoms: C17_23  and  C18_24 
REMARK    8  A    between atoms: C18_24  and  C19_25 
REMARK    9  A    between atoms: C23_32  and  C24_33 
REMARK   10  A    between atoms: C24_33  and  C25_34 
REMARK   11  A    between atoms: C26_39  and  O4_40 
REMARK   12  A    between atoms: C27_42  and  C28_43 
REMARK   13  A    between atoms: C28_43  and  C29_44 
ROOT
HETATM    1  C9  UNL     1      16.760   4.708  13.622  1.00  0.00     0.175 C 
HETATM    2  N2  UNL     1      16.229   5.640  14.519  1.00  0.00    -0.388 N 
ATOM      3  H2  UNL     1      15.275   5.978  14.398  1.00  0.00     0.156 HD
HETATM    4  C10 UNL     1      17.022   6.115  15.601  1.00  0.00     0.182 C 
HETATM    5  N3  UNL     1      16.148   5.957  16.783  1.00  0.00    -0.330 N 
HETATM    6  C15 UNL     1      15.056   6.915  16.798  1.00  0.00     0.155 C 
HETATM    7  C16 UNL     1      16.337   4.963  17.774  1.00  0.00     0.267 C 
HETATM    8  O1  UNL     1      15.234   4.361  18.075  1.00  0.00    -0.266 OA
HETATM    9  C17 UNL     1      17.532   4.545  18.460  1.00  0.00     0.081 C 
HETATM   10  N4  UNL     1      18.389   3.621  17.811  1.00  0.00    -0.320 N 
ATOM     11  H4  UNL     1      19.170   4.058  17.322  1.00  0.00     0.169 HD
HETATM   12  C22 UNL     1      18.371   2.222  17.711  1.00  0.00     0.272 C 
HETATM   13  O2  UNL     1      19.524   1.682  17.898  1.00  0.00    -0.266 OA
HETATM   14  C23 UNL     1      17.206   1.350  17.422  1.00  0.00     0.107 C 
HETATM   15  N6  UNL     1      16.656   1.483  16.096  1.00  0.00    -0.334 N 
ATOM     16  H6  UNL     1      15.718   1.885  16.093  1.00  0.00     0.168 HD
HETATM   17  C26 UNL     1      17.124   1.183  14.819  1.00  0.00     0.139 C 
HETATM   18  C27 UNL     1      18.193   1.765  13.988  1.00  0.00     0.159 C 
HETATM   19  N7  UNL     1      18.636   3.067  14.264  1.00  0.00    -0.347 N 
ATOM     20  H7  UNL     1      19.437   3.114  14.894  1.00  0.00     0.163 HD
HETATM   21  C32 UNL     1      18.174   4.313  13.827  1.00  0.00     0.241 C 
HETATM   22  O5  UNL     1      19.043   5.219  13.575  1.00  0.00    -0.271 OA
ENDROOT
BRANCH   1  23
HETATM   23  C8  UNL     1      16.522   5.063  12.166  1.00  0.00     0.075 C 
BRANCH  23  24
HETATM   24  C7  UNL     1      17.166   4.130  11.217  1.00  0.00    -0.028 A 
HETATM   25  C2  UNL     1      18.114   4.429  10.276  1.00  0.00     0.029 A 
HETATM   26  C1  UNL     1      18.724   5.605  10.058  1.00  0.00     0.043 C 
HETATM   27  N1  UNL     1      18.391   3.295   9.570  1.00  0.00    -0.357 N 
HETATM   28  C3  UNL     1      17.647   2.285  10.038  1.00  0.00     0.029 A 
ATOM     29  H1  UNL     1      19.061   3.227   8.804  1.00  0.00     0.166 HD
HETATM   30  C6  UNL     1      16.881   2.772  11.057  1.00  0.00     0.038 A 
BRANCH  28  31
HETATM   31  C4  UNL     1      17.680   1.030   9.558  1.00  0.00    -0.002 C 
HETATM   32  C5  UNL     1      16.733   0.038  10.123  1.00  0.00     0.038 C 
ENDBRANCH  28  31
ENDBRANCH  23  24
ENDBRANCH   1  23
BRANCH   4  33
HETATM   33  C11 UNL     1      17.275   7.599  15.462  1.00  0.00     0.046 C 
BRANCH  33  34
HETATM   34  C12 UNL     1      17.165   8.104  14.063  1.00  0.00     0.003 C 
BRANCH  34  35
HETATM   35  C13 UNL     1      16.973   9.600  13.970  1.00  0.00    -0.004 C 
HETATM   36  C14 UNL     1      15.603   9.916  14.568  1.00  0.00     0.005 C 
ENDBRANCH  34  35
ENDBRANCH  33  34
ENDBRANCH   4  33
BRANCH  18  37
HETATM   37  C28 UNL     1      19.340   0.743  13.987  1.00  0.00     0.037 C 
BRANCH  37  38
HETATM   38  C29 UNL     1      19.278  -0.119  12.745  1.00  0.00    -0.020 C 
HETATM   39  C30 UNL     1      20.404   0.326  11.836  1.00  0.00     0.009 C 
HETATM   40  C31 UNL     1      19.444  -1.582  13.093  1.00  0.00     0.009 C 
ENDBRANCH  37  38
ENDBRANCH  18  37
BRANCH  17  41
HETATM   41  O4  UNL     1      16.549   0.204  14.165  1.00  0.00    -0.348 OA
ATOM     42  H4  UNL     1      15.862   0.421  13.545  1.00  0.00     0.219 HD
ENDBRANCH  17  41
BRANCH   9  43
HETATM   43  C18 UNL     1      17.384   4.166  19.910  1.00  0.00     0.067 C 
BRANCH  43  44
HETATM   44  C19 UNL     1      17.613   5.228  20.912  1.00  0.00    -0.017 C 
HETATM   45  C20 UNL     1      16.600   5.125  22.060  1.00  0.00     0.010 C 
HETATM   46  C21 UNL     1      18.986   5.456  21.424  1.00  0.00     0.010 C 
ENDBRANCH  43  44
ENDBRANCH   9  43
BRANCH  14  47
HETATM   47  C24 UNL     1      17.280  -0.040  17.948  1.00  0.00     0.106 C 
BRANCH  47  48
HETATM   48  C25 UNL     1      17.678  -1.145  17.132  1.00  0.00     0.257 C 
HETATM   49  N5  UNL     1      18.988  -1.668  16.944  1.00  0.00    -0.058 NA
HETATM   50  O3  UNL     1      16.791  -1.790  16.459  1.00  0.00    -0.272 OA
ENDBRANCH  47  48
ENDBRANCH  14  47
TORSDOF 13
ENDMDL
MODEL 2
REMARK VINA RESULT: -6.172691347     10.451     15.659
REMARK  13 active torsions:
REMARK  status: ('A' for Active; 'I' for Inactive)
REMARK    1  A    between atoms: C3_5  and  C4_6 
REMARK    2  A    between atoms: C7_9  and  C8_10 
REMARK    3  A    between atoms: C8_10  and  C9_11 
REMARK    4  A    between atoms: C10_14  and  C11_15 
REMARK    5  A    between atoms: C11_15  and  C12_16 
REMARK    6  A    between atoms: C12_16  and  C13_17 
REMARK    7  A    between atoms: C17_23  and  C18_24 
REMARK    8  A    between atoms: C18_24  and  C19_25 
REMARK    9  A    between atoms: C23_32  and  C24_33 
REMARK   10  A    between atoms: C24_33  and  C25_34 
REMARK   11  A    between atoms: C26_39  and  O4_40 
REMARK   12  A    between atoms: C27_42  and  C28_43 
REMARK   13  A    between atoms: C28_43  and  C29_44 
ROOT
HETATM    1  C9  UNL     1      17.366  -5.206   2.137  1.00  0.00     0.175 C 
HETATM    2  N2  UNL     1      17.010  -6.546   1.955  1.00  0.00    -0.388 N 
ATOM      3  H2  UNL     1      17.554  -7.138   1.328  1.00  0.00     0.156 HD
HETATM    4  C10 UNL     1      15.887  -7.082   2.646  1.00  0.00     0.182 C 
HETATM    5  N3  UNL     1      16.400  -8.329   3.252  1.00  0.00    -0.330 N 
HETATM    6  C15 UNL     1      16.641  -9.368   2.266  1.00  0.00     0.155 C 
HETATM    7  C16 UNL     1      16.657  -8.483   4.636  1.00  0.00     0.267 C 
HETATM    8  O1  UNL     1      17.803  -9.037   4.859  1.00  0.00    -0.266 OA
HETATM    9  C17 UNL     1      15.860  -8.121   5.780  1.00  0.00     0.081 C 
HETATM   10  N4  UNL     1      15.911  -6.780   6.235  1.00  0.00    -0.320 N 
ATOM     11  H4  UNL     1      15.151  -6.197   5.883  1.00  0.00     0.169 HD
HETATM   12  C22 UNL     1      16.803  -6.098   7.075  1.00  0.00     0.272 C 
HETATM   13  O2  UNL     1      16.217  -5.353   7.946  1.00  0.00    -0.266 OA
HETATM   14  C23 UNL     1      18.286  -6.150   7.054  1.00  0.00     0.107 C 
HETATM   15  N6  UNL     1      18.902  -5.578   5.884  1.00  0.00    -0.334 N 
ATOM     16  H6  UNL     1      19.370  -6.272   5.300  1.00  0.00     0.168 HD
HETATM   17  C26 UNL     1      18.998  -4.285   5.374  1.00  0.00     0.139 C 
HETATM   18  C27 UNL     1      18.002  -3.366   4.794  1.00  0.00     0.159 C 
HETATM   19  N7  UNL     1      16.808  -3.894   4.280  1.00  0.00    -0.347 N 
ATOM     20  H7  UNL     1      16.037  -3.917   4.948  1.00  0.00     0.163 HD
HETATM   21  C32 UNL     1      16.487  -4.394   3.014  1.00  0.00     0.241 C 
HETATM   22  O5  UNL     1      15.324  -4.138   2.545  1.00  0.00    -0.271 OA
ENDROOT
BRANCH   1  23
HETATM   23  C8  UNL     1      17.635  -4.468   0.839  1.00  0.00     0.075 C 
BRANCH  23  24
HETATM   24  C7  UNL     1      17.112  -5.164  -0.357  1.00  0.00    -0.028 A 
HETATM   25  C2  UNL     1      17.810  -5.964  -1.221  1.00  0.00     0.029 A 
HETATM   26  C1  UNL     1      19.091  -6.357  -1.137  1.00  0.00     0.043 C 
HETATM   27  N1  UNL     1      16.967  -6.352  -2.221  1.00  0.00    -0.357 N 
HETATM   28  C3  UNL     1      15.755  -5.824  -2.013  1.00  0.00     0.029 A 
ATOM     29  H1  UNL     1      17.222  -6.952  -3.005  1.00  0.00     0.166 HD
HETATM   30  C6  UNL     1      15.815  -5.085  -0.867  1.00  0.00     0.038 A 
BRANCH  28  31
HETATM   31  C4  UNL     1      14.695  -6.012  -2.819  1.00  0.00    -0.002 C 
HETATM   32  C5  UNL     1      13.477  -5.202  -2.576  1.00  0.00     0.038 C 
ENDBRANCH  28  31
ENDBRANCH  23  24
ENDBRANCH   1  23
BRANCH   4  33
HETATM   33  C11 UNL     1      14.813  -7.503   1.668  1.00  0.00     0.046 C 
BRANCH  33  34
HETATM   34  C12 UNL     1      13.457  -6.977   1.994  1.00  0.00     0.003 C 
BRANCH  34  35
HETATM   35  C13 UNL     1      12.781  -6.277   0.838  1.00  0.00    -0.004 C 
HETATM   36  C14 UNL     1      11.936  -7.322   0.111  1.00  0.00     0.005 C 
ENDBRANCH  34  35
ENDBRANCH  33  34
ENDBRANCH   4  33
BRANCH  18  37
HETATM   37  C28 UNL     1      17.756  -2.279   5.851  1.00  0.00     0.037 C 
BRANCH  37  38
HETATM   38  C29 UNL     1      17.626  -0.923   5.192  1.00  0.00    -0.020 C 
HETATM   39  C30 UNL     1      17.862   0.119   6.264  1.00  0.00     0.009 C 
HETATM   40  C31 UNL     1      18.642  -0.761   4.083  1.00  0.00     0.009 C 
ENDBRANCH  37  38
ENDBRANCH  18  37
BRANCH  17  41
HETATM   41  O4  UNL     1      20.174  -3.706   5.376  1.00  0.00    -0.348 OA
ATOM     42  H4  UNL     1      20.248  -2.843   4.988  1.00  0.00     0.219 HD
ENDBRANCH  17  41
BRANCH   9  43
HETATM   43  C18 UNL     1      15.899  -9.057   6.958  1.00  0.00     0.067 C 
BRANCH  43  44
HETATM   44  C19 UNL     1      15.029 -10.250   6.902  1.00  0.00    -0.017 C 
HETATM   45  C20 UNL     1      13.714  -9.936   6.176  1.00  0.00     0.010 C 
HETATM   46  C21 UNL     1      15.599 -11.541   6.449  1.00  0.00     0.010 C 
ENDBRANCH  43  44
ENDBRANCH   9  43
BRANCH  14  47
HETATM   47  C24 UNL     1      18.971  -5.864   8.344  1.00  0.00     0.106 C 
BRANCH  47  48
HETATM   48  C25 UNL     1      18.824  -4.615   9.025  1.00  0.00     0.257 C 
HETATM   49  N5  UNL     1      18.412  -4.394  10.368  1.00  0.00    -0.058 NA
HETATM   50  O3  UNL     1      19.081  -3.518   8.404  1.00  0.00    -0.272 OA
ENDBRANCH  47  48
ENDBRANCH  14  47
TORSDOF 13
ENDMDL
MODEL 3
REMARK VINA RESULT: -6.161267953      6.749     11.065
REMARK  13 active torsions:
REMARK  status: ('A' for Active; 'I' for Inactive)
REMARK    1  A    between atoms: C3_5  and  C4_6 
REMARK    2  A    between atoms: C7_9  and  C8_10 
REMARK    3  A    between atoms: C8_10  and  C9_11 
REMARK    4  A    between atoms: C10_14  and  C11_15 
REMARK    5  A    between atoms: C11_15  and  C12_16 
REMARK    6  A    between atoms: C12_16  and  C13_17 
REMARK    7  A    between atoms: C17_23  and  C18_24 
REMARK    8  A    between atoms: C18_24  and  C19_25 
REMARK    9  A    between atoms: C23_32  and  C24_33 
REMARK   10  A    between atoms: C24_33  and  C25_34 
REMARK   11  A    between atoms: C26_39  and  O4_40 
REMARK   12  A    between atoms: C27_42  and  C28_43 
REMARK   13  A    between atoms: C28_43  and  C29_44 
ROOT
HETATM    1  C9  UNL     1      17.488  -3.927   5.348  1.00  0.00     0.175 C 
HETATM    2  N2  UNL     1      17.014  -2.630   5.129  1.00  0.00    -0.388 N 
ATOM      3  H2  UNL     1      16.044  -2.480   4.856  1.00  0.00     0.156 HD
HETATM    4  C10 UNL     1      17.889  -1.519   5.289  1.00  0.00     0.182 C 
HETATM    5  N3  UNL     1      17.132  -0.587   6.153  1.00  0.00    -0.330 N 
HETATM    6  C15 UNL     1      16.018   0.034   5.457  1.00  0.00     0.155 C 
HETATM    7  C16 UNL     1      17.440  -0.350   7.514  1.00  0.00     0.267 C 
HETATM    8  O1  UNL     1      16.388  -0.382   8.264  1.00  0.00    -0.266 OA
HETATM    9  C17 UNL     1      18.705  -0.096   8.154  1.00  0.00     0.081 C 
HETATM   10  N4  UNL     1      19.526  -1.204   8.481  1.00  0.00    -0.320 N 
ATOM     11  H4  UNL     1      20.246  -1.402   7.786  1.00  0.00     0.169 HD
HETATM   12  C22 UNL     1      19.541  -2.081   9.576  1.00  0.00     0.272 C 
HETATM   13  O2  UNL     1      20.722  -2.302  10.037  1.00  0.00    -0.266 OA
HETATM   14  C23 UNL     1      18.381  -2.746  10.219  1.00  0.00     0.107 C 
HETATM   15  N6  UNL     1      17.708  -3.726   9.403  1.00  0.00    -0.334 N 
ATOM     16  H6  UNL     1      16.763  -3.445   9.143  1.00  0.00     0.168 HD
HETATM   17  C26 UNL     1      18.066  -4.971   8.893  1.00  0.00     0.139 C 
HETATM   18  C27 UNL     1      19.036  -5.385   7.863  1.00  0.00     0.159 C 
HETATM   19  N7  UNL     1      19.464  -4.444   6.915  1.00  0.00    -0.347 N 
ATOM     20  H7  UNL     1      20.317  -3.947   7.171  1.00  0.00     0.163 HD
HETATM   21  C32 UNL     1      18.927  -4.066   5.680  1.00  0.00     0.241 C 
HETATM   22  O5  UNL     1      19.741  -3.809   4.726  1.00  0.00    -0.271 OA
ENDROOT
BRANCH   1  23
HETATM   23  C8  UNL     1      17.107  -4.905   4.253  1.00  0.00     0.075 C 
BRANCH  23  24
HETATM   24  C7  UNL     1      16.888  -6.284   4.741  1.00  0.00    -0.028 A 
HETATM   25  C2  UNL     1      17.123  -7.450   4.063  1.00  0.00     0.029 A 
HETATM   26  C1  UNL     1      17.672  -7.606   2.847  1.00  0.00     0.043 C 
HETATM   27  N1  UNL     1      16.726  -8.491   4.850  1.00  0.00    -0.357 N 
HETATM   28  C3  UNL     1      16.250  -8.019   6.008  1.00  0.00     0.029 A 
ATOM     29  H1  UNL     1      16.784  -9.477   4.595  1.00  0.00     0.166 HD
HETATM   30  C6  UNL     1      16.339  -6.657   5.969  1.00  0.00     0.038 A 
BRANCH  28  31
HETATM   31  C4  UNL     1      15.776  -8.786   7.005  1.00  0.00    -0.002 C 
HETATM   32  C5  UNL     1      15.634 -10.241   6.764  1.00  0.00     0.038 C 
ENDBRANCH  28  31
ENDBRANCH  23  24
ENDBRANCH   1  23
BRANCH   4  33
HETATM   33  C11 UNL     1      18.084  -0.803   3.971  1.00  0.00     0.046 C 
BRANCH  33  34
HETATM   34  C12 UNL     1      19.232   0.148   3.962  1.00  0.00     0.003 C 
BRANCH  34  35
HETATM   35  C13 UNL     1      18.820   1.600   4.044  1.00  0.00    -0.004 C 
HETATM   36  C14 UNL     1      18.425   2.036   2.634  1.00  0.00     0.005 C 
ENDBRANCH  34  35
ENDBRANCH  33  34
ENDBRANCH   4  33
BRANCH  18  37
HETATM   37  C28 UNL     1      20.208  -6.034   8.616  1.00  0.00     0.037 C 
BRANCH  37  38
HETATM   38  C29 UNL     1      20.744  -7.217   7.838  1.00  0.00    -0.020 C 
HETATM   39  C30 UNL     1      19.550  -8.029   7.382  1.00  0.00     0.009 C 
HETATM   40  C31 UNL     1      21.543  -6.757   6.639  1.00  0.00     0.009 C 
ENDBRANCH  37  38
ENDBRANCH  18  37
BRANCH  17  41
HETATM   41  O4  UNL     1      17.463  -6.032   9.373  1.00  0.00    -0.348 OA
ATOM     42  H4  UNL     1      16.985  -5.944  10.189  1.00  0.00     0.219 HD
ENDBRANCH  17  41
BRANCH   9  43
HETATM   43  C18 UNL     1      18.703   0.887   9.294  1.00  0.00     0.067 C 
BRANCH  43  44
HETATM   44  C19 UNL     1      18.498   2.311   8.959  1.00  0.00    -0.017 C 
HETATM   45  C20 UNL     1      19.003   3.219  10.088  1.00  0.00     0.010 C 
HETATM   46  C21 UNL     1      18.932   2.811   7.632  1.00  0.00     0.010 C 
ENDBRANCH  43  44
ENDBRANCH   9  43
BRANCH  14  47
HETATM   47  C24 UNL     1      18.545  -3.109  11.652  1.00  0.00     0.106 C 
BRANCH  47  48
HETATM   48  C25 UNL     1      18.673  -2.123  12.680  1.00  0.00     0.257 C 
HETATM   49  N5  UNL     1      18.226  -0.773  12.658  1.00  0.00    -0.058 NA
HETATM   50  O3  UNL     1      19.252  -2.430  13.787  1.00  0.00    -0.272 OA
ENDBRANCH  47  48
ENDBRANCH  14  47
TORSDOF 13
ENDMDL
MODEL 4
REMARK VINA RESULT: -6.156150574      8.727     14.091
REMARK  13 active torsions:
REMARK  status: ('A' for Active; 'I' for Inactive)
REMARK    1  A    between atoms: C3_5  and  C4_6 
REMARK    2  A    between atoms: C7_9  and  C8_10 
REMARK    3  A    between atoms: C8_10  and  C9_11 
REMARK    4  A    between atoms: C10_14  and  C11_15 
REMARK    5  A    between atoms: C11_15  and  C12_16 
REMARK    6  A    between atoms: C12_16  and  C13_17 
REMARK    7  A    between atoms: C17_23  and  C18_24 
REMARK    8  A    between atoms: C18_24  and  C19_25 
REMARK    9  A    between atoms: C23_32  and  C24_33 
REMARK   10  A    between atoms: C24_33  and  C25_34 
REMARK   11  A    between atoms: C26_39  and  O4_40 
REMARK   12  A    between atoms: C27_42  and  C28_43 
REMARK   13  A    between atoms: C28_43  and  C29_44 
ROOT
HETATM    1  C9  UNL     1      17.741  -2.650   5.780  1.00  0.00     0.175 C 
HETATM    2  N2  UNL     1      17.428  -3.164   7.042  1.00  0.00    -0.388 N 
ATOM      3  H2  UNL     1      16.829  -2.634   7.675  1.00  0.00     0.156 HD
HETATM    4  C10 UNL     1      17.946  -4.427   7.443  1.00  0.00     0.182 C 
HETATM    5  N3  UNL     1      16.763  -5.159   7.943  1.00  0.00    -0.330 N 
HETATM    6  C15 UNL     1      16.285  -4.640   9.213  1.00  0.00     0.155 C 
HETATM    7  C16 UNL     1      16.146  -6.227   7.247  1.00  0.00     0.267 C 
HETATM    8  O1  UNL     1      14.860  -6.105   7.211  1.00  0.00    -0.266 OA
HETATM    9  C17 UNL     1      16.724  -7.376   6.599  1.00  0.00     0.081 C 
HETATM   10  N4  UNL     1      17.230  -7.220   5.284  1.00  0.00    -0.320 N 
ATOM     11  H4  UNL     1      18.236  -7.054   5.247  1.00  0.00     0.169 HD
HETATM   12  C22 UNL     1      16.616  -7.249   4.024  1.00  0.00     0.272 C 
HETATM   13  O2  UNL     1      17.268  -7.939   3.153  1.00  0.00    -0.266 OA
HETATM   14  C23 UNL     1      15.349  -6.590   3.618  1.00  0.00     0.107 C 
HETATM   15  N6  UNL     1      15.387  -5.150   3.601  1.00  0.00    -0.334 N 
ATOM     16  H6  UNL     1      14.792  -4.727   4.314  1.00  0.00     0.168 HD
HETATM   17  C26 UNL     1      16.058  -4.208   2.825  1.00  0.00     0.139 C 
HETATM   18  C27 UNL     1      17.480  -3.835   2.718  1.00  0.00     0.159 C 
HETATM   19  N7  UNL     1      18.346  -4.148   3.777  1.00  0.00    -0.347 N 
ATOM     20  H7  UNL     1      18.826  -5.043   3.677  1.00  0.00     0.163 HD
HETATM   21  C32 UNL     1      18.669  -3.450   4.945  1.00  0.00     0.241 C 
HETATM   22  O5  UNL     1      19.882  -3.492   5.352  1.00  0.00    -0.271 OA
ENDROOT
BRANCH   1  23
HETATM   23  C8  UNL     1      18.180  -1.198   5.808  1.00  0.00     0.075 C 
BRANCH  23  24
HETATM   24  C7  UNL     1      17.889  -0.517   7.088  1.00  0.00    -0.028 A 
HETATM   25  C2  UNL     1      18.352   0.704   7.500  1.00  0.00     0.029 A 
HETATM   26  C1  UNL     1      19.101   1.582   6.813  1.00  0.00     0.043 C 
HETATM   27  N1  UNL     1      17.898   0.930   8.766  1.00  0.00    -0.357 N 
HETATM   28  C3  UNL     1      17.158  -0.111   9.167  1.00  0.00     0.029 A 
ATOM     29  H1  UNL     1      18.092   1.763   9.321  1.00  0.00     0.166 HD
HETATM   30  C6  UNL     1      17.134  -1.020   8.149  1.00  0.00     0.038 A 
BRANCH  28  31
HETATM   31  C4  UNL     1      16.562  -0.204  10.369  1.00  0.00    -0.002 C 
HETATM   32  C5  UNL     1      17.407  -0.509  11.548  1.00  0.00     0.038 C 
ENDBRANCH  28  31
ENDBRANCH  23  24
ENDBRANCH   1  23
BRANCH   4  33
HETATM   33  C11 UNL     1      18.873  -4.269   8.628  1.00  0.00     0.046 C 
BRANCH  33  34
HETATM   34  C12 UNL     1      19.800  -5.419   8.830  1.00  0.00     0.003 C 
BRANCH  34  35
HETATM   35  C13 UNL     1      20.097  -6.190   7.564  1.00  0.00    -0.004 C 
HETATM   36  C14 UNL     1      20.672  -7.541   7.985  1.00  0.00     0.005 C 
ENDBRANCH  34  35
ENDBRANCH  33  34
ENDBRANCH   4  33
BRANCH  18  37
HETATM   37  C28 UNL     1      17.970  -4.396   1.374  1.00  0.00     0.037 C 
BRANCH  37  38
HETATM   38  C29 UNL     1      16.892  -5.242   0.731  1.00  0.00    -0.020 C 
HETATM   39  C30 UNL     1      16.462  -4.531  -0.534  1.00  0.00     0.009 C 
HETATM   40  C31 UNL     1      17.417  -6.621   0.395  1.00  0.00     0.009 C 
ENDBRANCH  37  38
ENDBRANCH  18  37
BRANCH  17  41
HETATM   41  O4  UNL     1      15.353  -3.468   2.004  1.00  0.00    -0.348 OA
ATOM     42  H4  UNL     1      15.201  -2.559   2.238  1.00  0.00     0.219 HD
ENDBRANCH  17  41
BRANCH   9  43
HETATM   43  C18 UNL     1      15.956  -8.667   6.696  1.00  0.00     0.067 C 
BRANCH  43  44
HETATM   44  C19 UNL     1      16.742  -9.912   6.823  1.00  0.00    -0.017 C 
HETATM   45  C20 UNL     1      16.716 -10.712   5.513  1.00  0.00     0.010 C 
HETATM   46  C21 UNL     1      18.110  -9.849   7.389  1.00  0.00     0.010 C 
ENDBRANCH  43  44
ENDBRANCH   9  43
BRANCH  14  47
HETATM   47  C24 UNL     1      14.611  -7.225   2.493  1.00  0.00     0.106 C 
BRANCH  47  48
HETATM   48  C25 UNL     1      13.407  -6.667   1.958  1.00  0.00     0.257 C 
HETATM   49  N5  UNL     1      13.140  -5.308   1.638  1.00  0.00    -0.058 NA
HETATM   50  O3  UNL     1      12.405  -7.435   1.714  1.00  0.00    -0.272 OA
ENDBRANCH  47  48
ENDBRANCH  14  47
TORSDOF 13
ENDMDL
MODEL 5
REMARK VINA RESULT: -6.088599354     10.058     15.701
REMARK  13 active torsions:
REMARK  status: ('A' for Active; 'I' for Inactive)
REMARK    1  A    between atoms: C3_5  and  C4_6 
REMARK    2  A    between atoms: C7_9  and  C8_10 
REMARK    3  A    between atoms: C8_10  and  C9_11 
REMARK    4  A    between atoms: C10_14  and  C11_15 
REMARK    5  A    between atoms: C11_15  and  C12_16 
REMARK    6  A    between atoms: C12_16  and  C13_17 
REMARK    7  A    between atoms: C17_23  and  C18_24 
REMARK    8  A    between atoms: C18_24  and  C19_25 
REMARK    9  A    between atoms: C23_32  and  C24_33 
REMARK   10  A    between atoms: C24_33  and  C25_34 
REMARK   11  A    between atoms: C26_39  and  O4_40 
REMARK   12  A    between atoms: C27_42  and  C28_43 
REMARK   13  A    between atoms: C28_43  and  C29_44 
ROOT
HETATM    1  C9  UNL     1      18.226  -3.656   3.181  1.00  0.00     0.175 C 
HETATM    2  N2  UNL     1      18.158  -4.016   1.831  1.00  0.00    -0.388 N 
ATOM      3  H2  UNL     1      18.950  -3.833   1.214  1.00  0.00     0.156 HD
HETATM    4  C10 UNL     1      16.984  -4.636   1.320  1.00  0.00     0.182 C 
HETATM    5  N3  UNL     1      17.492  -5.817   0.588  1.00  0.00    -0.330 N 
HETATM    6  C15 UNL     1      18.174  -5.456  -0.643  1.00  0.00     0.155 C 
HETATM    7  C16 UNL     1      17.355  -7.148   1.051  1.00  0.00     0.267 C 
HETATM    8  O1  UNL     1      18.460  -7.812   0.955  1.00  0.00    -0.266 OA
HETATM    9  C17 UNL     1      16.211  -7.834   1.593  1.00  0.00     0.081 C 
HETATM   10  N4  UNL     1      15.911  -7.654   2.967  1.00  0.00    -0.320 N 
ATOM     11  H4  UNL     1      15.203  -6.940   3.143  1.00  0.00     0.169 HD
HETATM   12  C22 UNL     1      16.397  -8.266   4.131  1.00  0.00     0.272 C 
HETATM   13  O2  UNL     1      15.470  -8.587   4.965  1.00  0.00    -0.266 OA
HETATM   14  C23 UNL     1      17.810  -8.562   4.476  1.00  0.00     0.107 C 
HETATM   15  N6  UNL     1      18.640  -7.405   4.700  1.00  0.00    -0.334 N 
ATOM     16  H6  UNL     1      19.363  -7.291   3.989  1.00  0.00     0.168 HD
HETATM   17  C26 UNL     1      18.672  -6.409   5.673  1.00  0.00     0.139 C 
HETATM   18  C27 UNL     1      17.754  -5.301   5.995  1.00  0.00     0.159 C 
HETATM   19  N7  UNL     1      16.863  -4.848   5.010  1.00  0.00    -0.347 N 
ATOM     20  H7  UNL     1      15.945  -5.293   5.038  1.00  0.00     0.163 HD
HETATM   21  C32 UNL     1      17.011  -3.895   3.997  1.00  0.00     0.241 C 
HETATM   22  O5  UNL     1      16.010  -3.144   3.731  1.00  0.00    -0.271 OA
ENDROOT
BRANCH   1  23
HETATM   23  C8  UNL     1      18.740  -2.247   3.409  1.00  0.00     0.075 C 
BRANCH  23  24
HETATM   24  C7  UNL     1      18.643  -1.802   4.816  1.00  0.00    -0.028 A 
HETATM   25  C2  UNL     1      18.063  -0.654   5.283  1.00  0.00     0.029 A 
HETATM   26  C1  UNL     1      17.392   0.279   4.589  1.00  0.00     0.043 C 
HETATM   27  N1  UNL     1      18.248  -0.599   6.634  1.00  0.00    -0.357 N 
HETATM   28  C3  UNL     1      18.926  -1.681   7.036  1.00  0.00     0.029 A 
ATOM     29  H1  UNL     1      17.921   0.151   7.243  1.00  0.00     0.166 HD
HETATM   30  C6  UNL     1      19.182  -2.443   5.933  1.00  0.00     0.038 A 
BRANCH  28  31
HETATM   31  C4  UNL     1      19.273  -1.932   8.310  1.00  0.00    -0.002 C 
HETATM   32  C5  UNL     1      19.942  -0.856   9.080  1.00  0.00     0.038 C 
ENDBRANCH  28  31
ENDBRANCH  23  24
ENDBRANCH   1  23
BRANCH   4  33
HETATM   33  C11 UNL     1      16.325  -3.753   0.284  1.00  0.00     0.046 C 
BRANCH  33  34
HETATM   34  C12 UNL     1      14.847  -3.925   0.194  1.00  0.00     0.003 C 
BRANCH  34  35
HETATM   35  C13 UNL     1      14.268  -4.794   1.287  1.00  0.00    -0.004 C 
HETATM   36  C14 UNL     1      13.299  -5.769   0.620  1.00  0.00     0.005 C 
ENDBRANCH  34  35
ENDBRANCH  33  34
ENDBRANCH   4  33
BRANCH  18  37
HETATM   37  C28 UNL     1      17.039  -5.702   7.294  1.00  0.00     0.037 C 
BRANCH  37  38
HETATM   38  C29 UNL     1      17.460  -4.793   8.429  1.00  0.00    -0.020 C 
HETATM   39  C30 UNL     1      16.223  -4.507   9.254  1.00  0.00     0.009 C 
HETATM   40  C31 UNL     1      18.512  -5.457   9.291  1.00  0.00     0.009 C 
ENDBRANCH  37  38
ENDBRANCH  18  37
BRANCH  17  41
HETATM   41  O4  UNL     1      19.687  -6.388   6.502  1.00  0.00    -0.348 OA
ATOM     42  H4  UNL     1      19.505  -6.436   7.433  1.00  0.00     0.219 HD
ENDBRANCH  17  41
BRANCH   9  43
HETATM   43  C18 UNL     1      16.055  -9.286   1.228  1.00  0.00     0.067 C 
BRANCH  43  44
HETATM   44  C19 UNL     1      14.938  -9.640   0.327  1.00  0.00    -0.017 C 
HETATM   45  C20 UNL     1      13.607  -9.669   1.090  1.00  0.00     0.010 C 
HETATM   46  C21 UNL     1      14.801  -8.931  -0.968  1.00  0.00     0.010 C 
ENDBRANCH  43  44
ENDBRANCH   9  43
BRANCH  14  47
HETATM   47  C24 UNL     1      18.033  -9.701   5.407  1.00  0.00     0.106 C 
BRANCH  47  48
HETATM   48  C25 UNL     1      19.338 -10.074   5.858  1.00  0.00     0.257 C 
HETATM   49  N5  UNL     1      20.102  -9.490   6.906  1.00  0.00    -0.058 NA
HETATM   50  O3  UNL     1      19.952 -11.050   5.288  1.00  0.00    -0.272 OA
ENDBRANCH  47  48
ENDBRANCH  14  47
TORSDOF 13
ENDMDL
