MODEL 1
REMARK VINA RESULT: -6.461771518      0.000      0.000
REMARK  5 active torsions:
REMARK  status: ('A' for Active; 'I' for Inactive)
REMARK    1  A    between atoms: N1_1  and  C1_5 
REMARK    2  A    between atoms: C1_5  and  C2_6 
REMARK    3  A    between atoms: C1_5  and  C4_10 
REMARK    4  A    between atoms: C2_6  and  C3_7 
REMARK    5  A    between atoms: C3_7  and  O1_8 
ROOT
HETATM    1  C4  UNL     1      21.715  16.992  33.340  1.00  0.00    -0.004 A 
HETATM    2  C5  UNL     1      21.107  16.372  32.152  1.00  0.00     0.018 A 
HETATM    3  C6  UNL     1      21.541  15.538  33.311  1.00  0.00    -0.003 A 
HETATM    4  C7  UNL     1      22.750  14.684  33.271  1.00  0.00     0.010 C 
HETATM    5  C8  UNL     1      23.996  15.256  33.838  1.00  0.00    -0.013 C 
HETATM    6  C9  UNL     1      25.098  15.450  32.791  1.00  0.00     0.010 C 
HETATM    7  C10 UNL     1      24.585  16.330  31.675  1.00  0.00    -0.007 C 
HETATM    8  C11 UNL     1      25.754  16.607  30.758  1.00  0.00     0.032 C 
HETATM    9  C12 UNL     1      25.633  18.004  30.146  1.00  0.00     0.232 C 
HETATM   10  N2  UNL     1      25.828  18.882  31.283  1.00  0.00    -0.075 N 
ATOM     11  H21 UNL     1      25.986  19.845  30.988  1.00  0.00     0.277 HD
ATOM     12  H22 UNL     1      26.723  18.708  31.739  1.00  0.00     0.277 HD
HETATM   13  C13 UNL     1      24.763  18.790  32.191  1.00  0.00     0.237 C 
HETATM   14  C14 UNL     1      23.879  17.566  32.129  1.00  0.00     0.020 C 
HETATM   15  C15 UNL     1      23.126  17.469  33.393  1.00  0.00     0.003 C 
HETATM   16  C16 UNL     1      23.825  16.621  34.465  1.00  0.00     0.010 C 
ENDROOT
BRANCH   1  17
HETATM   17  C1  UNL     1      20.697  17.717  34.240  1.00  0.00     0.194 C 
BRANCH  17  18
HETATM   18  N1  UNL     1      20.918  19.119  34.291  1.00  0.00    -0.074 N 
ATOM     19  H13 UNL     1      21.864  19.374  34.006  1.00  0.00     0.274 HD
ATOM     20  H12 UNL     1      20.410  19.618  33.562  1.00  0.00     0.274 HD
ATOM     21  H11 UNL     1      20.689  19.457  35.225  1.00  0.00     0.274 HD
ENDBRANCH  17  18
BRANCH  17  22
HETATM   22  C2  UNL     1      19.286  17.456  33.739  1.00  0.00     0.059 C 
BRANCH  22  23
HETATM   23  C3  UNL     1      18.686  18.787  33.335  1.00  0.00     0.166 C 
BRANCH  23  24
HETATM   24  O1  UNL     1      17.672  19.086  34.240  1.00  0.00    -0.401 OA
ATOM     25  H1  UNL     1      17.756  20.002  34.475  1.00  0.00     0.209 HD
ENDBRANCH  23  24
ENDBRANCH  22  23
ENDBRANCH  17  22
ENDBRANCH   1  17
TORSDOF 5
ENDMDL
MODEL 2
REMARK VINA RESULT: -6.280780573      1.652      1.999
REMARK  5 active torsions:
REMARK  status: ('A' for Active; 'I' for Inactive)
REMARK    1  A    between atoms: N1_1  and  C1_5 
REMARK    2  A    between atoms: C1_5  and  C2_6 
REMARK    3  A    between atoms: C1_5  and  C4_10 
REMARK    4  A    between atoms: C2_6  and  C3_7 
REMARK    5  A    between atoms: C3_7  and  O1_8 
ROOT
HETATM    1  C4  UNL     1      22.480  16.392  32.149  1.00  0.00    -0.004 A 
HETATM    2  C5  UNL     1      22.861  15.107  31.543  1.00  0.00     0.018 A 
HETATM    3  C6  UNL     1      23.033  15.340  33.007  1.00  0.00    -0.003 A 
HETATM    4  C7  UNL     1      24.358  15.560  33.628  1.00  0.00     0.010 C 
HETATM    5  C8  UNL     1      24.772  16.968  33.848  1.00  0.00    -0.013 C 
HETATM    6  C9  UNL     1      26.003  17.367  33.027  1.00  0.00     0.010 C 
HETATM    7  C10 UNL     1      25.730  17.130  31.560  1.00  0.00    -0.007 C 
HETATM    8  C11 UNL     1      26.912  17.680  30.796  1.00  0.00     0.032 C 
HETATM    9  C12 UNL     1      26.461  18.237  29.443  1.00  0.00     0.232 C 
HETATM   10  N2  UNL     1      25.675  19.398  29.809  1.00  0.00    -0.075 N 
ATOM     11  H21 UNL     1      25.488  19.992  29.001  1.00  0.00     0.277 HD
ATOM     12  H22 UNL     1      26.219  20.057  30.366  1.00  0.00     0.277 HD
HETATM   13  C13 UNL     1      24.490  19.030  30.462  1.00  0.00     0.237 C 
HETATM   14  C14 UNL     1      24.415  17.652  31.077  1.00  0.00     0.020 C 
HETATM   15  C15 UNL     1      23.303  17.631  32.044  1.00  0.00     0.003 C 
HETATM   16  C16 UNL     1      23.722  17.990  33.477  1.00  0.00     0.010 C 
ENDROOT
BRANCH   1  17
HETATM   17  C1  UNL     1      20.959  16.573  32.299  1.00  0.00     0.194 C 
BRANCH  17  18
HETATM   18  N1  UNL     1      20.230  15.440  31.850  1.00  0.00    -0.074 N 
ATOM     19  H13 UNL     1      20.046  14.773  32.600  1.00  0.00     0.274 HD
ATOM     20  H12 UNL     1      19.263  15.666  31.620  1.00  0.00     0.274 HD
ATOM     21  H11 UNL     1      20.727  15.015  31.067  1.00  0.00     0.274 HD
ENDBRANCH  17  18
BRANCH  17  22
HETATM   22  C2  UNL     1      20.611  16.839  33.755  1.00  0.00     0.059 C 
BRANCH  22  23
HETATM   23  C3  UNL     1      19.224  17.446  33.795  1.00  0.00     0.166 C 
BRANCH  23  24
HETATM   24  O1  UNL     1      18.316  16.414  34.019  1.00  0.00    -0.401 OA
ATOM     25  H1  UNL     1      17.479  16.807  34.232  1.00  0.00     0.209 HD
ENDBRANCH  23  24
ENDBRANCH  22  23
ENDBRANCH  17  22
ENDBRANCH   1  17
TORSDOF 5
ENDMDL
MODEL 3
REMARK VINA RESULT: -6.277791843      2.699      5.449
REMARK  5 active torsions:
REMARK  status: ('A' for Active; 'I' for Inactive)
REMARK    1  A    between atoms: N1_1  and  C1_5 
REMARK    2  A    between atoms: C1_5  and  C2_6 
REMARK    3  A    between atoms: C1_5  and  C4_10 
REMARK    4  A    between atoms: C2_6  and  C3_7 
REMARK    5  A    between atoms: C3_7  and  O1_8 
ROOT
HETATM    1  C4  UNL     1      22.978  16.315  31.828  1.00  0.00    -0.004 A 
HETATM    2  C5  UNL     1      23.197  17.580  31.109  1.00  0.00     0.018 A 
HETATM    3  C6  UNL     1      24.060  17.201  32.266  1.00  0.00    -0.003 A 
HETATM    4  C7  UNL     1      23.947  17.850  33.592  1.00  0.00     0.010 C 
HETATM    5  C8  UNL     1      23.116  17.160  34.609  1.00  0.00    -0.013 C 
HETATM    6  C9  UNL     1      21.879  17.966  35.021  1.00  0.00     0.010 C 
HETATM    7  C10 UNL     1      21.048  18.276  33.797  1.00  0.00    -0.007 C 
HETATM    8  C11 UNL     1      19.777  18.935  34.281  1.00  0.00     0.032 C 
HETATM    9  C12 UNL     1      18.604  18.566  33.369  1.00  0.00     0.232 C 
HETATM   10  N2  UNL     1      18.418  17.151  33.624  1.00  0.00    -0.075 N 
ATOM     11  H21 UNL     1      17.533  16.817  33.244  1.00  0.00     0.277 HD
ATOM     12  H22 UNL     1      18.245  16.970  34.613  1.00  0.00     0.277 HD
HETATM   13  C13 UNL     1      19.500  16.397  33.146  1.00  0.00     0.237 C 
HETATM   14  C14 UNL     1      20.808  17.110  32.893  1.00  0.00     0.020 C 
HETATM   15  C15 UNL     1      21.882  16.104  32.816  1.00  0.00     0.003 C 
HETATM   16  C16 UNL     1      22.566  15.825  34.162  1.00  0.00     0.010 C 
ENDROOT
BRANCH   1  17
HETATM   17  C1  UNL     1      23.471  15.078  31.054  1.00  0.00     0.194 C 
BRANCH  17  18
HETATM   18  N1  UNL     1      23.490  15.287  29.650  1.00  0.00    -0.074 N 
ATOM     19  H13 UNL     1      24.286  14.834  29.200  1.00  0.00     0.274 HD
ATOM     20  H12 UNL     1      22.748  14.779  29.171  1.00  0.00     0.274 HD
ATOM     21  H11 UNL     1      23.457  16.289  29.464  1.00  0.00     0.274 HD
ENDBRANCH  17  18
BRANCH  17  22
HETATM   22  C2  UNL     1      24.869  14.702  31.518  1.00  0.00     0.059 C 
BRANCH  22  23
HETATM   23  C3  UNL     1      24.783  13.350  32.196  1.00  0.00     0.166 C 
BRANCH  23  24
HETATM   24  O1  UNL     1      23.472  12.897  32.073  1.00  0.00    -0.401 OA
ATOM     25  H1  UNL     1      22.922  13.456  32.607  1.00  0.00     0.209 HD
ENDBRANCH  23  24
ENDBRANCH  22  23
ENDBRANCH  17  22
ENDBRANCH   1  17
TORSDOF 5
ENDMDL
MODEL 4
REMARK VINA RESULT: -5.919124888      2.936      5.644
REMARK  5 active torsions:
REMARK  status: ('A' for Active; 'I' for Inactive)
REMARK    1  A    between atoms: N1_1  and  C1_5 
REMARK    2  A    between atoms: C1_5  and  C2_6 
REMARK    3  A    between atoms: C1_5  and  C4_10 
REMARK    4  A    between atoms: C2_6  and  C3_7 
REMARK    5  A    between atoms: C3_7  and  O1_8 
ROOT
HETATM    1  C4  UNL     1      23.319  16.364  31.899  1.00  0.00    -0.004 A 
HETATM    2  C5  UNL     1      23.401  17.604  31.111  1.00  0.00     0.018 A 
HETATM    3  C6  UNL     1      24.310  17.377  32.271  1.00  0.00    -0.003 A 
HETATM    4  C7  UNL     1      24.147  18.082  33.563  1.00  0.00     0.010 C 
HETATM    5  C8  UNL     1      23.400  17.369  34.629  1.00  0.00    -0.013 C 
HETATM    6  C9  UNL     1      22.093  18.068  35.017  1.00  0.00     0.010 C 
HETATM    7  C10 UNL     1      21.222  18.227  33.792  1.00  0.00    -0.007 C 
HETATM    8  C11 UNL     1      19.897  18.780  34.262  1.00  0.00     0.032 C 
HETATM    9  C12 UNL     1      18.757  18.247  33.389  1.00  0.00     0.232 C 
HETATM   10  N2  UNL     1      18.717  16.837  33.722  1.00  0.00    -0.075 N 
ATOM     11  H21 UNL     1      17.866  16.395  33.375  1.00  0.00     0.277 HD
ATOM     12  H22 UNL     1      18.574  16.693  34.721  1.00  0.00     0.277 HD
HETATM   13  C13 UNL     1      19.864  16.170  33.267  1.00  0.00     0.237 C 
HETATM   14  C14 UNL     1      21.090  16.996  32.956  1.00  0.00     0.020 C 
HETATM   15  C15 UNL     1      22.260  16.099  32.914  1.00  0.00     0.003 C 
HETATM   16  C16 UNL     1      22.983  15.963  34.262  1.00  0.00     0.010 C 
ENDROOT
BRANCH   1  17
HETATM   17  C1  UNL     1      23.925  15.143  31.184  1.00  0.00     0.194 C 
BRANCH  17  18
HETATM   18  N1  UNL     1      23.750  15.195  29.776  1.00  0.00    -0.074 N 
ATOM     19  H13 UNL     1      23.857  16.140  29.405  1.00  0.00     0.274 HD
ATOM     20  H12 UNL     1      24.520  14.756  29.272  1.00  0.00     0.274 HD
ATOM     21  H11 UNL     1      22.847  14.785  29.538  1.00  0.00     0.274 HD
ENDBRANCH  17  18
BRANCH  17  22
HETATM   22  C2  UNL     1      25.410  15.046  31.495  1.00  0.00     0.059 C 
BRANCH  22  23
HETATM   23  C3  UNL     1      26.150  14.920  30.179  1.00  0.00     0.166 C 
BRANCH  23  24
HETATM   24  O1  UNL     1      26.569  16.194  29.804  1.00  0.00    -0.401 OA
ATOM     25  H1  UNL     1      27.150  16.518  30.481  1.00  0.00     0.209 HD
ENDBRANCH  23  24
ENDBRANCH  22  23
ENDBRANCH  17  22
ENDBRANCH   1  17
TORSDOF 5
ENDMDL
MODEL 5
REMARK VINA RESULT: -5.862609251      2.056      3.043
REMARK  5 active torsions:
REMARK  status: ('A' for Active; 'I' for Inactive)
REMARK    1  A    between atoms: N1_1  and  C1_5 
REMARK    2  A    between atoms: C1_5  and  C2_6 
REMARK    3  A    between atoms: C1_5  and  C4_10 
REMARK    4  A    between atoms: C2_6  and  C3_7 
REMARK    5  A    between atoms: C3_7  and  O1_8 
ROOT
HETATM    1  C4  UNL     1      22.460  16.657  32.670  1.00  0.00    -0.004 A 
HETATM    2  C5  UNL     1      22.760  16.170  34.026  1.00  0.00     0.018 A 
HETATM    3  C6  UNL     1      22.996  17.597  33.658  1.00  0.00    -0.003 A 
HETATM    4  C7  UNL     1      24.352  18.150  33.441  1.00  0.00     0.010 C 
HETATM    5  C8  UNL     1      24.836  18.214  32.040  1.00  0.00    -0.013 C 
HETATM    6  C9  UNL     1      26.052  17.317  31.783  1.00  0.00     0.010 C 
HETATM    7  C10 UNL     1      25.714  15.891  32.151  1.00  0.00    -0.007 C 
HETATM    8  C11 UNL     1      26.891  15.038  31.737  1.00  0.00     0.032 C 
HETATM    9  C12 UNL     1      26.415  13.651  31.296  1.00  0.00     0.232 C 
HETATM   10  N2  UNL     1      25.696  13.924  30.067  1.00  0.00    -0.075 N 
ATOM     11  H21 UNL     1      25.505  13.067  29.548  1.00  0.00     0.277 HD
ATOM     12  H22 UNL     1      26.289  14.393  29.384  1.00  0.00     0.277 HD
HETATM   13  C13 UNL     1      24.521  14.649  30.312  1.00  0.00     0.237 C 
HETATM   14  C14 UNL     1      24.407  15.401  31.617  1.00  0.00     0.020 C 
HETATM   15  C15 UNL     1      23.332  16.401  31.489  1.00  0.00     0.003 C 
HETATM   16  C16 UNL     1      23.819  17.776  31.010  1.00  0.00     0.010 C 
ENDROOT
BRANCH   1  17
HETATM   17  C1  UNL     1      20.954  16.837  32.403  1.00  0.00     0.194 C 
BRANCH  17  18
HETATM   18  N1  UNL     1      20.321  15.624  32.022  1.00  0.00    -0.074 N 
ATOM     19  H13 UNL     1      20.399  15.442  31.022  1.00  0.00     0.274 HD
ATOM     20  H12 UNL     1      20.823  14.802  32.357  1.00  0.00     0.274 HD
ATOM     21  H11 UNL     1      19.352  15.642  32.339  1.00  0.00     0.274 HD
ENDBRANCH  17  18
BRANCH  17  22
HETATM   22  C2  UNL     1      20.270  17.383  33.647  1.00  0.00     0.059 C 
BRANCH  22  23
HETATM   23  C3  UNL     1      18.788  17.485  33.352  1.00  0.00     0.166 C 
BRANCH  23  24
HETATM   24  O1  UNL     1      18.150  16.444  34.020  1.00  0.00    -0.401 OA
ATOM     25  H1  UNL     1      17.306  16.764  34.315  1.00  0.00     0.209 HD
ENDBRANCH  23  24
ENDBRANCH  22  23
ENDBRANCH  17  22
ENDBRANCH   1  17
TORSDOF 5
ENDMDL
