MODEL 1
REMARK VINA RESULT: -2.346944330      0.000      0.000
REMARK  5 active torsions:
REMARK  status: ('A' for Active; 'I' for Inactive)
REMARK    1  A    between atoms: N2_5  and  C3_6 
REMARK    2  A    between atoms: C11_15  and  C12_16 
REMARK    3  A    between atoms: N3_17  and  N4_19 
REMARK    4  A    between atoms: N4_19  and  C13_21 
REMARK    5  A    between atoms: C14_24  and  C15_25 
ROOT
HETATM    1  C12 UNL     1      -2.892  -6.443  23.732  1.00  0.00     0.122 C 
HETATM    2  N3  UNL     1      -2.995  -5.206  23.417  1.00  0.00    -0.309 N 
ATOM      3  H3  UNL     1      -2.987  -4.518  24.169  1.00  0.00     0.186 HD
ENDROOT
BRANCH   2   4
HETATM    4  N4  UNL     1      -3.117  -4.745  22.112  1.00  0.00    -0.279 N 
ATOM      5  H4  UNL     1      -2.987  -3.754  21.908  1.00  0.00     0.189 HD
BRANCH   4   6
HETATM    6  C13 UNL     1      -3.401  -5.589  21.136  1.00  0.00     0.181 A 
HETATM    7  N5  UNL     1      -3.444  -6.914  21.209  1.00  0.00    -0.319 N 
HETATM    8  C14 UNL     1      -3.749  -7.573  20.112  1.00  0.00     0.123 A 
ATOM      9  H5  UNL     1      -3.249  -7.402  22.084  1.00  0.00     0.169 HD
HETATM   10  N6  UNL     1      -3.991  -6.863  19.009  1.00  0.00    -0.309 N 
HETATM   11  S1  UNL     1      -3.791  -5.277  19.511  1.00  0.00     0.025 SA
ATOM     12  H6  UNL     1      -4.240  -7.205  18.081  1.00  0.00     0.176 HD
BRANCH   8  13
HETATM   13  C15 UNL     1      -3.836  -9.061  20.048  1.00  0.00     0.009 A 
HETATM   14  C16 UNL     1      -3.900  -9.734  18.855  1.00  0.00     0.016 A 
HETATM   15  C17 UNL     1      -3.980 -11.106  18.796  1.00  0.00     0.020 A 
HETATM   16  C18 UNL     1      -4.000 -11.852  19.949  1.00  0.00     0.011 A 
HETATM   17 BR2  UNL     1      -4.112 -13.767  19.873  1.00  0.00    -0.051 Br
HETATM   18  C19 UNL     1      -3.937 -11.196  21.150  1.00  0.00     0.020 A 
HETATM   19  C20 UNL     1      -3.856  -9.812  21.200  1.00  0.00     0.016 A 
ENDBRANCH   8  13
ENDBRANCH   4   6
ENDBRANCH   2   4
BRANCH   1  20
HETATM   20  C11 UNL     1      -2.766  -6.903  25.107  1.00  0.00     0.029 A 
HETATM   21  C2  UNL     1      -1.986  -6.366  26.108  1.00  0.00     0.036 A 
HETATM   22  C1  UNL     1      -1.098  -5.172  25.957  1.00  0.00     0.070 C 
HETATM   23  N1  UNL     1      -2.170  -7.104  27.226  1.00  0.00    -0.297 N 
HETATM   24  N2  UNL     1      -3.029  -8.088  26.994  1.00  0.00    -0.260 N 
ATOM     25  H1  UNL     1      -1.714  -6.929  28.121  1.00  0.00     0.187 HD
HETATM   26  C9  UNL     1      -3.402  -7.981  25.707  1.00  0.00     0.044 A 
HETATM   27  C10 UNL     1      -4.366  -8.888  25.010  1.00  0.00     0.071 C 
BRANCH  24  28
HETATM   28  C3  UNL     1      -3.485  -9.082  27.917  1.00  0.00     0.056 A 
HETATM   29  C4  UNL     1      -2.687 -10.160  28.240  1.00  0.00     0.033 A 
HETATM   30  C5  UNL     1      -3.115 -11.126  29.130  1.00  0.00     0.021 A 
HETATM   31  C6  UNL     1      -4.353 -11.055  29.733  1.00  0.00     0.011 A 
HETATM   32 BR1  UNL     1      -4.922 -12.408  30.963  1.00  0.00    -0.051 Br
HETATM   33  C7  UNL     1      -5.154  -9.979  29.414  1.00  0.00     0.021 A 
HETATM   34  C8  UNL     1      -4.724  -9.014  28.523  1.00  0.00     0.033 A 
ENDBRANCH  24  28
ENDBRANCH   1  20
TORSDOF 5
ENDMDL
MODEL 2
REMARK VINA RESULT: -1.710881467      1.207      1.290
REMARK  5 active torsions:
REMARK  status: ('A' for Active; 'I' for Inactive)
REMARK    1  A    between atoms: N2_5  and  C3_6 
REMARK    2  A    between atoms: C11_15  and  C12_16 
REMARK    3  A    between atoms: N3_17  and  N4_19 
REMARK    4  A    between atoms: N4_19  and  C13_21 
REMARK    5  A    between atoms: C14_24  and  C15_25 
ROOT
HETATM    1  C12 UNL     1      -3.687  -5.993  25.133  1.00  0.00     0.122 C 
HETATM    2  N3  UNL     1      -2.599  -5.583  24.597  1.00  0.00    -0.309 N 
ATOM      3  H3  UNL     1      -1.731  -5.708  25.119  1.00  0.00     0.186 HD
ENDROOT
BRANCH   2   4
HETATM    4  N4  UNL     1      -2.528  -4.978  23.349  1.00  0.00    -0.279 N 
ATOM      5  H4  UNL     1      -2.287  -3.990  23.274  1.00  0.00     0.189 HD
BRANCH   4   6
HETATM    6  C13 UNL     1      -2.771  -5.682  22.258  1.00  0.00     0.181 A 
HETATM    7  N5  UNL     1      -2.975  -6.992  22.178  1.00  0.00    -0.319 N 
HETATM    8  C14 UNL     1      -3.202  -7.500  20.986  1.00  0.00     0.123 A 
ATOM      9  H5  UNL     1      -2.955  -7.582  23.010  1.00  0.00     0.169 HD
HETATM   10  N6  UNL     1      -3.212  -6.663  19.947  1.00  0.00    -0.309 N 
HETATM   11  S1  UNL     1      -2.902  -5.170  20.642  1.00  0.00     0.025 SA
ATOM     12  H6  UNL     1      -3.371  -6.880  18.963  1.00  0.00     0.176 HD
BRANCH   8  13
HETATM   13  C15 UNL     1      -3.448  -8.952  20.747  1.00  0.00     0.009 A 
HETATM   14  C16 UNL     1      -3.453  -9.489  19.485  1.00  0.00     0.016 A 
HETATM   15  C17 UNL     1      -3.681 -10.828  19.266  1.00  0.00     0.020 A 
HETATM   16  C18 UNL     1      -3.912 -11.677  20.320  1.00  0.00     0.011 A 
HETATM   17 BR2  UNL     1      -4.229 -13.547  20.019  1.00  0.00    -0.051 Br
HETATM   18  C19 UNL     1      -3.910 -11.157  21.587  1.00  0.00     0.020 A 
HETATM   19  C20 UNL     1      -3.680  -9.806  21.800  1.00  0.00     0.016 A 
ENDBRANCH   8  13
ENDBRANCH   4   6
ENDBRANCH   2   4
BRANCH   1  20
HETATM   20  C11 UNL     1      -3.737  -6.625  26.444  1.00  0.00     0.029 A 
HETATM   21  C2  UNL     1      -3.513  -6.039  27.671  1.00  0.00     0.036 A 
HETATM   22  C1  UNL     1      -3.164  -4.600  27.885  1.00  0.00     0.070 C 
HETATM   23  N1  UNL     1      -3.663  -6.988  28.622  1.00  0.00    -0.297 N 
HETATM   24  N2  UNL     1      -3.973  -8.153  28.068  1.00  0.00    -0.260 N 
ATOM     25  H1  UNL     1      -3.553  -6.831  29.624  1.00  0.00     0.187 HD
HETATM   26  C9  UNL     1      -4.022  -7.950  26.741  1.00  0.00     0.044 A 
HETATM   27  C10 UNL     1      -4.339  -8.996  25.719  1.00  0.00     0.071 C 
BRANCH  24  28
HETATM   28  C3  UNL     1      -4.212  -9.397  28.734  1.00  0.00     0.056 A 
HETATM   29  C4  UNL     1      -3.180 -10.285  28.957  1.00  0.00     0.033 A 
HETATM   30  C5  UNL     1      -3.398 -11.489  29.598  1.00  0.00     0.021 A 
HETATM   31  C6  UNL     1      -4.651 -11.854  30.043  1.00  0.00     0.011 A 
HETATM   32 BR1  UNL     1      -4.926 -13.529  30.929  1.00  0.00    -0.051 Br
HETATM   33  C7  UNL     1      -5.687 -10.970  29.823  1.00  0.00     0.021 A 
HETATM   34  C8  UNL     1      -5.466  -9.766  29.180  1.00  0.00     0.033 A 
ENDBRANCH  24  28
ENDBRANCH   1  20
TORSDOF 5
ENDMDL
MODEL 3
REMARK VINA RESULT: -1.652215378      1.200      1.771
REMARK  5 active torsions:
REMARK  status: ('A' for Active; 'I' for Inactive)
REMARK    1  A    between atoms: N2_5  and  C3_6 
REMARK    2  A    between atoms: C11_15  and  C12_16 
REMARK    3  A    between atoms: N3_17  and  N4_19 
REMARK    4  A    between atoms: N4_19  and  C13_21 
REMARK    5  A    between atoms: C14_24  and  C15_25 
ROOT
HETATM    1  C12 UNL     1      -3.658  -6.019  25.122  1.00  0.00     0.122 C 
HETATM    2  N3  UNL     1      -2.576  -5.569  24.604  1.00  0.00    -0.309 N 
ATOM      3  H3  UNL     1      -1.714  -5.660  25.141  1.00  0.00     0.186 HD
ENDROOT
BRANCH   2   4
HETATM    4  N4  UNL     1      -2.506  -4.965  23.355  1.00  0.00    -0.279 N 
ATOM      5  H4  UNL     1      -2.262  -3.977  23.280  1.00  0.00     0.189 HD
BRANCH   4   6
HETATM    6  C13 UNL     1      -2.754  -5.668  22.265  1.00  0.00     0.181 A 
HETATM    7  N5  UNL     1      -2.956  -6.978  22.185  1.00  0.00    -0.319 N 
HETATM    8  C14 UNL     1      -3.188  -7.486  20.993  1.00  0.00     0.123 A 
ATOM      9  H5  UNL     1      -2.931  -7.569  23.016  1.00  0.00     0.169 HD
HETATM   10  N6  UNL     1      -3.204  -6.648  19.955  1.00  0.00    -0.309 N 
HETATM   11  S1  UNL     1      -2.893  -5.155  20.650  1.00  0.00     0.025 SA
ATOM     12  H6  UNL     1      -3.367  -6.865  18.972  1.00  0.00     0.176 HD
BRANCH   8  13
HETATM   13  C15 UNL     1      -3.433  -8.938  20.755  1.00  0.00     0.009 A 
HETATM   14  C16 UNL     1      -3.647  -9.817  21.786  1.00  0.00     0.016 A 
HETATM   15  C17 UNL     1      -3.872 -11.156  21.565  1.00  0.00     0.020 A 
HETATM   16  C18 UNL     1      -3.888 -11.658  20.287  1.00  0.00     0.011 A 
HETATM   17 BR2  UNL     1      -4.201 -13.526  19.974  1.00  0.00    -0.051 Br
HETATM   18  C19 UNL     1      -3.675 -10.794  19.245  1.00  0.00     0.020 A 
HETATM   19  C20 UNL     1      -3.449  -9.445  19.477  1.00  0.00     0.016 A 
ENDBRANCH   8  13
ENDBRANCH   4   6
ENDBRANCH   2   4
BRANCH   1  20
HETATM   20  C11 UNL     1      -3.707  -6.648  26.433  1.00  0.00     0.029 A 
HETATM   21  C2  UNL     1      -3.498  -6.058  27.660  1.00  0.00     0.036 A 
HETATM   22  C1  UNL     1      -3.169  -4.614  27.874  1.00  0.00     0.070 C 
HETATM   23  N1  UNL     1      -3.641  -7.007  28.613  1.00  0.00    -0.297 N 
HETATM   24  N2  UNL     1      -3.932  -8.177  28.059  1.00  0.00    -0.260 N 
ATOM     25  H1  UNL     1      -3.539  -6.847  29.615  1.00  0.00     0.187 HD
HETATM   26  C9  UNL     1      -3.976  -7.977  26.731  1.00  0.00     0.044 A 
HETATM   27  C10 UNL     1      -4.273  -9.028  25.709  1.00  0.00     0.071 C 
BRANCH  24  28
HETATM   28  C3  UNL     1      -4.159  -9.423  28.725  1.00  0.00     0.056 A 
HETATM   29  C4  UNL     1      -5.422  -9.771  29.156  1.00  0.00     0.033 A 
HETATM   30  C5  UNL     1      -5.654 -10.971  29.801  1.00  0.00     0.021 A 
HETATM   31  C6  UNL     1      -4.637 -11.871  30.038  1.00  0.00     0.011 A 
HETATM   32 BR1  UNL     1      -4.984 -13.527  30.934  1.00  0.00    -0.051 Br
HETATM   33  C7  UNL     1      -3.371 -11.529  29.609  1.00  0.00     0.021 A 
HETATM   34  C8  UNL     1      -3.142 -10.328  28.965  1.00  0.00     0.033 A 
ENDBRANCH  24  28
ENDBRANCH   1  20
TORSDOF 5
ENDMDL
MODEL 4
REMARK VINA RESULT: -0.681416335      2.553      8.318
REMARK  5 active torsions:
REMARK  status: ('A' for Active; 'I' for Inactive)
REMARK    1  A    between atoms: N2_5  and  C3_6 
REMARK    2  A    between atoms: C11_15  and  C12_16 
REMARK    3  A    between atoms: N3_17  and  N4_19 
REMARK    4  A    between atoms: N4_19  and  C13_21 
REMARK    5  A    between atoms: C14_24  and  C15_25 
ROOT
HETATM    1  C12 UNL     1      -2.193  -7.894  24.327  1.00  0.00     0.122 C 
HETATM    2  N3  UNL     1      -1.550  -6.790  24.410  1.00  0.00    -0.309 N 
ATOM      3  H3  UNL     1      -0.994  -6.497  23.607  1.00  0.00     0.186 HD
ENDROOT
BRANCH   2   4
HETATM    4  N4  UNL     1      -1.564  -5.965  25.529  1.00  0.00    -0.279 N 
ATOM      5  H4  UNL     1      -0.995  -5.119  25.545  1.00  0.00     0.189 HD
BRANCH   4   6
HETATM    6  C13 UNL     1      -2.314  -6.277  26.571  1.00  0.00     0.181 A 
HETATM    7  N5  UNL     1      -2.599  -7.494  27.018  1.00  0.00    -0.319 N 
HETATM    8  C14 UNL     1      -3.371  -7.586  28.079  1.00  0.00     0.123 A 
ATOM      9  H5  UNL     1      -2.234  -8.327  26.555  1.00  0.00     0.169 HD
HETATM   10  N6  UNL     1      -3.809  -6.452  28.628  1.00  0.00    -0.309 N 
HETATM   11  S1  UNL     1      -3.140  -5.261  27.656  1.00  0.00     0.025 SA
ATOM     12  H6  UNL     1      -4.408  -6.336  29.445  1.00  0.00     0.176 HD
BRANCH   8  13
HETATM   13  C15 UNL     1      -3.773  -8.887  28.690  1.00  0.00     0.009 A 
HETATM   14  C16 UNL     1      -2.860  -9.876  28.956  1.00  0.00     0.016 A 
HETATM   15  C17 UNL     1      -3.231 -11.075  29.518  1.00  0.00     0.020 A 
HETATM   16  C18 UNL     1      -4.545 -11.319  29.834  1.00  0.00     0.011 A 
HETATM   17 BR2  UNL     1      -5.068 -12.991  30.621  1.00  0.00    -0.051 Br
HETATM   18  C19 UNL     1      -5.469 -10.342  29.575  1.00  0.00     0.020 A 
HETATM   19  C20 UNL     1      -5.087  -9.135  29.008  1.00  0.00     0.016 A 
ENDBRANCH   8  13
ENDBRANCH   4   6
ENDBRANCH   2   4
BRANCH   1  20
HETATM   20  C11 UNL     1      -2.164  -8.742  23.145  1.00  0.00     0.029 A 
HETATM   21  C2  UNL     1      -1.282  -9.762  22.860  1.00  0.00     0.036 A 
HETATM   22  C1  UNL     1      -0.156 -10.197  23.745  1.00  0.00     0.070 C 
HETATM   23  N1  UNL     1      -1.617 -10.284  21.658  1.00  0.00    -0.297 N 
HETATM   24  N2  UNL     1      -2.670  -9.651  21.157  1.00  0.00    -0.260 N 
ATOM     25  H1  UNL     1      -1.129 -11.054  21.202  1.00  0.00     0.187 HD
HETATM   26  C9  UNL     1      -3.016  -8.708  22.050  1.00  0.00     0.044 A 
HETATM   27  C10 UNL     1      -4.156  -7.752  21.896  1.00  0.00     0.071 C 
BRANCH  24  28
HETATM   28  C3  UNL     1      -3.325  -9.904  19.911  1.00  0.00     0.056 A 
HETATM   29  C4  UNL     1      -3.637  -8.867  19.056  1.00  0.00     0.033 A 
HETATM   30  C5  UNL     1      -4.270  -9.098  17.851  1.00  0.00     0.021 A 
HETATM   31  C6  UNL     1      -4.615 -10.372  17.448  1.00  0.00     0.011 A 
HETATM   32 BR1  UNL     1      -5.492 -10.665  15.772  1.00  0.00    -0.051 Br
HETATM   33  C7  UNL     1      -4.304 -11.413  18.299  1.00  0.00     0.021 A 
HETATM   34  C8  UNL     1      -3.672 -11.178  19.505  1.00  0.00     0.033 A 
ENDBRANCH  24  28
ENDBRANCH   1  20
TORSDOF 5
ENDMDL
MODEL 5
REMARK VINA RESULT: 1.233328588      3.441      8.825
REMARK  5 active torsions:
REMARK  status: ('A' for Active; 'I' for Inactive)
REMARK    1  A    between atoms: N2_5  and  C3_6 
REMARK    2  A    between atoms: C11_15  and  C12_16 
REMARK    3  A    between atoms: N3_17  and  N4_19 
REMARK    4  A    between atoms: N4_19  and  C13_21 
REMARK    5  A    between atoms: C14_24  and  C15_25 
ROOT
HETATM    1  C12 UNL     1      -1.862  -7.866  23.526  1.00  0.00     0.122 C 
HETATM    2  N3  UNL     1      -1.110  -8.869  23.267  1.00  0.00    -0.309 N 
ATOM      3  H3  UNL     1      -1.328  -9.433  22.445  1.00  0.00     0.186 HD
ENDROOT
BRANCH   2   4
HETATM    4  N4  UNL     1      -0.014  -9.238  24.038  1.00  0.00    -0.279 N 
ATOM      5  H4  UNL     1       0.914  -9.283  23.616  1.00  0.00     0.189 HD
BRANCH   4   6
HETATM    6  C13 UNL     1      -0.173  -9.530  25.317  1.00  0.00     0.181 A 
HETATM    7  N5  UNL     1      -1.317  -9.755  25.951  1.00  0.00    -0.319 N 
HETATM    8  C14 UNL     1      -1.255 -10.031  27.236  1.00  0.00     0.123 A 
ATOM      9  H5  UNL     1      -2.211  -9.716  25.461  1.00  0.00     0.169 HD
HETATM   10  N6  UNL     1      -0.049 -10.064  27.806  1.00  0.00    -0.309 N 
HETATM   11  S1  UNL     1       0.993  -9.708  26.542  1.00  0.00     0.025 SA
ATOM     12  H6  UNL     1       0.184 -10.260  28.779  1.00  0.00     0.176 HD
BRANCH   8  13
HETATM   13  C15 UNL     1      -2.458 -10.306  28.074  1.00  0.00     0.009 A 
HETATM   14  C16 UNL     1      -3.552  -9.479  28.067  1.00  0.00     0.016 A 
HETATM   15  C17 UNL     1      -4.661  -9.733  28.840  1.00  0.00     0.020 A 
HETATM   16  C18 UNL     1      -4.704 -10.838  29.654  1.00  0.00     0.011 A 
HETATM   17 BR2  UNL     1      -6.250 -11.198  30.735  1.00  0.00    -0.051 Br
HETATM   18  C19 UNL     1      -3.619 -11.675  29.674  1.00  0.00     0.020 A 
HETATM   19  C20 UNL     1      -2.506 -11.412  28.890  1.00  0.00     0.016 A 
ENDBRANCH   8  13
ENDBRANCH   4   6
ENDBRANCH   2   4
BRANCH   1  20
HETATM   20  C11 UNL     1      -3.006  -7.499  22.704  1.00  0.00     0.029 A 
HETATM   21  C2  UNL     1      -4.323  -7.385  23.094  1.00  0.00     0.036 A 
HETATM   22  C1  UNL     1      -4.833  -7.627  24.479  1.00  0.00     0.070 C 
HETATM   23  N1  UNL     1      -5.050  -7.023  22.013  1.00  0.00    -0.297 N 
HETATM   24  N2  UNL     1      -4.267  -6.898  20.949  1.00  0.00    -0.260 N 
ATOM     25  H1  UNL     1      -6.058  -6.868  22.015  1.00  0.00     0.187 HD
HETATM   26  C9  UNL     1      -3.018  -7.186  21.352  1.00  0.00     0.044 A 
HETATM   27  C10 UNL     1      -1.805  -7.171  20.477  1.00  0.00     0.071 C 
BRANCH  24  28
HETATM   28  C3  UNL     1      -4.654  -6.532  19.622  1.00  0.00     0.056 A 
HETATM   29  C4  UNL     1      -4.299  -7.316  18.543  1.00  0.00     0.033 A 
HETATM   30  C5  UNL     1      -4.667  -6.973  17.257  1.00  0.00     0.021 A 
HETATM   31  C6  UNL     1      -5.404  -5.837  16.995  1.00  0.00     0.011 A 
HETATM   32 BR1  UNL     1      -5.901  -5.384  15.202  1.00  0.00    -0.051 Br
HETATM   33  C7  UNL     1      -5.762  -5.049  18.069  1.00  0.00     0.021 A 
HETATM   34  C8  UNL     1      -5.392  -5.395  19.355  1.00  0.00     0.033 A 
ENDBRANCH  24  28
ENDBRANCH   1  20
TORSDOF 5
ENDMDL
