MODEL 1
REMARK VINA RESULT: -4.802712172      0.000      0.000
REMARK  4 active torsions:
REMARK  status: ('A' for Active; 'I' for Inactive)
REMARK    1  A    between atoms: C2_2  and  C3_3 
REMARK    2  A    between atoms: C3_3  and  C4_4 
REMARK    3  A    between atoms: N2_9  and  O1_11 
REMARK    4  A    between atoms: C9_16  and  S2_17 
ROOT
HETATM    1  C3  UNL     1      26.108   7.874 -12.718  1.00  0.00     0.061 A 
HETATM    2  N1  UNL     1      25.202   7.555 -11.662  1.00  0.00    -0.361 N 
ATOM      3  H1  UNL     1      24.552   6.769 -11.659  1.00  0.00     0.162 HD
HETATM    4  C6  UNL     1      25.348   8.504 -10.615  1.00  0.00     0.133 A 
HETATM    5  N2  UNL     1      24.664   8.479  -9.527  1.00  0.00    -0.253 N 
ATOM      6  H2  UNL     1      23.967   7.751  -9.369  1.00  0.00     0.196 HD
HETATM    7  C7  UNL     1      26.402   9.465 -11.041  1.00  0.00     0.026 A 
HETATM    8  C8  UNL     1      26.966  10.579 -10.456  1.00  0.00     0.067 A 
HETATM    9  S1  UNL     1      28.099  11.087 -11.626  1.00  0.00    -0.093 SA
HETATM   10  C9  UNL     1      27.833   9.897 -12.806  1.00  0.00     0.050 A 
HETATM   11  C11 UNL     1      26.843   9.111 -12.246  1.00  0.00     0.008 A 
ENDROOT
BRANCH   1  12
HETATM   12  C2  UNL     1      27.121   6.789 -13.003  1.00  0.00     0.032 C 
HETATM   13  C1  UNL     1      26.535   5.421 -12.971  1.00  0.00     0.008 C 
ENDBRANCH   1  12
BRANCH   1  14
HETATM   14  C4  UNL     1      25.334   8.155 -13.970  1.00  0.00     0.032 C 
HETATM   15  C5  UNL     1      23.860   7.874 -13.808  1.00  0.00     0.008 C 
ENDBRANCH   1  14
BRANCH  10  16
HETATM   16  S2  UNL     1      28.668   9.742 -14.388  1.00  0.00    -0.126 SA
HETATM   17  C10 UNL     1      29.792  11.140 -14.615  1.00  0.00     0.096 C 
ENDBRANCH  10  16
BRANCH   5  18
HETATM   18  O1  UNL     1      24.888   9.443  -8.586  1.00  0.00    -0.288 OA
ATOM     19  H1  UNL     1      24.206  10.081  -8.412  1.00  0.00     0.244 HD
ENDBRANCH   5  18
TORSDOF 4
ENDMDL
MODEL 2
REMARK VINA RESULT: -4.680310854      4.082      5.521
REMARK  4 active torsions:
REMARK  status: ('A' for Active; 'I' for Inactive)
REMARK    1  A    between atoms: C2_2  and  C3_3 
REMARK    2  A    between atoms: C3_3  and  C4_4 
REMARK    3  A    between atoms: N2_9  and  O1_11 
REMARK    4  A    between atoms: C9_16  and  S2_17 
ROOT
HETATM    1  C3  UNL     1      28.066  12.854 -11.335  1.00  0.00     0.061 A 
HETATM    2  N1  UNL     1      26.778  13.095 -10.769  1.00  0.00    -0.361 N 
ATOM      3  H1  UNL     1      26.529  12.958  -9.790  1.00  0.00     0.162 HD
HETATM    4  C6  UNL     1      25.898  13.556 -11.785  1.00  0.00     0.133 A 
HETATM    5  N2  UNL     1      24.664  13.856 -11.579  1.00  0.00    -0.253 N 
ATOM      6  H2  UNL     1      24.258  13.772 -10.647  1.00  0.00     0.196 HD
HETATM    7  C7  UNL     1      26.679  13.606 -13.050  1.00  0.00     0.026 A 
HETATM    8  C8  UNL     1      26.371  13.967 -14.345  1.00  0.00     0.067 A 
HETATM    9  S1  UNL     1      27.848  13.728 -15.165  1.00  0.00    -0.093 SA
HETATM   10  C9  UNL     1      28.801  13.187 -13.870  1.00  0.00     0.050 A 
HETATM   11  C11 UNL     1      27.924  13.205 -12.801  1.00  0.00     0.008 A 
ENDROOT
BRANCH   1  12
HETATM   12  C2  UNL     1      29.164  13.705 -10.738  1.00  0.00     0.032 C 
HETATM   13  C1  UNL     1      29.188  13.668  -9.251  1.00  0.00     0.008 C 
ENDBRANCH   1  12
BRANCH   1  14
HETATM   14  C4  UNL     1      28.424  11.410 -11.162  1.00  0.00     0.032 C 
HETATM   15  C5  UNL     1      27.245  10.576 -10.726  1.00  0.00     0.008 C 
ENDBRANCH   1  14
BRANCH  10  16
HETATM   16  S2  UNL     1      30.532  12.716 -13.929  1.00  0.00    -0.126 SA
HETATM   17  C10 UNL     1      31.314  13.474 -15.374  1.00  0.00     0.096 C 
ENDBRANCH  10  16
BRANCH   5  18
HETATM   18  O1  UNL     1      23.908  14.291 -12.631  1.00  0.00    -0.288 OA
ATOM     19  H1  UNL     1      23.498  15.146 -12.576  1.00  0.00     0.244 HD
ENDBRANCH   5  18
TORSDOF 4
ENDMDL
MODEL 3
REMARK VINA RESULT: -4.615807750      2.226      3.808
REMARK  4 active torsions:
REMARK  status: ('A' for Active; 'I' for Inactive)
REMARK    1  A    between atoms: C2_2  and  C3_3 
REMARK    2  A    between atoms: C3_3  and  C4_4 
REMARK    3  A    between atoms: N2_9  and  O1_11 
REMARK    4  A    between atoms: C9_16  and  S2_17 
ROOT
HETATM    1  C3  UNL     1      27.446   9.380 -12.375  1.00  0.00     0.061 A 
HETATM    2  N1  UNL     1      27.245   9.967 -11.089  1.00  0.00    -0.361 N 
ATOM      3  H1  UNL     1      27.777  10.749 -10.708  1.00  0.00     0.162 HD
HETATM    4  C6  UNL     1      26.188   9.290 -10.424  1.00  0.00     0.133 A 
HETATM    5  N2  UNL     1      25.775   9.594  -9.245  1.00  0.00    -0.253 N 
ATOM      6  H2  UNL     1      26.207  10.358  -8.724  1.00  0.00     0.196 HD
HETATM    7  C7  UNL     1      25.703   8.226 -11.344  1.00  0.00     0.026 A 
HETATM    8  C8  UNL     1      24.716   7.267 -11.254  1.00  0.00     0.067 A 
HETATM    9  S1  UNL     1      24.833   6.463 -12.755  1.00  0.00    -0.093 SA
HETATM   10  C9  UNL     1      26.107   7.345 -13.444  1.00  0.00     0.050 A 
HETATM   11  C11 UNL     1      26.420   8.270 -12.466  1.00  0.00     0.008 A 
ENDROOT
BRANCH   1  12
HETATM   12  C2  UNL     1      27.226  10.337 -13.524  1.00  0.00     0.032 C 
HETATM   13  C1  UNL     1      27.007  11.741 -13.081  1.00  0.00     0.008 C 
ENDBRANCH   1  12
BRANCH   1  14
HETATM   14  C4  UNL     1      28.837   8.832 -12.459  1.00  0.00     0.032 C 
HETATM   15  C5  UNL     1      29.809   9.598 -11.596  1.00  0.00     0.008 C 
ENDBRANCH   1  14
BRANCH  10  16
HETATM   16  S2  UNL     1      26.837   7.096 -15.066  1.00  0.00    -0.126 SA
HETATM   17  C10 UNL     1      28.304   6.049 -14.912  1.00  0.00     0.096 C 
ENDBRANCH  10  16
BRANCH   5  18
HETATM   18  O1  UNL     1      24.749   8.875  -8.701  1.00  0.00    -0.288 OA
ATOM     19  H1  UNL     1      24.824   8.578  -7.802  1.00  0.00     0.244 HD
ENDBRANCH   5  18
TORSDOF 4
ENDMDL
MODEL 4
REMARK VINA RESULT: -4.375466904      2.593      4.843
REMARK  4 active torsions:
REMARK  status: ('A' for Active; 'I' for Inactive)
REMARK    1  A    between atoms: C2_2  and  C3_3 
REMARK    2  A    between atoms: C3_3  and  C4_4 
REMARK    3  A    between atoms: N2_9  and  O1_11 
REMARK    4  A    between atoms: C9_16  and  S2_17 
ROOT
HETATM    1  C3  UNL     1      28.147  12.390 -10.920  1.00  0.00     0.061 A 
HETATM    2  N1  UNL     1      27.209  11.711 -10.085  1.00  0.00    -0.361 N 
ATOM      3  H1  UNL     1      26.852  12.058  -9.195  1.00  0.00     0.162 HD
HETATM    4  C6  UNL     1      26.850  10.476 -10.690  1.00  0.00     0.133 A 
HETATM    5  N2  UNL     1      26.020   9.642 -10.172  1.00  0.00    -0.253 N 
ATOM      6  H2  UNL     1      25.573   9.842  -9.277  1.00  0.00     0.196 HD
HETATM    7  C7  UNL     1      27.603  10.381 -11.969  1.00  0.00     0.026 A 
HETATM    8  C8  UNL     1      27.666   9.432 -12.968  1.00  0.00     0.067 A 
HETATM    9  S1  UNL     1      28.776  10.116 -14.070  1.00  0.00    -0.093 SA
HETATM   10  C9  UNL     1      29.126  11.560 -13.251  1.00  0.00     0.050 A 
HETATM   11  C11 UNL     1      28.350  11.475 -12.110  1.00  0.00     0.008 A 
ENDROOT
BRANCH   1  12
HETATM   12  C2  UNL     1      27.661  13.731 -11.420  1.00  0.00     0.032 C 
HETATM   13  C1  UNL     1      26.192  13.771 -11.651  1.00  0.00     0.008 C 
ENDBRANCH   1  12
BRANCH   1  14
HETATM   14  C4  UNL     1      29.429  12.587 -10.170  1.00  0.00     0.032 C 
HETATM   15  C5  UNL     1      29.329  13.688  -9.143  1.00  0.00     0.008 C 
ENDBRANCH   1  14
BRANCH  10  16
HETATM   16  S2  UNL     1      30.245  12.858 -13.785  1.00  0.00    -0.126 SA
HETATM   17  C10 UNL     1      31.713  12.116 -14.537  1.00  0.00     0.096 C 
ENDBRANCH  10  16
BRANCH   5  18
HETATM   18  O1  UNL     1      25.747   8.483 -10.841  1.00  0.00    -0.288 OA
ATOM     19  H1  UNL     1      26.391   8.145 -11.452  1.00  0.00     0.244 HD
ENDBRANCH   5  18
TORSDOF 4
ENDMDL
MODEL 5
REMARK VINA RESULT: -4.255279193      1.818      3.832
REMARK  4 active torsions:
REMARK  status: ('A' for Active; 'I' for Inactive)
REMARK    1  A    between atoms: C2_2  and  C3_3 
REMARK    2  A    between atoms: C3_3  and  C4_4 
REMARK    3  A    between atoms: N2_9  and  O1_11 
REMARK    4  A    between atoms: C9_16  and  S2_17 
ROOT
HETATM    1  C3  UNL     1      27.604  10.334 -11.418  1.00  0.00     0.061 A 
HETATM    2  N1  UNL     1      26.788   9.985 -10.299  1.00  0.00    -0.361 N 
ATOM      3  H1  UNL     1      26.911  10.332  -9.348  1.00  0.00     0.162 HD
HETATM    4  C6  UNL     1      25.778   9.078 -10.719  1.00  0.00     0.133 A 
HETATM    5  N2  UNL     1      24.890   8.584  -9.932  1.00  0.00    -0.253 N 
ATOM      6  H2  UNL     1      24.877   8.833  -8.942  1.00  0.00     0.196 HD
HETATM    7  C7  UNL     1      25.973   8.851 -12.176  1.00  0.00     0.026 A 
HETATM    8  C8  UNL     1      25.316   8.086 -13.117  1.00  0.00     0.067 A 
HETATM    9  S1  UNL     1      26.194   8.405 -14.545  1.00  0.00    -0.093 SA
HETATM   10  C9  UNL     1      27.352   9.479 -13.924  1.00  0.00     0.050 A 
HETATM   11  C11 UNL     1      27.019   9.568 -12.586  1.00  0.00     0.008 A 
ENDROOT
BRANCH   1  12
HETATM   12  C2  UNL     1      27.586  11.809 -11.750  1.00  0.00     0.032 C 
HETATM   13  C1  UNL     1      27.041  12.648 -10.649  1.00  0.00     0.008 C 
ENDBRANCH   1  12
BRANCH   1  14
HETATM   14  C4  UNL     1      29.017   9.913 -11.154  1.00  0.00     0.032 C 
HETATM   15  C5  UNL     1      30.007  11.015 -11.443  1.00  0.00     0.008 C 
ENDBRANCH   1  14
BRANCH  10  16
HETATM   16  S2  UNL     1      28.674  10.283 -14.836  1.00  0.00    -0.126 SA
HETATM   17  C10 UNL     1      28.081  11.862 -15.490  1.00  0.00     0.096 C 
ENDBRANCH  10  16
BRANCH   5  18
HETATM   18  O1  UNL     1      23.964   7.720 -10.444  1.00  0.00    -0.288 OA
ATOM     19  H1  UNL     1      24.265   6.930 -10.877  1.00  0.00     0.244 HD
ENDBRANCH   5  18
TORSDOF 4
ENDMDL
