MODEL 1
REMARK VINA RESULT: -4.335212104      0.000      0.000
REMARK  2 active torsions:
REMARK  status: ('A' for Active; 'I' for Inactive)
REMARK    1  A    between atoms: C2_2  and  C3_3 
REMARK    2  A    between atoms: C3_3  and  C4_4 
ROOT
HETATM    1  C4  UNL     1      50.377  32.603   3.887  1.00  0.00     0.198 C 
HETATM    2  C5  UNL     1      49.419  33.454   4.700  1.00  0.00     0.107 C 
HETATM    3  S1  UNL     1      50.312  35.028   5.011  1.00  0.00    -0.165 SA
HETATM    4  C6  UNL     1      52.063  34.540   5.057  1.00  0.00     0.101 C 
HETATM    5  C7  UNL     1      52.381  33.930   3.716  1.00  0.00     0.243 C 
HETATM    6  N1  UNL     1      51.238  33.403   3.049  1.00  0.00    -0.069 N 
ATOM      7  H11 UNL     1      50.707  34.152   2.605  1.00  0.00     0.277 HD
ATOM      8  H12 UNL     1      51.519  32.877   2.222  1.00  0.00     0.277 HD
ENDROOT
BRANCH   1   9
HETATM    9  C3  UNL     1      49.545  31.711   3.007  1.00  0.00     0.060 C 
BRANCH   9  10
HETATM   10  C2  UNL     1      48.246  31.346   3.633  1.00  0.00    -0.035 C 
HETATM   11  C1  UNL     1      48.066  30.115   4.048  1.00  0.00     0.007 C 
ENDBRANCH   9  10
ENDBRANCH   1   9
TORSDOF 2
ENDMDL
MODEL 2
REMARK VINA RESULT: -4.303778459      2.005      2.553
REMARK  2 active torsions:
REMARK  status: ('A' for Active; 'I' for Inactive)
REMARK    1  A    between atoms: C2_2  and  C3_3 
REMARK    2  A    between atoms: C3_3  and  C4_4 
ROOT
HETATM    1  C4  UNL     1      51.278  33.999   4.582  1.00  0.00     0.198 C 
HETATM    2  C5  UNL     1      50.018  34.837   4.707  1.00  0.00     0.107 C 
HETATM    3  S1  UNL     1      50.293  35.912   6.170  1.00  0.00    -0.165 SA
HETATM    4  C6  UNL     1      51.375  34.924   7.247  1.00  0.00     0.101 C 
HETATM    5  C7  UNL     1      52.634  34.649   6.465  1.00  0.00     0.243 C 
HETATM    6  N1  UNL     1      52.448  34.702   5.054  1.00  0.00    -0.069 N 
ATOM      7  H11 UNL     1      52.435  35.670   4.733  1.00  0.00     0.277 HD
ATOM      8  H12 UNL     1      53.282  34.370   4.571  1.00  0.00     0.277 HD
ENDROOT
BRANCH   1   9
HETATM    9  C3  UNL     1      51.464  33.686   3.122  1.00  0.00     0.060 C 
BRANCH   9  10
HETATM   10  C2  UNL     1      51.325  32.234   2.830  1.00  0.00    -0.035 C 
HETATM   11  C1  UNL     1      50.315  31.828   2.100  1.00  0.00     0.007 C 
ENDBRANCH   9  10
ENDBRANCH   1   9
TORSDOF 2
ENDMDL
MODEL 3
REMARK VINA RESULT: -4.178139788      2.015      2.834
REMARK  2 active torsions:
REMARK  status: ('A' for Active; 'I' for Inactive)
REMARK    1  A    between atoms: C2_2  and  C3_3 
REMARK    2  A    between atoms: C3_3  and  C4_4 
ROOT
HETATM    1  C4  UNL     1      51.286  34.520   4.247  1.00  0.00     0.198 C 
HETATM    2  C5  UNL     1      52.242  34.405   5.420  1.00  0.00     0.107 C 
HETATM    3  S1  UNL     1      51.292  34.989   6.879  1.00  0.00    -0.165 SA
HETATM    4  C6  UNL     1      50.133  36.210   6.192  1.00  0.00     0.101 C 
HETATM    5  C7  UNL     1      49.283  35.483   5.181  1.00  0.00     0.243 C 
HETATM    6  N1  UNL     1      49.912  34.323   4.643  1.00  0.00    -0.069 N 
ATOM      7  H11 UNL     1      49.838  33.543   5.296  1.00  0.00     0.277 HD
ATOM      8  H12 UNL     1      49.367  33.950   3.866  1.00  0.00     0.277 HD
ENDROOT
BRANCH   1   9
HETATM    9  C3  UNL     1      51.659  33.449   3.260  1.00  0.00     0.060 C 
BRANCH   9  10
HETATM   10  C2  UNL     1      50.659  32.347   3.212  1.00  0.00    -0.035 C 
HETATM   11  C1  UNL     1      50.424  31.754   2.067  1.00  0.00     0.007 C 
ENDBRANCH   9  10
ENDBRANCH   1   9
TORSDOF 2
ENDMDL
MODEL 4
REMARK VINA RESULT: -4.173877446      2.148      3.118
REMARK  2 active torsions:
REMARK  status: ('A' for Active; 'I' for Inactive)
REMARK    1  A    between atoms: C2_2  and  C3_3 
REMARK    2  A    between atoms: C3_3  and  C4_4 
ROOT
HETATM    1  C4  UNL     1      48.519  30.563   4.588  1.00  0.00     0.198 C 
HETATM    2  C5  UNL     1      48.639  31.620   5.671  1.00  0.00     0.107 C 
HETATM    3  S1  UNL     1      49.425  33.065   4.853  1.00  0.00    -0.165 SA
HETATM    4  C6  UNL     1      50.467  32.327   3.559  1.00  0.00     0.101 C 
HETATM    5  C7  UNL     1      49.548  31.554   2.647  1.00  0.00     0.243 C 
HETATM    6  N1  UNL     1      48.339  31.144   3.278  1.00  0.00    -0.069 N 
ATOM      7  H11 UNL     1      47.678  31.920   3.320  1.00  0.00     0.277 HD
ATOM      8  H12 UNL     1      47.820  30.507   2.674  1.00  0.00     0.277 HD
ENDROOT
BRANCH   1   9
HETATM    9  C3  UNL     1      47.310  29.728   4.912  1.00  0.00     0.060 C 
BRANCH   9  10
HETATM   10  C2  UNL     1      46.268  30.496   5.645  1.00  0.00    -0.035 C 
HETATM   11  C1  UNL     1      45.052  30.540   5.157  1.00  0.00     0.007 C 
ENDBRANCH   9  10
ENDBRANCH   1   9
TORSDOF 2
ENDMDL
MODEL 5
REMARK VINA RESULT: -4.113718642      1.835      2.470
REMARK  2 active torsions:
REMARK  status: ('A' for Active; 'I' for Inactive)
REMARK    1  A    between atoms: C2_2  and  C3_3 
REMARK    2  A    between atoms: C3_3  and  C4_4 
ROOT
HETATM    1  C4  UNL     1      48.976  31.660   3.354  1.00  0.00     0.198 C 
HETATM    2  C5  UNL     1      49.984  31.628   2.219  1.00  0.00     0.107 C 
HETATM    3  S1  UNL     1      51.409  32.625   2.808  1.00  0.00    -0.165 SA
HETATM    4  C6  UNL     1      50.660  33.853   3.919  1.00  0.00     0.101 C 
HETATM    5  C7  UNL     1      49.976  33.085   5.021  1.00  0.00     0.243 C 
HETATM    6  N1  UNL     1      49.614  31.759   4.645  1.00  0.00    -0.069 N 
ATOM      7  H11 UNL     1      50.425  31.142   4.690  1.00  0.00     0.277 HD
ATOM      8  H12 UNL     1      49.031  31.332   5.364  1.00  0.00     0.277 HD
ENDROOT
BRANCH   1   9
HETATM    9  C3  UNL     1      48.201  30.372   3.300  1.00  0.00     0.060 C 
BRANCH   9  10
HETATM   10  C2  UNL     1      47.765  29.914   4.646  1.00  0.00    -0.035 C 
HETATM   11  C1  UNL     1      46.556  30.211   5.057  1.00  0.00     0.007 C 
ENDBRANCH   9  10
ENDBRANCH   1   9
TORSDOF 2
ENDMDL
