MODEL 1
REMARK VINA RESULT: -5.392158797      0.000      0.000
REMARK  3 active torsions:
REMARK  status: ('A' for Active; 'I' for Inactive)
REMARK    1  A    between atoms: C2_2  and  C3_3 
REMARK    2  A    between atoms: C9_9  and  C10_10 
REMARK    3  A    between atoms: C10_10  and  N1_11 
ROOT
HETATM    1  C3  UNL     1      50.260  32.723   4.341  1.00  0.00     0.014 C 
HETATM    2  C4  UNL     1      48.970  33.427   4.789  1.00  0.00     0.019 C 
HETATM    3  C5  UNL     1      49.827  34.587   5.165  1.00  0.00    -0.034 C 
HETATM    4  C6  UNL     1      49.254  35.949   5.056  1.00  0.00     0.010 C 
HETATM    5  C7  UNL     1      49.048  35.910   6.579  1.00  0.00     0.002 C 
HETATM    6  C8  UNL     1      50.137  34.823   6.585  1.00  0.00     0.010 C 
HETATM    7  C9  UNL     1      50.846  34.136   4.209  1.00  0.00     0.027 C 
ENDROOT
BRANCH   7   8
HETATM    8  C10 UNL     1      52.242  34.275   4.719  1.00  0.00     0.235 C 
BRANCH   8   9
HETATM    9  N1  UNL     1      53.222  34.413   3.663  1.00  0.00    -0.079 N 
ATOM     10  H13 UNL     1      52.846  34.087   2.773  1.00  0.00     0.274 HD
ATOM     11  H12 UNL     1      53.372  35.395   3.432  1.00  0.00     0.274 HD
ATOM     12  H11 UNL     1      54.107  33.951   3.875  1.00  0.00     0.274 HD
ENDBRANCH   8   9
ENDBRANCH   7   8
BRANCH   1  13
HETATM   13  C2  UNL     1      50.070  32.006   3.078  1.00  0.00    -0.032 C 
HETATM   14  C1  UNL     1      50.954  32.005   2.086  1.00  0.00     0.007 C 
ENDBRANCH   1  13
TORSDOF 3
ENDMDL
MODEL 2
REMARK VINA RESULT: -5.105221758      2.567      3.889
REMARK  3 active torsions:
REMARK  status: ('A' for Active; 'I' for Inactive)
REMARK    1  A    between atoms: C2_2  and  C3_3 
REMARK    2  A    between atoms: C9_9  and  C10_10 
REMARK    3  A    between atoms: C10_10  and  N1_11 
ROOT
HETATM    1  C3  UNL     1      49.624  31.317   3.381  1.00  0.00     0.014 C 
HETATM    2  C4  UNL     1      48.350  30.521   3.065  1.00  0.00     0.019 C 
HETATM    3  C5  UNL     1      47.699  31.275   4.173  1.00  0.00    -0.034 C 
HETATM    4  C6  UNL     1      46.249  31.567   4.070  1.00  0.00     0.010 C 
HETATM    5  C7  UNL     1      46.015  30.399   5.043  1.00  0.00     0.002 C 
HETATM    6  C8  UNL     1      47.479  30.608   5.467  1.00  0.00     0.010 C 
HETATM    7  C9  UNL     1      48.681  32.353   4.010  1.00  0.00     0.027 C 
ENDROOT
BRANCH   7   8
HETATM    8  C10 UNL     1      49.163  32.921   5.304  1.00  0.00     0.235 C 
BRANCH   8   9
HETATM    9  N1  UNL     1      49.473  34.332   5.225  1.00  0.00    -0.079 N 
ATOM     10  H13 UNL     1      49.610  34.621   4.257  1.00  0.00     0.274 HD
ATOM     11  H12 UNL     1      48.654  34.898   5.454  1.00  0.00     0.274 HD
ATOM     12  H11 UNL     1      50.271  34.601   5.801  1.00  0.00     0.274 HD
ENDBRANCH   8   9
ENDBRANCH   7   8
BRANCH   1  13
HETATM   13  C2  UNL     1      50.303  31.752   2.158  1.00  0.00    -0.032 C 
HETATM   14  C1  UNL     1      51.245  32.689   2.127  1.00  0.00     0.007 C 
ENDBRANCH   1  13
TORSDOF 3
ENDMDL
MODEL 3
REMARK VINA RESULT: -5.040547927      2.243      3.613
REMARK  3 active torsions:
REMARK  status: ('A' for Active; 'I' for Inactive)
REMARK    1  A    between atoms: C2_2  and  C3_3 
REMARK    2  A    between atoms: C9_9  and  C10_10 
REMARK    3  A    between atoms: C10_10  and  N1_11 
ROOT
HETATM    1  C3  UNL     1      50.734  32.396   3.578  1.00  0.00     0.014 C 
HETATM    2  C4  UNL     1      49.710  31.529   2.831  1.00  0.00     0.019 C 
HETATM    3  C5  UNL     1      48.775  31.800   3.959  1.00  0.00    -0.034 C 
HETATM    4  C6  UNL     1      47.323  31.862   3.670  1.00  0.00     0.010 C 
HETATM    5  C7  UNL     1      47.219  30.437   4.236  1.00  0.00     0.002 C 
HETATM    6  C8  UNL     1      48.536  30.752   4.965  1.00  0.00     0.010 C 
HETATM    7  C9  UNL     1      49.518  33.026   4.273  1.00  0.00     0.027 C 
ENDROOT
BRANCH   7   8
HETATM    8  C10 UNL     1      49.695  33.256   5.737  1.00  0.00     0.235 C 
BRANCH   8   9
HETATM    9  N1  UNL     1      49.650  34.656   6.103  1.00  0.00    -0.079 N 
ATOM     10  H13 UNL     1      50.580  34.999   6.342  1.00  0.00     0.274 HD
ATOM     11  H12 UNL     1      49.461  35.239   5.287  1.00  0.00     0.274 HD
ATOM     12  H11 UNL     1      48.986  34.854   6.851  1.00  0.00     0.274 HD
ENDBRANCH   8   9
ENDBRANCH   7   8
BRANCH   1  13
HETATM   13  C2  UNL     1      51.457  33.282   2.663  1.00  0.00    -0.032 C 
HETATM   14  C1  UNL     1      52.458  34.073   3.033  1.00  0.00     0.007 C 
ENDBRANCH   1  13
TORSDOF 3
ENDMDL
MODEL 4
REMARK VINA RESULT: -4.955918438      2.109      4.383
REMARK  3 active torsions:
REMARK  status: ('A' for Active; 'I' for Inactive)
REMARK    1  A    between atoms: C2_2  and  C3_3 
REMARK    2  A    between atoms: C9_9  and  C10_10 
REMARK    3  A    between atoms: C10_10  and  N1_11 
ROOT
HETATM    1  C3  UNL     1      49.312  36.245   6.414  1.00  0.00     0.014 C 
HETATM    2  C4  UNL     1      49.058  35.692   5.004  1.00  0.00     0.019 C 
HETATM    3  C5  UNL     1      49.848  34.498   5.416  1.00  0.00    -0.034 C 
HETATM    4  C6  UNL     1      49.499  33.185   4.825  1.00  0.00     0.010 C 
HETATM    5  C7  UNL     1      50.702  33.365   3.885  1.00  0.00     0.002 C 
HETATM    6  C8  UNL     1      51.234  34.352   4.938  1.00  0.00     0.010 C 
HETATM    7  C9  UNL     1      49.535  34.782   6.821  1.00  0.00     0.027 C 
ENDROOT
BRANCH   7   8
HETATM    8  C10 UNL     1      50.689  34.567   7.743  1.00  0.00     0.235 C 
BRANCH   8   9
HETATM    9  N1  UNL     1      50.324  33.875   8.961  1.00  0.00    -0.079 N 
ATOM     10  H13 UNL     1      50.849  34.238   9.756  1.00  0.00     0.274 HD
ATOM     11  H12 UNL     1      49.380  34.128   9.253  1.00  0.00     0.274 HD
ATOM     12  H11 UNL     1      50.423  32.862   8.892  1.00  0.00     0.274 HD
ENDBRANCH   8   9
ENDBRANCH   7   8
BRANCH   1  13
HETATM   13  C2  UNL     1      48.110  36.872   6.970  1.00  0.00    -0.032 C 
HETATM   14  C1  UNL     1      47.086  37.292   6.236  1.00  0.00     0.007 C 
ENDBRANCH   1  13
TORSDOF 3
ENDMDL
MODEL 5
REMARK VINA RESULT: -4.867808817      1.349      1.644
REMARK  3 active torsions:
REMARK  status: ('A' for Active; 'I' for Inactive)
REMARK    1  A    between atoms: C2_2  and  C3_3 
REMARK    2  A    between atoms: C9_9  and  C10_10 
REMARK    3  A    between atoms: C10_10  and  N1_11 
ROOT
HETATM    1  C3  UNL     1      50.692  33.826   4.909  1.00  0.00     0.014 C 
HETATM    2  C4  UNL     1      49.348  34.563   4.998  1.00  0.00     0.019 C 
HETATM    3  C5  UNL     1      49.906  35.275   6.182  1.00  0.00    -0.034 C 
HETATM    4  C6  UNL     1      49.459  36.663   6.445  1.00  0.00     0.010 C 
HETATM    5  C7  UNL     1      48.529  36.086   7.524  1.00  0.00     0.002 C 
HETATM    6  C8  UNL     1      49.475  34.874   7.532  1.00  0.00     0.010 C 
HETATM    7  C9  UNL     1      51.265  35.017   5.690  1.00  0.00     0.027 C 
ENDROOT
BRANCH   7   8
HETATM    8  C10 UNL     1      52.228  34.644   6.767  1.00  0.00     0.235 C 
BRANCH   8   9
HETATM    9  N1  UNL     1      53.606  34.644   6.324  1.00  0.00    -0.079 N 
ATOM     10  H13 UNL     1      53.804  33.822   5.754  1.00  0.00     0.274 HD
ATOM     11  H12 UNL     1      53.764  35.373   5.628  1.00  0.00     0.274 HD
ATOM     12  H11 UNL     1      54.274  34.725   7.091  1.00  0.00     0.274 HD
ENDBRANCH   8   9
ENDBRANCH   7   8
BRANCH   1  13
HETATM   13  C2  UNL     1      51.151  33.709   3.523  1.00  0.00    -0.032 C 
HETATM   14  C1  UNL     1      51.206  32.562   2.854  1.00  0.00     0.007 C 
ENDBRANCH   1  13
TORSDOF 3
ENDMDL
