MODEL 1
REMARK VINA RESULT: -6.993573723      0.000      0.000
REMARK  5 active torsions:
REMARK  status: ('A' for Active; 'I' for Inactive)
REMARK    1  A    between atoms: C2_4  and  N2_5 
REMARK    2  A    between atoms: C2_4  and  C3_10 
REMARK    3  A    between atoms: N2_5  and  N3_7 
REMARK    4  A    between atoms: N4_13  and  C6_14 
REMARK    5  A    between atoms: C6_14  and  C7_15 
ROOT
HETATM    1  C3  UNL     1      20.843  14.231  21.632  1.00  0.00     0.012 A 
HETATM    2  C4  UNL     1      20.188  13.971  22.819  1.00  0.00     0.032 A 
HETATM    3  C5  UNL     1      20.831  14.124  24.028  1.00  0.00     0.092 A 
HETATM    4  N4  UNL     1      22.109  14.526  24.138  1.00  0.00    -0.360 N 
HETATM    5  C8  UNL     1      22.770  14.785  22.996  1.00  0.00     0.092 A 
HETATM    6  C9  UNL     1      22.167  14.646  21.764  1.00  0.00     0.032 A 
ENDROOT
BRANCH   1   7
HETATM    7  C2  UNL     1      20.208  14.084  20.338  1.00  0.00     0.131 C 
HETATM    8  N1  UNL     1      20.395  14.931  19.404  1.00  0.00    -0.379 N 
HETATM    9  C1  UNL     1      19.821  14.881  18.098  1.00  0.00     0.147 C 
ATOM     10  H1  UNL     1      21.011  15.717  19.609  1.00  0.00     0.160 HD
BRANCH   7  11
HETATM   11  N2  UNL     1      19.364  12.979  20.104  1.00  0.00    -0.225 N 
ATOM     12  H2  UNL     1      18.457  13.120  19.658  1.00  0.00     0.195 HD
BRANCH  11  13
HETATM   13  N3  UNL     1      19.760  11.687  20.480  1.00  0.00    -0.037 N 
HETATM   14  O1  UNL     1      20.633  11.045  19.866  1.00  0.00    -0.516 OA
HETATM   15  O2  UNL     1      19.180  11.078  21.567  1.00  0.00    -0.516 OA
ENDBRANCH  11  13
ENDBRANCH   7  11
ENDBRANCH   1   7
BRANCH   4  16
HETATM   16  C6  UNL     1      22.733  14.668  25.445  1.00  0.00     0.200 C 
BRANCH  16  17
HETATM   17  C7  UNL     1      23.008  13.374  26.080  1.00  0.00     0.105 C 
HETATM   18  N5  UNL     1      22.948  12.282  25.389  1.00  0.00    -0.390 N 
ATOM     19  H52 UNL     1      22.706  12.357  24.401  1.00  0.00     0.157 HD
ATOM     20  H51 UNL     1      23.140  11.383  25.831  1.00  0.00     0.157 HD
HETATM   21  N6  UNL     1      23.346  13.272  27.456  1.00  0.00    -0.086 NA
ENDBRANCH  16  17
ENDBRANCH   4  16
TORSDOF 5
ENDMDL
MODEL 2
REMARK VINA RESULT: -5.545768418      1.795      2.340
REMARK  5 active torsions:
REMARK  status: ('A' for Active; 'I' for Inactive)
REMARK    1  A    between atoms: C2_4  and  N2_5 
REMARK    2  A    between atoms: C2_4  and  C3_10 
REMARK    3  A    between atoms: N2_5  and  N3_7 
REMARK    4  A    between atoms: N4_13  and  C6_14 
REMARK    5  A    between atoms: C6_14  and  C7_15 
ROOT
HETATM    1  C3  UNL     1      20.555  13.233  22.003  1.00  0.00     0.012 A 
HETATM    2  C4  UNL     1      20.285  12.952  23.326  1.00  0.00     0.032 A 
HETATM    3  C5  UNL     1      20.913  13.645  24.339  1.00  0.00     0.092 A 
HETATM    4  N4  UNL     1      21.812  14.620  24.117  1.00  0.00    -0.360 N 
HETATM    5  C8  UNL     1      22.093  14.913  22.836  1.00  0.00     0.092 A 
HETATM    6  C9  UNL     1      21.489  14.246  21.791  1.00  0.00     0.032 A 
ENDROOT
BRANCH   1   7
HETATM    7  C2  UNL     1      19.921  12.532  20.906  1.00  0.00     0.131 C 
HETATM    8  N1  UNL     1      19.879  11.258  20.864  1.00  0.00    -0.379 N 
HETATM    9  C1  UNL     1      19.282  10.471  19.835  1.00  0.00     0.147 C 
ATOM     10  H1  UNL     1      20.312  10.756  21.638  1.00  0.00     0.160 HD
BRANCH   7  11
HETATM   11  N2  UNL     1      19.335  13.273  19.858  1.00  0.00    -0.225 N 
ATOM     12  H2  UNL     1      18.322  13.387  19.823  1.00  0.00     0.195 HD
BRANCH  11  13
HETATM   13  N3  UNL     1      20.136  13.854  18.863  1.00  0.00    -0.037 N 
HETATM   14  O1  UNL     1      21.195  13.336  18.464  1.00  0.00    -0.516 OA
HETATM   15  O2  UNL     1      19.761  15.044  18.288  1.00  0.00    -0.516 OA
ENDBRANCH  11  13
ENDBRANCH   7  11
ENDBRANCH   1   7
BRANCH   4  16
HETATM   16  C6  UNL     1      22.441  15.316  25.230  1.00  0.00     0.200 C 
BRANCH  16  17
HETATM   17  C7  UNL     1      23.253  14.422  26.064  1.00  0.00     0.105 C 
HETATM   18  N5  UNL     1      23.655  13.283  25.601  1.00  0.00    -0.390 N 
ATOM     19  H52 UNL     1      23.389  13.036  24.648  1.00  0.00     0.157 HD
ATOM     20  H51 UNL     1      24.219  12.662  26.181  1.00  0.00     0.157 HD
HETATM   21  N6  UNL     1      23.622  14.767  27.391  1.00  0.00    -0.086 NA
ENDBRANCH  16  17
ENDBRANCH   4  16
TORSDOF 5
ENDMDL
MODEL 3
REMARK VINA RESULT: -5.345434930      2.788      3.406
REMARK  5 active torsions:
REMARK  status: ('A' for Active; 'I' for Inactive)
REMARK    1  A    between atoms: C2_4  and  N2_5 
REMARK    2  A    between atoms: C2_4  and  C3_10 
REMARK    3  A    between atoms: N2_5  and  N3_7 
REMARK    4  A    between atoms: N4_13  and  C6_14 
REMARK    5  A    between atoms: C6_14  and  C7_15 
ROOT
HETATM    1  C3  UNL     1      22.010  14.813  21.710  1.00  0.00     0.012 A 
HETATM    2  C4  UNL     1      23.196  15.167  22.321  1.00  0.00     0.032 A 
HETATM    3  C5  UNL     1      23.352  15.045  23.685  1.00  0.00     0.092 A 
HETATM    4  N4  UNL     1      22.386  14.585  24.499  1.00  0.00    -0.360 N 
HETATM    5  C8  UNL     1      21.221  14.234  23.929  1.00  0.00     0.092 A 
HETATM    6  C9  UNL     1      21.020  14.339  22.569  1.00  0.00     0.032 A 
ENDROOT
BRANCH   1   7
HETATM    7  C2  UNL     1      21.800  14.924  20.281  1.00  0.00     0.131 C 
HETATM    8  N1  UNL     1      20.691  14.598  19.743  1.00  0.00    -0.379 N 
HETATM    9  C1  UNL     1      20.381  14.668  18.352  1.00  0.00     0.147 C 
ATOM     10  H1  UNL     1      19.959  14.255  20.364  1.00  0.00     0.160 HD
BRANCH   7  11
HETATM   11  N2  UNL     1      22.845  15.404  19.464  1.00  0.00    -0.225 N 
ATOM     12  H2  UNL     1      23.458  14.743  18.987  1.00  0.00     0.195 HD
BRANCH  11  13
HETATM   13  N3  UNL     1      23.048  16.782  19.304  1.00  0.00    -0.037 N 
HETATM   14  O1  UNL     1      22.665  17.406  18.297  1.00  0.00    -0.516 OA
HETATM   15  O2  UNL     1      23.695  17.500  20.281  1.00  0.00    -0.516 OA
ENDBRANCH  11  13
ENDBRANCH   7  11
ENDBRANCH   1   7
BRANCH   4  16
HETATM   16  C6  UNL     1      22.612  14.480  25.933  1.00  0.00     0.200 C 
BRANCH  16  17
HETATM   17  C7  UNL     1      22.915  13.107  26.355  1.00  0.00     0.105 C 
HETATM   18  N5  UNL     1      22.849  12.134  25.506  1.00  0.00    -0.390 N 
ATOM     19  H52 UNL     1      22.582  12.356  24.547  1.00  0.00     0.157 HD
ATOM     20  H51 UNL     1      23.059  11.180  25.799  1.00  0.00     0.157 HD
HETATM   21  N6  UNL     1      23.286  12.799  27.691  1.00  0.00    -0.086 NA
ENDBRANCH  16  17
ENDBRANCH   4  16
TORSDOF 5
ENDMDL
MODEL 4
REMARK VINA RESULT: -5.208849416      4.451      5.157
REMARK  5 active torsions:
REMARK  status: ('A' for Active; 'I' for Inactive)
REMARK    1  A    between atoms: C2_4  and  N2_5 
REMARK    2  A    between atoms: C2_4  and  C3_10 
REMARK    3  A    between atoms: N2_5  and  N3_7 
REMARK    4  A    between atoms: N4_13  and  C6_14 
REMARK    5  A    between atoms: C6_14  and  C7_15 
ROOT
HETATM    1  C3  UNL     1      19.523  16.551  23.613  1.00  0.00     0.012 A 
HETATM    2  C4  UNL     1      20.587  17.069  24.323  1.00  0.00     0.032 A 
HETATM    3  C5  UNL     1      21.720  16.316  24.547  1.00  0.00     0.092 A 
HETATM    4  N4  UNL     1      21.867  15.055  24.104  1.00  0.00    -0.360 N 
HETATM    5  C8  UNL     1      20.844  14.527  23.410  1.00  0.00     0.092 A 
HETATM    6  C9  UNL     1      19.692  15.243  23.161  1.00  0.00     0.032 A 
ENDROOT
BRANCH   1   7
HETATM    7  C2  UNL     1      18.313  17.303  23.352  1.00  0.00     0.131 C 
HETATM    8  N1  UNL     1      17.337  16.795  22.710  1.00  0.00    -0.379 N 
HETATM    9  C1  UNL     1      16.105  17.446  22.400  1.00  0.00     0.147 C 
ATOM     10  H1  UNL     1      17.446  15.834  22.387  1.00  0.00     0.160 HD
BRANCH   7  11
HETATM   11  N2  UNL     1      18.211  18.631  23.820  1.00  0.00    -0.225 N 
ATOM     12  H2  UNL     1      18.490  19.403  23.214  1.00  0.00     0.195 HD
BRANCH  11  13
HETATM   13  N3  UNL     1      17.729  18.897  25.109  1.00  0.00    -0.037 N 
HETATM   14  O1  UNL     1      16.766  18.284  25.608  1.00  0.00    -0.516 OA
HETATM   15  O2  UNL     1      18.322  19.869  25.878  1.00  0.00    -0.516 OA
ENDBRANCH  11  13
ENDBRANCH   7  11
ENDBRANCH   1   7
BRANCH   4  16
HETATM   16  C6  UNL     1      23.089  14.312  24.374  1.00  0.00     0.200 C 
BRANCH  16  17
HETATM   17  C7  UNL     1      23.057  13.634  25.675  1.00  0.00     0.105 C 
HETATM   18  N5  UNL     1      22.627  12.418  25.768  1.00  0.00    -0.390 N 
ATOM     19  H52 UNL     1      22.316  11.956  24.913  1.00  0.00     0.157 HD
ATOM     20  H51 UNL     1      22.606  11.946  26.672  1.00  0.00     0.157 HD
HETATM   21  N6  UNL     1      23.491  14.277  26.865  1.00  0.00    -0.086 NA
ENDBRANCH  16  17
ENDBRANCH   4  16
TORSDOF 5
ENDMDL
MODEL 5
REMARK VINA RESULT: -4.963826312      2.736      6.306
REMARK  5 active torsions:
REMARK  status: ('A' for Active; 'I' for Inactive)
REMARK    1  A    between atoms: C2_4  and  N2_5 
REMARK    2  A    between atoms: C2_4  and  C3_10 
REMARK    3  A    between atoms: N2_5  and  N3_7 
REMARK    4  A    between atoms: N4_13  and  C6_14 
REMARK    5  A    between atoms: C6_14  and  C7_15 
ROOT
HETATM    1  C3  UNL     1      21.363  13.782  23.715  1.00  0.00     0.012 A 
HETATM    2  C4  UNL     1      21.797  14.407  22.563  1.00  0.00     0.032 A 
HETATM    3  C5  UNL     1      21.106  14.264  21.379  1.00  0.00     0.092 A 
HETATM    4  N4  UNL     1      19.989  13.525  21.262  1.00  0.00    -0.360 N 
HETATM    5  C8  UNL     1      19.546  12.905  22.369  1.00  0.00     0.092 A 
HETATM    6  C9  UNL     1      20.205  13.020  23.575  1.00  0.00     0.032 A 
ENDROOT
BRANCH   1   7
HETATM    7  C2  UNL     1      22.056  13.903  24.981  1.00  0.00     0.131 C 
HETATM    8  N1  UNL     1      22.373  12.877  25.669  1.00  0.00    -0.379 N 
HETATM    9  C1  UNL     1      23.053  12.884  26.923  1.00  0.00     0.147 C 
ATOM     10  H1  UNL     1      22.116  11.967  25.287  1.00  0.00     0.160 HD
BRANCH   7  11
HETATM   11  N2  UNL     1      22.389  15.185  25.467  1.00  0.00    -0.225 N 
ATOM     12  H2  UNL     1      22.763  15.287  26.411  1.00  0.00     0.195 HD
BRANCH  11  13
HETATM   13  N3  UNL     1      22.211  16.320  24.663  1.00  0.00    -0.037 N 
HETATM   14  O1  UNL     1      21.198  17.040  24.730  1.00  0.00    -0.516 OA
HETATM   15  O2  UNL     1      23.178  16.676  23.753  1.00  0.00    -0.516 OA
ENDBRANCH  11  13
ENDBRANCH   7  11
ENDBRANCH   1   7
BRANCH   4  16
HETATM   16  C6  UNL     1      19.305  13.413  19.982  1.00  0.00     0.200 C 
BRANCH  16  17
HETATM   17  C7  UNL     1      20.107  13.932  18.868  1.00  0.00     0.105 C 
HETATM   18  N5  UNL     1      19.815  15.070  18.329  1.00  0.00    -0.390 N 
ATOM     19  H52 UNL     1      19.018  15.584  18.703  1.00  0.00     0.157 HD
ATOM     20  H51 UNL     1      20.373  15.431  17.555  1.00  0.00     0.157 HD
HETATM   21  N6  UNL     1      21.217  13.215  18.348  1.00  0.00    -0.086 NA
ENDBRANCH  16  17
ENDBRANCH   4  16
TORSDOF 5
ENDMDL
