MODEL 1
REMARK VINA RESULT: -7.616033149      0.000      0.000
REMARK  6 active torsions:
REMARK  status: ('A' for Active; 'I' for Inactive)
REMARK    1  A    between atoms: O1_2  and  C2_3 
REMARK    2  A    between atoms: C6_7  and  C7_8 
REMARK    3  A    between atoms: C7_8  and  O2_10 
REMARK    4  A    between atoms: C9_12  and  C10_13 
REMARK    5  A    between atoms: C10_13  and  N1_14 
REMARK    6  A    between atoms: N1_14  and  N2_16 
ROOT
HETATM    1  C2  UNL     1      21.245  10.472  57.159  1.00  0.00     0.080 A 
HETATM    2  C3  UNL     1      20.767   9.188  57.227  1.00  0.00     0.038 A 
HETATM    3  C4  UNL     1      19.460   9.015  57.588  1.00  0.00     0.004 A 
HETATM    4  C5  UNL     1      18.619  10.055  57.882  1.00  0.00     0.015 A 
HETATM    5  C6  UNL     1      19.103  11.378  57.816  1.00  0.00     0.007 A 
HETATM    6  C9  UNL     1      20.417  11.574  57.452  1.00  0.00     0.027 A 
ENDROOT
BRANCH   6   7
HETATM    7  C10 UNL     1      20.971  12.763  57.359  1.00  0.00     0.122 C 
BRANCH   7   8
HETATM    8  N1  UNL     1      21.817  13.318  58.392  1.00  0.00    -0.309 N 
ATOM      9  H1  UNL     1      22.746  12.947  58.589  1.00  0.00     0.186 HD
BRANCH   8  10
HETATM   10  N2  UNL     1      21.277  14.398  59.104  1.00  0.00    -0.276 N 
HETATM   11  C11 UNL     1      21.417  15.617  58.740  1.00  0.00     0.215 C 
HETATM   12  N3  UNL     1      20.841  16.643  59.516  1.00  0.00    -0.065 NA
HETATM   13  N4  UNL     1      22.143  15.918  57.571  1.00  0.00    -0.065 NA
ATOM     14  H2  UNL     1      20.748  14.204  59.954  1.00  0.00     0.189 HD
ENDBRANCH   8  10
ENDBRANCH   7   8
ENDBRANCH   6   7
BRANCH   1  15
HETATM   15  O1  UNL     1      22.564  10.674  56.795  1.00  0.00    -0.355 OA
HETATM   16  C1  UNL     1      23.374   9.748  56.156  1.00  0.00     0.210 C 
ENDBRANCH   1  15
BRANCH   5  17
HETATM   17  C7  UNL     1      18.273  12.357  58.104  1.00  0.00     0.050 C 
HETATM   18  C8  UNL     1      16.798  12.089  57.900  1.00  0.00     0.077 C 
BRANCH  17  19
HETATM   19  O2  UNL     1      18.582  13.606  58.573  1.00  0.00    -0.364 OA
ATOM     20  H2  UNL     1      18.122  14.420  58.404  1.00  0.00     0.217 HD
ENDBRANCH  17  19
ENDBRANCH   5  17
TORSDOF 6
ENDMDL
MODEL 2
REMARK VINA RESULT: -7.574516458      1.477      3.434
REMARK  6 active torsions:
REMARK  status: ('A' for Active; 'I' for Inactive)
REMARK    1  A    between atoms: O1_2  and  C2_3 
REMARK    2  A    between atoms: C6_7  and  C7_8 
REMARK    3  A    between atoms: C7_8  and  O2_10 
REMARK    4  A    between atoms: C9_12  and  C10_13 
REMARK    5  A    between atoms: C10_13  and  N1_14 
REMARK    6  A    between atoms: N1_14  and  N2_16 
ROOT
HETATM    1  C2  UNL     1      19.158  11.441  57.350  1.00  0.00     0.080 A 
HETATM    2  C3  UNL     1      19.321  10.085  57.229  1.00  0.00     0.038 A 
HETATM    3  C4  UNL     1      20.599   9.600  57.192  1.00  0.00     0.004 A 
HETATM    4  C5  UNL     1      21.708  10.401  57.269  1.00  0.00     0.015 A 
HETATM    5  C6  UNL     1      21.548  11.796  57.392  1.00  0.00     0.007 A 
HETATM    6  C9  UNL     1      20.269  12.305  57.432  1.00  0.00     0.027 A 
ENDROOT
BRANCH   6   7
HETATM    7  C10 UNL     1      20.005  13.589  57.545  1.00  0.00     0.122 C 
BRANCH   7   8
HETATM    8  N1  UNL     1      19.416  14.167  58.732  1.00  0.00    -0.309 N 
ATOM      9  H1  UNL     1      18.480  13.915  59.051  1.00  0.00     0.186 HD
BRANCH   8  10
HETATM   10  N2  UNL     1      20.212  15.097  59.415  1.00  0.00    -0.276 N 
HETATM   11  C11 UNL     1      21.137  15.777  58.848  1.00  0.00     0.215 C 
HETATM   12  N3  UNL     1      21.891  16.691  59.610  1.00  0.00    -0.065 NA
HETATM   13  N4  UNL     1      21.389  15.603  57.474  1.00  0.00    -0.065 NA
ATOM     14  H2  UNL     1      20.047  15.239  60.411  1.00  0.00     0.189 HD
ENDBRANCH   8  10
ENDBRANCH   7   8
ENDBRANCH   6   7
BRANCH   1  15
HETATM   15  O1  UNL     1      17.875  11.957  57.390  1.00  0.00    -0.355 OA
HETATM   16  C1  UNL     1      16.897  11.614  58.311  1.00  0.00     0.210 C 
ENDBRANCH   1  15
BRANCH   5  17
HETATM   17  C7  UNL     1      22.631  12.541  57.464  1.00  0.00     0.050 C 
HETATM   18  C8  UNL     1      23.396  12.765  56.177  1.00  0.00     0.077 C 
BRANCH  17  19
HETATM   19  O2  UNL     1      23.157  13.146  58.573  1.00  0.00    -0.364 OA
ATOM     20  H2  UNL     1      23.565  12.730  59.323  1.00  0.00     0.217 HD
ENDBRANCH  17  19
ENDBRANCH   5  17
TORSDOF 6
ENDMDL
MODEL 3
REMARK VINA RESULT: -7.364475070      1.312      1.644
REMARK  6 active torsions:
REMARK  status: ('A' for Active; 'I' for Inactive)
REMARK    1  A    between atoms: O1_2  and  C2_3 
REMARK    2  A    between atoms: C6_7  and  C7_8 
REMARK    3  A    between atoms: C7_8  and  O2_10 
REMARK    4  A    between atoms: C9_12  and  C10_13 
REMARK    5  A    between atoms: C10_13  and  N1_14 
REMARK    6  A    between atoms: N1_14  and  N2_16 
ROOT
HETATM    1  C2  UNL     1      21.540  11.503  57.342  1.00  0.00     0.080 A 
HETATM    2  C3  UNL     1      21.835  10.173  57.193  1.00  0.00     0.038 A 
HETATM    3  C4  UNL     1      20.793   9.286  57.205  1.00  0.00     0.004 A 
HETATM    4  C5  UNL     1      19.487   9.666  57.357  1.00  0.00     0.015 A 
HETATM    5  C6  UNL     1      19.175  11.033  57.512  1.00  0.00     0.007 A 
HETATM    6  C9  UNL     1      20.210  11.942  57.501  1.00  0.00     0.027 A 
ENDROOT
BRANCH   6   7
HETATM    7  C10 UNL     1      20.033  13.239  57.637  1.00  0.00     0.122 C 
BRANCH   7   8
HETATM    8  N1  UNL     1      20.670  14.012  58.679  1.00  0.00    -0.309 N 
ATOM      9  H1  UNL     1      20.449  13.879  59.666  1.00  0.00     0.186 HD
BRANCH   8  10
HETATM   10  N2  UNL     1      21.612  14.957  58.246  1.00  0.00    -0.276 N 
HETATM   11  C11 UNL     1      21.613  16.175  58.638  1.00  0.00     0.215 C 
HETATM   12  N3  UNL     1      22.597  17.059  58.152  1.00  0.00    -0.065 NA
HETATM   13  N4  UNL     1      20.633  16.616  59.548  1.00  0.00    -0.065 NA
ATOM     14  H2  UNL     1      22.330  14.659  57.587  1.00  0.00     0.189 HD
ENDBRANCH   8  10
ENDBRANCH   7   8
ENDBRANCH   6   7
BRANCH   1  15
HETATM   15  O1  UNL     1      22.575  12.421  57.333  1.00  0.00    -0.355 OA
HETATM   16  C1  UNL     1      23.427  12.664  56.267  1.00  0.00     0.210 C 
ENDBRANCH   1  15
BRANCH   5  17
HETATM   17  C7  UNL     1      17.911  11.369  57.656  1.00  0.00     0.050 C 
HETATM   18  C8  UNL     1      17.166  10.752  58.820  1.00  0.00     0.077 C 
BRANCH  17  19
HETATM   19  O2  UNL     1      17.177  12.219  56.874  1.00  0.00    -0.364 OA
ATOM     20  H2  UNL     1      17.295  13.156  56.766  1.00  0.00     0.217 HD
ENDBRANCH  17  19
ENDBRANCH   5  17
TORSDOF 6
ENDMDL
MODEL 4
REMARK VINA RESULT: -6.405037034      1.097      1.116
REMARK  6 active torsions:
REMARK  status: ('A' for Active; 'I' for Inactive)
REMARK    1  A    between atoms: O1_2  and  C2_3 
REMARK    2  A    between atoms: C6_7  and  C7_8 
REMARK    3  A    between atoms: C7_8  and  O2_10 
REMARK    4  A    between atoms: C9_12  and  C10_13 
REMARK    5  A    between atoms: C10_13  and  N1_14 
REMARK    6  A    between atoms: N1_14  and  N2_16 
ROOT
HETATM    1  C2  UNL     1      21.193   9.893  56.769  1.00  0.00     0.080 A 
HETATM    2  C3  UNL     1      20.746   8.706  56.247  1.00  0.00     0.038 A 
HETATM    3  C4  UNL     1      19.400   8.468  56.273  1.00  0.00     0.004 A 
HETATM    4  C5  UNL     1      18.491   9.352  56.790  1.00  0.00     0.015 A 
HETATM    5  C6  UNL     1      18.943  10.574  57.330  1.00  0.00     0.007 A 
HETATM    6  C9  UNL     1      20.295  10.834  57.312  1.00  0.00     0.027 A 
ENDROOT
BRANCH   6   7
HETATM    7  C10 UNL     1      20.824  11.941  57.788  1.00  0.00     0.122 C 
BRANCH   7   8
HETATM    8  N1  UNL     1      20.510  13.250  57.262  1.00  0.00    -0.309 N 
ATOM      9  H1  UNL     1      20.503  13.445  56.261  1.00  0.00     0.186 HD
BRANCH   8  10
HETATM   10  N2  UNL     1      20.215  14.234  58.216  1.00  0.00    -0.276 N 
HETATM   11  C11 UNL     1      21.041  15.151  58.554  1.00  0.00     0.215 C 
HETATM   12  N3  UNL     1      20.662  16.102  59.523  1.00  0.00    -0.065 NA
HETATM   13  N4  UNL     1      22.315  15.199  57.956  1.00  0.00    -0.065 NA
ATOM     14  H2  UNL     1      19.299  14.218  58.663  1.00  0.00     0.189 HD
ENDBRANCH   8  10
ENDBRANCH   7   8
ENDBRANCH   6   7
BRANCH   1  15
HETATM   15  O1  UNL     1      22.550  10.159  56.755  1.00  0.00    -0.355 OA
HETATM   16  C1  UNL     1      23.501   9.458  56.029  1.00  0.00     0.210 C 
ENDBRANCH   1  15
BRANCH   5  17
HETATM   17  C7  UNL     1      18.047  11.404  57.820  1.00  0.00     0.050 C 
HETATM   18  C8  UNL     1      17.215  10.907  58.982  1.00  0.00     0.077 C 
BRANCH  17  19
HETATM   19  O2  UNL     1      17.772  12.679  57.405  1.00  0.00    -0.364 OA
ATOM     20  H2  UNL     1      18.297  13.460  57.541  1.00  0.00     0.217 HD
ENDBRANCH  17  19
ENDBRANCH   5  17
TORSDOF 6
ENDMDL
MODEL 5
REMARK VINA RESULT: -6.212350490      0.636      3.450
REMARK  6 active torsions:
REMARK  status: ('A' for Active; 'I' for Inactive)
REMARK    1  A    between atoms: O1_2  and  C2_3 
REMARK    2  A    between atoms: C6_7  and  C7_8 
REMARK    3  A    between atoms: C7_8  and  O2_10 
REMARK    4  A    between atoms: C9_12  and  C10_13 
REMARK    5  A    between atoms: C10_13  and  N1_14 
REMARK    6  A    between atoms: N1_14  and  N2_16 
ROOT
HETATM    1  C2  UNL     1      19.036  11.255  57.668  1.00  0.00     0.080 A 
HETATM    2  C3  UNL     1      18.555   9.971  57.663  1.00  0.00     0.038 A 
HETATM    3  C4  UNL     1      19.417   8.970  57.311  1.00  0.00     0.004 A 
HETATM    4  C5  UNL     1      20.724   9.193  56.967  1.00  0.00     0.015 A 
HETATM    5  C6  UNL     1      21.227  10.511  56.969  1.00  0.00     0.007 A 
HETATM    6  C9  UNL     1      20.374  11.533  57.322  1.00  0.00     0.027 A 
ENDROOT
BRANCH   6   7
HETATM    7  C10 UNL     1      20.737  12.797  57.358  1.00  0.00     0.122 C 
BRANCH   7   8
HETATM    8  N1  UNL     1      21.577  13.343  58.399  1.00  0.00    -0.309 N 
ATOM      9  H1  UNL     1      22.491  12.949  58.622  1.00  0.00     0.186 HD
BRANCH   8  10
HETATM   10  N2  UNL     1      21.055  14.450  59.084  1.00  0.00    -0.276 N 
HETATM   11  C11 UNL     1      21.316  15.660  58.761  1.00  0.00     0.215 C 
HETATM   12  N3  UNL     1      20.747  16.714  59.505  1.00  0.00    -0.065 NA
HETATM   13  N4  UNL     1      22.167  15.924  57.670  1.00  0.00    -0.065 NA
ATOM     14  H2  UNL     1      20.436  14.282  59.878  1.00  0.00     0.189 HD
ENDBRANCH   8  10
ENDBRANCH   7   8
ENDBRANCH   6   7
BRANCH   1  15
HETATM   15  O1  UNL     1      18.184  12.285  58.022  1.00  0.00    -0.355 OA
HETATM   16  C1  UNL     1      16.853  12.142  58.384  1.00  0.00     0.210 C 
ENDBRANCH   1  15
BRANCH   5  17
HETATM   17  C7  UNL     1      22.486  10.695  56.634  1.00  0.00     0.050 C 
HETATM   18  C8  UNL     1      23.252   9.482  56.153  1.00  0.00     0.077 C 
BRANCH  17  19
HETATM   19  O2  UNL     1      23.198  11.864  56.667  1.00  0.00    -0.364 OA
ATOM     20  H2  UNL     1      24.111  11.981  56.903  1.00  0.00     0.217 HD
ENDBRANCH  17  19
ENDBRANCH   5  17
TORSDOF 6
ENDMDL
