MODEL 1
REMARK VINA RESULT: -9.487021618      0.000      0.000
REMARK  13 active torsions:
REMARK  status: ('A' for Active; 'I' for Inactive)
REMARK    1  A    between atoms: C2_2  and  C3_3 
REMARK    2  A    between atoms: C3_3  and  O1_4 
REMARK    3  A    between atoms: C9_11  and  C10_12 
REMARK    4  A    between atoms: C10_12  and  C11_13 
REMARK    5  A    between atoms: C11_13  and  C12_14 
REMARK    6  A    between atoms: C14_16  and  O2_17 
REMARK    7  A    between atoms: C15_19  and  C16_20 
REMARK    8  A    between atoms: C16_20  and  C17_21 
REMARK    9  A    between atoms: C16_20  and  N1_26 
REMARK   10  A    between atoms: C18_22  and  C19_23 
REMARK   11  A    between atoms: C19_23  and  O3_24 
REMARK   12  A    between atoms: C26_34  and  C27_35 
REMARK   13  A    between atoms: C27_35  and  O5_36 
ROOT
HETATM    1  C12 UNL     1      19.431  16.900  31.122  1.00  0.00     0.124 C 
HETATM    2  C13 UNL     1      20.231  15.894  30.371  1.00  0.00     0.066 C 
HETATM    3  C14 UNL     1      20.083  14.630  31.206  1.00  0.00     0.152 C 
HETATM    4  C15 UNL     1      18.929  14.946  32.070  1.00  0.00     0.185 C 
HETATM    5  O4  UNL     1      18.355  16.126  31.576  1.00  0.00    -0.375 OA
ENDROOT
BRANCH   1   6
HETATM    6  C11 UNL     1      18.900  18.035  30.247  1.00  0.00     0.033 C 
BRANCH   6   7
HETATM    7  C10 UNL     1      17.428  18.019  30.136  1.00  0.00     0.012 C 
BRANCH   7   8
HETATM    8  C9  UNL     1      16.641  19.198  30.522  1.00  0.00     0.025 C 
HETATM    9  C7  UNL     1      15.187  18.775  30.848  1.00  0.00    -0.032 C 
HETATM   10  C6  UNL     1      14.732  18.027  29.623  1.00  0.00     0.010 C 
HETATM   11  C8  UNL     1      15.287  17.816  32.006  1.00  0.00     0.016 C 
HETATM   12  C30 UNL     1      14.376  19.956  31.195  1.00  0.00     0.008 C 
HETATM   13  C5  UNL     1      13.238  18.016  29.417  1.00  0.00     0.002 C 
HETATM   14  C4  UNL     1      12.651  19.404  29.436  1.00  0.00     0.012 C 
HETATM   15  C2  UNL     1      12.955  19.985  30.781  1.00  0.00    -0.018 C 
HETATM   16  C1  UNL     1      12.469  21.444  30.729  1.00  0.00     0.018 C 
HETATM   17  C29 UNL     1      15.089  21.239  30.775  1.00  0.00     0.033 C 
HETATM   18  C28 UNL     1      16.336  21.276  31.580  1.00  0.00    -0.021 C 
HETATM   19  C26 UNL     1      17.158  20.191  31.444  1.00  0.00    -0.056 C 
BRANCH  15  20
HETATM   20  C3  UNL     1      12.024  19.328  31.803  1.00  0.00     0.173 C 
BRANCH  20  21
HETATM   21  O1  UNL     1      11.271  20.260  32.489  1.00  0.00    -0.400 OA
ATOM     22  H1  UNL     1      11.569  21.147  32.325  1.00  0.00     0.209 HD
ENDBRANCH  20  21
ENDBRANCH  15  20
BRANCH  19  23
HETATM   23  C27 UNL     1      18.382  20.232  32.240  1.00  0.00     0.198 C 
BRANCH  23  24
HETATM   24  O5  UNL     1      18.613  21.401  32.954  1.00  0.00    -0.397 OA
ATOM     25  H5  UNL     1      18.139  22.171  32.664  1.00  0.00     0.209 HD
ENDBRANCH  23  24
ENDBRANCH  19  23
ENDBRANCH   7   8
ENDBRANCH   6   7
ENDBRANCH   1   6
BRANCH   3  26
HETATM   26  O2  UNL     1      21.223  14.545  32.014  1.00  0.00    -0.393 OA
ATOM     27  H2  UNL     1      21.885  14.092  31.506  1.00  0.00     0.210 HD
ENDBRANCH   3  26
BRANCH   4  28
HETATM   28  C16 UNL     1      17.851  13.948  32.220  1.00  0.00     0.191 C 
BRANCH  28  29
HETATM   29  C17 UNL     1      16.868  14.213  31.135  1.00  0.00    -0.076 C 
HETATM   30  C18 UNL     1      16.076  14.411  30.246  1.00  0.00    -0.079 C 
BRANCH  30  31
HETATM   31  C19 UNL     1      15.124  14.622  29.173  1.00  0.00     0.257 C 
BRANCH  31  32
HETATM   32  O3  UNL     1      13.806  14.489  29.570  1.00  0.00    -0.389 OA
ATOM     33  H3  UNL     1      13.488  15.222  30.085  1.00  0.00     0.210 HD
ENDBRANCH  31  32
ENDBRANCH  30  31
ENDBRANCH  28  29
BRANCH  28  34
HETATM   34  N1  UNL     1      17.132  13.868  33.427  1.00  0.00    -0.396 N 
HETATM   35  C20 UNL     1      17.433  12.828  34.341  1.00  0.00     0.118 C 
HETATM   36  C21 UNL     1      16.190  12.597  35.221  1.00  0.00     0.019 C 
HETATM   37  C22 UNL     1      16.162  13.627  36.293  1.00  0.00     0.002 C 
HETATM   38  C23 UNL     1      15.297  14.819  35.943  1.00  0.00     0.002 C 
HETATM   39  C24 UNL     1      15.460  15.202  34.484  1.00  0.00     0.019 C 
HETATM   40  C25 UNL     1      16.915  15.152  34.067  1.00  0.00     0.118 C 
ENDBRANCH  28  34
ENDBRANCH   4  28
TORSDOF 13
ENDMDL
MODEL 2
REMARK VINA RESULT: -9.465096801      1.844      2.955
REMARK  13 active torsions:
REMARK  status: ('A' for Active; 'I' for Inactive)
REMARK    1  A    between atoms: C2_2  and  C3_3 
REMARK    2  A    between atoms: C3_3  and  O1_4 
REMARK    3  A    between atoms: C9_11  and  C10_12 
REMARK    4  A    between atoms: C10_12  and  C11_13 
REMARK    5  A    between atoms: C11_13  and  C12_14 
REMARK    6  A    between atoms: C14_16  and  O2_17 
REMARK    7  A    between atoms: C15_19  and  C16_20 
REMARK    8  A    between atoms: C16_20  and  C17_21 
REMARK    9  A    between atoms: C16_20  and  N1_26 
REMARK   10  A    between atoms: C18_22  and  C19_23 
REMARK   11  A    between atoms: C19_23  and  O3_24 
REMARK   12  A    between atoms: C26_34  and  C27_35 
REMARK   13  A    between atoms: C27_35  and  O5_36 
ROOT
HETATM    1  C12 UNL     1      18.460  15.791  31.387  1.00  0.00     0.124 C 
HETATM    2  C13 UNL     1      17.221  15.030  31.071  1.00  0.00     0.066 C 
HETATM    3  C14 UNL     1      17.321  13.804  31.968  1.00  0.00     0.152 C 
HETATM    4  C15 UNL     1      18.353  14.203  32.946  1.00  0.00     0.185 C 
HETATM    5  O4  UNL     1      18.585  15.574  32.765  1.00  0.00    -0.375 OA
ENDROOT
BRANCH   1   6
HETATM    6  C11 UNL     1      18.337  17.293  31.126  1.00  0.00     0.033 C 
BRANCH   6   7
HETATM    7  C10 UNL     1      17.007  17.821  31.486  1.00  0.00     0.012 C 
BRANCH   7   8
HETATM    8  C9  UNL     1      16.678  19.232  31.246  1.00  0.00     0.025 C 
HETATM    9  C7  UNL     1      15.174  19.369  30.900  1.00  0.00    -0.032 C 
HETATM   10  C6  UNL     1      14.968  18.419  29.750  1.00  0.00     0.010 C 
HETATM   11  C8  UNL     1      14.426  18.858  32.104  1.00  0.00     0.016 C 
HETATM   12  C30 UNL     1      14.840  20.776  30.615  1.00  0.00     0.008 C 
HETATM   13  C5  UNL     1      13.801  18.763  28.858  1.00  0.00     0.002 C 
HETATM   14  C4  UNL     1      13.864  20.185  28.363  1.00  0.00     0.012 C 
HETATM   15  C2  UNL     1      13.830  21.067  29.572  1.00  0.00    -0.018 C 
HETATM   16  C1  UNL     1      14.032  22.500  29.052  1.00  0.00     0.018 C 
HETATM   17  C29 UNL     1      16.109  21.592  30.382  1.00  0.00     0.033 C 
HETATM   18  C28 UNL     1      16.850  21.539  31.668  1.00  0.00    -0.021 C 
HETATM   19  C26 UNL     1      17.150  20.286  32.125  1.00  0.00    -0.056 C 
BRANCH  15  20
HETATM   20  C3  UNL     1      12.400  21.074  30.115  1.00  0.00     0.173 C 
BRANCH  20  21
HETATM   21  O1  UNL     1      11.463  21.137  29.102  1.00  0.00    -0.400 OA
ATOM     22  H1  UNL     1      10.953  20.338  29.041  1.00  0.00     0.209 HD
ENDBRANCH  20  21
ENDBRANCH  15  20
BRANCH  19  23
HETATM   23  C27 UNL     1      17.877  20.240  33.391  1.00  0.00     0.198 C 
BRANCH  23  24
HETATM   24  O5  UNL     1      18.953  21.109  33.514  1.00  0.00    -0.397 OA
ATOM     25  H5  UNL     1      18.997  21.612  34.318  1.00  0.00     0.209 HD
ENDBRANCH  23  24
ENDBRANCH  19  23
ENDBRANCH   7   8
ENDBRANCH   6   7
ENDBRANCH   1   6
BRANCH   3  26
HETATM   26  O2  UNL     1      17.842  12.770  31.180  1.00  0.00    -0.393 OA
ATOM     27  H2  UNL     1      18.568  13.139  30.691  1.00  0.00     0.210 HD
ENDBRANCH   3  26
BRANCH   4  28
HETATM   28  C16 UNL     1      18.105  13.972  34.383  1.00  0.00     0.191 C 
BRANCH  28  29
HETATM   29  C17 UNL     1      18.541  12.580  34.676  1.00  0.00    -0.076 C 
HETATM   30  C18 UNL     1      18.882  11.450  34.928  1.00  0.00    -0.079 C 
BRANCH  30  31
HETATM   31  C19 UNL     1      19.268  10.089  35.242  1.00  0.00     0.257 C 
BRANCH  31  32
HETATM   32  O3  UNL     1      18.942   9.180  34.252  1.00  0.00    -0.389 OA
ATOM     33  H3  UNL     1      18.327   8.514  34.535  1.00  0.00     0.210 HD
ENDBRANCH  31  32
ENDBRANCH  30  31
ENDBRANCH  28  29
BRANCH  28  34
HETATM   34  N1  UNL     1      16.806  14.123  34.904  1.00  0.00    -0.396 N 
HETATM   35  C20 UNL     1      16.364  13.242  35.921  1.00  0.00     0.118 C 
HETATM   36  C21 UNL     1      14.824  13.209  35.883  1.00  0.00     0.019 C 
HETATM   37  C22 UNL     1      14.300  14.406  36.594  1.00  0.00     0.002 C 
HETATM   38  C23 UNL     1      13.980  15.553  35.659  1.00  0.00     0.002 C 
HETATM   39  C24 UNL     1      15.027  15.679  34.569  1.00  0.00     0.019 C 
HETATM   40  C25 UNL     1      16.422  15.504  35.131  1.00  0.00     0.118 C 
ENDBRANCH  28  34
ENDBRANCH   4  28
TORSDOF 13
ENDMDL
MODEL 3
REMARK VINA RESULT: -9.338974688      1.640      3.431
REMARK  13 active torsions:
REMARK  status: ('A' for Active; 'I' for Inactive)
REMARK    1  A    between atoms: C2_2  and  C3_3 
REMARK    2  A    between atoms: C3_3  and  O1_4 
REMARK    3  A    between atoms: C9_11  and  C10_12 
REMARK    4  A    between atoms: C10_12  and  C11_13 
REMARK    5  A    between atoms: C11_13  and  C12_14 
REMARK    6  A    between atoms: C14_16  and  O2_17 
REMARK    7  A    between atoms: C15_19  and  C16_20 
REMARK    8  A    between atoms: C16_20  and  C17_21 
REMARK    9  A    between atoms: C16_20  and  N1_26 
REMARK   10  A    between atoms: C18_22  and  C19_23 
REMARK   11  A    between atoms: C19_23  and  O3_24 
REMARK   12  A    between atoms: C26_34  and  C27_35 
REMARK   13  A    between atoms: C27_35  and  O5_36 
ROOT
HETATM    1  C12 UNL     1      18.982  17.267  32.239  1.00  0.00     0.124 C 
HETATM    2  C13 UNL     1      19.364  16.330  31.149  1.00  0.00     0.066 C 
HETATM    3  C14 UNL     1      19.183  14.958  31.782  1.00  0.00     0.152 C 
HETATM    4  C15 UNL     1      18.358  15.256  32.969  1.00  0.00     0.185 C 
HETATM    5  O4  UNL     1      17.920  16.582  32.844  1.00  0.00    -0.375 OA
ENDROOT
BRANCH   1   6
HETATM    6  C11 UNL     1      18.482  18.621  31.734  1.00  0.00     0.033 C 
BRANCH   6   7
HETATM    7  C10 UNL     1      17.545  18.489  30.601  1.00  0.00     0.012 C 
BRANCH   7   8
HETATM    8  C9  UNL     1      16.098  18.404  30.839  1.00  0.00     0.025 C 
HETATM    9  C7  UNL     1      15.398  19.660  30.265  1.00  0.00    -0.032 C 
HETATM   10  C6  UNL     1      16.123  20.816  30.901  1.00  0.00     0.010 C 
HETATM   11  C8  UNL     1      15.682  19.651  28.785  1.00  0.00     0.016 C 
HETATM   12  C30 UNL     1      13.950  19.607  30.536  1.00  0.00     0.008 C 
HETATM   13  C5  UNL     1      15.315  22.087  30.992  1.00  0.00     0.002 C 
HETATM   14  C4  UNL     1      13.983  21.866  31.662  1.00  0.00     0.012 C 
HETATM   15  C2  UNL     1      13.237  20.872  30.829  1.00  0.00    -0.018 C 
HETATM   16  C1  UNL     1      11.944  20.561  31.602  1.00  0.00     0.018 C 
HETATM   17  C29 UNL     1      13.640  18.553  31.595  1.00  0.00     0.033 C 
HETATM   18  C28 UNL     1      14.050  17.259  30.993  1.00  0.00    -0.021 C 
HETATM   19  C26 UNL     1      15.355  17.183  30.592  1.00  0.00    -0.056 C 
BRANCH  15  20
HETATM   20  C3  UNL     1      12.745  21.583  29.567  1.00  0.00     0.173 C 
BRANCH  20  21
HETATM   21  O1  UNL     1      11.851  20.809  28.854  1.00  0.00    -0.400 OA
ATOM     22  H1  UNL     1      11.166  20.456  29.409  1.00  0.00     0.209 HD
ENDBRANCH  20  21
ENDBRANCH  15  20
BRANCH  19  23
HETATM   23  C27 UNL     1      15.752  15.909  29.998  1.00  0.00     0.198 C 
BRANCH  23  24
HETATM   24  O5  UNL     1      15.167  15.589  28.780  1.00  0.00    -0.397 OA
ATOM     25  H5  UNL     1      15.335  16.188  28.062  1.00  0.00     0.209 HD
ENDBRANCH  23  24
ENDBRANCH  19  23
ENDBRANCH   7   8
ENDBRANCH   6   7
ENDBRANCH   1   6
BRANCH   3  26
HETATM   26  O2  UNL     1      20.447  14.547  32.221  1.00  0.00    -0.393 OA
ATOM     27  H2  UNL     1      20.568  13.657  31.912  1.00  0.00     0.210 HD
ENDBRANCH   3  26
BRANCH   4  28
HETATM   28  C16 UNL     1      17.177  14.415  33.251  1.00  0.00     0.191 C 
BRANCH  28  29
HETATM   29  C17 UNL     1      16.124  15.321  33.786  1.00  0.00    -0.076 C 
HETATM   30  C18 UNL     1      15.257  16.040  34.220  1.00  0.00    -0.079 C 
BRANCH  30  31
HETATM   31  C19 UNL     1      14.203  16.882  34.750  1.00  0.00     0.257 C 
BRANCH  31  32
HETATM   32  O3  UNL     1      14.486  18.234  34.675  1.00  0.00    -0.389 OA
ATOM     33  H3  UNL     1      14.673  18.535  33.794  1.00  0.00     0.210 HD
ENDBRANCH  31  32
ENDBRANCH  30  31
ENDBRANCH  28  29
BRANCH  28  34
HETATM   34  N1  UNL     1      17.285  13.327  34.136  1.00  0.00    -0.396 N 
HETATM   35  C20 UNL     1      16.130  12.876  34.820  1.00  0.00     0.118 C 
HETATM   36  C21 UNL     1      16.589  12.147  36.097  1.00  0.00     0.019 C 
HETATM   37  C22 UNL     1      17.002  10.764  35.737  1.00  0.00     0.002 C 
HETATM   38  C23 UNL     1      18.493  10.635  35.512  1.00  0.00     0.002 C 
HETATM   39  C24 UNL     1      19.040  11.840  34.770  1.00  0.00     0.019 C 
HETATM   40  C25 UNL     1      18.119  12.248  33.640  1.00  0.00     0.118 C 
ENDBRANCH  28  34
ENDBRANCH   4  28
TORSDOF 13
ENDMDL
MODEL 4
REMARK VINA RESULT: -9.077819184      2.599      8.069
REMARK  13 active torsions:
REMARK  status: ('A' for Active; 'I' for Inactive)
REMARK    1  A    between atoms: C2_2  and  C3_3 
REMARK    2  A    between atoms: C3_3  and  O1_4 
REMARK    3  A    between atoms: C9_11  and  C10_12 
REMARK    4  A    between atoms: C10_12  and  C11_13 
REMARK    5  A    between atoms: C11_13  and  C12_14 
REMARK    6  A    between atoms: C14_16  and  O2_17 
REMARK    7  A    between atoms: C15_19  and  C16_20 
REMARK    8  A    between atoms: C16_20  and  C17_21 
REMARK    9  A    between atoms: C16_20  and  N1_26 
REMARK   10  A    between atoms: C18_22  and  C19_23 
REMARK   11  A    between atoms: C19_23  and  O3_24 
REMARK   12  A    between atoms: C26_34  and  C27_35 
REMARK   13  A    between atoms: C27_35  and  O5_36 
ROOT
HETATM    1  C12 UNL     1      13.507  17.490  33.697  1.00  0.00     0.124 C 
HETATM    2  C13 UNL     1      13.217  17.171  32.273  1.00  0.00     0.066 C 
HETATM    3  C14 UNL     1      13.751  18.383  31.523  1.00  0.00     0.152 C 
HETATM    4  C15 UNL     1      14.617  19.030  32.529  1.00  0.00     0.185 C 
HETATM    5  O4  UNL     1      14.749  18.132  33.599  1.00  0.00    -0.375 OA
ENDROOT
BRANCH   1   6
HETATM    6  C11 UNL     1      13.652  16.253  34.584  1.00  0.00     0.033 C 
BRANCH   6   7
HETATM    7  C10 UNL     1      15.052  15.800  34.695  1.00  0.00     0.012 C 
BRANCH   7   8
HETATM    8  C9  UNL     1      15.359  14.441  35.161  1.00  0.00     0.025 C 
HETATM    9  C7  UNL     1      16.846  14.113  34.878  1.00  0.00    -0.032 C 
HETATM   10  C6  UNL     1      17.013  14.379  33.405  1.00  0.00     0.010 C 
HETATM   11  C8  UNL     1      17.647  15.122  35.658  1.00  0.00     0.016 C 
HETATM   12  C30 UNL     1      17.155  12.735  35.301  1.00  0.00     0.008 C 
HETATM   13  C5  UNL     1      18.139  13.614  32.756  1.00  0.00     0.002 C 
HETATM   14  C4  UNL     1      18.044  12.132  33.017  1.00  0.00     0.012 C 
HETATM   15  C2  UNL     1      18.119  11.947  34.499  1.00  0.00    -0.018 C 
HETATM   16  C1  UNL     1      17.883  10.448  34.748  1.00  0.00     0.018 C 
HETATM   17  C29 UNL     1      15.871  11.944  35.535  1.00  0.00     0.033 C 
HETATM   18  C28 UNL     1      15.184  12.634  36.655  1.00  0.00    -0.021 C 
HETATM   19  C26 UNL     1      14.914  13.959  36.455  1.00  0.00    -0.056 C 
BRANCH  15  20
HETATM   20  C3  UNL     1      19.570  12.164  34.933  1.00  0.00     0.173 C 
BRANCH  20  21
HETATM   21  O1  UNL     1      20.139  11.009  35.432  1.00  0.00    -0.400 OA
ATOM     22  H1  UNL     1      20.976  10.821  35.025  1.00  0.00     0.209 HD
ENDBRANCH  20  21
ENDBRANCH  15  20
BRANCH  19  23
HETATM   23  C27 UNL     1      14.239  14.634  37.562  1.00  0.00     0.198 C 
BRANCH  23  24
HETATM   24  O5  UNL     1      13.502  13.825  38.417  1.00  0.00    -0.397 OA
ATOM     25  H5  UNL     1      12.856  14.264  38.957  1.00  0.00     0.209 HD
ENDBRANCH  23  24
ENDBRANCH  19  23
ENDBRANCH   7   8
ENDBRANCH   6   7
ENDBRANCH   1   6
BRANCH   3  26
HETATM   26  O2  UNL     1      12.658  19.223  31.284  1.00  0.00    -0.393 OA
ATOM     27  H2  UNL     1      11.902  18.809  31.684  1.00  0.00     0.210 HD
ENDBRANCH   3  26
BRANCH   4  28
HETATM   28  C16 UNL     1      15.973  19.464  32.135  1.00  0.00     0.191 C 
BRANCH  28  29
HETATM   29  C17 UNL     1      15.802  20.633  31.231  1.00  0.00    -0.076 C 
HETATM   30  C18 UNL     1      15.653  21.591  30.511  1.00  0.00    -0.079 C 
BRANCH  30  31
HETATM   31  C19 UNL     1      15.473  22.756  29.669  1.00  0.00     0.257 C 
BRANCH  31  32
HETATM   32  O3  UNL     1      14.777  23.780  30.285  1.00  0.00    -0.389 OA
ATOM     33  H3  UNL     1      13.892  23.889  29.957  1.00  0.00     0.210 HD
ENDBRANCH  31  32
ENDBRANCH  30  31
ENDBRANCH  28  29
BRANCH  28  34
HETATM   34  N1  UNL     1      16.841  18.560  31.495  1.00  0.00    -0.396 N 
HETATM   35  C20 UNL     1      16.630  18.251  30.130  1.00  0.00     0.118 C 
HETATM   36  C21 UNL     1      17.268  16.877  29.851  1.00  0.00     0.019 C 
HETATM   37  C22 UNL     1      18.732  17.058  29.656  1.00  0.00     0.002 C 
HETATM   38  C23 UNL     1      19.528  16.814  30.920  1.00  0.00     0.002 C 
HETATM   39  C24 UNL     1      18.817  17.385  32.133  1.00  0.00     0.019 C 
HETATM   40  C25 UNL     1      18.239  18.751  31.833  1.00  0.00     0.118 C 
ENDBRANCH  28  34
ENDBRANCH   4  28
TORSDOF 13
ENDMDL
MODEL 5
REMARK VINA RESULT: -9.050090391      1.749      2.594
REMARK  13 active torsions:
REMARK  status: ('A' for Active; 'I' for Inactive)
REMARK    1  A    between atoms: C2_2  and  C3_3 
REMARK    2  A    between atoms: C3_3  and  O1_4 
REMARK    3  A    between atoms: C9_11  and  C10_12 
REMARK    4  A    between atoms: C10_12  and  C11_13 
REMARK    5  A    between atoms: C11_13  and  C12_14 
REMARK    6  A    between atoms: C14_16  and  O2_17 
REMARK    7  A    between atoms: C15_19  and  C16_20 
REMARK    8  A    between atoms: C16_20  and  C17_21 
REMARK    9  A    between atoms: C16_20  and  N1_26 
REMARK   10  A    between atoms: C18_22  and  C19_23 
REMARK   11  A    between atoms: C19_23  and  O3_24 
REMARK   12  A    between atoms: C26_34  and  C27_35 
REMARK   13  A    between atoms: C27_35  and  O5_36 
ROOT
HETATM    1  C12 UNL     1      19.251  17.146  32.187  1.00  0.00     0.124 C 
HETATM    2  C13 UNL     1      19.743  16.103  31.246  1.00  0.00     0.066 C 
HETATM    3  C14 UNL     1      19.469  14.801  31.985  1.00  0.00     0.152 C 
HETATM    4  C15 UNL     1      18.515  15.219  33.032  1.00  0.00     0.185 C 
HETATM    5  O4  UNL     1      18.115  16.528  32.727  1.00  0.00    -0.375 OA
ENDROOT
BRANCH   1   6
HETATM    6  C11 UNL     1      18.834  18.444  31.496  1.00  0.00     0.033 C 
BRANCH   6   7
HETATM    7  C10 UNL     1      17.489  18.894  31.906  1.00  0.00     0.012 C 
BRANCH   7   8
HETATM    8  C9  UNL     1      16.621  19.600  30.955  1.00  0.00     0.025 C 
HETATM    9  C7  UNL     1      15.222  18.934  30.928  1.00  0.00    -0.032 C 
HETATM   10  C6  UNL     1      15.505  17.484  30.640  1.00  0.00     0.010 C 
HETATM   11  C8  UNL     1      14.676  19.065  32.326  1.00  0.00     0.016 C 
HETATM   12  C30 UNL     1      14.354  19.607  29.945  1.00  0.00     0.008 C 
HETATM   13  C5  UNL     1      14.362  16.741  29.994  1.00  0.00     0.002 C 
HETATM   14  C4  UNL     1      13.861  17.437  28.754  1.00  0.00     0.012 C 
HETATM   15  C2  UNL     1      13.385  18.790  29.179  1.00  0.00    -0.018 C 
HETATM   16  C1  UNL     1      13.007  19.529  27.884  1.00  0.00     0.018 C 
HETATM   17  C29 UNL     1      15.181  20.485  29.009  1.00  0.00     0.033 C 
HETATM   18  C28 UNL     1      15.791  21.521  29.881  1.00  0.00    -0.021 C 
HETATM   19  C26 UNL     1      16.554  21.049  30.913  1.00  0.00    -0.056 C 
BRANCH  15  20
HETATM   20  C3  UNL     1      12.048  18.618  29.904  1.00  0.00     0.173 C 
BRANCH  20  21
HETATM   21  O1  UNL     1      11.806  19.649  30.791  1.00  0.00    -0.400 OA
ATOM     22  H1  UNL     1      10.895  19.678  31.060  1.00  0.00     0.209 HD
ENDBRANCH  20  21
ENDBRANCH  15  20
BRANCH  19  23
HETATM   23  C27 UNL     1      17.149  22.073  31.768  1.00  0.00     0.198 C 
BRANCH  23  24
HETATM   24  O5  UNL     1      16.553  23.326  31.733  1.00  0.00    -0.397 OA
ATOM     25  H5  UNL     1      17.096  24.058  32.002  1.00  0.00     0.209 HD
ENDBRANCH  23  24
ENDBRANCH  19  23
ENDBRANCH   7   8
ENDBRANCH   6   7
ENDBRANCH   1   6
BRANCH   3  26
HETATM   26  O2  UNL     1      20.667  14.431  32.608  1.00  0.00    -0.393 OA
ATOM     27  H2  UNL     1      20.625  13.492  32.744  1.00  0.00     0.210 HD
ENDBRANCH   3  26
BRANCH   4  28
HETATM   28  C16 UNL     1      17.297  14.415  33.254  1.00  0.00     0.191 C 
BRANCH  28  29
HETATM   29  C17 UNL     1      16.252  15.349  33.755  1.00  0.00    -0.076 C 
HETATM   30  C18 UNL     1      15.394  16.090  34.167  1.00  0.00    -0.079 C 
BRANCH  30  31
HETATM   31  C19 UNL     1      14.356  16.962  34.679  1.00  0.00     0.257 C 
BRANCH  31  32
HETATM   32  O3  UNL     1      13.083  16.604  34.272  1.00  0.00    -0.389 OA
ATOM     33  H3  UNL     1      12.400  17.163  34.624  1.00  0.00     0.210 HD
ENDBRANCH  31  32
ENDBRANCH  30  31
ENDBRANCH  28  29
BRANCH  28  34
HETATM   34  N1  UNL     1      17.332  13.315  34.131  1.00  0.00    -0.396 N 
HETATM   35  C20 UNL     1      16.149  12.935  34.810  1.00  0.00     0.118 C 
HETATM   36  C21 UNL     1      16.557  12.167  36.081  1.00  0.00     0.019 C 
HETATM   37  C22 UNL     1      16.879  10.763  35.711  1.00  0.00     0.002 C 
HETATM   38  C23 UNL     1      18.359  10.538  35.486  1.00  0.00     0.002 C 
HETATM   39  C24 UNL     1      18.985  11.710  34.754  1.00  0.00     0.019 C 
HETATM   40  C25 UNL     1      18.094  12.187  33.627  1.00  0.00     0.118 C 
ENDBRANCH  28  34
ENDBRANCH   4  28
TORSDOF 13
ENDMDL
