MODEL 1
REMARK VINA RESULT: -9.576986877      0.000      0.000
REMARK  18 active torsions:
REMARK  status: ('A' for Active; 'I' for Inactive)
REMARK    1  A    between atoms: C2_2  and  C3_3 
REMARK    2  A    between atoms: C2_2  and  N1_6 
REMARK    3  A    between atoms: C3_3  and  O1_4 
REMARK    4  A    between atoms: C4_7  and  O2_8 
REMARK    5  A    between atoms: C6_13  and  N3_14 
REMARK    6  A    between atoms: N3_14  and  C7_15 
REMARK    7  A    between atoms: C7_15  and  O3_16 
REMARK    8  A    between atoms: C7_15  and  C8_18 
REMARK    9  A    between atoms: C9_21  and  N5_22 
REMARK   10  A    between atoms: N5_22  and  C10_24 
REMARK   11  A    between atoms: C10_24  and  C11_25 
REMARK   12  A    between atoms: C11_25  and  O4_26 
REMARK   13  A    between atoms: O4_26  and  C12_27 
REMARK   14  A    between atoms: C12_27  and  C13_29 
REMARK   15  A    between atoms: N8_34  and  C14_35 
REMARK   16  A    between atoms: C14_35  and  C15_36 
REMARK   17  A    between atoms: N12_46  and  N13_47 
REMARK   18  A    between atoms: C19_51  and  O8_52 
ROOT
HETATM    1  C8  UNL     1      -8.229  33.286 -43.125  1.00  0.00     0.184 A 
HETATM    2  N4  UNL     1      -8.661  32.987 -41.951  1.00  0.00    -0.172 N 
ATOM      3  H4  UNL     1      -8.214  33.426 -41.146  1.00  0.00     0.186 HD
HETATM    4  C9  UNL     1      -9.736  32.072 -41.714  1.00  0.00     0.676 A 
HETATM    5  N10 UNL     1     -10.301  31.531 -42.711  1.00  0.00    -0.210 N 
ATOM      6  H10 UNL     1     -11.061  30.880 -42.517  1.00  0.00     0.179 HD
HETATM    7  C17 UNL     1      -9.966  31.754 -44.086  1.00  0.00     0.263 A 
HETATM    8  N11 UNL     1      -8.838  32.647 -44.205  1.00  0.00    -0.355 N 
ATOM      9  H11 UNL     1      -8.463  32.821 -45.137  1.00  0.00     0.163 HD
ENDROOT
BRANCH   1  10
HETATM   10  C7  UNL     1      -7.096  34.250 -43.242  1.00  0.00     0.263 C 
BRANCH  10  11
HETATM   11  N3  UNL     1      -6.736  34.982 -44.261  1.00  0.00    -0.340 NA
BRANCH  11  12
HETATM   12  C6  UNL     1      -6.397  35.653 -45.175  1.00  0.00     0.284 A 
HETATM   13  N2  UNL     1      -5.578  36.752 -44.975  1.00  0.00    -0.309 N 
HETATM   14  C5  UNL     1      -5.355  37.387 -46.105  1.00  0.00     0.121 A 
ATOM     15  H2  UNL     1      -5.197  37.032 -44.071  1.00  0.00     0.170 HD
HETATM   16  C4  UNL     1      -4.720  38.463 -46.716  1.00  0.00     0.174 A 
HETATM   17  C18 UNL     1      -6.042  36.696 -47.067  1.00  0.00     0.142 A 
HETATM   18  N1  UNL     1      -4.987  38.467 -48.019  1.00  0.00    -0.298 N 
HETATM   19  C19 UNL     1      -5.799  37.383 -48.239  1.00  0.00     0.176 A 
HETATM   20  N12 UNL     1      -6.676  35.641 -46.517  1.00  0.00    -0.213 N 
BRANCH  16  21
HETATM   21  O2  UNL     1      -3.935  39.365 -46.004  1.00  0.00    -0.344 OA
ATOM     22  H2  UNL     1      -4.004  40.312 -45.991  1.00  0.00     0.219 HD
ENDBRANCH  16  21
BRANCH  18  23
HETATM   23  C2  UNL     1      -4.544  39.443 -49.024  1.00  0.00     0.114 C 
HETATM   24  C1  UNL     1      -4.561  40.866 -48.453  1.00  0.00     0.035 C 
BRANCH  23  25
HETATM   25  C3  UNL     1      -3.076  39.195 -49.353  1.00  0.00     0.189 C 
BRANCH  25  26
HETATM   26  O1  UNL     1      -2.330  39.875 -48.405  1.00  0.00    -0.399 OA
ATOM     27  H1  UNL     1      -1.416  39.710 -48.603  1.00  0.00     0.209 HD
ENDBRANCH  25  26
ENDBRANCH  23  25
ENDBRANCH  18  23
BRANCH  19  28
HETATM   28  O8  UNL     1      -6.307  37.035 -49.496  1.00  0.00    -0.344 OA
ATOM     29  H8  UNL     1      -5.763  36.847 -50.252  1.00  0.00     0.219 HD
ENDBRANCH  19  28
BRANCH  20  30
HETATM   30  N13 UNL     1      -7.452  34.723 -47.168  1.00  0.00    -0.334 N 
ATOM     31 2H13 UNL     1      -7.866  33.880 -46.768  1.00  0.00     0.177 HD
ATOM     32 1H13 UNL     1      -7.726  34.757 -48.150  1.00  0.00     0.177 HD
ENDBRANCH  20  30
ENDBRANCH  11  12
ENDBRANCH  10  11
BRANCH  10  33
HETATM   33  O3  UNL     1      -6.367  34.351 -42.153  1.00  0.00    -0.333 OA
ATOM     34  H3  UNL     1      -6.453  35.155 -41.653  1.00  0.00     0.220 HD
ENDBRANCH  10  33
ENDBRANCH   1  10
BRANCH   4  35
HETATM   35  N5  UNL     1     -10.013  31.772 -40.330  1.00  0.00    -0.224 N 
ATOM     36  H5  UNL     1      -9.314  31.995 -39.622  1.00  0.00     0.177 HD
BRANCH  35  37
HETATM   37  C10 UNL     1     -11.238  31.173 -39.934  1.00  0.00     0.165 C 
BRANCH  37  38
HETATM   38  C11 UNL     1     -11.491  31.085 -38.468  1.00  0.00     0.199 C 
BRANCH  38  39
HETATM   39  O4  UNL     1     -12.919  31.029 -38.326  1.00  0.00    -0.315 OA
BRANCH  39  40
HETATM   40  C12 UNL     1     -13.723  32.168 -38.296  1.00  0.00     0.315 C 
HETATM   41  O5  UNL     1     -14.215  32.581 -39.332  1.00  0.00    -0.257 OA
BRANCH  40  42
HETATM   42  C13 UNL     1     -13.944  32.836 -37.021  1.00  0.00     0.167 A 
HETATM   43  N6  UNL     1     -13.034  32.978 -36.048  1.00  0.00    -0.278 N 
HETATM   44  N7  UNL     1     -13.627  33.563 -35.027  1.00  0.00    -0.238 N 
ATOM     45  H6  UNL     1     -12.057  32.686 -36.089  1.00  0.00     0.189 HD
HETATM   46  N8  UNL     1     -14.889  33.820 -35.272  1.00  0.00    -0.252 N 
ATOM     47  H7  UNL     1     -13.160  33.790 -34.149  1.00  0.00     0.208 HD
HETATM   48  C16 UNL     1     -15.123  33.373 -36.531  1.00  0.00     0.169 A 
HETATM   49  N9  UNL     1     -16.325  33.418 -37.265  1.00  0.00    -0.078 NA
BRANCH  46  50
HETATM   50  C14 UNL     1     -15.929  34.445 -34.482  1.00  0.00     0.265 C 
BRANCH  50  51
HETATM   51  C15 UNL     1     -15.409  35.645 -33.800  1.00  0.00     0.193 C 
HETATM   52  O6  UNL     1     -15.403  35.662 -32.526  1.00  0.00    -0.647 OA
HETATM   53  O7  UNL     1     -14.944  36.712 -34.517  1.00  0.00    -0.647 OA
ENDBRANCH  50  51
ENDBRANCH  46  50
ENDBRANCH  40  42
ENDBRANCH  39  40
ENDBRANCH  38  39
ENDBRANCH  37  38
ENDBRANCH  35  37
ENDBRANCH   4  35
TORSDOF 18
ENDMDL
MODEL 2
REMARK VINA RESULT: -9.507316194      4.326     10.429
REMARK  18 active torsions:
REMARK  status: ('A' for Active; 'I' for Inactive)
REMARK    1  A    between atoms: C2_2  and  C3_3 
REMARK    2  A    between atoms: C2_2  and  N1_6 
REMARK    3  A    between atoms: C3_3  and  O1_4 
REMARK    4  A    between atoms: C4_7  and  O2_8 
REMARK    5  A    between atoms: C6_13  and  N3_14 
REMARK    6  A    between atoms: N3_14  and  C7_15 
REMARK    7  A    between atoms: C7_15  and  O3_16 
REMARK    8  A    between atoms: C7_15  and  C8_18 
REMARK    9  A    between atoms: C9_21  and  N5_22 
REMARK   10  A    between atoms: N5_22  and  C10_24 
REMARK   11  A    between atoms: C10_24  and  C11_25 
REMARK   12  A    between atoms: C11_25  and  O4_26 
REMARK   13  A    between atoms: O4_26  and  C12_27 
REMARK   14  A    between atoms: C12_27  and  C13_29 
REMARK   15  A    between atoms: N8_34  and  C14_35 
REMARK   16  A    between atoms: C14_35  and  C15_36 
REMARK   17  A    between atoms: N12_46  and  N13_47 
REMARK   18  A    between atoms: C19_51  and  O8_52 
ROOT
HETATM    1  C8  UNL     1      -7.025  34.607 -44.267  1.00  0.00     0.184 A 
HETATM    2  N4  UNL     1      -6.414  35.711 -44.020  1.00  0.00    -0.172 N 
ATOM      3  H4  UNL     1      -6.003  35.838 -43.095  1.00  0.00     0.186 HD
HETATM    4  C9  UNL     1      -6.278  36.770 -44.974  1.00  0.00     0.676 A 
HETATM    5  N10 UNL     1      -6.777  36.613 -46.127  1.00  0.00    -0.210 N 
ATOM      6  H10 UNL     1      -6.671  37.382 -46.788  1.00  0.00     0.179 HD
HETATM    7  C17 UNL     1      -7.478  35.450 -46.585  1.00  0.00     0.263 A 
HETATM    8  N11 UNL     1      -7.604  34.473 -45.530  1.00  0.00    -0.355 N 
ATOM      9  H11 UNL     1      -8.150  33.634 -45.718  1.00  0.00     0.163 HD
ENDROOT
BRANCH   1  10
HETATM   10  C7  UNL     1      -7.106  33.581 -43.187  1.00  0.00     0.263 C 
BRANCH  10  11
HETATM   11  N3  UNL     1      -8.141  32.907 -42.764  1.00  0.00    -0.340 NA
BRANCH  11  12
HETATM   12  C6  UNL     1      -9.071  32.280 -42.386  1.00  0.00     0.284 A 
HETATM   13  N2  UNL     1      -9.389  32.235 -41.039  1.00  0.00    -0.309 N 
HETATM   14  C5  UNL     1     -10.423  31.451 -40.824  1.00  0.00     0.121 A 
ATOM     15  H2  UNL     1      -8.888  32.743 -40.310  1.00  0.00     0.170 HD
HETATM   16  C4  UNL     1     -11.283  30.915 -39.871  1.00  0.00     0.174 A 
HETATM   17  C18 UNL     1     -10.792  30.969 -42.051  1.00  0.00     0.142 A 
HETATM   18  N1  UNL     1     -12.169  30.116 -40.459  1.00  0.00    -0.298 N 
HETATM   19  C19 UNL     1     -11.872  30.147 -41.799  1.00  0.00     0.176 A 
HETATM   20  N12 UNL     1      -9.982  31.465 -43.007  1.00  0.00    -0.213 N 
BRANCH  16  21
HETATM   21  O2  UNL     1     -11.172  31.213 -38.517  1.00  0.00    -0.344 OA
ATOM     22  H2  UNL     1     -10.446  31.019 -37.935  1.00  0.00     0.219 HD
ENDBRANCH  16  21
BRANCH  18  23
HETATM   23  C2  UNL     1     -13.231  29.327 -39.820  1.00  0.00     0.114 C 
HETATM   24  C1  UNL     1     -14.577  29.549 -40.521  1.00  0.00     0.035 C 
BRANCH  23  25
HETATM   25  C3  UNL     1     -12.948  27.843 -40.025  1.00  0.00     0.189 C 
BRANCH  25  26
HETATM   26  O1  UNL     1     -11.896  27.514 -39.188  1.00  0.00    -0.399 OA
ATOM     27  H1  UNL     1     -11.095  27.723 -39.654  1.00  0.00     0.209 HD
ENDBRANCH  25  26
ENDBRANCH  23  25
ENDBRANCH  18  23
BRANCH  19  28
HETATM   28  O8  UNL     1     -12.580  29.429 -42.769  1.00  0.00    -0.344 OA
ATOM     29  H8  UNL     1     -12.407  29.488 -43.702  1.00  0.00     0.219 HD
ENDBRANCH  19  28
BRANCH  20  30
HETATM   30  N13 UNL     1     -10.050  31.211 -44.349  1.00  0.00    -0.334 N 
ATOM     31 2H13 UNL     1     -10.305  31.873 -45.083  1.00  0.00     0.177 HD
ATOM     32 1H13 UNL     1      -9.850  30.320 -44.802  1.00  0.00     0.177 HD
ENDBRANCH  20  30
ENDBRANCH  11  12
ENDBRANCH  10  11
BRANCH  10  33
HETATM   33  O3  UNL     1      -5.960  33.346 -42.586  1.00  0.00    -0.333 OA
ATOM     34  H3  UNL     1      -5.447  32.616 -42.914  1.00  0.00     0.220 HD
ENDBRANCH  10  33
ENDBRANCH   1  10
BRANCH   4  35
HETATM   35  N5  UNL     1      -5.658  37.979 -44.488  1.00  0.00    -0.224 N 
ATOM     36  H5  UNL     1      -4.785  37.916 -43.963  1.00  0.00     0.177 HD
BRANCH  35  37
HETATM   37  C10 UNL     1      -6.236  39.253 -44.723  1.00  0.00     0.165 C 
BRANCH  37  38
HETATM   38  C11 UNL     1      -7.488  39.564 -43.978  1.00  0.00     0.199 C 
BRANCH  38  39
HETATM   39  O4  UNL     1      -7.635  40.991 -44.047  1.00  0.00    -0.315 OA
BRANCH  39  40
HETATM   40  C12 UNL     1      -8.606  41.689 -43.330  1.00  0.00     0.315 C 
HETATM   41  O5  UNL     1      -8.411  42.857 -43.040  1.00  0.00    -0.257 OA
BRANCH  40  42
HETATM   42  C13 UNL     1      -9.825  40.995 -42.942  1.00  0.00     0.167 A 
HETATM   43  N6  UNL     1     -10.101  40.531 -41.715  1.00  0.00    -0.278 N 
HETATM   44  N7  UNL     1     -11.254  39.898 -41.776  1.00  0.00    -0.238 N 
ATOM     45  H6  UNL     1      -9.522  40.649 -40.883  1.00  0.00     0.189 HD
HETATM   46  N8  UNL     1     -11.763  39.916 -42.984  1.00  0.00    -0.252 N 
ATOM     47  H7  UNL     1     -11.700  39.446 -40.978  1.00  0.00     0.208 HD
HETATM   48  C16 UNL     1     -10.881  40.607 -43.750  1.00  0.00     0.169 A 
HETATM   49  N9  UNL     1     -10.967  40.910 -45.123  1.00  0.00    -0.078 NA
BRANCH  46  50
HETATM   50  C14 UNL     1     -12.987  39.376 -43.536  1.00  0.00     0.265 C 
BRANCH  50  51
HETATM   51  C15 UNL     1     -12.823  37.946 -43.857  1.00  0.00     0.193 C 
HETATM   52  O6  UNL     1     -13.392  37.087 -43.108  1.00  0.00    -0.647 OA
HETATM   53  O7  UNL     1     -12.078  37.552 -44.934  1.00  0.00    -0.647 OA
ENDBRANCH  50  51
ENDBRANCH  46  50
ENDBRANCH  40  42
ENDBRANCH  39  40
ENDBRANCH  38  39
ENDBRANCH  37  38
ENDBRANCH  35  37
ENDBRANCH   4  35
TORSDOF 18
ENDMDL
MODEL 3
REMARK VINA RESULT: -9.329437872      4.264     11.046
REMARK  18 active torsions:
REMARK  status: ('A' for Active; 'I' for Inactive)
REMARK    1  A    between atoms: C2_2  and  C3_3 
REMARK    2  A    between atoms: C2_2  and  N1_6 
REMARK    3  A    between atoms: C3_3  and  O1_4 
REMARK    4  A    between atoms: C4_7  and  O2_8 
REMARK    5  A    between atoms: C6_13  and  N3_14 
REMARK    6  A    between atoms: N3_14  and  C7_15 
REMARK    7  A    between atoms: C7_15  and  O3_16 
REMARK    8  A    between atoms: C7_15  and  C8_18 
REMARK    9  A    between atoms: C9_21  and  N5_22 
REMARK   10  A    between atoms: N5_22  and  C10_24 
REMARK   11  A    between atoms: C10_24  and  C11_25 
REMARK   12  A    between atoms: C11_25  and  O4_26 
REMARK   13  A    between atoms: O4_26  and  C12_27 
REMARK   14  A    between atoms: C12_27  and  C13_29 
REMARK   15  A    between atoms: N8_34  and  C14_35 
REMARK   16  A    between atoms: C14_35  and  C15_36 
REMARK   17  A    between atoms: N12_46  and  N13_47 
REMARK   18  A    between atoms: C19_51  and  O8_52 
ROOT
HETATM    1  C8  UNL     1     -12.551  39.029 -44.525  1.00  0.00     0.184 A 
HETATM    2  N4  UNL     1     -11.297  38.761 -44.426  1.00  0.00    -0.172 N 
ATOM      3  H4  UNL     1     -11.018  37.963 -43.856  1.00  0.00     0.186 HD
HETATM    4  C9  UNL     1     -10.273  39.524 -45.073  1.00  0.00     0.676 A 
HETATM    5  N10 UNL     1     -10.615  40.512 -45.788  1.00  0.00    -0.210 N 
ATOM      6  H10 UNL     1      -9.867  41.042 -46.236  1.00  0.00     0.179 HD
HETATM    7  C17 UNL     1     -11.958  40.949 -46.026  1.00  0.00     0.263 A 
HETATM    8  N11 UNL     1     -12.901  40.146 -45.284  1.00  0.00    -0.355 N 
ATOM      9  H11 UNL     1     -13.885  40.412 -45.317  1.00  0.00     0.163 HD
ENDROOT
BRANCH   1  10
HETATM   10  C7  UNL     1     -13.523  38.163 -43.796  1.00  0.00     0.263 C 
BRANCH  10  11
HETATM   11  N3  UNL     1     -13.371  36.948 -43.345  1.00  0.00    -0.340 NA
BRANCH  11  12
HETATM   12  C6  UNL     1     -13.231  35.840 -42.953  1.00  0.00     0.284 A 
HETATM   13  N2  UNL     1     -12.032  35.439 -42.389  1.00  0.00    -0.309 N 
HETATM   14  C5  UNL     1     -12.066  34.166 -42.062  1.00  0.00     0.121 A 
ATOM     15  H2  UNL     1     -11.228  36.049 -42.246  1.00  0.00     0.170 HD
HETATM   16  C4  UNL     1     -11.364  33.098 -41.512  1.00  0.00     0.174 A 
HETATM   17  C18 UNL     1     -13.310  33.718 -42.418  1.00  0.00     0.142 A 
HETATM   18  N1  UNL     1     -12.123  32.006 -41.517  1.00  0.00    -0.298 N 
HETATM   19  C19 UNL     1     -13.321  32.382 -42.072  1.00  0.00     0.176 A 
HETATM   20  N12 UNL     1     -14.028  34.724 -42.958  1.00  0.00    -0.213 N 
BRANCH  16  21
HETATM   21  O2  UNL     1     -10.059  33.227 -41.047  1.00  0.00    -0.344 OA
ATOM     22  H2  UNL     1      -9.266  32.874 -41.434  1.00  0.00     0.219 HD
ENDBRANCH  16  21
BRANCH  18  23
HETATM   23  C2  UNL     1     -11.761  30.658 -41.059  1.00  0.00     0.114 C 
HETATM   24  C1  UNL     1     -10.552  30.121 -41.834  1.00  0.00     0.035 C 
BRANCH  23  25
HETATM   25  C3  UNL     1     -11.272  30.731 -39.617  1.00  0.00     0.189 C 
BRANCH  25  26
HETATM   26  O1  UNL     1      -9.902  30.528 -39.645  1.00  0.00    -0.399 OA
ATOM     27  H1  UNL     1      -9.761  29.589 -39.663  1.00  0.00     0.209 HD
ENDBRANCH  25  26
ENDBRANCH  23  25
ENDBRANCH  18  23
BRANCH  19  28
HETATM   28  O8  UNL     1     -14.400  31.511 -42.258  1.00  0.00    -0.344 OA
ATOM     29  H8  UNL     1     -15.136  31.697 -42.829  1.00  0.00     0.219 HD
ENDBRANCH  19  28
BRANCH  20  30
HETATM   30  N13 UNL     1     -15.312  34.656 -43.423  1.00  0.00    -0.334 N 
ATOM     31 2H13 UNL     1     -15.641  34.127 -44.231  1.00  0.00     0.177 HD
ATOM     32 1H13 UNL     1     -16.122  35.126 -43.020  1.00  0.00     0.177 HD
ENDBRANCH  20  30
ENDBRANCH  11  12
ENDBRANCH  10  11
BRANCH  10  33
HETATM   33  O3  UNL     1     -14.696  38.726 -43.600  1.00  0.00    -0.333 OA
ATOM     34  H3  UNL     1     -15.455  38.256 -43.924  1.00  0.00     0.220 HD
ENDBRANCH  10  33
ENDBRANCH   1  10
BRANCH   4  35
HETATM   35  N5  UNL     1      -8.916  39.147 -44.760  1.00  0.00    -0.224 N 
ATOM     36  H5  UNL     1      -8.747  38.319 -44.189  1.00  0.00     0.177 HD
BRANCH  35  37
HETATM   37  C10 UNL     1      -7.810  39.903 -45.231  1.00  0.00     0.165 C 
BRANCH  37  38
HETATM   38  C11 UNL     1      -6.481  39.230 -45.200  1.00  0.00     0.199 C 
BRANCH  38  39
HETATM   39  O4  UNL     1      -6.210  38.847 -46.557  1.00  0.00    -0.315 OA
BRANCH  39  40
HETATM   40  C12 UNL     1      -6.663  37.652 -47.112  1.00  0.00     0.315 C 
HETATM   41  O5  UNL     1      -7.190  37.664 -48.212  1.00  0.00    -0.257 OA
BRANCH  40  42
HETATM   42  C13 UNL     1      -6.500  36.420 -46.354  1.00  0.00     0.167 A 
HETATM   43  N6  UNL     1      -5.379  35.688 -46.287  1.00  0.00    -0.278 N 
HETATM   44  N7  UNL     1      -5.645  34.613 -45.573  1.00  0.00    -0.238 N 
ATOM     45  H6  UNL     1      -4.481  35.921 -46.712  1.00  0.00     0.189 HD
HETATM   46  N8  UNL     1      -6.888  34.592 -45.158  1.00  0.00    -0.252 N 
ATOM     47  H7  UNL     1      -4.963  33.883 -45.366  1.00  0.00     0.208 HD
HETATM   48  C16 UNL     1      -7.460  35.726 -45.635  1.00  0.00     0.169 A 
HETATM   49  N9  UNL     1      -8.784  36.175 -45.464  1.00  0.00    -0.078 NA
BRANCH  46  50
HETATM   50  C14 UNL     1      -7.633  33.645 -44.355  1.00  0.00     0.265 C 
BRANCH  50  51
HETATM   51  C15 UNL     1      -6.950  33.408 -43.069  1.00  0.00     0.193 C 
HETATM   52  O6  UNL     1      -7.433  33.942 -42.020  1.00  0.00    -0.647 OA
HETATM   53  O7  UNL     1      -5.825  32.632 -43.007  1.00  0.00    -0.647 OA
ENDBRANCH  50  51
ENDBRANCH  46  50
ENDBRANCH  40  42
ENDBRANCH  39  40
ENDBRANCH  38  39
ENDBRANCH  37  38
ENDBRANCH  35  37
ENDBRANCH   4  35
TORSDOF 18
ENDMDL
MODEL 4
REMARK VINA RESULT: -9.324304758      3.956     11.530
REMARK  18 active torsions:
REMARK  status: ('A' for Active; 'I' for Inactive)
REMARK    1  A    between atoms: C2_2  and  C3_3 
REMARK    2  A    between atoms: C2_2  and  N1_6 
REMARK    3  A    between atoms: C3_3  and  O1_4 
REMARK    4  A    between atoms: C4_7  and  O2_8 
REMARK    5  A    between atoms: C6_13  and  N3_14 
REMARK    6  A    between atoms: N3_14  and  C7_15 
REMARK    7  A    between atoms: C7_15  and  O3_16 
REMARK    8  A    between atoms: C7_15  and  C8_18 
REMARK    9  A    between atoms: C9_21  and  N5_22 
REMARK   10  A    between atoms: N5_22  and  C10_24 
REMARK   11  A    between atoms: C10_24  and  C11_25 
REMARK   12  A    between atoms: C11_25  and  O4_26 
REMARK   13  A    between atoms: O4_26  and  C12_27 
REMARK   14  A    between atoms: C12_27  and  C13_29 
REMARK   15  A    between atoms: N8_34  and  C14_35 
REMARK   16  A    between atoms: C14_35  and  C15_36 
REMARK   17  A    between atoms: N12_46  and  N13_47 
REMARK   18  A    between atoms: C19_51  and  O8_52 
ROOT
HETATM    1  C8  UNL     1      -7.149  35.218 -44.519  1.00  0.00     0.184 A 
HETATM    2  N4  UNL     1      -5.998  35.548 -44.990  1.00  0.00    -0.172 N 
ATOM      3  H4  UNL     1      -5.165  35.226 -44.498  1.00  0.00     0.186 HD
HETATM    4  C9  UNL     1      -5.826  36.342 -46.168  1.00  0.00     0.676 A 
HETATM    5  N10 UNL     1      -6.857  36.736 -46.789  1.00  0.00    -0.210 N 
ATOM      6  H10 UNL     1      -6.709  37.304 -47.623  1.00  0.00     0.179 HD
HETATM    7  C17 UNL     1      -8.213  36.456 -46.423  1.00  0.00     0.263 A 
HETATM    8  N11 UNL     1      -8.271  35.699 -45.195  1.00  0.00    -0.355 N 
ATOM      9  H11 UNL     1      -9.188  35.503 -44.796  1.00  0.00     0.163 HD
ENDROOT
BRANCH   1  10
HETATM   10  C7  UNL     1      -7.199  34.392 -43.278  1.00  0.00     0.263 C 
BRANCH  10  11
HETATM   11  N3  UNL     1      -8.111  33.544 -42.886  1.00  0.00    -0.340 NA
BRANCH  11  12
HETATM   12  C6  UNL     1      -8.935  32.766 -42.546  1.00  0.00     0.284 A 
HETATM   13  N2  UNL     1      -9.276  32.639 -41.210  1.00  0.00    -0.309 N 
HETATM   14  C5  UNL     1     -10.173  31.693 -41.038  1.00  0.00     0.121 A 
ATOM     15  H2  UNL     1      -8.883  33.205 -40.458  1.00  0.00     0.170 HD
HETATM   16  C4  UNL     1     -10.957  31.002 -40.120  1.00  0.00     0.174 A 
HETATM   17  C18 UNL     1     -10.427  31.184 -42.284  1.00  0.00     0.142 A 
HETATM   18  N1  UNL     1     -11.685  30.083 -40.748  1.00  0.00    -0.298 N 
HETATM   19  C19 UNL     1     -11.364  30.192 -42.078  1.00  0.00     0.176 A 
HETATM   20  N12 UNL     1      -9.685  31.827 -43.208  1.00  0.00    -0.213 N 
BRANCH  16  21
HETATM   21  O2  UNL     1     -10.930  31.284 -38.758  1.00  0.00    -0.344 OA
ATOM     22  H2  UNL     1     -11.445  30.878 -38.070  1.00  0.00     0.219 HD
ENDBRANCH  16  21
BRANCH  18  23
HETATM   23  C2  UNL     1     -12.620  29.118 -40.154  1.00  0.00     0.114 C 
HETATM   24  C1  UNL     1     -14.020  29.264 -40.761  1.00  0.00     0.035 C 
BRANCH  23  25
HETATM   25  C3  UNL     1     -12.197  27.705 -40.539  1.00  0.00     0.189 C 
BRANCH  25  26
HETATM   26  O1  UNL     1     -13.146  27.226 -41.426  1.00  0.00    -0.399 OA
ATOM     27  H1  UNL     1     -13.365  26.345 -41.148  1.00  0.00     0.209 HD
ENDBRANCH  25  26
ENDBRANCH  23  25
ENDBRANCH  18  23
BRANCH  19  28
HETATM   28  O8  UNL     1     -11.921  29.391 -43.081  1.00  0.00    -0.344 OA
ATOM     29  H8  UNL     1     -11.473  29.168 -43.889  1.00  0.00     0.219 HD
ENDBRANCH  19  28
BRANCH  20  30
HETATM   30  N13 UNL     1      -9.676  31.597 -44.555  1.00  0.00    -0.334 N 
ATOM     31 2H13 UNL     1     -10.164  32.138 -45.270  1.00  0.00     0.177 HD
ATOM     32 1H13 UNL     1      -9.175  30.848 -45.032  1.00  0.00     0.177 HD
ENDBRANCH  20  30
ENDBRANCH  11  12
ENDBRANCH  10  11
BRANCH  10  33
HETATM   33  O3  UNL     1      -6.170  34.566 -42.478  1.00  0.00    -0.333 OA
ATOM     34  H3  UNL     1      -6.361  34.812 -41.581  1.00  0.00     0.220 HD
ENDBRANCH  10  33
ENDBRANCH   1  10
BRANCH   4  35
HETATM   35  N5  UNL     1      -4.467  36.707 -46.487  1.00  0.00    -0.224 N 
ATOM     36  H5  UNL     1      -3.801  36.863 -45.729  1.00  0.00     0.177 HD
BRANCH  35  37
HETATM   37  C10 UNL     1      -4.035  36.854 -47.831  1.00  0.00     0.165 C 
BRANCH  37  38
HETATM   38  C11 UNL     1      -3.711  38.238 -48.279  1.00  0.00     0.199 C 
BRANCH  38  39
HETATM   39  O4  UNL     1      -4.975  38.906 -48.416  1.00  0.00    -0.315 OA
BRANCH  39  40
HETATM   40  C12 UNL     1      -5.251  40.136 -47.821  1.00  0.00     0.315 C 
HETATM   41  O5  UNL     1      -4.924  41.164 -48.389  1.00  0.00    -0.257 OA
BRANCH  40  42
HETATM   42  C13 UNL     1      -5.918  40.153 -46.527  1.00  0.00     0.167 A 
HETATM   43  N6  UNL     1      -5.320  39.984 -45.339  1.00  0.00    -0.278 N 
HETATM   44  N7  UNL     1      -6.259  39.986 -44.414  1.00  0.00    -0.238 N 
ATOM     45  H6  UNL     1      -4.318  39.873 -45.180  1.00  0.00     0.189 HD
HETATM   46  N8  UNL     1      -7.455  40.150 -44.926  1.00  0.00    -0.252 N 
ATOM     47  H7  UNL     1      -6.077  39.874 -43.417  1.00  0.00     0.208 HD
HETATM   48  C16 UNL     1      -7.274  40.262 -46.266  1.00  0.00     0.169 A 
HETATM   49  N9  UNL     1      -8.248  40.456 -47.265  1.00  0.00    -0.078 NA
BRANCH  46  50
HETATM   50  C14 UNL     1      -8.770  40.228 -44.327  1.00  0.00     0.265 C 
BRANCH  50  51
HETATM   51  C15 UNL     1      -8.722  41.003 -43.073  1.00  0.00     0.193 C 
HETATM   52  O6  UNL     1      -9.289  40.519 -42.041  1.00  0.00    -0.647 OA
HETATM   53  O7  UNL     1      -8.084  42.211 -43.021  1.00  0.00    -0.647 OA
ENDBRANCH  50  51
ENDBRANCH  46  50
ENDBRANCH  40  42
ENDBRANCH  39  40
ENDBRANCH  38  39
ENDBRANCH  37  38
ENDBRANCH  35  37
ENDBRANCH   4  35
TORSDOF 18
ENDMDL
MODEL 5
REMARK VINA RESULT: -9.257825955      3.777     13.236
REMARK  18 active torsions:
REMARK  status: ('A' for Active; 'I' for Inactive)
REMARK    1  A    between atoms: C2_2  and  C3_3 
REMARK    2  A    between atoms: C2_2  and  N1_6 
REMARK    3  A    between atoms: C3_3  and  O1_4 
REMARK    4  A    between atoms: C4_7  and  O2_8 
REMARK    5  A    between atoms: C6_13  and  N3_14 
REMARK    6  A    between atoms: N3_14  and  C7_15 
REMARK    7  A    between atoms: C7_15  and  O3_16 
REMARK    8  A    between atoms: C7_15  and  C8_18 
REMARK    9  A    between atoms: C9_21  and  N5_22 
REMARK   10  A    between atoms: N5_22  and  C10_24 
REMARK   11  A    between atoms: C10_24  and  C11_25 
REMARK   12  A    between atoms: C11_25  and  O4_26 
REMARK   13  A    between atoms: O4_26  and  C12_27 
REMARK   14  A    between atoms: C12_27  and  C13_29 
REMARK   15  A    between atoms: N8_34  and  C14_35 
REMARK   16  A    between atoms: C14_35  and  C15_36 
REMARK   17  A    between atoms: N12_46  and  N13_47 
REMARK   18  A    between atoms: C19_51  and  O8_52 
ROOT
HETATM    1  C8  UNL     1      -6.977  34.691 -44.118  1.00  0.00     0.184 A 
HETATM    2  N4  UNL     1      -6.622  35.848 -43.685  1.00  0.00    -0.172 N 
ATOM      3  H4  UNL     1      -6.393  35.945 -42.696  1.00  0.00     0.186 HD
HETATM    4  C9  UNL     1      -6.531  37.009 -44.519  1.00  0.00     0.676 A 
HETATM    5  N10 UNL     1      -6.805  36.893 -45.750  1.00  0.00    -0.210 N 
ATOM      6  H10 UNL     1      -6.736  37.734 -46.322  1.00  0.00     0.179 HD
HETATM    7  C17 UNL     1      -7.203  35.685 -46.409  1.00  0.00     0.263 A 
HETATM    8  N11 UNL     1      -7.315  34.596 -45.468  1.00  0.00    -0.355 N 
ATOM      9  H11 UNL     1      -7.664  33.702 -45.812  1.00  0.00     0.163 HD
ENDROOT
BRANCH   1  10
HETATM   10  C7  UNL     1      -7.042  33.558 -43.149  1.00  0.00     0.263 C 
BRANCH  10  11
HETATM   11  N3  UNL     1      -8.079  32.882 -42.736  1.00  0.00    -0.340 NA
BRANCH  11  12
HETATM   12  C6  UNL     1      -9.031  32.283 -42.368  1.00  0.00     0.284 A 
HETATM   13  N2  UNL     1      -9.362  32.243 -41.024  1.00  0.00    -0.309 N 
HETATM   14  C5  UNL     1     -10.421  31.491 -40.820  1.00  0.00     0.121 A 
ATOM     15  H2  UNL     1      -8.852  32.732 -40.289  1.00  0.00     0.170 HD
HETATM   16  C4  UNL     1     -11.305  30.977 -39.877  1.00  0.00     0.174 A 
HETATM   17  C18 UNL     1     -10.795  31.024 -42.052  1.00  0.00     0.142 A 
HETATM   18  N1  UNL     1     -12.210  30.208 -40.476  1.00  0.00    -0.298 N 
HETATM   19  C19 UNL     1     -11.901  30.235 -41.812  1.00  0.00     0.176 A 
HETATM   20  N12 UNL     1      -9.961  31.498 -43.000  1.00  0.00    -0.213 N 
BRANCH  16  21
HETATM   21  O2  UNL     1     -11.197  31.267 -38.521  1.00  0.00    -0.344 OA
ATOM     22  H2  UNL     1     -11.503  30.746 -37.788  1.00  0.00     0.219 HD
ENDBRANCH  16  21
BRANCH  18  23
HETATM   23  C2  UNL     1     -13.302  29.450 -39.849  1.00  0.00     0.114 C 
HETATM   24  C1  UNL     1     -14.628  29.691 -40.579  1.00  0.00     0.035 C 
BRANCH  23  25
HETATM   25  C3  UNL     1     -13.047  27.958 -40.028  1.00  0.00     0.189 C 
BRANCH  25  26
HETATM   26  O1  UNL     1     -13.939  27.509 -40.987  1.00  0.00    -0.399 OA
ATOM     27  H1  UNL     1     -13.628  26.660 -41.279  1.00  0.00     0.209 HD
ENDBRANCH  25  26
ENDBRANCH  23  25
ENDBRANCH  18  23
BRANCH  19  28
HETATM   28  O8  UNL     1     -12.623  29.543 -42.792  1.00  0.00    -0.344 OA
ATOM     29  H8  UNL     1     -12.334  28.727 -43.183  1.00  0.00     0.219 HD
ENDBRANCH  19  28
BRANCH  20  30
HETATM   30  N13 UNL     1     -10.026  31.252 -44.343  1.00  0.00    -0.334 N 
ATOM     31 2H13 UNL     1      -9.328  30.768 -44.909  1.00  0.00     0.177 HD
ATOM     32 1H13 UNL     1     -10.788  31.519 -44.966  1.00  0.00     0.177 HD
ENDBRANCH  20  30
ENDBRANCH  11  12
ENDBRANCH  10  11
BRANCH  10  33
HETATM   33  O3  UNL     1      -5.875  33.216 -42.648  1.00  0.00    -0.333 OA
ATOM     34  H3  UNL     1      -5.697  33.485 -41.755  1.00  0.00     0.220 HD
ENDBRANCH  10  33
ENDBRANCH   1  10
BRANCH   4  35
HETATM   35  N5  UNL     1      -6.224  38.246 -43.842  1.00  0.00    -0.224 N 
ATOM     36  H5  UNL     1      -5.531  38.247 -43.093  1.00  0.00     0.177 HD
BRANCH  35  37
HETATM   37  C10 UNL     1      -6.865  39.462 -44.197  1.00  0.00     0.165 C 
BRANCH  37  38
HETATM   38  C11 UNL     1      -6.062  40.428 -44.999  1.00  0.00     0.199 C 
BRANCH  38  39
HETATM   39  O4  UNL     1      -6.747  40.551 -46.255  1.00  0.00    -0.315 OA
BRANCH  39  40
HETATM   40  C12 UNL     1      -6.426  39.781 -47.372  1.00  0.00     0.315 C 
HETATM   41  O5  UNL     1      -7.266  39.039 -47.850  1.00  0.00    -0.257 OA
BRANCH  40  42
HETATM   42  C13 UNL     1      -5.085  39.883 -47.931  1.00  0.00     0.167 A 
HETATM   43  N6  UNL     1      -4.616  40.913 -48.648  1.00  0.00    -0.278 N 
HETATM   44  N7  UNL     1      -3.396  40.605 -49.042  1.00  0.00    -0.238 N 
ATOM     45  H6  UNL     1      -5.113  41.781 -48.852  1.00  0.00     0.189 HD
HETATM   46  N8  UNL     1      -3.028  39.419 -48.621  1.00  0.00    -0.252 N 
ATOM     47  H7  UNL     1      -2.808  41.217 -49.607  1.00  0.00     0.208 HD
HETATM   48  C16 UNL     1      -4.077  38.933 -47.910  1.00  0.00     0.169 A 
HETATM   49  N9  UNL     1      -4.183  37.696 -47.246  1.00  0.00    -0.078 NA
BRANCH  46  50
HETATM   50  C14 UNL     1      -1.806  38.662 -48.785  1.00  0.00     0.265 C 
BRANCH  50  51
HETATM   51  C15 UNL     1      -1.451  38.554 -50.213  1.00  0.00     0.193 C 
HETATM   52  O6  UNL     1      -0.396  37.915 -50.528  1.00  0.00    -0.647 OA
HETATM   53  O7  UNL     1      -2.238  39.127 -51.174  1.00  0.00    -0.647 OA
ENDBRANCH  50  51
ENDBRANCH  46  50
ENDBRANCH  40  42
ENDBRANCH  39  40
ENDBRANCH  38  39
ENDBRANCH  37  38
ENDBRANCH  35  37
ENDBRANCH   4  35
TORSDOF 18
ENDMDL
