MODEL 1
REMARK VINA RESULT: -9.344040653      0.000      0.000
REMARK  10 active torsions:
REMARK  status: ('A' for Active; 'I' for Inactive)
REMARK    1  A    between atoms: O1_2  and  C2_3 
REMARK    2  A    between atoms: C4_5  and  O2_6 
REMARK    3  A    between atoms: C23_26  and  C24_27 
REMARK       I    between atoms: C24_27  and  N1_29 
REMARK    4  A    between atoms: N1_29  and  C25_31 
REMARK    5  A    between atoms: C25_31  and  C26_32 
REMARK    6  A    between atoms: C26_32  and  C28_34 
REMARK    7  A    between atoms: C28_34  and  N2_35 
REMARK    8  A    between atoms: C30_37  and  N3_38 
REMARK    9  A    between atoms: N3_38  and  N4_40 
REMARK   10  A    between atoms: C32_46  and  O4_47 
ROOT
HETATM    1  C2  UNL     1       0.225  28.287  21.648  1.00  0.00     0.131 C 
HETATM    2  C3  UNL     1      -1.147  28.514  21.074  1.00  0.00     0.065 C 
HETATM    3  C4  UNL     1      -2.109  29.267  21.892  1.00  0.00     0.129 C 
HETATM    4  C5  UNL     1      -1.969  29.229  23.376  1.00  0.00    -0.009 C 
HETATM    5  C6  UNL     1      -2.945  28.163  23.878  1.00  0.00     0.018 C 
HETATM    6  C7  UNL     1      -0.609  28.797  23.855  1.00  0.00     0.007 C 
HETATM    7  C8  UNL     1       0.368  29.896  24.039  1.00  0.00     0.007 C 
HETATM    8  C9  UNL     1      -0.123  31.237  23.464  1.00  0.00     0.011 C 
HETATM    9  C10 UNL     1      -1.437  31.621  24.142  1.00  0.00    -0.032 C 
HETATM   10  C11 UNL     1      -0.993  31.656  25.628  1.00  0.00     0.016 C 
HETATM   11  C12 UNL     1      -2.423  30.548  24.017  1.00  0.00     0.005 C 
HETATM   12  C13 UNL     1      -3.773  30.893  23.459  1.00  0.00     0.007 C 
HETATM   13  C14 UNL     1      -4.066  32.309  23.972  1.00  0.00     0.006 C 
HETATM   14  C15 UNL     1      -3.160  33.169  23.157  1.00  0.00    -0.000 C 
HETATM   15  C16 UNL     1      -3.600  34.552  22.877  1.00  0.00     0.009 C 
HETATM   16  C17 UNL     1      -4.999  34.685  22.371  1.00  0.00     0.015 C 
HETATM   17  C18 UNL     1      -5.262  34.294  20.960  1.00  0.00    -0.047 C 
HETATM   18  C19 UNL     1      -6.368  35.191  20.370  1.00  0.00     0.015 C 
HETATM   19  C20 UNL     1      -5.896  32.890  20.914  1.00  0.00     0.015 C 
HETATM   20  C21 UNL     1      -4.113  34.283  20.034  1.00  0.00     0.010 C 
HETATM   21  C22 UNL     1      -2.810  34.780  20.510  1.00  0.00     0.020 C 
HETATM   22  C23 UNL     1      -2.650  35.189  21.920  1.00  0.00     0.045 C 
HETATM   23  C33 UNL     1      -1.199  34.995  22.308  1.00  0.00     0.020 C 
HETATM   24  C34 UNL     1      -0.850  33.611  22.736  1.00  0.00     0.011 C 
HETATM   25  C35 UNL     1      -1.797  33.032  23.767  1.00  0.00    -0.032 C 
HETATM   26  C36 UNL     1      -1.711  33.961  24.969  1.00  0.00     0.016 C 
HETATM   27  C37 UNL     1       0.045  27.746  23.022  1.00  0.00    -0.017 C 
HETATM   28  C38 UNL     1       1.406  27.461  23.624  1.00  0.00     0.018 C 
HETATM   29  C39 UNL     1      -0.644  26.407  22.995  1.00  0.00     0.018 C 
ENDROOT
BRANCH  22  30
HETATM   30  C24 UNL     1      -2.835  36.687  22.030  1.00  0.00     0.230 C 
HETATM   31  O3  UNL     1      -3.391  37.258  21.029  1.00  0.00    -0.272 OA
HETATM   32  N1  UNL     1      -2.458  37.475  23.109  1.00  0.00    -0.336 N 
ATOM     33  H1  UNL     1      -2.041  36.929  23.863  1.00  0.00     0.168 HD
BRANCH  32  34
HETATM   34  C25 UNL     1      -2.515  38.836  23.405  1.00  0.00     0.099 C 
BRANCH  34  35
HETATM   35  C26 UNL     1      -1.641  39.840  22.730  1.00  0.00    -0.031 C 
HETATM   36  C27 UNL     1      -2.294  40.935  21.994  1.00  0.00     0.051 C 
BRANCH  35  37
HETATM   37  C28 UNL     1      -0.485  39.193  22.028  1.00  0.00     0.096 C 
BRANCH  37  38
HETATM   38  N2  UNL     1       0.765  39.705  22.236  1.00  0.00    -0.361 N 
HETATM   39  C29 UNL     1       1.664  39.455  23.243  1.00  0.00     0.151 C 
HETATM   40  C30 UNL     1       3.083  39.513  22.627  1.00  0.00     0.122 C 
HETATM   41  C31 UNL     1       2.881  40.267  21.339  1.00  0.00     0.082 C 
HETATM   42  C32 UNL     1       1.389  40.470  21.180  1.00  0.00     0.221 C 
BRANCH  40  43
HETATM   43  N3  UNL     1       3.961  40.205  23.541  1.00  0.00    -0.316 N 
ATOM     44  H3  UNL     1       3.622  40.949  24.153  1.00  0.00     0.182 HD
BRANCH  43  45
HETATM   45  N4  UNL     1       5.146  39.850  23.544  1.00  0.00    -0.253 N 
HETATM   46  N5  UNL     1       6.369  39.870  23.793  1.00  0.00    -0.331 N 
ATOM     47  H52 UNL     1       6.376  40.731  24.340  1.00  0.00     0.178 HD
ATOM     48  H51 UNL     1       7.346  39.577  23.795  1.00  0.00     0.178 HD
ATOM     49  H4  UNL     1       5.084  38.995  22.991  1.00  0.00     0.207 HD
ENDBRANCH  43  45
ENDBRANCH  40  43
BRANCH  42  50
HETATM   50  O4  UNL     1       1.024  39.901  19.964  1.00  0.00    -0.377 OA
ATOM     51  H4  UNL     1       1.770  39.960  19.377  1.00  0.00     0.212 HD
ENDBRANCH  42  50
ENDBRANCH  37  38
ENDBRANCH  35  37
ENDBRANCH  34  35
ENDBRANCH  32  34
ENDBRANCH  22  30
BRANCH   3  52
HETATM   52  O2  UNL     1      -3.382  28.773  21.484  1.00  0.00    -0.395 OA
ATOM     53  H2  UNL     1      -3.872  28.689  22.293  1.00  0.00     0.210 HD
ENDBRANCH   3  52
BRANCH   1  54
HETATM   54  O1  UNL     1       0.804  27.291  20.852  1.00  0.00    -0.390 OA
HETATM   55  C1  UNL     1       1.159  27.700  19.595  1.00  0.00     0.202 C 
ENDBRANCH   1  54
TORSDOF 10
ENDMDL
MODEL 2
REMARK VINA RESULT: -9.015998812      1.677      2.049
REMARK  10 active torsions:
REMARK  status: ('A' for Active; 'I' for Inactive)
REMARK    1  A    between atoms: O1_2  and  C2_3 
REMARK    2  A    between atoms: C4_5  and  O2_6 
REMARK    3  A    between atoms: C23_26  and  C24_27 
REMARK       I    between atoms: C24_27  and  N1_29 
REMARK    4  A    between atoms: N1_29  and  C25_31 
REMARK    5  A    between atoms: C25_31  and  C26_32 
REMARK    6  A    between atoms: C26_32  and  C28_34 
REMARK    7  A    between atoms: C28_34  and  N2_35 
REMARK    8  A    between atoms: C30_37  and  N3_38 
REMARK    9  A    between atoms: N3_38  and  N4_40 
REMARK   10  A    between atoms: C32_46  and  O4_47 
ROOT
HETATM    1  C2  UNL     1       0.710  28.925  21.556  1.00  0.00     0.131 C 
HETATM    2  C3  UNL     1      -0.700  28.716  21.077  1.00  0.00     0.065 C 
HETATM    3  C4  UNL     1      -1.783  29.315  21.871  1.00  0.00     0.129 C 
HETATM    4  C5  UNL     1      -1.565  29.530  23.330  1.00  0.00    -0.009 C 
HETATM    5  C6  UNL     1      -2.205  28.339  24.046  1.00  0.00     0.018 C 
HETATM    6  C7  UNL     1      -0.117  29.527  23.743  1.00  0.00     0.007 C 
HETATM    7  C8  UNL     1       0.549  30.849  23.700  1.00  0.00     0.007 C 
HETATM    8  C9  UNL     1      -0.300  31.926  23.003  1.00  0.00     0.011 C 
HETATM    9  C10 UNL     1      -1.633  32.064  23.735  1.00  0.00    -0.032 C 
HETATM   10  C11 UNL     1      -1.141  32.425  25.161  1.00  0.00     0.016 C 
HETATM   11  C12 UNL     1      -2.313  30.773  23.833  1.00  0.00     0.005 C 
HETATM   12  C13 UNL     1      -3.732  30.684  23.352  1.00  0.00     0.007 C 
HETATM   13  C14 UNL     1      -4.356  32.042  23.703  1.00  0.00     0.006 C 
HETATM   14  C15 UNL     1      -3.746  32.973  22.710  1.00  0.00    -0.000 C 
HETATM   15  C16 UNL     1      -4.543  34.145  22.293  1.00  0.00     0.009 C 
HETATM   16  C17 UNL     1      -5.951  33.850  21.896  1.00  0.00     0.015 C 
HETATM   17  C18 UNL     1      -6.174  33.204  20.574  1.00  0.00    -0.047 C 
HETATM   18  C19 UNL     1      -7.502  33.701  19.970  1.00  0.00     0.015 C 
HETATM   19  C20 UNL     1      -6.423  31.695  20.763  1.00  0.00     0.015 C 
HETATM   20  C21 UNL     1      -5.108  33.346  19.563  1.00  0.00     0.010 C 
HETATM   21  C22 UNL     1      -3.957  34.216  19.859  1.00  0.00     0.020 C 
HETATM   22  C23 UNL     1      -3.839  34.853  21.185  1.00  0.00     0.045 C 
HETATM   23  C33 UNL     1      -2.369  35.087  21.470  1.00  0.00     0.020 C 
HETATM   24  C34 UNL     1      -1.653  33.911  22.041  1.00  0.00     0.011 C 
HETATM   25  C35 UNL     1      -2.365  33.271  23.214  1.00  0.00    -0.032 C 
HETATM   26  C36 UNL     1      -2.464  34.357  24.276  1.00  0.00     0.016 C 
HETATM   27  C37 UNL     1       0.745  28.562  22.999  1.00  0.00    -0.017 C 
HETATM   28  C38 UNL     1       2.161  28.717  23.514  1.00  0.00     0.018 C 
HETATM   29  C39 UNL     1       0.426  27.104  23.202  1.00  0.00     0.018 C 
ENDROOT
BRANCH  22  30
HETATM   30  C24 UNL     1      -4.400  36.257  21.118  1.00  0.00     0.230 C 
HETATM   31  O3  UNL     1      -5.374  36.433  20.307  1.00  0.00    -0.272 OA
HETATM   32  N1  UNL     1      -3.953  37.347  21.852  1.00  0.00    -0.336 N 
ATOM     33  H1  UNL     1      -3.187  37.105  22.482  1.00  0.00     0.168 HD
BRANCH  32  34
HETATM   34  C25 UNL     1      -4.302  38.694  21.931  1.00  0.00     0.099 C 
BRANCH  34  35
HETATM   35  C26 UNL     1      -3.284  39.786  21.954  1.00  0.00    -0.031 C 
HETATM   36  C27 UNL     1      -3.681  41.106  21.437  1.00  0.00     0.051 C 
BRANCH  35  37
HETATM   37  C28 UNL     1      -1.934  39.302  21.515  1.00  0.00     0.096 C 
BRANCH  37  38
HETATM   38  N2  UNL     1      -0.956  39.173  22.461  1.00  0.00    -0.361 N 
HETATM   39  C29 UNL     1      -0.746  38.178  23.383  1.00  0.00     0.151 C 
HETATM   40  C30 UNL     1       0.784  38.010  23.547  1.00  0.00     0.122 C 
HETATM   41  C31 UNL     1       1.344  39.297  23.001  1.00  0.00     0.082 C 
HETATM   42  C32 UNL     1       0.179  40.066  22.413  1.00  0.00     0.221 C 
BRANCH  40  43
HETATM   43  N3  UNL     1       1.085  37.828  24.949  1.00  0.00    -0.316 N 
ATOM     44  H3  UNL     1       1.790  38.391  25.425  1.00  0.00     0.182 HD
BRANCH  43  45
HETATM   45  N4  UNL     1       0.444  36.951  25.541  1.00  0.00    -0.253 N 
HETATM   46  N5  UNL     1       0.113  35.815  25.936  1.00  0.00    -0.331 N 
ATOM     47  H52 UNL     1       0.846  35.291  25.457  1.00  0.00     0.178 HD
ATOM     48  H51 UNL     1      -0.417  35.092  26.424  1.00  0.00     0.178 HD
ATOM     49  H4  UNL     1      -0.269  37.520  25.997  1.00  0.00     0.207 HD
ENDBRANCH  43  45
ENDBRANCH  40  43
BRANCH  42  50
HETATM   50  O4  UNL     1       0.481  40.308  21.076  1.00  0.00    -0.377 OA
ATOM     51  H4  UNL     1       0.709  39.479  20.672  1.00  0.00     0.212 HD
ENDBRANCH  42  50
ENDBRANCH  37  38
ENDBRANCH  35  37
ENDBRANCH  34  35
ENDBRANCH  32  34
ENDBRANCH  22  30
BRANCH   3  52
HETATM   52  O2  UNL     1      -2.903  28.465  21.639  1.00  0.00    -0.395 OA
ATOM     53  H2  UNL     1      -3.363  28.451  22.470  1.00  0.00     0.210 HD
ENDBRANCH   3  52
BRANCH   1  54
HETATM   54  O1  UNL     1       1.488  28.000  20.849  1.00  0.00    -0.390 OA
HETATM   55  C1  UNL     1       1.191  27.907  19.516  1.00  0.00     0.202 C 
ENDBRANCH   1  54
TORSDOF 10
ENDMDL
MODEL 3
REMARK VINA RESULT: -8.915170467      4.018      7.284
REMARK  10 active torsions:
REMARK  status: ('A' for Active; 'I' for Inactive)
REMARK    1  A    between atoms: O1_2  and  C2_3 
REMARK    2  A    between atoms: C4_5  and  O2_6 
REMARK    3  A    between atoms: C23_26  and  C24_27 
REMARK       I    between atoms: C24_27  and  N1_29 
REMARK    4  A    between atoms: N1_29  and  C25_31 
REMARK    5  A    between atoms: C25_31  and  C26_32 
REMARK    6  A    between atoms: C26_32  and  C28_34 
REMARK    7  A    between atoms: C28_34  and  N2_35 
REMARK    8  A    between atoms: C30_37  and  N3_38 
REMARK    9  A    between atoms: N3_38  and  N4_40 
REMARK   10  A    between atoms: C32_46  and  O4_47 
ROOT
HETATM    1  C2  UNL     1     -10.015  35.220  17.574  1.00  0.00     0.131 C 
HETATM    2  C3  UNL     1     -10.050  36.037  18.836  1.00  0.00     0.065 C 
HETATM    3  C4  UNL     1      -9.469  35.441  20.048  1.00  0.00     0.129 C 
HETATM    4  C5  UNL     1      -9.457  33.955  20.177  1.00  0.00    -0.009 C 
HETATM    5  C6  UNL     1     -10.673  33.582  21.028  1.00  0.00     0.018 C 
HETATM    6  C7  UNL     1      -9.627  33.223  18.873  1.00  0.00     0.007 C 
HETATM    7  C8  UNL     1      -8.367  32.924  18.154  1.00  0.00     0.007 C 
HETATM    8  C9  UNL     1      -7.147  33.641  18.758  1.00  0.00     0.011 C 
HETATM    9  C10 UNL     1      -6.995  33.226  20.220  1.00  0.00    -0.032 C 
HETATM   10  C11 UNL     1      -6.856  31.689  20.069  1.00  0.00     0.016 C 
HETATM   11  C12 UNL     1      -8.231  33.470  20.964  1.00  0.00     0.005 C 
HETATM   12  C13 UNL     1      -8.144  34.275  22.229  1.00  0.00     0.007 C 
HETATM   13  C14 UNL     1      -6.796  33.892  22.853  1.00  0.00     0.006 C 
HETATM   14  C15 UNL     1      -5.800  34.575  21.978  1.00  0.00    -0.000 C 
HETATM   15  C16 UNL     1      -4.525  34.997  22.594  1.00  0.00     0.009 C 
HETATM   16  C17 UNL     1      -4.655  35.748  23.878  1.00  0.00     0.015 C 
HETATM   17  C18 UNL     1      -5.111  37.162  23.806  1.00  0.00    -0.047 C 
HETATM   18  C19 UNL     1      -4.438  37.982  24.925  1.00  0.00     0.015 C 
HETATM   19  C20 UNL     1      -6.606  37.250  24.166  1.00  0.00     0.015 C 
HETATM   20  C21 UNL     1      -4.929  37.869  22.523  1.00  0.00     0.010 C 
HETATM   21  C22 UNL     1      -4.198  37.195  21.437  1.00  0.00     0.020 C 
HETATM   22  C23 UNL     1      -3.743  35.801  21.611  1.00  0.00     0.045 C 
HETATM   23  C33 UNL     1      -3.665  35.153  20.244  1.00  0.00     0.020 C 
HETATM   24  C34 UNL     1      -4.955  34.603  19.743  1.00  0.00     0.011 C 
HETATM   25  C35 UNL     1      -5.678  33.728  20.746  1.00  0.00    -0.032 C 
HETATM   26  C36 UNL     1      -4.729  32.577  21.045  1.00  0.00     0.016 C 
HETATM   27  C37 UNL     1     -10.557  33.874  17.905  1.00  0.00    -0.017 C 
HETATM   28  C38 UNL     1     -10.581  33.028  16.649  1.00  0.00     0.018 C 
HETATM   29  C39 UNL     1     -11.999  33.957  18.333  1.00  0.00     0.018 C 
ENDROOT
BRANCH  22  30
HETATM   30  C24 UNL     1      -2.301  35.799  22.072  1.00  0.00     0.230 C 
HETATM   31  O3  UNL     1      -1.702  34.669  22.032  1.00  0.00    -0.272 OA
HETATM   32  N1  UNL     1      -1.591  36.903  22.523  1.00  0.00    -0.336 N 
ATOM     33  H1  UNL     1      -2.146  37.759  22.502  1.00  0.00     0.168 HD
BRANCH  32  34
HETATM   34  C25 UNL     1      -0.298  37.118  22.999  1.00  0.00     0.099 C 
BRANCH  34  35
HETATM   35  C26 UNL     1       0.147  38.436  23.538  1.00  0.00    -0.031 C 
HETATM   36  C27 UNL     1      -0.728  39.113  24.510  1.00  0.00     0.051 C 
BRANCH  35  37
HETATM   37  C28 UNL     1       0.718  39.316  22.465  1.00  0.00     0.096 C 
BRANCH  37  38
HETATM   38  N2  UNL     1       2.006  39.750  22.605  1.00  0.00    -0.361 N 
HETATM   39  C29 UNL     1       2.917  39.505  23.602  1.00  0.00     0.151 C 
HETATM   40  C30 UNL     1       4.316  39.420  22.946  1.00  0.00     0.122 C 
HETATM   41  C31 UNL     1       4.126  40.100  21.616  1.00  0.00     0.082 C 
HETATM   42  C32 UNL     1       2.648  40.398  21.483  1.00  0.00     0.221 C 
BRANCH  40  43
HETATM   43  N3  UNL     1       5.268  40.108  23.787  1.00  0.00    -0.316 N 
ATOM     44  H3  UNL     1       4.989  40.876  24.398  1.00  0.00     0.182 HD
BRANCH  43  45
HETATM   45  N4  UNL     1       6.440  39.717  23.728  1.00  0.00    -0.253 N 
HETATM   46  N5  UNL     1       7.543  39.274  24.111  1.00  0.00    -0.331 N 
ATOM     47  H52 UNL     1       7.311  39.187  25.101  1.00  0.00     0.178 HD
ATOM     48  H51 UNL     1       8.509  38.952  24.062  1.00  0.00     0.178 HD
ATOM     49  H4  UNL     1       6.621  39.823  22.730  1.00  0.00     0.207 HD
ENDBRANCH  43  45
ENDBRANCH  40  43
BRANCH  42  50
HETATM   50  O4  UNL     1       2.207  39.776  20.318  1.00  0.00    -0.377 OA
ATOM     51  H4  UNL     1       2.901  39.836  19.673  1.00  0.00     0.212 HD
ENDBRANCH  42  50
ENDBRANCH  37  38
ENDBRANCH  35  37
ENDBRANCH  34  35
ENDBRANCH  32  34
ENDBRANCH  22  30
BRANCH   3  52
HETATM   52  O2  UNL     1     -10.191  36.043  21.119  1.00  0.00    -0.395 OA
ATOM     53  H2  UNL     1      -9.519  36.312  21.734  1.00  0.00     0.210 HD
ENDBRANCH   3  52
BRANCH   1  54
HETATM   54  O1  UNL     1     -10.904  35.850  16.695  1.00  0.00    -0.390 OA
HETATM   55  C1  UNL     1     -10.404  36.070  15.439  1.00  0.00     0.202 C 
ENDBRANCH   1  54
TORSDOF 10
ENDMDL
MODEL 4
REMARK VINA RESULT: -8.580488953      2.707      5.865
REMARK  10 active torsions:
REMARK  status: ('A' for Active; 'I' for Inactive)
REMARK    1  A    between atoms: O1_2  and  C2_3 
REMARK    2  A    between atoms: C4_5  and  O2_6 
REMARK    3  A    between atoms: C23_26  and  C24_27 
REMARK       I    between atoms: C24_27  and  N1_29 
REMARK    4  A    between atoms: N1_29  and  C25_31 
REMARK    5  A    between atoms: C25_31  and  C26_32 
REMARK    6  A    between atoms: C26_32  and  C28_34 
REMARK    7  A    between atoms: C28_34  and  N2_35 
REMARK    8  A    between atoms: C30_37  and  N3_38 
REMARK    9  A    between atoms: N3_38  and  N4_40 
REMARK   10  A    between atoms: C32_46  and  O4_47 
ROOT
HETATM    1  C2  UNL     1      -9.493  31.423  23.223  1.00  0.00     0.131 C 
HETATM    2  C3  UNL     1      -8.301  30.841  23.931  1.00  0.00     0.065 C 
HETATM    3  C4  UNL     1      -7.048  30.725  23.170  1.00  0.00     0.129 C 
HETATM    4  C5  UNL     1      -7.124  30.574  21.688  1.00  0.00    -0.009 C 
HETATM    5  C6  UNL     1      -7.003  29.077  21.397  1.00  0.00     0.018 C 
HETATM    6  C7  UNL     1      -8.439  31.003  21.093  1.00  0.00     0.007 C 
HETATM    7  C8  UNL     1      -8.513  32.430  20.702  1.00  0.00     0.007 C 
HETATM    8  C9  UNL     1      -7.318  33.254  21.213  1.00  0.00     0.011 C 
HETATM    9  C10 UNL     1      -6.025  32.655  20.663  1.00  0.00    -0.032 C 
HETATM   10  C11 UNL     1      -6.293  32.746  19.138  1.00  0.00     0.016 C 
HETATM   11  C12 UNL     1      -5.925  31.234  20.994  1.00  0.00     0.005 C 
HETATM   12  C13 UNL     1      -4.675  30.755  21.675  1.00  0.00     0.007 C 
HETATM   13  C14 UNL     1      -3.547  31.608  21.080  1.00  0.00     0.006 C 
HETATM   14  C15 UNL     1      -3.752  32.945  21.706  1.00  0.00    -0.000 C 
HETATM   15  C16 UNL     1      -2.560  33.792  21.917  1.00  0.00     0.009 C 
HETATM   16  C17 UNL     1      -1.402  33.111  22.569  1.00  0.00     0.015 C 
HETATM   17  C18 UNL     1      -1.493  32.843  24.029  1.00  0.00    -0.047 C 
HETATM   18  C19 UNL     1      -0.093  32.949  24.666  1.00  0.00     0.015 C 
HETATM   19  C20 UNL     1      -1.871  31.369  24.269  1.00  0.00     0.015 C 
HETATM   20  C21 UNL     1      -2.435  33.667  24.812  1.00  0.00     0.010 C 
HETATM   21  C22 UNL     1      -3.128  34.783  24.146  1.00  0.00     0.020 C 
HETATM   22  C23 UNL     1      -2.944  35.003  22.698  1.00  0.00     0.045 C 
HETATM   23  C33 UNL     1      -4.186  35.685  22.160  1.00  0.00     0.020 C 
HETATM   24  C34 UNL     1      -5.302  34.761  21.815  1.00  0.00     0.011 C 
HETATM   25  C35 UNL     1      -4.881  33.587  20.955  1.00  0.00    -0.032 C 
HETATM   26  C36 UNL     1      -4.324  34.195  19.676  1.00  0.00     0.016 C 
HETATM   27  C37 UNL     1      -9.636  30.700  21.930  1.00  0.00    -0.017 C 
HETATM   28  C38 UNL     1     -10.854  31.226  21.200  1.00  0.00     0.018 C 
HETATM   29  C39 UNL     1      -9.929  29.239  22.153  1.00  0.00     0.018 C 
ENDROOT
BRANCH  22  30
HETATM   30  C24 UNL     1      -1.865  36.041  22.482  1.00  0.00     0.230 C 
HETATM   31  O3  UNL     1      -1.828  36.577  21.320  1.00  0.00    -0.272 OA
HETATM   32  N1  UNL     1      -0.931  36.451  23.423  1.00  0.00    -0.336 N 
ATOM     33  H1  UNL     1      -1.051  35.981  24.321  1.00  0.00     0.168 HD
BRANCH  32  34
HETATM   34  C25 UNL     1       0.132  37.353  23.433  1.00  0.00     0.099 C 
BRANCH  34  35
HETATM   35  C26 UNL     1      -0.071  38.831  23.407  1.00  0.00    -0.031 C 
HETATM   36  C27 UNL     1      -1.426  39.343  23.672  1.00  0.00     0.051 C 
BRANCH  35  37
HETATM   37  C28 UNL     1       0.645  39.475  22.257  1.00  0.00     0.096 C 
BRANCH  37  38
HETATM   38  N2  UNL     1       1.941  39.867  22.443  1.00  0.00    -0.361 N 
HETATM   39  C29 UNL     1       2.798  39.616  23.487  1.00  0.00     0.151 C 
HETATM   40  C30 UNL     1       4.220  39.463  22.896  1.00  0.00     0.122 C 
HETATM   41  C31 UNL     1       4.115  40.112  21.542  1.00  0.00     0.082 C 
HETATM   42  C32 UNL     1       2.655  40.459  21.335  1.00  0.00     0.221 C 
BRANCH  40  43
HETATM   43  N3  UNL     1       5.160  40.139  23.761  1.00  0.00    -0.316 N 
ATOM     44  H3  UNL     1       4.871  40.899  24.378  1.00  0.00     0.182 HD
BRANCH  43  45
HETATM   45  N4  UNL     1       6.332  39.749  23.714  1.00  0.00    -0.253 N 
HETATM   46  N5  UNL     1       7.371  39.137  24.036  1.00  0.00    -0.331 N 
ATOM     47  H52 UNL     1       6.996  38.669  24.862  1.00  0.00     0.178 HD
ATOM     48  H51 UNL     1       8.338  38.815  23.998  1.00  0.00     0.178 HD
ATOM     49  H4  UNL     1       6.658  40.240  22.882  1.00  0.00     0.207 HD
ENDBRANCH  43  45
ENDBRANCH  40  43
BRANCH  42  50
HETATM   50  O4  UNL     1       2.243  39.822  20.168  1.00  0.00    -0.377 OA
ATOM     51  H4  UNL     1       2.841  40.070  19.472  1.00  0.00     0.212 HD
ENDBRANCH  42  50
ENDBRANCH  37  38
ENDBRANCH  35  37
ENDBRANCH  34  35
ENDBRANCH  32  34
ENDBRANCH  22  30
BRANCH   3  52
HETATM   52  O2  UNL     1      -6.374  29.620  23.765  1.00  0.00    -0.395 OA
ATOM     53  H2  UNL     1      -5.796  30.014  24.406  1.00  0.00     0.210 HD
ENDBRANCH   3  52
BRANCH   1  54
HETATM   54  O1  UNL     1     -10.596  31.113  24.027  1.00  0.00    -0.390 OA
HETATM   55  C1  UNL     1     -10.438  31.414  25.353  1.00  0.00     0.202 C 
ENDBRANCH   1  54
TORSDOF 10
ENDMDL
MODEL 5
REMARK VINA RESULT: -8.392535009      1.604      2.584
REMARK  10 active torsions:
REMARK  status: ('A' for Active; 'I' for Inactive)
REMARK    1  A    between atoms: O1_2  and  C2_3 
REMARK    2  A    between atoms: C4_5  and  O2_6 
REMARK    3  A    between atoms: C23_26  and  C24_27 
REMARK       I    between atoms: C24_27  and  N1_29 
REMARK    4  A    between atoms: N1_29  and  C25_31 
REMARK    5  A    between atoms: C25_31  and  C26_32 
REMARK    6  A    between atoms: C26_32  and  C28_34 
REMARK    7  A    between atoms: C28_34  and  N2_35 
REMARK    8  A    between atoms: C30_37  and  N3_38 
REMARK    9  A    between atoms: N3_38  and  N4_40 
REMARK   10  A    between atoms: C32_46  and  O4_47 
ROOT
HETATM    1  C2  UNL     1      -2.076  28.061  22.184  1.00  0.00     0.131 C 
HETATM    2  C3  UNL     1      -3.096  28.444  23.221  1.00  0.00     0.065 C 
HETATM    3  C4  UNL     1      -2.684  29.398  24.261  1.00  0.00     0.129 C 
HETATM    4  C5  UNL     1      -1.243  29.461  24.641  1.00  0.00    -0.009 C 
HETATM    5  C6  UNL     1      -1.086  28.599  25.895  1.00  0.00     0.018 C 
HETATM    6  C7  UNL     1      -0.310  28.871  23.618  1.00  0.00     0.007 C 
HETATM    7  C8  UNL     1       0.175  29.821  22.590  1.00  0.00     0.007 C 
HETATM    8  C9  UNL     1      -0.568  31.169  22.622  1.00  0.00     0.011 C 
HETATM    9  C10 UNL     1      -0.400  31.800  24.002  1.00  0.00    -0.032 C 
HETATM   10  C11 UNL     1       1.146  31.890  24.090  1.00  0.00     0.016 C 
HETATM   11  C12 UNL     1      -0.833  30.882  25.055  1.00  0.00     0.005 C 
HETATM   12  C13 UNL     1      -1.836  31.379  26.056  1.00  0.00     0.007 C 
HETATM   13  C14 UNL     1      -1.492  32.861  26.260  1.00  0.00     0.006 C 
HETATM   14  C15 UNL     1      -1.962  33.505  25.000  1.00  0.00    -0.000 C 
HETATM   15  C16 UNL     1      -2.412  34.910  25.078  1.00  0.00     0.009 C 
HETATM   16  C17 UNL     1      -3.376  35.210  26.178  1.00  0.00     0.015 C 
HETATM   17  C18 UNL     1      -4.780  34.749  26.009  1.00  0.00    -0.047 C 
HETATM   18  C19 UNL     1      -5.741  35.751  26.679  1.00  0.00     0.015 C 
HETATM   19  C20 UNL     1      -5.009  33.457  26.818  1.00  0.00     0.015 C 
HETATM   20  C21 UNL     1      -5.248  34.489  24.633  1.00  0.00     0.010 C 
HETATM   21  C22 UNL     1      -4.361  34.821  23.505  1.00  0.00     0.020 C 
HETATM   22  C23 UNL     1      -2.994  35.316  23.766  1.00  0.00     0.045 C 
HETATM   23  C33 UNL     1      -2.120  34.938  22.588  1.00  0.00     0.020 C 
HETATM   24  C34 UNL     1      -1.563  33.558  22.645  1.00  0.00     0.011 C 
HETATM   25  C35 UNL     1      -0.912  33.215  23.969  1.00  0.00    -0.032 C 
HETATM   26  C36 UNL     1       0.221  34.216  24.140  1.00  0.00     0.016 C 
HETATM   27  C37 UNL     1      -0.837  27.668  22.909  1.00  0.00    -0.017 C 
HETATM   28  C38 UNL     1       0.208  27.232  21.902  1.00  0.00     0.018 C 
HETATM   29  C39 UNL     1      -1.069  26.450  23.764  1.00  0.00     0.018 C 
ENDROOT
BRANCH  22  30
HETATM   30  C24 UNL     1      -2.993  36.829  23.720  1.00  0.00     0.230 C 
HETATM   31  O3  UNL     1      -4.058  37.376  23.270  1.00  0.00    -0.272 OA
HETATM   32  N1  UNL     1      -1.949  37.652  24.119  1.00  0.00    -0.336 N 
ATOM     33  H1  UNL     1      -1.152  37.126  24.478  1.00  0.00     0.168 HD
BRANCH  32  34
HETATM   34  C25 UNL     1      -1.733  39.030  24.146  1.00  0.00     0.099 C 
BRANCH  34  35
HETATM   35  C26 UNL     1      -1.379  39.808  22.923  1.00  0.00    -0.031 C 
HETATM   36  C27 UNL     1      -2.482  40.331  22.098  1.00  0.00     0.051 C 
BRANCH  35  37
HETATM   37  C28 UNL     1      -0.251  39.176  22.163  1.00  0.00     0.096 C 
BRANCH  37  38
HETATM   38  N2  UNL     1       1.003  39.697  22.317  1.00  0.00    -0.361 N 
HETATM   39  C29 UNL     1       1.939  39.468  23.295  1.00  0.00     0.151 C 
HETATM   40  C30 UNL     1       3.334  39.521  22.626  1.00  0.00     0.122 C 
HETATM   41  C31 UNL     1       3.081  40.253  21.335  1.00  0.00     0.082 C 
HETATM   42  C32 UNL     1       1.584  40.447  21.227  1.00  0.00     0.221 C 
BRANCH  40  43
HETATM   43  N3  UNL     1       4.241  40.233  23.497  1.00  0.00    -0.316 N 
ATOM     44  H3  UNL     1       3.942  41.045  24.037  1.00  0.00     0.182 HD
BRANCH  43  45
HETATM   45  N4  UNL     1       5.401  39.807  23.552  1.00  0.00    -0.253 N 
HETATM   46  N5  UNL     1       6.609  39.750  23.859  1.00  0.00    -0.331 N 
ATOM     47  H52 UNL     1       6.642  40.604  24.417  1.00  0.00     0.178 HD
ATOM     48  H51 UNL     1       7.566  39.399  23.905  1.00  0.00     0.178 HD
ATOM     49  H4  UNL     1       5.316  38.964  22.985  1.00  0.00     0.207 HD
ENDBRANCH  43  45
ENDBRANCH  40  43
BRANCH  42  50
HETATM   50  O4  UNL     1       1.178  39.855  20.034  1.00  0.00    -0.377 OA
ATOM     51  H4  UNL     1       1.633  39.026  19.948  1.00  0.00     0.212 HD
ENDBRANCH  42  50
ENDBRANCH  37  38
ENDBRANCH  35  37
ENDBRANCH  34  35
ENDBRANCH  32  34
ENDBRANCH  22  30
BRANCH   3  52
HETATM   52  O2  UNL     1      -3.497  29.070  25.384  1.00  0.00    -0.395 OA
ATOM     53  H2  UNL     1      -4.369  29.355  25.134  1.00  0.00     0.210 HD
ENDBRANCH   3  52
BRANCH   1  54
HETATM   54  O1  UNL     1      -2.595  26.927  21.548  1.00  0.00    -0.390 OA
HETATM   55  C1  UNL     1      -3.912  26.674  21.818  1.00  0.00     0.202 C 
ENDBRANCH   1  54
TORSDOF 10
ENDMDL
