MODEL 1
REMARK VINA RESULT: -6.489220101      0.000      0.000
REMARK  11 active torsions:
REMARK  status: ('A' for Active; 'I' for Inactive)
REMARK    1  A    between atoms: C3_3  and  C4_4 
REMARK    2  A    between atoms: C4_4  and  O1_5 
REMARK    3  A    between atoms: C5_7  and  O2_8 
REMARK    4  A    between atoms: O2_8  and  S1_9 
REMARK    5  A    between atoms: S1_9  and  C6_12 
REMARK    6  A    between atoms: C23_29  and  C24_30 
REMARK       I    between atoms: C24_30  and  N1_32 
REMARK    7  A    between atoms: N1_32  and  C25_34 
REMARK    8  A    between atoms: C25_34  and  C26_35 
REMARK    9  A    between atoms: C26_35  and  C27_36 
REMARK   10  A    between atoms: C27_36  and  C28_37 
REMARK   11  A    between atoms: C36_45  and  O6_46 
ROOT
HETATM    1  C1  UNL     1       8.112  77.605   0.443  1.00  0.00     0.112 C 
HETATM    2  C2  UNL     1       9.404  77.807   1.101  1.00  0.00    -0.108 C 
HETATM    3  C3  UNL     1      10.483  77.966   1.629  1.00  0.00    -0.065 C 
ENDROOT
BRANCH   3   4
HETATM    4  C4  UNL     1      11.805  78.190   2.277  1.00  0.00     0.156 C 
HETATM    5  C5  UNL     1      12.879  77.834   1.312  1.00  0.00     0.190 C 
HETATM    6  C10 UNL     1      14.178  77.997   2.123  1.00  0.00     0.038 C 
HETATM    7  C11 UNL     1      14.164  76.766   2.995  1.00  0.00     0.013 C 
HETATM    8  C12 UNL     1      13.052  76.820   4.047  1.00  0.00    -0.028 C 
HETATM    9  C13 UNL     1      13.756  77.652   5.123  1.00  0.00     0.016 C 
HETATM   10  C14 UNL     1      12.848  75.385   4.479  1.00  0.00     0.006 C 
HETATM   11  C38 UNL     1      11.846  77.562   3.634  1.00  0.00     0.011 C 
HETATM   12  C15 UNL     1      12.745  74.467   3.321  1.00  0.00     0.007 C 
HETATM   13  C34 UNL     1      11.788  75.186   5.527  1.00  0.00    -0.006 C 
HETATM   14  C16 UNL     1      11.767  73.340   3.418  1.00  0.00     0.006 C 
HETATM   15  C17 UNL     1      11.860  72.745   4.778  1.00  0.00     0.000 C 
HETATM   16  C18 UNL     1      11.014  71.509   4.791  1.00  0.00     0.012 C 
HETATM   17  C32 UNL     1      11.660  73.694   5.895  1.00  0.00    -0.030 C 
HETATM   18  C19 UNL     1      11.546  70.406   5.669  1.00  0.00    -0.013 C 
HETATM   19  C23 UNL     1       9.591  71.662   5.138  1.00  0.00     0.045 C 
HETATM   20  C20 UNL     1      12.768  69.734   5.087  1.00  0.00     0.010 C 
HETATM   21  C21 UNL     1      10.416  69.397   5.539  1.00  0.00     0.006 C 
HETATM   22  C22 UNL     1       9.212  70.265   5.648  1.00  0.00     0.020 C 
HETATM   23  C30 UNL     1       9.301  72.706   6.165  1.00  0.00     0.020 C 
HETATM   24  C31 UNL     1      10.439  73.444   6.733  1.00  0.00     0.011 C 
HETATM   25  C33 UNL     1      12.851  73.431   6.854  1.00  0.00     0.016 C 
HETATM   26  C35 UNL     1      12.100  75.816   6.859  1.00  0.00     0.019 C 
HETATM   27  C36 UNL     1      10.558  75.829   5.011  1.00  0.00     0.128 C 
HETATM   28  C37 UNL     1      10.636  76.680   3.799  1.00  0.00     0.046 C 
HETATM   29  C39 UNL     1      11.574  78.777   4.552  1.00  0.00     0.020 C 
BRANCH   4  30
HETATM   30  O1  UNL     1      11.924  79.614   2.328  1.00  0.00    -0.374 OA
ATOM     31  H1  UNL     1      12.862  79.761   2.365  1.00  0.00     0.212 HD
ENDBRANCH   4  30
BRANCH   5  32
HETATM   32  O2  UNL     1      12.910  78.769   0.290  1.00  0.00    -0.266 OA
BRANCH  32  33
HETATM   33  S1  UNL     1      13.130  78.105  -1.221  1.00  0.00     0.273 S 
HETATM   34  O3  UNL     1      13.226  76.613  -1.080  1.00  0.00    -0.198 OA
HETATM   35  O4  UNL     1      14.370  78.598  -1.904  1.00  0.00    -0.198 OA
BRANCH  33  36
HETATM   36  C6  UNL     1      11.751  78.437  -2.293  1.00  0.00     0.078 C 
HETATM   37  C7  UNL     1      10.764  77.276  -2.287  1.00  0.00     0.033 C 
HETATM   38  C8  UNL     1      12.180  78.727  -3.708  1.00  0.00     0.033 C 
HETATM   39  C9  UNL     1      10.994  79.641  -1.782  1.00  0.00     0.033 C 
ENDBRANCH  33  36
ENDBRANCH  32  33
ENDBRANCH   5  32
BRANCH  19  40
HETATM   40  C24 UNL     1       8.738  71.880   3.936  1.00  0.00     0.226 C 
HETATM   41  O5  UNL     1       8.516  73.042   3.510  1.00  0.00    -0.273 OA
HETATM   42  N1  UNL     1       8.125  70.830   3.198  1.00  0.00    -0.360 N 
ATOM     43  H1  UNL     1       8.282  69.873   3.513  1.00  0.00     0.162 HD
BRANCH  42  44
HETATM   44  C25 UNL     1       7.307  71.026   2.050  1.00  0.00     0.122 C 
BRANCH  44  45
HETATM   45  C26 UNL     1       8.023  70.495   0.829  1.00  0.00     0.020 C 
BRANCH  45  46
HETATM   46  C27 UNL     1       9.272  69.726   1.192  1.00  0.00     0.001 C 
BRANCH  46  47
HETATM   47  C28 UNL     1      10.451  70.625   0.817  1.00  0.00    -0.004 C 
HETATM   48  C29 UNL     1      11.709  70.100   1.466  1.00  0.00     0.005 C 
ENDBRANCH  46  47
ENDBRANCH  45  46
ENDBRANCH  44  45
ENDBRANCH  42  44
ENDBRANCH  19  40
BRANCH  27  49
HETATM   49  O6  UNL     1       9.833  76.550   5.996  1.00  0.00    -0.395 OA
ATOM     50  H6  UNL     1       9.334  75.998   6.587  1.00  0.00     0.210 HD
ENDBRANCH  27  49
ENDBRANCH   3   4
TORSDOF 11
ENDMDL
MODEL 2
REMARK VINA RESULT: -6.429314400      3.306      6.863
REMARK  11 active torsions:
REMARK  status: ('A' for Active; 'I' for Inactive)
REMARK    1  A    between atoms: C3_3  and  C4_4 
REMARK    2  A    between atoms: C4_4  and  O1_5 
REMARK    3  A    between atoms: C5_7  and  O2_8 
REMARK    4  A    between atoms: O2_8  and  S1_9 
REMARK    5  A    between atoms: S1_9  and  C6_12 
REMARK    6  A    between atoms: C23_29  and  C24_30 
REMARK       I    between atoms: C24_30  and  N1_32 
REMARK    7  A    between atoms: N1_32  and  C25_34 
REMARK    8  A    between atoms: C25_34  and  C26_35 
REMARK    9  A    between atoms: C26_35  and  C27_36 
REMARK   10  A    between atoms: C27_36  and  C28_37 
REMARK   11  A    between atoms: C36_45  and  O6_46 
ROOT
HETATM    1  C1  UNL     1      12.582  75.417   5.999  1.00  0.00     0.112 C 
HETATM    2  C2  UNL     1      11.912  74.496   5.078  1.00  0.00    -0.108 C 
HETATM    3  C3  UNL     1      11.356  73.722   4.330  1.00  0.00    -0.065 C 
ENDROOT
BRANCH   3   4
HETATM    4  C4  UNL     1      10.651  72.788   3.409  1.00  0.00     0.156 C 
HETATM    5  C5  UNL     1       9.368  73.410   2.986  1.00  0.00     0.190 C 
HETATM    6  C10 UNL     1       8.686  72.319   2.139  1.00  0.00     0.038 C 
HETATM    7  C11 UNL     1       8.199  71.357   3.194  1.00  0.00     0.013 C 
HETATM    8  C12 UNL     1       9.356  70.631   3.888  1.00  0.00    -0.028 C 
HETATM    9  C13 UNL     1       9.593  69.503   2.879  1.00  0.00     0.016 C 
HETATM   10  C14 UNL     1       8.777  70.119   5.188  1.00  0.00     0.006 C 
HETATM   11  C38 UNL     1      10.605  71.408   3.983  1.00  0.00     0.011 C 
HETATM   12  C15 UNL     1       8.009  71.165   5.902  1.00  0.00     0.007 C 
HETATM   13  C34 UNL     1       9.743  69.357   6.053  1.00  0.00    -0.006 C 
HETATM   14  C16 UNL     1       8.114  71.202   7.393  1.00  0.00     0.006 C 
HETATM   15  C17 UNL     1       8.050  69.809   7.910  1.00  0.00     0.000 C 
HETATM   16  C18 UNL     1       7.968  69.882   9.404  1.00  0.00     0.012 C 
HETATM   17  C32 UNL     1       9.056  68.882   7.348  1.00  0.00    -0.030 C 
HETATM   18  C19 UNL     1       7.142  68.790  10.031  1.00  0.00    -0.013 C 
HETATM   19  C23 UNL     1       9.235  69.923  10.153  1.00  0.00     0.045 C 
HETATM   20  C20 UNL     1       5.659  68.973   9.801  1.00  0.00     0.010 C 
HETATM   21  C21 UNL     1       7.373  69.096  11.503  1.00  0.00     0.006 C 
HETATM   22  C22 UNL     1       8.833  69.385  11.533  1.00  0.00     0.020 C 
HETATM   23  C30 UNL     1      10.343  69.116   9.563  1.00  0.00     0.020 C 
HETATM   24  C31 UNL     1      10.061  68.357   8.335  1.00  0.00     0.011 C 
HETATM   25  C33 UNL     1       8.245  67.632   6.917  1.00  0.00     0.016 C 
HETATM   26  C35 UNL     1      10.228  68.062   5.456  1.00  0.00     0.019 C 
HETATM   27  C36 UNL     1      10.925  70.229   6.234  1.00  0.00     0.128 C 
HETATM   28  C37 UNL     1      11.050  71.463   5.421  1.00  0.00     0.046 C 
HETATM   29  C39 UNL     1      11.771  70.719   3.237  1.00  0.00     0.020 C 
BRANCH   4  30
HETATM   30  O1  UNL     1      11.414  72.856   2.202  1.00  0.00    -0.374 OA
ATOM     31  H1  UNL     1      11.097  72.120   1.692  1.00  0.00     0.212 HD
ENDBRANCH   4  30
BRANCH   5  32
HETATM   32  O2  UNL     1       9.628  74.481   2.147  1.00  0.00    -0.266 OA
BRANCH  32  33
HETATM   33  S1  UNL     1       8.967  75.919   2.670  1.00  0.00     0.273 S 
HETATM   34  O3  UNL     1       8.491  75.742   4.083  1.00  0.00    -0.198 OA
HETATM   35  O4  UNL     1       7.809  76.371   1.832  1.00  0.00    -0.198 OA
BRANCH  33  36
HETATM   36  C6  UNL     1      10.170  77.228   2.686  1.00  0.00     0.078 C 
HETATM   37  C7  UNL     1      11.504  76.750   2.125  1.00  0.00     0.033 C 
HETATM   38  C8  UNL     1      10.378  77.799   4.064  1.00  0.00     0.033 C 
HETATM   39  C9  UNL     1       9.707  78.349   1.784  1.00  0.00     0.033 C 
ENDBRANCH  33  36
ENDBRANCH  32  33
ENDBRANCH   5  32
BRANCH  19  40
HETATM   40  C24 UNL     1       9.699  71.317  10.402  1.00  0.00     0.226 C 
HETATM   41  O5  UNL     1       8.878  72.223  10.690  1.00  0.00    -0.273 OA
HETATM   42  N1  UNL     1      11.060  71.723  10.334  1.00  0.00    -0.360 N 
ATOM     43  H1  UNL     1      11.757  71.014  10.103  1.00  0.00     0.162 HD
BRANCH  42  44
HETATM   44  C25 UNL     1      11.515  73.051  10.568  1.00  0.00     0.122 C 
BRANCH  44  45
HETATM   45  C26 UNL     1      12.217  73.564   9.332  1.00  0.00     0.020 C 
BRANCH  45  46
HETATM   46  C27 UNL     1      12.690  72.441   8.438  1.00  0.00     0.001 C 
BRANCH  46  47
HETATM   47  C28 UNL     1      14.112  72.803   8.012  1.00  0.00    -0.004 C 
HETATM   48  C29 UNL     1      14.474  72.035   6.763  1.00  0.00     0.005 C 
ENDBRANCH  46  47
ENDBRANCH  45  46
ENDBRANCH  44  45
ENDBRANCH  42  44
ENDBRANCH  19  40
BRANCH  27  49
HETATM   49  O6  UNL     1      12.164  69.539   6.158  1.00  0.00    -0.395 OA
ATOM     50  H6  UNL     1      12.425  69.129   6.974  1.00  0.00     0.210 HD
ENDBRANCH  27  49
ENDBRANCH   3   4
TORSDOF 11
ENDMDL
MODEL 3
REMARK VINA RESULT: -6.392882527      3.659      7.795
REMARK  11 active torsions:
REMARK  status: ('A' for Active; 'I' for Inactive)
REMARK    1  A    between atoms: C3_3  and  C4_4 
REMARK    2  A    between atoms: C4_4  and  O1_5 
REMARK    3  A    between atoms: C5_7  and  O2_8 
REMARK    4  A    between atoms: O2_8  and  S1_9 
REMARK    5  A    between atoms: S1_9  and  C6_12 
REMARK    6  A    between atoms: C23_29  and  C24_30 
REMARK       I    between atoms: C24_30  and  N1_32 
REMARK    7  A    between atoms: N1_32  and  C25_34 
REMARK    8  A    between atoms: C25_34  and  C26_35 
REMARK    9  A    between atoms: C26_35  and  C27_36 
REMARK   10  A    between atoms: C27_36  and  C28_37 
REMARK   11  A    between atoms: C36_45  and  O6_46 
ROOT
HETATM    1  C1  UNL     1      15.108  71.731   7.167  1.00  0.00     0.112 C 
HETATM    2  C2  UNL     1      14.248  72.893   7.399  1.00  0.00    -0.108 C 
HETATM    3  C3  UNL     1      13.548  73.860   7.605  1.00  0.00    -0.065 C 
ENDROOT
BRANCH   3   4
HETATM    4  C4  UNL     1      12.694  75.059   7.831  1.00  0.00     0.156 C 
HETATM    5  C5  UNL     1      11.824  74.812   9.013  1.00  0.00     0.190 C 
HETATM    6  C10 UNL     1      10.921  76.058   9.078  1.00  0.00     0.038 C 
HETATM    7  C11 UNL     1       9.948  75.804   7.953  1.00  0.00     0.013 C 
HETATM    8  C12 UNL     1      10.621  75.895   6.580  1.00  0.00    -0.028 C 
HETATM    9  C13 UNL     1      10.568  77.411   6.368  1.00  0.00     0.016 C 
HETATM   10  C14 UNL     1       9.696  75.156   5.638  1.00  0.00     0.006 C 
HETATM   11  C38 UNL     1      12.041  75.496   6.560  1.00  0.00     0.011 C 
HETATM   12  C15 UNL     1       9.281  73.844   6.187  1.00  0.00     0.007 C 
HETATM   13  C34 UNL     1      10.155  75.115   4.206  1.00  0.00    -0.006 C 
HETATM   14  C16 UNL     1       9.159  72.702   5.229  1.00  0.00     0.006 C 
HETATM   15  C17 UNL     1       8.492  73.189   3.991  1.00  0.00     0.000 C 
HETATM   16  C18 UNL     1       8.213  71.997   3.128  1.00  0.00     0.012 C 
HETATM   17  C32 UNL     1       9.147  74.340   3.335  1.00  0.00    -0.030 C 
HETATM   18  C19 UNL     1       6.948  72.104   2.317  1.00  0.00    -0.013 C 
HETATM   19  C23 UNL     1       9.268  71.571   2.193  1.00  0.00     0.045 C 
HETATM   20  C20 UNL     1       5.701  71.963   3.159  1.00  0.00     0.010 C 
HETATM   21  C21 UNL     1       7.046  70.823   1.504  1.00  0.00     0.006 C 
HETATM   22  C22 UNL     1       8.482  70.813   1.115  1.00  0.00     0.020 C 
HETATM   23  C30 UNL     1      10.065  72.683   1.595  1.00  0.00     0.020 C 
HETATM   24  C31 UNL     1       9.712  74.060   1.970  1.00  0.00     0.011 C 
HETATM   25  C33 UNL     1       8.001  75.355   3.081  1.00  0.00     0.016 C 
HETATM   26  C35 UNL     1      10.200  76.457   3.526  1.00  0.00     0.019 C 
HETATM   27  C36 UNL     1      11.536  74.581   4.221  1.00  0.00     0.128 C 
HETATM   28  C37 UNL     1      12.244  74.429   5.516  1.00  0.00     0.046 C 
HETATM   29  C39 UNL     1      12.960  76.659   6.117  1.00  0.00     0.020 C 
BRANCH   4  30
HETATM   30  O1  UNL     1      13.603  76.035   8.345  1.00  0.00    -0.374 OA
ATOM     31  H1  UNL     1      13.279  76.856   7.993  1.00  0.00     0.212 HD
ENDBRANCH   4  30
BRANCH   5  32
HETATM   32  O2  UNL     1      12.597  74.802  10.162  1.00  0.00    -0.266 OA
BRANCH  32  33
HETATM   33  S1  UNL     1      12.364  73.457  11.116  1.00  0.00     0.273 S 
HETATM   34  O3  UNL     1      13.600  73.231  11.938  1.00  0.00    -0.198 OA
HETATM   35  O4  UNL     1      12.087  72.216  10.322  1.00  0.00    -0.198 OA
BRANCH  33  36
HETATM   36  C6  UNL     1      11.018  73.684  12.256  1.00  0.00     0.078 C 
HETATM   37  C7  UNL     1       9.696  73.258  11.629  1.00  0.00     0.033 C 
HETATM   38  C8  UNL     1      10.911  75.105  12.742  1.00  0.00     0.033 C 
HETATM   39  C9  UNL     1      11.222  72.794  13.461  1.00  0.00     0.033 C 
ENDBRANCH  33  36
ENDBRANCH  32  33
ENDBRANCH   5  32
BRANCH  19  40
HETATM   40  C24 UNL     1      10.180  70.558   2.793  1.00  0.00     0.226 C 
HETATM   41  O5  UNL     1       9.824  69.357   2.896  1.00  0.00    -0.273 OA
HETATM   42  N1  UNL     1      11.481  70.855   3.284  1.00  0.00    -0.360 N 
ATOM     43  H1  UNL     1      11.806  71.820   3.218  1.00  0.00     0.162 HD
BRANCH  42  44
HETATM   44  C25 UNL     1      12.361  69.897   3.861  1.00  0.00     0.122 C 
BRANCH  44  45
HETATM   45  C26 UNL     1      12.486  70.161   5.343  1.00  0.00     0.020 C 
BRANCH  45  46
HETATM   46  C27 UNL     1      11.235  69.776   6.098  1.00  0.00     0.001 C 
BRANCH  46  47
HETATM   47  C28 UNL     1      11.129  70.746   7.274  1.00  0.00    -0.004 C 
HETATM   48  C29 UNL     1       9.961  70.353   8.147  1.00  0.00     0.005 C 
ENDBRANCH  46  47
ENDBRANCH  45  46
ENDBRANCH  44  45
ENDBRANCH  42  44
ENDBRANCH  19  40
BRANCH  27  49
HETATM   49  O6  UNL     1      12.417  75.244   3.327  1.00  0.00    -0.395 OA
ATOM     50  H6  UNL     1      12.092  75.295   2.436  1.00  0.00     0.210 HD
ENDBRANCH  27  49
ENDBRANCH   3   4
TORSDOF 11
ENDMDL
MODEL 4
REMARK VINA RESULT: -6.270432531      3.502      8.537
REMARK  11 active torsions:
REMARK  status: ('A' for Active; 'I' for Inactive)
REMARK    1  A    between atoms: C3_3  and  C4_4 
REMARK    2  A    between atoms: C4_4  and  O1_5 
REMARK    3  A    between atoms: C5_7  and  O2_8 
REMARK    4  A    between atoms: O2_8  and  S1_9 
REMARK    5  A    between atoms: S1_9  and  C6_12 
REMARK    6  A    between atoms: C23_29  and  C24_30 
REMARK       I    between atoms: C24_30  and  N1_32 
REMARK    7  A    between atoms: N1_32  and  C25_34 
REMARK    8  A    between atoms: C25_34  and  C26_35 
REMARK    9  A    between atoms: C26_35  and  C27_36 
REMARK   10  A    between atoms: C27_36  and  C28_37 
REMARK   11  A    between atoms: C36_45  and  O6_46 
ROOT
HETATM    1  C1  UNL     1       8.106  73.899   8.293  1.00  0.00     0.112 C 
HETATM    2  C2  UNL     1       8.487  73.280   7.021  1.00  0.00    -0.108 C 
HETATM    3  C3  UNL     1       8.807  72.785   5.963  1.00  0.00    -0.065 C 
ENDROOT
BRANCH   3   4
HETATM    4  C4  UNL     1       9.222  72.164   4.675  1.00  0.00     0.156 C 
HETATM    5  C5  UNL     1      10.261  71.136   4.950  1.00  0.00     0.190 C 
HETATM    6  C10 UNL     1      10.686  70.651   3.552  1.00  0.00     0.038 C 
HETATM    7  C11 UNL     1      11.543  71.794   3.067  1.00  0.00     0.013 C 
HETATM    8  C12 UNL     1      10.718  73.056   2.795  1.00  0.00    -0.028 C 
HETATM    9  C13 UNL     1      10.225  72.741   1.380  1.00  0.00     0.016 C 
HETATM   10  C14 UNL     1      11.717  74.191   2.811  1.00  0.00     0.006 C 
HETATM   11  C38 UNL     1       9.528  73.212   3.652  1.00  0.00     0.011 C 
HETATM   12  C15 UNL     1      12.619  74.119   3.985  1.00  0.00     0.007 C 
HETATM   13  C34 UNL     1      11.129  75.553   2.560  1.00  0.00    -0.006 C 
HETATM   14  C16 UNL     1      13.004  75.407   4.639  1.00  0.00     0.006 C 
HETATM   15  C17 UNL     1      13.310  76.406   3.579  1.00  0.00     0.000 C 
HETATM   16  C18 UNL     1      13.872  77.621   4.250  1.00  0.00     0.012 C 
HETATM   17  C32 UNL     1      12.227  76.634   2.598  1.00  0.00    -0.030 C 
HETATM   18  C19 UNL     1      14.916  78.346   3.442  1.00  0.00    -0.013 C 
HETATM   19  C23 UNL     1      12.919  78.647   4.709  1.00  0.00     0.045 C 
HETATM   20  C20 UNL     1      16.229  77.601   3.380  1.00  0.00     0.010 C 
HETATM   21  C21 UNL     1      15.162  79.546   4.343  1.00  0.00     0.006 C 
HETATM   22  C22 UNL     1      13.779  79.918   4.748  1.00  0.00     0.020 C 
HETATM   23  C30 UNL     1      11.724  78.834   3.833  1.00  0.00     0.020 C 
HETATM   24  C31 UNL     1      11.631  78.013   2.616  1.00  0.00     0.011 C 
HETATM   25  C33 UNL     1      12.920  76.527   1.214  1.00  0.00     0.016 C 
HETATM   26  C35 UNL     1      10.547  75.738   1.184  1.00  0.00     0.019 C 
HETATM   27  C36 UNL     1      10.026  75.722   3.533  1.00  0.00     0.128 C 
HETATM   28  C37 UNL     1       9.576  74.555   4.331  1.00  0.00     0.046 C 
HETATM   29  C39 UNL     1       8.221  73.236   2.825  1.00  0.00     0.020 C 
BRANCH   4  30
HETATM   30  O1  UNL     1       8.104  71.352   4.310  1.00  0.00    -0.374 OA
ATOM     31  H1  UNL     1       8.353  70.481   4.598  1.00  0.00     0.212 HD
ENDBRANCH   4  30
BRANCH   5  32
HETATM   32  O2  UNL     1       9.683  70.059   5.603  1.00  0.00    -0.266 OA
BRANCH  32  33
HETATM   33  S1  UNL     1      10.572  69.503   6.898  1.00  0.00     0.273 S 
HETATM   34  O3  UNL     1      11.816  70.335   7.018  1.00  0.00    -0.198 OA
HETATM   35  O4  UNL     1      10.973  68.066   6.759  1.00  0.00    -0.198 OA
BRANCH  33  36
HETATM   36  C6  UNL     1       9.683  69.675   8.428  1.00  0.00     0.078 C 
HETATM   37  C7  UNL     1       8.188  69.830   8.175  1.00  0.00     0.033 C 
HETATM   38  C8  UNL     1      10.178  70.833   9.253  1.00  0.00     0.033 C 
HETATM   39  C9  UNL     1       9.845  68.416   9.249  1.00  0.00     0.033 C 
ENDBRANCH  33  36
ENDBRANCH  32  33
ENDBRANCH   5  32
BRANCH  19  40
HETATM   40  C24 UNL     1      12.488  78.427   6.117  1.00  0.00     0.226 C 
HETATM   41  O5  UNL     1      11.381  78.862   6.523  1.00  0.00    -0.273 OA
HETATM   42  N1  UNL     1      13.265  77.732   7.084  1.00  0.00    -0.360 N 
ATOM     43  H1  UNL     1      14.170  77.363   6.792  1.00  0.00     0.162 HD
BRANCH  42  44
HETATM   44  C25 UNL     1      12.864  77.517   8.433  1.00  0.00     0.122 C 
BRANCH  44  45
HETATM   45  C26 UNL     1      12.845  76.033   8.719  1.00  0.00     0.020 C 
BRANCH  45  46
HETATM   46  C27 UNL     1      11.644  75.351   8.106  1.00  0.00     0.001 C 
BRANCH  46  47
HETATM   47  C28 UNL     1      12.070  73.912   7.817  1.00  0.00    -0.004 C 
HETATM   48  C29 UNL     1      13.507  73.718   8.241  1.00  0.00     0.005 C 
ENDBRANCH  46  47
ENDBRANCH  45  46
ENDBRANCH  44  45
ENDBRANCH  42  44
ENDBRANCH  19  40
BRANCH  27  49
HETATM   49  O6  UNL     1       8.870  76.339   2.986  1.00  0.00    -0.395 OA
ATOM     50  H6  UNL     1       8.091  76.235   3.519  1.00  0.00     0.210 HD
ENDBRANCH  27  49
ENDBRANCH   3   4
TORSDOF 11
ENDMDL
MODEL 5
REMARK VINA RESULT: -6.252105546      1.586      2.086
REMARK  11 active torsions:
REMARK  status: ('A' for Active; 'I' for Inactive)
REMARK    1  A    between atoms: C3_3  and  C4_4 
REMARK    2  A    between atoms: C4_4  and  O1_5 
REMARK    3  A    between atoms: C5_7  and  O2_8 
REMARK    4  A    between atoms: O2_8  and  S1_9 
REMARK    5  A    between atoms: S1_9  and  C6_12 
REMARK    6  A    between atoms: C23_29  and  C24_30 
REMARK       I    between atoms: C24_30  and  N1_32 
REMARK    7  A    between atoms: N1_32  and  C25_34 
REMARK    8  A    between atoms: C25_34  and  C26_35 
REMARK    9  A    between atoms: C26_35  and  C27_36 
REMARK   10  A    between atoms: C27_36  and  C28_37 
REMARK   11  A    between atoms: C36_45  and  O6_46 
ROOT
HETATM    1  C1  UNL     1       9.613  77.226  -0.849  1.00  0.00     0.112 C 
HETATM    2  C2  UNL     1      10.415  77.878   0.189  1.00  0.00    -0.108 C 
HETATM    3  C3  UNL     1      11.090  78.424   1.034  1.00  0.00    -0.065 C 
ENDROOT
BRANCH   3   4
HETATM    4  C4  UNL     1      11.898  79.113   2.078  1.00  0.00     0.156 C 
HETATM    5  C5  UNL     1      13.322  79.128   1.649  1.00  0.00     0.190 C 
HETATM    6  C10 UNL     1      14.065  79.756   2.844  1.00  0.00     0.038 C 
HETATM    7  C11 UNL     1      14.082  78.622   3.838  1.00  0.00     0.013 C 
HETATM    8  C12 UNL     1      12.683  78.313   4.381  1.00  0.00    -0.028 C 
HETATM    9  C13 UNL     1      12.598  79.367   5.489  1.00  0.00     0.016 C 
HETATM   10  C14 UNL     1      12.777  76.909   4.937  1.00  0.00     0.006 C 
HETATM   11  C38 UNL     1      11.581  78.576   3.437  1.00  0.00     0.011 C 
HETATM   12  C15 UNL     1      13.438  75.982   3.990  1.00  0.00     0.007 C 
HETATM   13  C34 UNL     1      11.502  76.382   5.538  1.00  0.00    -0.006 C 
HETATM   14  C16 UNL     1      12.905  74.588   3.903  1.00  0.00     0.006 C 
HETATM   15  C17 UNL     1      12.620  74.100   5.280  1.00  0.00     0.000 C 
HETATM   16  C18 UNL     1      12.269  72.647   5.183  1.00  0.00     0.012 C 
HETATM   17  C32 UNL     1      11.705  74.950   6.072  1.00  0.00    -0.030 C 
HETATM   18  C19 UNL     1      12.714  71.824   6.363  1.00  0.00    -0.013 C 
HETATM   19  C23 UNL     1      10.855  72.304   4.949  1.00  0.00     0.045 C 
HETATM   20  C20 UNL     1      14.209  71.605   6.392  1.00  0.00     0.010 C 
HETATM   21  C21 UNL     1      12.105  70.481   5.993  1.00  0.00     0.006 C 
HETATM   22  C22 UNL     1      10.755  70.877   5.505  1.00  0.00     0.020 C 
HETATM   23  C30 UNL     1       9.869  73.209   5.610  1.00  0.00     0.020 C 
HETATM   24  C31 UNL     1      10.392  74.313   6.429  1.00  0.00     0.011 C 
HETATM   25  C33 UNL     1      12.426  75.146   7.432  1.00  0.00     0.016 C 
HETATM   26  C35 UNL     1      11.040  77.118   6.767  1.00  0.00     0.019 C 
HETATM   27  C36 UNL     1      10.452  76.541   4.507  1.00  0.00     0.128 C 
HETATM   28  C37 UNL     1      10.745  77.332   3.286  1.00  0.00     0.046 C 
HETATM   29  C39 UNL     1      10.602  79.645   3.976  1.00  0.00     0.020 C 
BRANCH   4  30
HETATM   30  O1  UNL     1      11.541  80.490   1.934  1.00  0.00    -0.374 OA
ATOM     31  H1  UNL     1      12.281  80.869   1.474  1.00  0.00     0.212 HD
ENDBRANCH   4  30
BRANCH   5  32
HETATM   32  O2  UNL     1      13.472  79.987   0.573  1.00  0.00    -0.266 OA
BRANCH  32  33
HETATM   33  S1  UNL     1      14.587  79.467  -0.551  1.00  0.00     0.273 S 
HETATM   34  O3  UNL     1      15.477  78.443   0.095  1.00  0.00    -0.198 OA
HETATM   35  O4  UNL     1      15.446  80.575  -1.080  1.00  0.00    -0.198 OA
BRANCH  33  36
HETATM   36  C6  UNL     1      13.805  78.675  -1.937  1.00  0.00     0.078 C 
HETATM   37  C7  UNL     1      12.530  79.409  -2.335  1.00  0.00     0.033 C 
HETATM   38  C8  UNL     1      13.490  77.227  -1.669  1.00  0.00     0.033 C 
HETATM   39  C9  UNL     1      14.723  78.737  -3.137  1.00  0.00     0.033 C 
ENDBRANCH  33  36
ENDBRANCH  32  33
ENDBRANCH   5  32
BRANCH  19  40
HETATM   40  C24 UNL     1      10.538  72.178   3.500  1.00  0.00     0.226 C 
HETATM   41  O5  UNL     1       9.837  73.045   2.919  1.00  0.00    -0.273 OA
HETATM   42  N1  UNL     1      10.984  71.103   2.681  1.00  0.00    -0.360 N 
ATOM     43  H1  UNL     1      11.555  70.379   3.116  1.00  0.00     0.162 HD
BRANCH  42  44
HETATM   44  C25 UNL     1      10.685  70.971   1.296  1.00  0.00     0.122 C 
BRANCH  44  45
HETATM   45  C26 UNL     1      10.830  69.523   0.889  1.00  0.00     0.020 C 
BRANCH  45  46
HETATM   46  C27 UNL     1      12.162  68.945   1.305  1.00  0.00     0.001 C 
BRANCH  46  47
HETATM   47  C28 UNL     1      12.720  68.227   0.077  1.00  0.00    -0.004 C 
HETATM   48  C29 UNL     1      13.976  67.479   0.458  1.00  0.00     0.005 C 
ENDBRANCH  46  47
ENDBRANCH  45  46
ENDBRANCH  44  45
ENDBRANCH  42  44
ENDBRANCH  19  40
BRANCH  27  49
HETATM   49  O6  UNL     1       9.208  76.991   5.021  1.00  0.00    -0.395 OA
ATOM     50  H6  UNL     1       8.616  76.288   5.262  1.00  0.00     0.210 HD
ENDBRANCH  27  49
ENDBRANCH   3   4
TORSDOF 11
ENDMDL
