MODEL 1
REMARK VINA RESULT: -5.250779752      0.000      0.000
REMARK  4 active torsions:
REMARK  status: ('A' for Active; 'I' for Inactive)
REMARK    1  A    between atoms: C2_3  and  C3_5 
REMARK    2  A    between atoms: C4_8  and  N3_9 
REMARK    3  A    between atoms: N3_9  and  N4_11 
REMARK    4  A    between atoms: C5_16  and  N6_17 
ROOT
HETATM    1  C1  UNL     1       9.568  40.007  14.820  1.00  0.00     0.264 C 
HETATM    2  N1  UNL     1       9.834  38.896  13.996  1.00  0.00    -0.414 NA
HETATM    3  C2  UNL     1      10.089  37.847  13.220  1.00  0.00     0.355 C 
HETATM    4  O1  UNL     1      11.069  37.018  13.319  1.00  0.00    -0.248 OA
ENDROOT
BRANCH   3   5
HETATM    5  C3  UNL     1       9.222  37.487  12.057  1.00  0.00     0.218 A 
HETATM    6  N2  UNL     1       8.133  36.767  12.235  1.00  0.00    -0.167 N 
HETATM    7  C4  UNL     1       7.349  36.416  11.182  1.00  0.00     0.712 A 
ATOM      8  H2  UNL     1       7.875  36.469  13.175  1.00  0.00     0.186 HD
HETATM    9  N5  UNL     1       7.760  36.836   9.991  1.00  0.00    -0.021 N 
HETATM   10  C5  UNL     1       8.891  37.582   9.795  1.00  0.00     0.692 A 
ATOM     11  H5  UNL     1       7.200  36.588   9.175  1.00  0.00     0.203 HD
HETATM   12  N7  UNL     1       9.646  37.923  10.851  1.00  0.00    -0.169 N 
ATOM     13  H7  UNL     1      10.494  38.481  10.748  1.00  0.00     0.186 HD
BRANCH   7  14
HETATM   14  N3  UNL     1       6.255  35.736  11.352  1.00  0.00    -0.138 N 
ATOM     15  H3  UNL     1       6.207  35.080  12.132  1.00  0.00     0.205 HD
BRANCH  14  16
HETATM   16  N4  UNL     1       5.153  35.862  10.525  1.00  0.00    -0.331 N 
ATOM     17  H42 UNL     1       4.372  36.422  10.865  1.00  0.00     0.177 HD
ATOM     18  H41 UNL     1       5.096  35.423   9.606  1.00  0.00     0.177 HD
ENDBRANCH  14  16
ENDBRANCH   7  14
BRANCH  10  19
HETATM   19  N6  UNL     1       9.245  37.957   8.623  1.00  0.00    -0.234 N 
ATOM     20  H62 UNL     1       8.574  37.904   7.857  1.00  0.00     0.174 HD
ATOM     21  H61 UNL     1      10.185  38.311   8.441  1.00  0.00     0.174 HD
ENDBRANCH  10  19
ENDBRANCH   3   5
TORSDOF 3
ENDMDL
MODEL 2
REMARK VINA RESULT: -5.021568762      2.053      3.899
REMARK  4 active torsions:
REMARK  status: ('A' for Active; 'I' for Inactive)
REMARK    1  A    between atoms: C2_3  and  C3_5 
REMARK    2  A    between atoms: C4_8  and  N3_9 
REMARK    3  A    between atoms: N3_9  and  N4_11 
REMARK    4  A    between atoms: C5_16  and  N6_17 
ROOT
HETATM    1  C1  UNL     1       7.480  40.081   7.198  1.00  0.00     0.264 C 
HETATM    2  N1  UNL     1       8.294  39.115   7.820  1.00  0.00    -0.414 NA
HETATM    3  C2  UNL     1       9.066  38.204   8.404  1.00  0.00     0.355 C 
HETATM    4  O1  UNL     1      10.163  37.702   7.955  1.00  0.00    -0.248 OA
ENDROOT
BRANCH   3   5
HETATM    5  C3  UNL     1       8.727  37.604   9.730  1.00  0.00     0.218 A 
HETATM    6  N2  UNL     1       7.604  36.934   9.891  1.00  0.00    -0.167 N 
HETATM    7  C4  UNL     1       7.276  36.402  11.098  1.00  0.00     0.712 A 
ATOM      8  H2  UNL     1       6.972  36.813   9.100  1.00  0.00     0.186 HD
HETATM    9  N5  UNL     1       8.147  36.613  12.077  1.00  0.00    -0.021 N 
HETATM   10  C5  UNL     1       9.315  37.309  11.921  1.00  0.00     0.692 A 
ATOM     11  H5  UNL     1       7.934  36.233  13.000  1.00  0.00     0.203 HD
HETATM   12  N7  UNL     1       9.622  37.819  10.718  1.00  0.00    -0.169 N 
ATOM     13  H7  UNL     1      10.484  38.341  10.559  1.00  0.00     0.186 HD
BRANCH   7  14
HETATM   14  N3  UNL     1       6.188  35.711  11.257  1.00  0.00    -0.138 N 
ATOM     15  H3  UNL     1       6.158  35.015  12.003  1.00  0.00     0.205 HD
BRANCH  14  16
HETATM   16  N4  UNL     1       5.068  35.876  10.462  1.00  0.00    -0.331 N 
ATOM     17  H42 UNL     1       4.974  35.265   9.650  1.00  0.00     0.177 HD
ATOM     18  H41 UNL     1       4.348  36.571  10.655  1.00  0.00     0.177 HD
ENDBRANCH  14  16
ENDBRANCH   7  14
BRANCH  10  19
HETATM   19  N6  UNL     1      10.120  37.488  12.902  1.00  0.00    -0.234 N 
ATOM     20  H62 UNL     1       9.936  37.021  13.790  1.00  0.00     0.174 HD
ATOM     21  H61 UNL     1      10.942  38.085  12.811  1.00  0.00     0.174 HD
ENDBRANCH  10  19
ENDBRANCH   3   5
TORSDOF 3
ENDMDL
MODEL 3
REMARK VINA RESULT: -4.999000540      2.235      3.868
REMARK  4 active torsions:
REMARK  status: ('A' for Active; 'I' for Inactive)
REMARK    1  A    between atoms: C2_3  and  C3_5 
REMARK    2  A    between atoms: C4_8  and  N3_9 
REMARK    3  A    between atoms: N3_9  and  N4_11 
REMARK    4  A    between atoms: C5_16  and  N6_17 
ROOT
HETATM    1  C1  UNL     1      11.624  38.844   7.803  1.00  0.00     0.264 C 
HETATM    2  N1  UNL     1      10.297  38.577   8.189  1.00  0.00    -0.414 NA
HETATM    3  C2  UNL     1       9.043  38.327   8.551  1.00  0.00     0.355 C 
HETATM    4  O1  UNL     1       7.968  38.612   7.901  1.00  0.00    -0.248 OA
ENDROOT
BRANCH   3   5
HETATM    5  C3  UNL     1       8.704  37.656   9.842  1.00  0.00     0.218 A 
HETATM    6  N2  UNL     1       7.581  36.978   9.967  1.00  0.00    -0.167 N 
HETATM    7  C4  UNL     1       7.253  36.381  11.143  1.00  0.00     0.712 A 
ATOM      8  H2  UNL     1       6.949  36.900   9.170  1.00  0.00     0.186 HD
HETATM    9  N5  UNL     1       8.125  36.537  12.132  1.00  0.00    -0.021 N 
HETATM   10  C5  UNL     1       9.293  37.241  12.014  1.00  0.00     0.692 A 
ATOM     11  H5  UNL     1       7.911  36.107  13.032  1.00  0.00     0.203 HD
HETATM   12  N7  UNL     1       9.599  37.817  10.840  1.00  0.00    -0.169 N 
ATOM     13  H7  UNL     1      10.461  38.346  10.710  1.00  0.00     0.186 HD
BRANCH   7  14
HETATM   14  N3  UNL     1       6.165  35.682  11.264  1.00  0.00    -0.138 N 
ATOM     15  H3  UNL     1       6.134  34.950  11.974  1.00  0.00     0.205 HD
BRANCH  14  16
HETATM   16  N4  UNL     1       5.048  35.884  10.473  1.00  0.00    -0.331 N 
ATOM     17  H42 UNL     1       5.200  36.068   9.482  1.00  0.00     0.177 HD
ATOM     18  H41 UNL     1       4.096  35.857  10.840  1.00  0.00     0.177 HD
ENDBRANCH  14  16
ENDBRANCH   7  14
BRANCH  10  19
HETATM   19  N6  UNL     1      10.098  37.366  13.003  1.00  0.00    -0.234 N 
ATOM     20  H62 UNL     1       9.742  37.705  13.896  1.00  0.00     0.174 HD
ATOM     21  H61 UNL     1      11.086  37.129  12.914  1.00  0.00     0.174 HD
ENDBRANCH  10  19
ENDBRANCH   3   5
TORSDOF 3
ENDMDL
MODEL 4
REMARK VINA RESULT: -4.962771861      1.301      1.360
REMARK  4 active torsions:
REMARK  status: ('A' for Active; 'I' for Inactive)
REMARK    1  A    between atoms: C2_3  and  C3_5 
REMARK    2  A    between atoms: C4_8  and  N3_9 
REMARK    3  A    between atoms: N3_9  and  N4_11 
REMARK    4  A    between atoms: C5_16  and  N6_17 
ROOT
HETATM    1  C1  UNL     1      12.249  39.860  12.224  1.00  0.00     0.264 C 
HETATM    2  N1  UNL     1      11.360  38.772  12.312  1.00  0.00    -0.414 NA
HETATM    3  C2  UNL     1      10.522  37.743  12.399  1.00  0.00     0.355 C 
HETATM    4  O1  UNL     1      10.557  36.773  13.244  1.00  0.00    -0.248 OA
ENDROOT
BRANCH   3   5
HETATM    5  C3  UNL     1       9.375  37.568  11.458  1.00  0.00     0.218 A 
HETATM    6  N2  UNL     1       8.398  36.732  11.746  1.00  0.00    -0.167 N 
HETATM    7  C4  UNL     1       7.360  36.551  10.888  1.00  0.00     0.712 A 
ATOM      8  H2  UNL     1       8.421  36.214  12.624  1.00  0.00     0.186 HD
HETATM    9  N5  UNL     1       7.410  37.255   9.764  1.00  0.00    -0.021 N 
HETATM   10  C5  UNL     1       8.421  38.124   9.454  1.00  0.00     0.692 A 
ATOM     11  H5  UNL     1       6.650  37.141   9.092  1.00  0.00     0.203 HD
HETATM   12  N7  UNL     1       9.433  38.293  10.320  1.00  0.00    -0.169 N 
ATOM     13  H7  UNL     1      10.203  38.934  10.128  1.00  0.00     0.186 HD
BRANCH   7  14
HETATM   14  N3  UNL     1       6.375  35.755  11.179  1.00  0.00    -0.138 N 
ATOM     15  H3  UNL     1       6.523  35.039  11.891  1.00  0.00     0.205 HD
BRANCH  14  16
HETATM   16  N4  UNL     1       5.136  35.834  10.569  1.00  0.00    -0.331 N 
ATOM     17  H42 UNL     1       4.321  35.574  11.125  1.00  0.00     0.177 HD
ATOM     18  H41 UNL     1       5.011  36.137   9.604  1.00  0.00     0.177 HD
ENDBRANCH  14  16
ENDBRANCH   7  14
BRANCH  10  19
HETATM   19  N6  UNL     1       8.423  38.776   8.351  1.00  0.00    -0.234 N 
ATOM     20  H62 UNL     1       8.526  38.270   7.472  1.00  0.00     0.174 HD
ATOM     21  H61 UNL     1       8.321  39.791   8.336  1.00  0.00     0.174 HD
ENDBRANCH  10  19
ENDBRANCH   3   5
TORSDOF 3
ENDMDL
MODEL 5
REMARK VINA RESULT: -4.850803117      2.947      4.040
REMARK  4 active torsions:
REMARK  status: ('A' for Active; 'I' for Inactive)
REMARK    1  A    between atoms: C2_3  and  C3_5 
REMARK    2  A    between atoms: C4_8  and  N3_9 
REMARK    3  A    between atoms: N3_9  and  N4_11 
REMARK    4  A    between atoms: C5_16  and  N6_17 
ROOT
HETATM    1  C1  UNL     1      10.439  39.188  10.388  1.00  0.00     0.264 C 
HETATM    2  N1  UNL     1       9.282  38.829   9.671  1.00  0.00    -0.414 NA
HETATM    3  C2  UNL     1       8.191  38.492   8.991  1.00  0.00     0.355 C 
HETATM    4  O1  UNL     1       7.876  38.839   7.791  1.00  0.00    -0.248 OA
ENDROOT
BRANCH   3   5
HETATM    5  C3  UNL     1       7.122  37.627   9.576  1.00  0.00     0.218 A 
HETATM    6  N2  UNL     1       5.903  37.643   9.077  1.00  0.00    -0.167 N 
HETATM    7  C4  UNL     1       4.919  36.876   9.614  1.00  0.00     0.712 A 
ATOM      8  H2  UNL     1       5.695  38.240   8.276  1.00  0.00     0.186 HD
HETATM    9  N5  UNL     1       5.270  36.135  10.659  1.00  0.00    -0.021 N 
HETATM   10  C5  UNL     1       6.532  36.112  11.186  1.00  0.00     0.692 A 
ATOM     11  H5  UNL     1       4.556  35.549  11.093  1.00  0.00     0.203 HD
HETATM   12  N7  UNL     1       7.491  36.874  10.634  1.00  0.00    -0.169 N 
ATOM     13  H7  UNL     1       8.445  36.882  10.995  1.00  0.00     0.186 HD
BRANCH   7  14
HETATM   14  N3  UNL     1       3.723  36.860   9.107  1.00  0.00    -0.138 N 
ATOM     15  H3  UNL     1       2.939  37.134   9.700  1.00  0.00     0.205 HD
BRANCH  14  16
HETATM   16  N4  UNL     1       3.464  36.489   7.799  1.00  0.00    -0.331 N 
ATOM     17  H42 UNL     1       2.569  36.771   7.399  1.00  0.00     0.177 HD
ATOM     18  H41 UNL     1       4.122  35.954   7.234  1.00  0.00     0.177 HD
ENDBRANCH  14  16
ENDBRANCH   7  14
BRANCH  10  19
HETATM   19  N6  UNL     1       6.817  35.383  12.200  1.00  0.00    -0.234 N 
ATOM     20  H62 UNL     1       6.631  34.381  12.162  1.00  0.00     0.174 HD
ATOM     21  H61 UNL     1       7.229  35.783  13.043  1.00  0.00     0.174 HD
ENDBRANCH  10  19
ENDBRANCH   3   5
TORSDOF 3
ENDMDL
