MODEL 1
REMARK VINA RESULT: -4.930614883      0.000      0.000
REMARK  4 active torsions:
REMARK  status: ('A' for Active; 'I' for Inactive)
REMARK    1  A    between atoms: N1_1  and  C1_4 
REMARK    2  A    between atoms: C3_11  and  C4_12 
REMARK       I    between atoms: C4_12  and  N4_14 
REMARK    3  A    between atoms: N4_14  and  N5_16 
REMARK    4  A    between atoms: N6_19  and  N7_20 
ROOT
HETATM    1  C1  UNL     1      10.197  38.195  11.127  1.00  0.00     0.193 A 
HETATM    2  C2  UNL     1      10.635  37.534  12.256  1.00  0.00     0.305 A 
HETATM    3  O1  UNL     1      11.830  37.617  12.667  1.00  0.00    -0.263 OA
HETATM    4  N2  UNL     1       9.723  36.790  12.908  1.00  0.00    -0.262 N 
ATOM      5  H2  UNL     1      10.010  36.287  13.748  1.00  0.00     0.190 HD
HETATM    6  N3  UNL     1       8.467  36.687  12.501  1.00  0.00    -0.276 N 
ATOM      7  H3  UNL     1       7.818  36.109  13.035  1.00  0.00     0.189 HD
HETATM    8  C3  UNL     1       8.022  37.324  11.402  1.00  0.00     0.214 A 
HETATM    9  N6  UNL     1       8.914  38.074  10.733  1.00  0.00    -0.219 N 
ENDROOT
BRANCH   8  10
HETATM   10  C4  UNL     1       6.619  37.206  10.950  1.00  0.00     0.306 C 
HETATM   11  O2  UNL     1       5.983  38.280  10.776  1.00  0.00    -0.262 OA
HETATM   12  N4  UNL     1       6.013  35.956  10.723  1.00  0.00    -0.270 N 
ATOM     13  H4  UNL     1       6.543  35.096  10.868  1.00  0.00     0.189 HD
BRANCH  12  14
HETATM   14  N5  UNL     1       4.697  35.898  10.301  1.00  0.00    -0.342 N 
ATOM     15  H52 UNL     1       4.175  36.766  10.180  1.00  0.00     0.176 HD
ATOM     16  H51 UNL     1       4.264  34.993  10.116  1.00  0.00     0.176 HD
ENDBRANCH  12  14
ENDBRANCH   8  10
BRANCH   9  17
HETATM   17  N7  UNL     1       8.481  38.743   9.594  1.00  0.00    -0.335 N 
ATOM     18  H72 UNL     1       8.544  38.257   8.700  1.00  0.00     0.177 HD
ATOM     19  H71 UNL     1       8.117  39.692   9.678  1.00  0.00     0.177 HD
ENDBRANCH   9  17
BRANCH   1  20
HETATM   20  N1  UNL     1      11.058  38.912  10.490  1.00  0.00    -0.379 N 
ATOM     21  H12 UNL     1      11.596  39.655  10.936  1.00  0.00     0.158 HD
ATOM     22  H11 UNL     1      11.193  38.711   9.499  1.00  0.00     0.158 HD
ENDBRANCH   1  20
TORSDOF 4
ENDMDL
MODEL 2
REMARK VINA RESULT: -4.799016582      2.785      3.770
REMARK  4 active torsions:
REMARK  status: ('A' for Active; 'I' for Inactive)
REMARK    1  A    between atoms: N1_1  and  C1_4 
REMARK    2  A    between atoms: C3_11  and  C4_12 
REMARK       I    between atoms: C4_12  and  N4_14 
REMARK    3  A    between atoms: N4_14  and  N5_16 
REMARK    4  A    between atoms: N6_19  and  N7_20 
ROOT
HETATM    1  C1  UNL     1       7.595  36.883  10.200  1.00  0.00     0.193 A 
HETATM    2  C2  UNL     1       7.537  37.904   9.273  1.00  0.00     0.305 A 
HETATM    3  O1  UNL     1       8.537  38.234   8.569  1.00  0.00    -0.263 OA
HETATM    4  N2  UNL     1       6.357  38.538   9.151  1.00  0.00    -0.262 N 
ATOM      5  H2  UNL     1       6.275  39.299   8.476  1.00  0.00     0.190 HD
HETATM    6  N3  UNL     1       5.296  38.212   9.875  1.00  0.00    -0.276 N 
ATOM      7  H3  UNL     1       4.426  38.727   9.740  1.00  0.00     0.189 HD
HETATM    8  C3  UNL     1       5.334  37.221  10.783  1.00  0.00     0.214 A 
HETATM    9  N6  UNL     1       6.501  36.571  10.924  1.00  0.00    -0.219 N 
ENDROOT
BRANCH   8  10
HETATM   10  C4  UNL     1       4.147  36.860  11.589  1.00  0.00     0.306 C 
HETATM   11  O2  UNL     1       4.141  37.231  12.794  1.00  0.00    -0.262 OA
HETATM   12  N4  UNL     1       3.070  36.137  11.044  1.00  0.00    -0.270 N 
ATOM     13  H4  UNL     1       3.091  35.845  10.067  1.00  0.00     0.189 HD
BRANCH  12  14
HETATM   14  N5  UNL     1       1.982  35.824  11.840  1.00  0.00    -0.342 N 
ATOM     15  H52 UNL     1       1.731  36.448  12.607  1.00  0.00     0.176 HD
ATOM     16  H51 UNL     1       1.446  34.977  11.653  1.00  0.00     0.176 HD
ENDBRANCH  12  14
ENDBRANCH   8  10
BRANCH   9  17
HETATM   17  N7  UNL     1       6.569  35.541  11.855  1.00  0.00    -0.335 N 
ATOM     18  H72 UNL     1       7.136  34.725  11.627  1.00  0.00     0.177 HD
ATOM     19  H71 UNL     1       6.056  35.624  12.733  1.00  0.00     0.177 HD
ENDBRANCH   9  17
BRANCH   1  20
HETATM   20  N1  UNL     1       8.718  36.265  10.329  1.00  0.00    -0.379 N 
ATOM     21  H12 UNL     1       8.933  35.399   9.836  1.00  0.00     0.158 HD
ATOM     22  H11 UNL     1       9.409  36.677  10.957  1.00  0.00     0.158 HD
ENDBRANCH   1  20
TORSDOF 4
ENDMDL
MODEL 3
REMARK VINA RESULT: -4.734292445      2.744      4.418
REMARK  4 active torsions:
REMARK  status: ('A' for Active; 'I' for Inactive)
REMARK    1  A    between atoms: N1_1  and  C1_4 
REMARK    2  A    between atoms: C3_11  and  C4_12 
REMARK       I    between atoms: C4_12  and  N4_14 
REMARK    3  A    between atoms: N4_14  and  N5_16 
REMARK    4  A    between atoms: N6_19  and  N7_20 
ROOT
HETATM    1  C1  UNL     1       6.248  36.506  10.938  1.00  0.00     0.193 A 
HETATM    2  C2  UNL     1       7.350  37.047  10.309  1.00  0.00     0.305 A 
HETATM    3  O1  UNL     1       8.524  36.901  10.760  1.00  0.00    -0.263 OA
HETATM    4  N2  UNL     1       7.117  37.745   9.182  1.00  0.00    -0.262 N 
ATOM      5  H2  UNL     1       7.908  38.161   8.689  1.00  0.00     0.190 HD
HETATM    6  N3  UNL     1       5.899  37.913   8.689  1.00  0.00    -0.276 N 
ATOM      7  H3  UNL     1       5.782  38.451   7.830  1.00  0.00     0.189 HD
HETATM    8  C3  UNL     1       4.812  37.393   9.288  1.00  0.00     0.214 A 
HETATM    9  N6  UNL     1       5.019  36.691  10.415  1.00  0.00    -0.219 N 
ENDROOT
BRANCH   8  10
HETATM   10  C4  UNL     1       3.454  37.582   8.733  1.00  0.00     0.306 C 
HETATM   11  O2  UNL     1       2.786  38.552   9.180  1.00  0.00    -0.262 OA
HETATM   12  N4  UNL     1       2.925  36.724   7.752  1.00  0.00    -0.270 N 
ATOM     13  H4  UNL     1       3.480  35.943   7.401  1.00  0.00     0.189 HD
BRANCH  12  14
HETATM   14  N5  UNL     1       1.649  36.943   7.265  1.00  0.00    -0.342 N 
ATOM     15  H52 UNL     1       0.884  36.352   7.590  1.00  0.00     0.176 HD
ATOM     16  H51 UNL     1       1.488  37.689   6.588  1.00  0.00     0.176 HD
ENDBRANCH  12  14
ENDBRANCH   8  10
BRANCH   9  17
HETATM   17  N7  UNL     1       3.914  36.141  11.054  1.00  0.00    -0.335 N 
ATOM     18  H72 UNL     1       4.056  35.697  11.961  1.00  0.00     0.177 HD
ATOM     19  H71 UNL     1       2.998  36.194  10.608  1.00  0.00     0.177 HD
ENDBRANCH   9  17
BRANCH   1  20
HETATM   20  N1  UNL     1       6.453  35.835  12.018  1.00  0.00    -0.379 N 
ATOM     21  H12 UNL     1       6.944  36.221  12.824  1.00  0.00     0.158 HD
ATOM     22  H11 UNL     1       6.103  34.877  12.048  1.00  0.00     0.158 HD
ENDBRANCH   1  20
TORSDOF 4
ENDMDL
MODEL 4
REMARK VINA RESULT: -4.708730045      1.574      4.474
REMARK  4 active torsions:
REMARK  status: ('A' for Active; 'I' for Inactive)
REMARK    1  A    between atoms: N1_1  and  C1_4 
REMARK    2  A    between atoms: C3_11  and  C4_12 
REMARK       I    between atoms: C4_12  and  N4_14 
REMARK    3  A    between atoms: N4_14  and  N5_16 
REMARK    4  A    between atoms: N6_19  and  N7_20 
ROOT
HETATM    1  C1  UNL     1       7.136  37.338  10.285  1.00  0.00     0.193 A 
HETATM    2  C2  UNL     1       6.410  36.323  10.874  1.00  0.00     0.305 A 
HETATM    3  O1  UNL     1       5.332  35.884  10.373  1.00  0.00    -0.263 OA
HETATM    4  N2  UNL     1       6.905  35.815  12.017  1.00  0.00    -0.262 N 
ATOM      5  H2  UNL     1       6.396  35.063  12.483  1.00  0.00     0.190 HD
HETATM    6  N3  UNL     1       8.030  36.255  12.562  1.00  0.00    -0.276 N 
ATOM      7  H3  UNL     1       8.359  35.832  13.430  1.00  0.00     0.189 HD
HETATM    8  C3  UNL     1       8.751  37.244  12.003  1.00  0.00     0.214 A 
HETATM    9  N6  UNL     1       8.277  37.767  10.860  1.00  0.00    -0.219 N 
ENDROOT
BRANCH   8  10
HETATM   10  C4  UNL     1      10.006  37.732  12.614  1.00  0.00     0.306 C 
HETATM   11  O2  UNL     1      11.081  37.233  12.187  1.00  0.00    -0.262 OA
HETATM   12  N4  UNL     1      10.008  38.709  13.627  1.00  0.00    -0.270 N 
ATOM     13  H4  UNL     1       9.129  39.103  13.961  1.00  0.00     0.189 HD
BRANCH  12  14
HETATM   14  N5  UNL     1      11.209  39.133  14.168  1.00  0.00    -0.342 N 
ATOM     15  H52 UNL     1      11.871  38.438  14.515  1.00  0.00     0.176 HD
ATOM     16  H51 UNL     1      11.419  40.130  14.214  1.00  0.00     0.176 HD
ENDBRANCH  12  14
ENDBRANCH   8  10
BRANCH   9  17
HETATM   17  N7  UNL     1       9.002  38.790  10.259  1.00  0.00    -0.335 N 
ATOM     18  H72 UNL     1       9.608  38.551   9.473  1.00  0.00     0.177 HD
ATOM     19  H71 UNL     1       8.914  39.742  10.613  1.00  0.00     0.177 HD
ENDBRANCH   9  17
BRANCH   1  20
HETATM   20  N1  UNL     1       6.675  37.835   9.189  1.00  0.00    -0.379 N 
ATOM     21  H12 UNL     1       5.853  38.438   9.158  1.00  0.00     0.158 HD
ATOM     22  H11 UNL     1       7.168  37.604   8.327  1.00  0.00     0.158 HD
ENDBRANCH   1  20
TORSDOF 4
ENDMDL
MODEL 5
REMARK VINA RESULT: -4.680076295      2.127      5.012
REMARK  4 active torsions:
REMARK  status: ('A' for Active; 'I' for Inactive)
REMARK    1  A    between atoms: N1_1  and  C1_4 
REMARK    2  A    between atoms: C3_11  and  C4_12 
REMARK       I    between atoms: C4_12  and  N4_14 
REMARK    3  A    between atoms: N4_14  and  N5_16 
REMARK    4  A    between atoms: N6_19  and  N7_20 
ROOT
HETATM    1  C1  UNL     1       5.070  37.964   9.237  1.00  0.00     0.193 A 
HETATM    2  C2  UNL     1       4.201  36.936   9.537  1.00  0.00     0.305 A 
HETATM    3  O1  UNL     1       3.007  36.915   9.113  1.00  0.00    -0.263 OA
HETATM    4  N2  UNL     1       4.684  35.946  10.310  1.00  0.00    -0.262 N 
ATOM      5  H2  UNL     1       4.070  35.169  10.554  1.00  0.00     0.190 HD
HETATM    6  N3  UNL     1       5.927  35.944  10.767  1.00  0.00    -0.276 N 
ATOM      7  H3  UNL     1       6.240  35.167  11.349  1.00  0.00     0.189 HD
HETATM    8  C3  UNL     1       6.790  36.937  10.485  1.00  0.00     0.214 A 
HETATM    9  N6  UNL     1       6.331  37.937   9.714  1.00  0.00    -0.219 N 
ENDROOT
BRANCH   8  10
HETATM   10  C4  UNL     1       8.177  36.931  10.997  1.00  0.00     0.306 C 
HETATM   11  O2  UNL     1       9.100  37.057  10.148  1.00  0.00    -0.262 OA
HETATM   12  N4  UNL     1       8.464  36.790  12.368  1.00  0.00    -0.270 N 
ATOM     13  H4  UNL     1       7.705  36.690  13.042  1.00  0.00     0.189 HD
BRANCH  12  14
HETATM   14  N5  UNL     1       9.778  36.790  12.797  1.00  0.00    -0.342 N 
ATOM     15  H52 UNL     1      10.237  37.680  12.995  1.00  0.00     0.176 HD
ATOM     16  H51 UNL     1      10.274  35.906  12.910  1.00  0.00     0.176 HD
ENDBRANCH  12  14
ENDBRANCH   8  10
BRANCH   9  17
HETATM   17  N7  UNL     1       7.201  38.977   9.406  1.00  0.00    -0.335 N 
ATOM     18  H72 UNL     1       8.103  38.741   8.993  1.00  0.00     0.177 HD
ATOM     19  H71 UNL     1       6.920  39.939   9.596  1.00  0.00     0.177 HD
ENDBRANCH   9  17
BRANCH   1  20
HETATM   20  N1  UNL     1       4.623  38.919   8.497  1.00  0.00    -0.379 N 
ATOM     21  H12 UNL     1       4.458  38.813   7.496  1.00  0.00     0.158 HD
ATOM     22  H11 UNL     1       4.433  39.813   8.951  1.00  0.00     0.158 HD
ENDBRANCH   1  20
TORSDOF 4
ENDMDL
