MODEL 1
REMARK VINA RESULT: -9.030156601      0.000      0.000
REMARK  16 active torsions:
REMARK  status: ('A' for Active; 'I' for Inactive)
REMARK    1  A    between atoms: C3_5  and  N2_6 
REMARK    2  A    between atoms: N2_6  and  C4_8 
REMARK    3  A    between atoms: C4_8  and  C5_9 
REMARK    4  A    between atoms: C5_9  and  N3_10 
REMARK    5  A    between atoms: N3_10  and  C6_12 
REMARK    6  A    between atoms: C7_15  and  N5_16 
REMARK    7  A    between atoms: C8_21  and  N7_22 
REMARK    8  A    between atoms: N7_22  and  C9_24 
REMARK    9  A    between atoms: C9_24  and  C10_25 
REMARK   10  A    between atoms: C10_25  and  C11_26 
REMARK   11  A    between atoms: C11_26  and  C12_27 
REMARK   12  A    between atoms: C12_27  and  C13_28 
REMARK   13  A    between atoms: C13_28  and  C14_29 
REMARK   14  A    between atoms: C14_29  and  C15_30 
REMARK   15  A    between atoms: C19_36  and  N9_37 
REMARK   16  A    between atoms: C20_42  and  N11_43 
ROOT
HETATM    1  C6  UNL     1      53.699  16.462  -3.222  1.00  0.00     0.707 A 
HETATM    2  N4  UNL     1      54.365  17.373  -2.497  1.00  0.00    -0.022 N 
ATOM      3  H4  UNL     1      55.115  17.058  -1.882  1.00  0.00     0.203 HD
HETATM    4  C7  UNL     1      54.082  18.688  -2.549  1.00  0.00     0.705 A 
HETATM    5  N6  UNL     1      53.084  19.065  -3.374  1.00  0.00    -0.022 N 
ATOM      6  H6  UNL     1      52.852  20.057  -3.429  1.00  0.00     0.203 HD
HETATM    7  C8  UNL     1      52.375  18.201  -4.130  1.00  0.00     0.707 A 
HETATM    8  N13 UNL     1      52.707  16.896  -4.032  1.00  0.00    -0.022 N 
ATOM      9  H13 UNL     1      52.192  16.214  -4.589  1.00  0.00     0.203 HD
ENDROOT
BRANCH   7  10
HETATM   10  N7  UNL     1      51.430  18.601  -4.916  1.00  0.00    -0.225 N 
ATOM     11  H7  UNL     1      50.489  18.668  -4.527  1.00  0.00     0.177 HD
BRANCH  10  12
HETATM   12  C9  UNL     1      51.604  18.960  -6.299  1.00  0.00     0.138 C 
BRANCH  12  13
HETATM   13  C10 UNL     1      51.309  17.818  -7.252  1.00  0.00     0.020 C 
BRANCH  13  14
HETATM   14  C11 UNL     1      49.876  17.884  -7.746  1.00  0.00     0.002 C 
BRANCH  14  15
HETATM   15  C12 UNL     1      49.800  18.108  -9.225  1.00  0.00     0.000 C 
BRANCH  15  16
HETATM   16  C13 UNL     1      49.548  19.510  -9.640  1.00  0.00     0.006 C 
BRANCH  16  17
HETATM   17  C14 UNL     1      50.739  20.331  -9.987  1.00  0.00     0.057 C 
BRANCH  17  18
HETATM   18  C15 UNL     1      50.515  21.256 -11.116  1.00  0.00     0.009 A 
HETATM   19  C16 UNL     1      51.535  21.921 -11.763  1.00  0.00     0.027 A 
HETATM   20  C17 UNL     1      51.298  22.777 -12.815  1.00  0.00     0.034 A 
HETATM   21  C18 UNL     1      50.007  22.974 -13.232  1.00  0.00     0.079 A 
HETATM   22  N8  UNL     1      49.744  23.807 -14.259  1.00  0.00    -0.190 N 
HETATM   23  C21 UNL     1      48.992  22.304 -12.577  1.00  0.00     0.104 A 
HETATM   24  C19 UNL     1      48.469  24.002 -14.669  1.00  0.00     0.678 A 
ATOM     25  H8  UNL     1      50.509  24.293 -14.727  1.00  0.00     0.184 HD
HETATM   26  N10 UNL     1      47.449  23.371 -14.065  1.00  0.00    -0.175 N 
HETATM   27  C20 UNL     1      47.706  22.525 -13.022  1.00  0.00     0.144 A 
ATOM     28  H10 UNL     1      46.492  23.522 -14.381  1.00  0.00     0.186 HD
HETATM   29  N12 UNL     1      49.268  21.473 -11.550  1.00  0.00    -0.355 N 
ATOM     30  H12 UNL     1      48.497  20.991 -11.088  1.00  0.00     0.166 HD
BRANCH  24  31
HETATM   31  N9  UNL     1      48.164  24.788 -15.651  1.00  0.00    -0.234 N 
ATOM     32  H92 UNL     1      48.380  25.778 -15.527  1.00  0.00     0.174 HD
ATOM     33  H91 UNL     1      47.727  24.452 -16.510  1.00  0.00     0.174 HD
ENDBRANCH  24  31
BRANCH  27  34
HETATM   34  N11 UNL     1      46.735  21.919 -12.439  1.00  0.00    -0.383 N 
ATOM     35 2H11 UNL     1      46.734  20.899 -12.416  1.00  0.00     0.157 HD
ATOM     36 1H11 UNL     1      45.984  22.461 -12.010  1.00  0.00     0.157 HD
ENDBRANCH  27  34
ENDBRANCH  17  18
ENDBRANCH  16  17
ENDBRANCH  15  16
ENDBRANCH  14  15
ENDBRANCH  13  14
ENDBRANCH  12  13
ENDBRANCH  10  12
ENDBRANCH   7  10
BRANCH   4  37
HETATM   37  N5  UNL     1      54.740  19.536  -1.838  1.00  0.00    -0.234 N 
ATOM     38  H52 UNL     1      55.486  20.110  -2.232  1.00  0.00     0.174 HD
ATOM     39  H51 UNL     1      54.533  19.663  -0.848  1.00  0.00     0.174 HD
ENDBRANCH   4  37
BRANCH   1  40
HETATM   40  N3  UNL     1      54.045  15.096  -3.128  1.00  0.00    -0.224 N 
ATOM     41  H3  UNL     1      54.403  14.712  -2.254  1.00  0.00     0.177 HD
BRANCH  40  42
HETATM   42  C5  UNL     1      53.883  14.248  -4.291  1.00  0.00     0.158 C 
BRANCH  42  43
HETATM   43  C4  UNL     1      54.943  13.164  -4.336  1.00  0.00     0.158 C 
BRANCH  43  44
HETATM   44  N2  UNL     1      55.592  12.975  -3.091  1.00  0.00    -0.224 N 
ATOM     45  H2  UNL     1      55.339  13.635  -2.355  1.00  0.00     0.177 HD
BRANCH  44  46
HETATM   46  C3  UNL     1      56.455  12.086  -2.765  1.00  0.00     0.680 A 
HETATM   47  N1  UNL     1      55.986  10.939  -2.201  1.00  0.00    -0.194 N 
HETATM   48  C2  UNL     1      56.788   9.933  -1.817  1.00  0.00     0.053 A 
ATOM     49  H1  UNL     1      54.981  10.839  -2.063  1.00  0.00     0.184 HD
HETATM   50  C1  UNL     1      56.262   8.692  -1.206  1.00  0.00     0.071 C 
HETATM   51  C24 UNL     1      58.139  10.070  -2.003  1.00  0.00     0.101 A 
HETATM   52  C22 UNL     1      58.661  11.290  -2.604  1.00  0.00     0.150 A 
HETATM   53  N16 UNL     1      59.208   9.285  -1.742  1.00  0.00    -0.348 N 
HETATM   54  N14 UNL     1      57.772  12.250  -2.959  1.00  0.00    -0.174 N 
HETATM   55  N15 UNL     1      59.995  11.138  -2.656  1.00  0.00    -0.336 N 
ATOM     56  H14 UNL     1      58.112  13.115  -3.383  1.00  0.00     0.186 HD
HETATM   57  C23 UNL     1      60.333   9.933  -2.139  1.00  0.00     0.182 A 
ATOM     58  H15 UNL     1      60.653  11.824  -3.027  1.00  0.00     0.168 HD
ATOM     59  H16 UNL     1      59.174   8.358  -1.318  1.00  0.00     0.167 HD
ENDBRANCH  44  46
ENDBRANCH  43  44
ENDBRANCH  42  43
ENDBRANCH  40  42
ENDBRANCH   1  40
TORSDOF 16
ENDMDL
MODEL 2
REMARK VINA RESULT: -8.987193314      2.427     13.227
REMARK  16 active torsions:
REMARK  status: ('A' for Active; 'I' for Inactive)
REMARK    1  A    between atoms: C3_5  and  N2_6 
REMARK    2  A    between atoms: N2_6  and  C4_8 
REMARK    3  A    between atoms: C4_8  and  C5_9 
REMARK    4  A    between atoms: C5_9  and  N3_10 
REMARK    5  A    between atoms: N3_10  and  C6_12 
REMARK    6  A    between atoms: C7_15  and  N5_16 
REMARK    7  A    between atoms: C8_21  and  N7_22 
REMARK    8  A    between atoms: N7_22  and  C9_24 
REMARK    9  A    between atoms: C9_24  and  C10_25 
REMARK   10  A    between atoms: C10_25  and  C11_26 
REMARK   11  A    between atoms: C11_26  and  C12_27 
REMARK   12  A    between atoms: C12_27  and  C13_28 
REMARK   13  A    between atoms: C13_28  and  C14_29 
REMARK   14  A    between atoms: C14_29  and  C15_30 
REMARK   15  A    between atoms: C19_36  and  N9_37 
REMARK   16  A    between atoms: C20_42  and  N11_43 
ROOT
HETATM    1  C6  UNL     1      51.279  19.227  -6.627  1.00  0.00     0.707 A 
HETATM    2  N4  UNL     1      50.960  17.938  -6.819  1.00  0.00    -0.022 N 
ATOM      3  H4  UNL     1      50.363  17.693  -7.609  1.00  0.00     0.203 HD
HETATM    4  C7  UNL     1      51.397  16.955  -6.011  1.00  0.00     0.705 A 
HETATM    5  N6  UNL     1      52.185  17.319  -4.978  1.00  0.00    -0.022 N 
ATOM      6  H6  UNL     1      52.528  16.590  -4.353  1.00  0.00     0.203 HD
HETATM    7  C8  UNL     1      52.544  18.595  -4.729  1.00  0.00     0.707 A 
HETATM    8  N13 UNL     1      52.072  19.535  -5.576  1.00  0.00    -0.022 N 
ATOM      9  H13 UNL     1      52.323  20.511  -5.417  1.00  0.00     0.203 HD
ENDROOT
BRANCH   7  10
HETATM   10  N7  UNL     1      53.308  18.905  -3.733  1.00  0.00    -0.225 N 
ATOM     11  H7  UNL     1      53.415  19.895  -3.511  1.00  0.00     0.177 HD
BRANCH  10  12
HETATM   12  C9  UNL     1      54.019  17.959  -2.914  1.00  0.00     0.138 C 
BRANCH  12  13
HETATM   13  C10 UNL     1      53.468  17.860  -1.505  1.00  0.00     0.020 C 
BRANCH  13  14
HETATM   14  C11 UNL     1      52.137  17.131  -1.495  1.00  0.00     0.002 C 
BRANCH  14  15
HETATM   15  C12 UNL     1      52.163  15.923  -0.610  1.00  0.00     0.000 C 
BRANCH  15  16
HETATM   16  C13 UNL     1      52.523  14.652  -1.285  1.00  0.00     0.006 C 
BRANCH  16  17
HETATM   17  C14 UNL     1      52.520  14.659  -2.773  1.00  0.00     0.057 C 
BRANCH  17  18
HETATM   18  C15 UNL     1      53.520  13.754  -3.374  1.00  0.00     0.009 A 
HETATM   19  C16 UNL     1      54.727  13.458  -2.778  1.00  0.00     0.027 A 
HETATM   20  C17 UNL     1      55.642  12.610  -3.360  1.00  0.00     0.034 A 
HETATM   21  C18 UNL     1      55.343  12.043  -4.572  1.00  0.00     0.079 A 
HETATM   22  N8  UNL     1      56.220  11.209  -5.167  1.00  0.00    -0.190 N 
HETATM   23  C21 UNL     1      54.132  12.347  -5.162  1.00  0.00     0.104 A 
HETATM   24  C19 UNL     1      55.924  10.650  -6.364  1.00  0.00     0.678 A 
ATOM     25  H8  UNL     1      57.110  10.999  -4.713  1.00  0.00     0.184 HD
HETATM   26  N10 UNL     1      54.759  10.914  -6.975  1.00  0.00    -0.175 N 
HETATM   27  C20 UNL     1      53.864  11.759  -6.380  1.00  0.00     0.144 A 
ATOM     28  H10 UNL     1      54.543  10.488  -7.876  1.00  0.00     0.186 HD
HETATM   29  N12 UNL     1      53.263  13.183  -4.556  1.00  0.00    -0.355 N 
ATOM     30  H12 UNL     1      52.376  13.386  -5.017  1.00  0.00     0.166 HD
BRANCH  24  31
HETATM   31  N9  UNL     1      56.729   9.842  -6.974  1.00  0.00    -0.234 N 
ATOM     32  H92 UNL     1      57.713   9.888  -6.706  1.00  0.00     0.174 HD
ATOM     33  H91 UNL     1      56.414   9.188  -7.692  1.00  0.00     0.174 HD
ENDBRANCH  24  31
BRANCH  27  34
HETATM   34  N11 UNL     1      52.747  12.017  -6.960  1.00  0.00    -0.383 N 
ATOM     35 2H11 UNL     1      52.688  11.931  -7.975  1.00  0.00     0.157 HD
ATOM     36 1H11 UNL     1      51.941  12.303  -6.404  1.00  0.00     0.157 HD
ENDBRANCH  27  34
ENDBRANCH  17  18
ENDBRANCH  16  17
ENDBRANCH  15  16
ENDBRANCH  14  15
ENDBRANCH  13  14
ENDBRANCH  12  13
ENDBRANCH  10  12
ENDBRANCH   7  10
BRANCH   4  37
HETATM   37  N5  UNL     1      51.071  15.728  -6.223  1.00  0.00    -0.234 N 
ATOM     38  H52 UNL     1      50.108  15.401  -6.139  1.00  0.00     0.174 HD
ATOM     39  H51 UNL     1      51.773  15.036  -6.486  1.00  0.00     0.174 HD
ENDBRANCH   4  37
BRANCH   1  40
HETATM   40  N3  UNL     1      50.793  20.214  -7.512  1.00  0.00    -0.224 N 
ATOM     41  H3  UNL     1      50.378  21.073  -7.151  1.00  0.00     0.177 HD
BRANCH  40  42
HETATM   42  C5  UNL     1      50.891  19.989  -8.939  1.00  0.00     0.158 C 
BRANCH  42  43
HETATM   43  C4  UNL     1      49.819  20.750  -9.693  1.00  0.00     0.158 C 
BRANCH  43  44
HETATM   44  N2  UNL     1      50.297  21.953 -10.270  1.00  0.00    -0.224 N 
ATOM     45  H2  UNL     1      50.689  22.632  -9.617  1.00  0.00     0.177 HD
BRANCH  44  46
HETATM   46  C3  UNL     1      50.304  22.301 -11.504  1.00  0.00     0.680 A 
HETATM   47  N1  UNL     1      49.162  22.847 -12.004  1.00  0.00    -0.194 N 
HETATM   48  C2  UNL     1      49.044  23.252 -13.278  1.00  0.00     0.053 A 
ATOM     49  H1  UNL     1      48.360  22.954 -11.383  1.00  0.00     0.184 HD
HETATM   50  C1  UNL     1      47.794  23.845 -13.806  1.00  0.00     0.071 C 
HETATM   51  C24 UNL     1      50.123  23.106 -14.111  1.00  0.00     0.101 A 
HETATM   52  C22 UNL     1      51.354  22.523 -13.595  1.00  0.00     0.150 A 
HETATM   53  N16 UNL     1      50.351  23.395 -15.411  1.00  0.00    -0.348 N 
HETATM   54  N14 UNL     1      51.378  22.145 -12.293  1.00  0.00    -0.174 N 
HETATM   55  N15 UNL     1      52.218  22.509 -14.623  1.00  0.00    -0.336 N 
ATOM     56  H14 UNL     1      52.228  21.733 -11.907  1.00  0.00     0.186 HD
HETATM   57  C23 UNL     1      51.623  23.032 -15.721  1.00  0.00     0.182 A 
ATOM     58  H15 UNL     1      53.176  22.159 -14.584  1.00  0.00     0.168 HD
ATOM     59  H16 UNL     1      49.680  23.814 -16.054  1.00  0.00     0.167 HD
ENDBRANCH  44  46
ENDBRANCH  43  44
ENDBRANCH  42  43
ENDBRANCH  40  42
ENDBRANCH   1  40
TORSDOF 16
ENDMDL
MODEL 3
REMARK VINA RESULT: -8.980694411      3.416      5.999
REMARK  16 active torsions:
REMARK  status: ('A' for Active; 'I' for Inactive)
REMARK    1  A    between atoms: C3_5  and  N2_6 
REMARK    2  A    between atoms: N2_6  and  C4_8 
REMARK    3  A    between atoms: C4_8  and  C5_9 
REMARK    4  A    between atoms: C5_9  and  N3_10 
REMARK    5  A    between atoms: N3_10  and  C6_12 
REMARK    6  A    between atoms: C7_15  and  N5_16 
REMARK    7  A    between atoms: C8_21  and  N7_22 
REMARK    8  A    between atoms: N7_22  and  C9_24 
REMARK    9  A    between atoms: C9_24  and  C10_25 
REMARK   10  A    between atoms: C10_25  and  C11_26 
REMARK   11  A    between atoms: C11_26  and  C12_27 
REMARK   12  A    between atoms: C12_27  and  C13_28 
REMARK   13  A    between atoms: C13_28  and  C14_29 
REMARK   14  A    between atoms: C14_29  and  C15_30 
REMARK   15  A    between atoms: C19_36  and  N9_37 
REMARK   16  A    between atoms: C20_42  and  N11_43 
ROOT
HETATM    1  C6  UNL     1      51.606  18.402  -5.078  1.00  0.00     0.707 A 
HETATM    2  N4  UNL     1      51.407  17.199  -5.638  1.00  0.00    -0.022 N 
ATOM      3  H4  UNL     1      51.617  16.364  -5.093  1.00  0.00     0.203 HD
HETATM    4  C7  UNL     1      50.941  17.053  -6.892  1.00  0.00     0.705 A 
HETATM    5  N6  UNL     1      50.675  18.182  -7.580  1.00  0.00    -0.022 N 
ATOM      6  H6  UNL     1      50.320  18.094  -8.533  1.00  0.00     0.203 HD
HETATM    7  C8  UNL     1      50.852  19.420  -7.077  1.00  0.00     0.707 A 
HETATM    8  N13 UNL     1      51.323  19.501  -5.814  1.00  0.00    -0.022 N 
ATOM      9  H13 UNL     1      51.470  20.422  -5.401  1.00  0.00     0.203 HD
ENDROOT
BRANCH   7  10
HETATM   10  N7  UNL     1      50.578  20.481  -7.764  1.00  0.00    -0.225 N 
ATOM     11  H7  UNL     1      50.772  21.385  -7.335  1.00  0.00     0.177 HD
BRANCH  10  12
HETATM   12  C9  UNL     1      50.020  20.481  -9.091  1.00  0.00     0.138 C 
BRANCH  12  13
HETATM   13  C10 UNL     1      51.059  20.696 -10.174  1.00  0.00     0.020 C 
BRANCH  13  14
HETATM   14  C11 UNL     1      50.668  21.851 -11.078  1.00  0.00     0.002 C 
BRANCH  14  15
HETATM   15  C12 UNL     1      50.822  21.508 -12.528  1.00  0.00     0.000 C 
BRANCH  15  16
HETATM   16  C13 UNL     1      49.563  21.167 -13.234  1.00  0.00     0.006 C 
BRANCH  16  17
HETATM   17  C14 UNL     1      49.206  19.724 -13.311  1.00  0.00     0.057 C 
BRANCH  17  18
HETATM   18  C15 UNL     1      48.400  19.250 -12.168  1.00  0.00     0.009 A 
HETATM   19  C16 UNL     1      47.349  19.964 -11.635  1.00  0.00     0.027 A 
HETATM   20  C17 UNL     1      46.612  19.498 -10.570  1.00  0.00     0.034 A 
HETATM   21  C18 UNL     1      46.936  18.283 -10.021  1.00  0.00     0.079 A 
HETATM   22  N8  UNL     1      46.233  17.801  -8.977  1.00  0.00    -0.190 N 
HETATM   23  C21 UNL     1      47.991  17.575 -10.562  1.00  0.00     0.104 A 
HETATM   24  C19 UNL     1      46.553  16.602  -8.435  1.00  0.00     0.678 A 
ATOM     25  H8  UNL     1      45.458  18.342  -8.593  1.00  0.00     0.184 HD
HETATM   26  N10 UNL     1      47.570  15.877  -8.927  1.00  0.00    -0.175 N 
HETATM   27  C20 UNL     1      48.289  16.359  -9.986  1.00  0.00     0.144 A 
ATOM     28  H10 UNL     1      47.804  14.974  -8.514  1.00  0.00     0.186 HD
HETATM   29  N12 UNL     1      48.686  18.069 -11.607  1.00  0.00    -0.355 N 
ATOM     30  H12 UNL     1      49.460  17.521 -11.985  1.00  0.00     0.166 HD
BRANCH  24  31
HETATM   31  N9  UNL     1      45.910  16.094  -7.435  1.00  0.00    -0.234 N 
ATOM     32  H92 UNL     1      44.901  16.247  -7.415  1.00  0.00     0.174 HD
ATOM     33  H91 UNL     1      46.372  15.567  -6.693  1.00  0.00     0.174 HD
ENDBRANCH  24  31
BRANCH  27  34
HETATM   34  N11 UNL     1      49.264  15.670 -10.461  1.00  0.00    -0.383 N 
ATOM     35 2H11 UNL     1      49.276  15.457 -11.459  1.00  0.00     0.157 HD
ATOM     36 1H11 UNL     1      50.006  15.347  -9.840  1.00  0.00     0.157 HD
ENDBRANCH  27  34
ENDBRANCH  17  18
ENDBRANCH  16  17
ENDBRANCH  15  16
ENDBRANCH  14  15
ENDBRANCH  13  14
ENDBRANCH  12  13
ENDBRANCH  10  12
ENDBRANCH   7  10
BRANCH   4  37
HETATM   37  N5  UNL     1      50.762  15.883  -7.400  1.00  0.00    -0.234 N 
ATOM     38  H52 UNL     1      51.122  15.632  -8.321  1.00  0.00     0.174 HD
ATOM     39  H51 UNL     1      50.251  15.162  -6.891  1.00  0.00     0.174 HD
ENDBRANCH   4  37
BRANCH   1  40
HETATM   40  N3  UNL     1      52.094  18.493  -3.756  1.00  0.00    -0.224 N 
ATOM     41  H3  UNL     1      51.448  18.554  -2.969  1.00  0.00     0.177 HD
BRANCH  40  42
HETATM   42  C5  UNL     1      53.525  18.498  -3.533  1.00  0.00     0.158 C 
BRANCH  42  43
HETATM   43  C4  UNL     1      53.945  17.367  -2.614  1.00  0.00     0.158 C 
BRANCH  43  44
HETATM   44  N2  UNL     1      52.862  16.535  -2.233  1.00  0.00    -0.224 N 
ATOM     45  H2  UNL     1      51.989  17.016  -2.020  1.00  0.00     0.177 HD
BRANCH  44  46
HETATM   46  C3  UNL     1      52.835  15.259  -2.119  1.00  0.00     0.680 A 
HETATM   47  N1  UNL     1      53.898  14.566  -2.613  1.00  0.00    -0.194 N 
HETATM   48  C2  UNL     1      53.988  13.229  -2.554  1.00  0.00     0.053 A 
ATOM     49  H1  UNL     1      54.660  15.087  -3.047  1.00  0.00     0.184 HD
HETATM   50  C1  UNL     1      55.152  12.490  -3.095  1.00  0.00     0.071 C 
HETATM   51  C24 UNL     1      52.962  12.531  -1.971  1.00  0.00     0.101 A 
HETATM   52  C22 UNL     1      51.816  13.254  -1.438  1.00  0.00     0.150 A 
HETATM   53  N16 UNL     1      52.726  11.219  -1.747  1.00  0.00    -0.348 N 
HETATM   54  N14 UNL     1      51.815  14.606  -1.543  1.00  0.00    -0.174 N 
HETATM   55  N15 UNL     1      50.987  12.321  -0.938  1.00  0.00    -0.336 N 
ATOM     56  H14 UNL     1      51.023  15.136  -1.177  1.00  0.00     0.186 HD
HETATM   57  C23 UNL     1      51.527  11.093  -1.120  1.00  0.00     0.182 A 
ATOM     58  H15 UNL     1      50.089  12.509  -0.491  1.00  0.00     0.168 HD
ATOM     59  H16 UNL     1      53.344  10.451  -2.007  1.00  0.00     0.167 HD
ENDBRANCH  44  46
ENDBRANCH  43  44
ENDBRANCH  42  43
ENDBRANCH  40  42
ENDBRANCH   1  40
TORSDOF 16
ENDMDL
MODEL 4
REMARK VINA RESULT: -8.909300948      0.994      1.269
REMARK  16 active torsions:
REMARK  status: ('A' for Active; 'I' for Inactive)
REMARK    1  A    between atoms: C3_5  and  N2_6 
REMARK    2  A    between atoms: N2_6  and  C4_8 
REMARK    3  A    between atoms: C4_8  and  C5_9 
REMARK    4  A    between atoms: C5_9  and  N3_10 
REMARK    5  A    between atoms: N3_10  and  C6_12 
REMARK    6  A    between atoms: C7_15  and  N5_16 
REMARK    7  A    between atoms: C8_21  and  N7_22 
REMARK    8  A    between atoms: N7_22  and  C9_24 
REMARK    9  A    between atoms: C9_24  and  C10_25 
REMARK   10  A    between atoms: C10_25  and  C11_26 
REMARK   11  A    between atoms: C11_26  and  C12_27 
REMARK   12  A    between atoms: C12_27  and  C13_28 
REMARK   13  A    between atoms: C13_28  and  C14_29 
REMARK   14  A    between atoms: C14_29  and  C15_30 
REMARK   15  A    between atoms: C19_36  and  N9_37 
REMARK   16  A    between atoms: C20_42  and  N11_43 
ROOT
HETATM    1  C6  UNL     1      53.693  16.465  -3.255  1.00  0.00     0.707 A 
HETATM    2  N4  UNL     1      54.340  17.396  -2.537  1.00  0.00    -0.022 N 
ATOM      3  H4  UNL     1      55.065  17.096  -1.885  1.00  0.00     0.203 HD
HETATM    4  C7  UNL     1      54.069  18.709  -2.644  1.00  0.00     0.705 A 
HETATM    5  N6  UNL     1      53.105  19.065  -3.517  1.00  0.00    -0.022 N 
ATOM      6  H6  UNL     1      52.883  20.056  -3.614  1.00  0.00     0.203 HD
HETATM    7  C8  UNL     1      52.417  18.180  -4.268  1.00  0.00     0.707 A 
HETATM    8  N13 UNL     1      52.735  16.877  -4.115  1.00  0.00    -0.022 N 
ATOM      9  H13 UNL     1      52.235  16.180  -4.667  1.00  0.00     0.203 HD
ENDROOT
BRANCH   7  10
HETATM   10  N7  UNL     1      51.504  18.560  -5.102  1.00  0.00    -0.225 N 
ATOM     11  H7  UNL     1      50.736  19.122  -4.736  1.00  0.00     0.177 HD
BRANCH  10  12
HETATM   12  C9  UNL     1      51.489  18.248  -6.507  1.00  0.00     0.138 C 
BRANCH  12  13
HETATM   13  C10 UNL     1      50.504  17.153  -6.864  1.00  0.00     0.020 C 
BRANCH  13  14
HETATM   14  C11 UNL     1      49.438  17.673  -7.811  1.00  0.00     0.002 C 
BRANCH  14  15
HETATM   15  C12 UNL     1      49.998  18.002  -9.161  1.00  0.00     0.000 C 
BRANCH  15  16
HETATM   16  C13 UNL     1      49.675  19.359  -9.666  1.00  0.00     0.006 C 
BRANCH  16  17
HETATM   17  C14 UNL     1      50.823  20.225 -10.047  1.00  0.00     0.057 C 
BRANCH  17  18
HETATM   18  C15 UNL     1      50.501  21.212 -11.097  1.00  0.00     0.009 A 
HETATM   19  C16 UNL     1      51.446  22.020 -11.691  1.00  0.00     0.027 A 
HETATM   20  C17 UNL     1      51.119  22.933 -12.669  1.00  0.00     0.034 A 
HETATM   21  C18 UNL     1      49.810  23.040 -13.064  1.00  0.00     0.079 A 
HETATM   22  N8  UNL     1      49.458  23.925 -14.018  1.00  0.00    -0.190 N 
HETATM   23  C21 UNL     1      48.870  22.227 -12.462  1.00  0.00     0.104 A 
HETATM   24  C19 UNL     1      48.166  24.031 -14.407  1.00  0.00     0.678 A 
ATOM     25  H8  UNL     1      50.169  24.517 -14.449  1.00  0.00     0.184 HD
HETATM   26  N10 UNL     1      47.217  23.261 -13.852  1.00  0.00    -0.175 N 
HETATM   27  C20 UNL     1      47.564  22.361 -12.882  1.00  0.00     0.144 A 
ATOM     28  H10 UNL     1      46.246  23.346 -14.151  1.00  0.00     0.186 HD
HETATM   29  N12 UNL     1      49.234  21.345 -11.507  1.00  0.00    -0.355 N 
ATOM     30  H12 UNL     1      48.517  20.757 -11.083  1.00  0.00     0.166 HD
BRANCH  24  31
HETATM   31  N9  UNL     1      47.777  24.862 -15.320  1.00  0.00    -0.234 N 
ATOM     32  H92 UNL     1      46.966  25.439 -15.097  1.00  0.00     0.174 HD
ATOM     33  H91 UNL     1      48.246  24.946 -16.222  1.00  0.00     0.174 HD
ENDBRANCH  24  31
BRANCH  27  34
HETATM   34  N11 UNL     1      46.660  21.621 -12.346  1.00  0.00    -0.383 N 
ATOM     35 2H11 UNL     1      46.781  20.608 -12.360  1.00  0.00     0.157 HD
ATOM     36 1H11 UNL     1      45.841  22.052 -11.918  1.00  0.00     0.157 HD
ENDBRANCH  27  34
ENDBRANCH  17  18
ENDBRANCH  16  17
ENDBRANCH  15  16
ENDBRANCH  14  15
ENDBRANCH  13  14
ENDBRANCH  12  13
ENDBRANCH  10  12
ENDBRANCH   7  10
BRANCH   4  37
HETATM   37  N5  UNL     1      54.708  19.577  -1.939  1.00  0.00    -0.234 N 
ATOM     38  H52 UNL     1      55.011  20.471  -2.325  1.00  0.00     0.174 HD
ATOM     39  H51 UNL     1      54.933  19.396  -0.961  1.00  0.00     0.174 HD
ENDBRANCH   4  37
BRANCH   1  40
HETATM   40  N3  UNL     1      54.024  15.100  -3.102  1.00  0.00    -0.224 N 
ATOM     41  H3  UNL     1      54.255  14.724  -2.182  1.00  0.00     0.177 HD
BRANCH  40  42
HETATM   42  C5  UNL     1      54.032  14.243  -4.269  1.00  0.00     0.158 C 
BRANCH  42  43
HETATM   43  C4  UNL     1      53.937  12.781  -3.881  1.00  0.00     0.158 C 
BRANCH  43  44
HETATM   44  N2  UNL     1      54.923  12.394  -2.939  1.00  0.00    -0.224 N 
ATOM     45  H2  UNL     1      54.712  12.609  -1.964  1.00  0.00     0.177 HD
BRANCH  44  46
HETATM   46  C3  UNL     1      56.045  11.811  -3.148  1.00  0.00     0.680 A 
HETATM   47  N1  UNL     1      56.334  11.458  -4.431  1.00  0.00    -0.194 N 
HETATM   48  C2  UNL     1      57.475  10.843  -4.779  1.00  0.00     0.053 A 
ATOM     49  H1  UNL     1      55.654  11.671  -5.160  1.00  0.00     0.184 HD
HETATM   50  C1  UNL     1      57.775  10.466  -6.179  1.00  0.00     0.071 C 
HETATM   51  C24 UNL     1      58.387  10.557  -3.796  1.00  0.00     0.101 A 
HETATM   52  C22 UNL     1      58.095  10.925  -2.418  1.00  0.00     0.150 A 
HETATM   53  N16 UNL     1      59.601   9.963  -3.786  1.00  0.00    -0.348 N 
HETATM   54  N14 UNL     1      56.917  11.544  -2.164  1.00  0.00    -0.174 N 
HETATM   55  N15 UNL     1      59.155  10.525  -1.694  1.00  0.00    -0.336 N 
ATOM     56  H14 UNL     1      56.688  11.813  -1.206  1.00  0.00     0.186 HD
HETATM   57  C23 UNL     1      60.066   9.945  -2.509  1.00  0.00     0.182 A 
ATOM     58  H15 UNL     1      59.257  10.640  -0.685  1.00  0.00     0.168 HD
ATOM     59  H16 UNL     1      60.088   9.590  -4.601  1.00  0.00     0.167 HD
ENDBRANCH  44  46
ENDBRANCH  43  44
ENDBRANCH  42  43
ENDBRANCH  40  42
ENDBRANCH   1  40
TORSDOF 16
ENDMDL
MODEL 5
REMARK VINA RESULT: -8.832145731      3.680     13.326
REMARK  16 active torsions:
REMARK  status: ('A' for Active; 'I' for Inactive)
REMARK    1  A    between atoms: C3_5  and  N2_6 
REMARK    2  A    between atoms: N2_6  and  C4_8 
REMARK    3  A    between atoms: C4_8  and  C5_9 
REMARK    4  A    between atoms: C5_9  and  N3_10 
REMARK    5  A    between atoms: N3_10  and  C6_12 
REMARK    6  A    between atoms: C7_15  and  N5_16 
REMARK    7  A    between atoms: C8_21  and  N7_22 
REMARK    8  A    between atoms: N7_22  and  C9_24 
REMARK    9  A    between atoms: C9_24  and  C10_25 
REMARK   10  A    between atoms: C10_25  and  C11_26 
REMARK   11  A    between atoms: C11_26  and  C12_27 
REMARK   12  A    between atoms: C12_27  and  C13_28 
REMARK   13  A    between atoms: C13_28  and  C14_29 
REMARK   14  A    between atoms: C14_29  and  C15_30 
REMARK   15  A    between atoms: C19_36  and  N9_37 
REMARK   16  A    between atoms: C20_42  and  N11_43 
ROOT
HETATM    1  C6  UNL     1      51.437  18.818  -7.623  1.00  0.00     0.707 A 
HETATM    2  N4  UNL     1      51.040  17.541  -7.740  1.00  0.00    -0.022 N 
ATOM      3  H4  UNL     1      50.684  17.219  -8.640  1.00  0.00     0.203 HD
HETATM    4  C7  UNL     1      51.093  16.670  -6.717  1.00  0.00     0.705 A 
HETATM    5  N6  UNL     1      51.570  17.134  -5.544  1.00  0.00    -0.022 N 
ATOM      6  H6  UNL     1      51.619  16.490  -4.754  1.00  0.00     0.203 HD
HETATM    7  C8  UNL     1      51.985  18.404  -5.359  1.00  0.00     0.707 A 
HETATM    8  N13 UNL     1      51.906  19.230  -6.424  1.00  0.00    -0.022 N 
ATOM      9  H13 UNL     1      52.210  20.198  -6.321  1.00  0.00     0.203 HD
ENDROOT
BRANCH   7  10
HETATM   10  N7  UNL     1      52.444  18.812  -4.221  1.00  0.00    -0.225 N 
ATOM     11  H7  UNL     1      51.815  19.347  -3.622  1.00  0.00     0.177 HD
BRANCH  10  12
HETATM   12  C9  UNL     1      53.776  18.567  -3.734  1.00  0.00     0.138 C 
BRANCH  12  13
HETATM   13  C10 UNL     1      54.121  19.385  -2.505  1.00  0.00     0.020 C 
BRANCH  13  14
HETATM   14  C11 UNL     1      54.359  18.485  -1.306  1.00  0.00     0.002 C 
BRANCH  14  15
HETATM   15  C12 UNL     1      53.161  18.413  -0.411  1.00  0.00     0.000 C 
BRANCH  15  16
HETATM   16  C13 UNL     1      52.058  17.550  -0.899  1.00  0.00     0.006 C 
BRANCH  16  17
HETATM   17  C14 UNL     1      51.948  16.194  -0.296  1.00  0.00     0.057 C 
BRANCH  17  18
HETATM   18  C15 UNL     1      52.123  15.095  -1.266  1.00  0.00     0.009 A 
HETATM   19  C16 UNL     1      52.873  15.213  -2.416  1.00  0.00     0.027 A 
HETATM   20  C17 UNL     1      53.021  14.171  -3.304  1.00  0.00     0.034 A 
HETATM   21  C18 UNL     1      52.401  12.978  -3.035  1.00  0.00     0.079 A 
HETATM   22  N8  UNL     1      52.527  11.940  -3.886  1.00  0.00    -0.190 N 
HETATM   23  C21 UNL     1      51.651  12.870  -1.880  1.00  0.00     0.104 A 
HETATM   24  C19 UNL     1      51.914  10.763  -3.620  1.00  0.00     0.678 A 
ATOM     25  H8  UNL     1      53.086  12.043  -4.734  1.00  0.00     0.184 HD
HETATM   26  N10 UNL     1      51.176  10.609  -2.510  1.00  0.00    -0.175 N 
HETATM   27  C20 UNL     1      51.042  11.656  -1.641  1.00  0.00     0.144 A 
ATOM     28  H10 UNL     1      50.718   9.718  -2.316  1.00  0.00     0.186 HD
HETATM   29  N12 UNL     1      51.533  13.916  -1.036  1.00  0.00    -0.355 N 
ATOM     30  H12 UNL     1      50.972  13.804  -0.191  1.00  0.00     0.166 HD
BRANCH  24  31
HETATM   31  N9  UNL     1      52.005   9.736  -4.402  1.00  0.00    -0.234 N 
ATOM     32  H92 UNL     1      51.352   9.699  -5.186  1.00  0.00     0.174 HD
ATOM     33  H91 UNL     1      52.688   8.992  -4.256  1.00  0.00     0.174 HD
ENDBRANCH  24  31
BRANCH  27  34
HETATM   34  N11 UNL     1      50.335  11.516  -0.577  1.00  0.00    -0.383 N 
ATOM     35 2H11 UNL     1      49.385  11.888  -0.564  1.00  0.00     0.157 HD
ATOM     36 1H11 UNL     1      50.730  11.040   0.234  1.00  0.00     0.157 HD
ENDBRANCH  27  34
ENDBRANCH  17  18
ENDBRANCH  16  17
ENDBRANCH  15  16
ENDBRANCH  14  15
ENDBRANCH  13  14
ENDBRANCH  12  13
ENDBRANCH  10  12
ENDBRANCH   7  10
BRANCH   4  37
HETATM   37  N5  UNL     1      50.703  15.451  -6.863  1.00  0.00    -0.234 N 
ATOM     38  H52 UNL     1      50.664  15.001  -7.777  1.00  0.00     0.174 HD
ATOM     39  H51 UNL     1      50.419  14.891  -6.059  1.00  0.00     0.174 HD
ENDBRANCH   4  37
BRANCH   1  40
HETATM   40  N3  UNL     1      51.360  19.685  -8.735  1.00  0.00    -0.224 N 
ATOM     41  H3  UNL     1      52.167  19.815  -9.346  1.00  0.00     0.177 HD
BRANCH  40  42
HETATM   42  C5  UNL     1      50.121  20.387  -8.996  1.00  0.00     0.158 C 
BRANCH  42  43
HETATM   43  C4  UNL     1      50.355  21.627  -9.837  1.00  0.00     0.158 C 
BRANCH  43  44
HETATM   44  N2  UNL     1      51.271  21.410 -10.897  1.00  0.00    -0.224 N 
ATOM     45  H2  UNL     1      52.188  21.059 -10.624  1.00  0.00     0.177 HD
BRANCH  44  46
HETATM   46  C3  UNL     1      51.099  21.596 -12.153  1.00  0.00     0.680 A 
HETATM   47  N1  UNL     1      50.100  20.895 -12.757  1.00  0.00    -0.194 N 
HETATM   48  C2  UNL     1      49.820  21.002 -14.065  1.00  0.00     0.053 A 
ATOM     49  H1  UNL     1      49.539  20.260 -12.189  1.00  0.00     0.184 HD
HETATM   50  C1  UNL     1      48.730  20.233 -14.706  1.00  0.00     0.071 C 
HETATM   51  C24 UNL     1      50.577  21.856 -14.825  1.00  0.00     0.101 A 
HETATM   52  C22 UNL     1      51.651  22.614 -14.198  1.00  0.00     0.150 A 
HETATM   53  N16 UNL     1      50.576  22.202 -16.132  1.00  0.00    -0.348 N 
HETATM   54  N14 UNL     1      51.857  22.440 -12.870  1.00  0.00    -0.174 N 
HETATM   55  N15 UNL     1      52.205  23.352 -15.176  1.00  0.00    -0.336 N 
ATOM     56  H14 UNL     1      52.604  22.959 -12.406  1.00  0.00     0.186 HD
HETATM   57  C23 UNL     1      51.564  23.110 -16.343  1.00  0.00     0.182 A 
ATOM     58  H15 UNL     1      52.988  23.995 -15.057  1.00  0.00     0.168 HD
ATOM     59  H16 UNL     1      49.939  21.841 -16.841  1.00  0.00     0.167 HD
ENDBRANCH  44  46
ENDBRANCH  43  44
ENDBRANCH  42  43
ENDBRANCH  40  42
ENDBRANCH   1  40
TORSDOF 16
ENDMDL
