MODEL 1
REMARK VINA RESULT: -5.433687195      0.000      0.000
REMARK  15 active torsions:
REMARK  status: ('A' for Active; 'I' for Inactive)
REMARK    1  A    between atoms: C3_3  and  C4_4 
REMARK    2  A    between atoms: C4_4  and  C5_5 
REMARK    3  A    between atoms: N1_10  and  C10_11 
REMARK    4  A    between atoms: C10_11  and  C11_12 
REMARK    5  A    between atoms: C11_12  and  C12_13 
REMARK    6  A    between atoms: C12_13  and  C13_14 
REMARK    7  A    between atoms: C13_14  and  C14_15 
REMARK    8  A    between atoms: C14_15  and  C15_16 
REMARK    9  A    between atoms: C15_16  and  N2_17 
REMARK   10  A    between atoms: C17_25  and  C18_26 
REMARK   11  A    between atoms: C18_26  and  C19_27 
REMARK   12  A    between atoms: C19_27  and  C20_28 
REMARK   13  A    between atoms: C22_30  and  O2_31 
REMARK   14  A    between atoms: C23_33  and  N4_34 
REMARK       I    between atoms: N4_34  and  C24_36 
REMARK       I    between atoms: C24_36  and  N5_38 
REMARK   15  A    between atoms: N5_38  and  C25_40 
ROOT
HETATM    1  C1  UNL     1      44.421  16.996  -8.420  1.00  0.00     0.112 C 
HETATM    2  C2  UNL     1      45.811  17.047  -8.877  1.00  0.00    -0.108 C 
HETATM    3  C3  UNL     1      46.981  17.088  -9.244  1.00  0.00    -0.066 C 
ENDROOT
BRANCH   3   4
HETATM    4  C4  UNL     1      48.354  17.154  -9.644  1.00  0.00     0.208 C 
HETATM    5  C7  UNL     1      48.813  15.947 -10.357  1.00  0.00     0.066 C 
HETATM    6  C8  UNL     1      50.316  15.935 -10.134  1.00  0.00     0.039 C 
HETATM    7  C23 UNL     1      48.127  14.668 -10.316  1.00  0.00     0.152 C 
HETATM    8  C9  UNL     1      50.592  16.990  -9.102  1.00  0.00     0.252 C 
HETATM    9  N1  UNL     1      49.264  17.380  -8.571  1.00  0.00     0.034 N 
HETATM   10  C16 UNL     1      49.053  16.519  -7.507  1.00  0.00     0.421 C 
HETATM   11  O1  UNL     1      49.490  17.067  -6.426  1.00  0.00    -0.239 OA
HETATM   12  N3  UNL     1      48.506  15.234  -7.278  1.00  0.00    -0.304 N 
HETATM   13  C17 UNL     1      48.442  13.926  -7.869  1.00  0.00     0.044 C 
ATOM     14  H3  UNL     1      47.984  15.237  -6.402  1.00  0.00     0.170 HD
HETATM   15  C22 UNL     1      47.868  13.801  -9.208  1.00  0.00     0.089 C 
BRANCH   4  16
HETATM   16  C5  UNL     1      48.453  18.346 -10.634  1.00  0.00     0.050 C 
HETATM   17  C6  UNL     1      47.721  17.859 -11.887  1.00  0.00     0.009 C 
ENDBRANCH   4  16
BRANCH   9  18
HETATM   18  C10 UNL     1      49.434  18.743  -8.149  1.00  0.00     0.252 C 
BRANCH  18  19
HETATM   19  C11 UNL     1      50.696  19.427  -8.441  1.00  0.00     0.029 C 
BRANCH  19  20
HETATM   20  C12 UNL     1      50.510  20.910  -8.847  1.00  0.00     0.002 C 
BRANCH  20  21
HETATM   21  C13 UNL     1      50.890  21.105 -10.275  1.00  0.00     0.002 C 
BRANCH  21  22
HETATM   22  C14 UNL     1      50.461  22.361 -10.926  1.00  0.00     0.027 C 
BRANCH  22  23
HETATM   23  C15 UNL     1      51.236  22.811 -12.113  1.00  0.00     0.229 C 
BRANCH  23  24
HETATM   24  N2  UNL     1      51.123  24.186 -12.461  1.00  0.00    -0.079 N 
ATOM     25  H23 UNL     1      50.624  24.686 -11.725  1.00  0.00     0.274 HD
ATOM     26  H22 UNL     1      52.038  24.632 -12.401  1.00  0.00     0.274 HD
ATOM     27  H21 UNL     1      50.698  24.392 -13.365  1.00  0.00     0.274 HD
ENDBRANCH  23  24
ENDBRANCH  22  23
ENDBRANCH  21  22
ENDBRANCH  20  21
ENDBRANCH  19  20
ENDBRANCH  18  19
ENDBRANCH   9  18
BRANCH  13  28
HETATM   28  C18 UNL     1      49.685  13.113  -7.572  1.00  0.00     0.060 C 
BRANCH  28  29
HETATM   29  C19 UNL     1      49.934  11.955  -8.482  1.00  0.00     0.006 C 
BRANCH  29  30
HETATM   30  C20 UNL     1      51.251  12.159  -9.259  1.00  0.00    -0.004 C 
HETATM   31  C21 UNL     1      51.258  11.330 -10.525  1.00  0.00     0.005 C 
ENDBRANCH  29  30
ENDBRANCH  28  29
ENDBRANCH  13  28
BRANCH  15  32
HETATM   32  O2  UNL     1      46.450  13.537  -9.108  1.00  0.00    -0.361 OA
ATOM     33  H2  UNL     1      46.235  12.752  -9.597  1.00  0.00     0.217 HD
ENDBRANCH  15  32
BRANCH   7  34
HETATM   34  N4  UNL     1      48.846  13.894 -11.368  1.00  0.00    -0.332 N 
HETATM   35  C24 UNL     1      48.253  12.947 -12.193  1.00  0.00     0.317 C 
HETATM   36  O3  UNL     1      47.033  12.688 -12.084  1.00  0.00    -0.247 OA
HETATM   37  N5  UNL     1      49.011  12.263 -13.162  1.00  0.00    -0.339 N 
ATOM     38  H5  UNL     1      50.003  12.486 -13.238  1.00  0.00     0.164 HD
ATOM     39  H4  UNL     1      49.843  14.072 -11.490  1.00  0.00     0.165 HD
BRANCH  37  40
HETATM   40  C25 UNL     1      48.468  11.264 -14.057  1.00  0.00     0.086 A 
HETATM   41  C26 UNL     1      48.470   9.816 -13.652  1.00  0.00     0.027 A 
HETATM   42  C27 UNL     1      49.375  10.312 -14.753  1.00  0.00     0.027 A 
ENDBRANCH  37  40
ENDBRANCH   7  34
ENDBRANCH   3   4
TORSDOF 15
ENDMDL
MODEL 2
REMARK VINA RESULT: -5.330842507      2.615      5.863
REMARK  15 active torsions:
REMARK  status: ('A' for Active; 'I' for Inactive)
REMARK    1  A    between atoms: C3_3  and  C4_4 
REMARK    2  A    between atoms: C4_4  and  C5_5 
REMARK    3  A    between atoms: N1_10  and  C10_11 
REMARK    4  A    between atoms: C10_11  and  C11_12 
REMARK    5  A    between atoms: C11_12  and  C12_13 
REMARK    6  A    between atoms: C12_13  and  C13_14 
REMARK    7  A    between atoms: C13_14  and  C14_15 
REMARK    8  A    between atoms: C14_15  and  C15_16 
REMARK    9  A    between atoms: C15_16  and  N2_17 
REMARK   10  A    between atoms: C17_25  and  C18_26 
REMARK   11  A    between atoms: C18_26  and  C19_27 
REMARK   12  A    between atoms: C19_27  and  C20_28 
REMARK   13  A    between atoms: C22_30  and  O2_31 
REMARK   14  A    between atoms: C23_33  and  N4_34 
REMARK       I    between atoms: N4_34  and  C24_36 
REMARK       I    between atoms: C24_36  and  N5_38 
REMARK   15  A    between atoms: N5_38  and  C25_40 
ROOT
HETATM    1  C1  UNL     1      48.870  13.473 -12.022  1.00  0.00     0.112 C 
HETATM    2  C2  UNL     1      48.947  14.168 -10.736  1.00  0.00    -0.108 C 
HETATM    3  C3  UNL     1      48.994  14.757  -9.660  1.00  0.00    -0.066 C 
ENDROOT
BRANCH   3   4
HETATM    4  C4  UNL     1      49.033  15.469  -8.419  1.00  0.00     0.208 C 
HETATM    5  C7  UNL     1      47.975  15.058  -7.477  1.00  0.00     0.066 C 
HETATM    6  C8  UNL     1      47.792  16.267  -6.576  1.00  0.00     0.039 C 
HETATM    7  C23 UNL     1      46.778  14.334  -7.864  1.00  0.00     0.152 C 
HETATM    8  C9  UNL     1      48.573  17.381  -7.211  1.00  0.00     0.252 C 
HETATM    9  N1  UNL     1      48.946  16.885  -8.557  1.00  0.00     0.034 N 
HETATM   10  C16 UNL     1      47.896  17.275  -9.370  1.00  0.00     0.421 C 
HETATM   11  O1  UNL     1      48.160  18.430  -9.877  1.00  0.00    -0.239 OA
HETATM   12  N3  UNL     1      46.641  16.775  -9.791  1.00  0.00    -0.304 N 
HETATM   13  C17 UNL     1      45.501  16.056  -9.294  1.00  0.00     0.044 C 
ATOM     14  H3  UNL     1      46.497  16.999 -10.776  1.00  0.00     0.170 HD
HETATM   15  C22 UNL     1      45.716  14.719  -8.742  1.00  0.00     0.089 C 
BRANCH   4  16
HETATM   16  C5  UNL     1      50.398  15.119  -7.768  1.00  0.00     0.050 C 
HETATM   17  C6  UNL     1      50.266  13.644  -7.382  1.00  0.00     0.009 C 
ENDBRANCH   4  16
BRANCH   9  18
HETATM   18  C10 UNL     1      50.168  17.576  -8.866  1.00  0.00     0.252 C 
BRANCH  18  19
HETATM   19  C11 UNL     1      50.813  18.382  -7.828  1.00  0.00     0.029 C 
BRANCH  19  20
HETATM   20  C12 UNL     1      51.393  19.716  -8.360  1.00  0.00     0.002 C 
BRANCH  20  21
HETATM   21  C13 UNL     1      50.320  20.745  -8.454  1.00  0.00     0.002 C 
BRANCH  21  22
HETATM   22  C14 UNL     1      50.281  21.576  -9.677  1.00  0.00     0.027 C 
BRANCH  22  23
HETATM   23  C15 UNL     1      50.957  21.037 -10.887  1.00  0.00     0.229 C 
BRANCH  23  24
HETATM   24  N2  UNL     1      50.217  20.101 -11.663  1.00  0.00    -0.079 N 
ATOM     25  H23 UNL     1      49.711  19.467 -11.045  1.00  0.00     0.274 HD
ATOM     26  H22 UNL     1      49.439  20.575 -12.121  1.00  0.00     0.274 HD
ATOM     27  H21 UNL     1      50.745  19.563 -12.350  1.00  0.00     0.274 HD
ENDBRANCH  23  24
ENDBRANCH  22  23
ENDBRANCH  21  22
ENDBRANCH  20  21
ENDBRANCH  19  20
ENDBRANCH  18  19
ENDBRANCH   9  18
BRANCH  13  28
HETATM   28  C18 UNL     1      44.544  16.964  -8.549  1.00  0.00     0.060 C 
BRANCH  28  29
HETATM   29  C19 UNL     1      43.257  17.260  -9.247  1.00  0.00     0.006 C 
BRANCH  29  30
HETATM   30  C20 UNL     1      42.067  16.729  -8.422  1.00  0.00    -0.004 C 
HETATM   31  C21 UNL     1      42.556  15.968  -7.209  1.00  0.00     0.005 C 
ENDBRANCH  29  30
ENDBRANCH  28  29
ENDBRANCH  13  28
BRANCH  15  32
HETATM   32  O2  UNL     1      45.554  13.729  -9.785  1.00  0.00    -0.361 OA
ATOM     33  H2  UNL     1      45.543  12.860  -9.403  1.00  0.00     0.217 HD
ENDBRANCH  15  32
BRANCH   7  34
HETATM   34  N4  UNL     1      46.193  13.967  -6.543  1.00  0.00    -0.332 N 
HETATM   35  C24 UNL     1      46.519  12.823  -5.827  1.00  0.00     0.317 C 
HETATM   36  O3  UNL     1      47.356  12.010  -6.280  1.00  0.00    -0.247 OA
HETATM   37  N5  UNL     1      45.916  12.557  -4.583  1.00  0.00    -0.339 N 
ATOM     38  H5  UNL     1      45.236  13.229  -4.228  1.00  0.00     0.164 HD
ATOM     39  H4  UNL     1      45.504  14.601  -6.136  1.00  0.00     0.165 HD
BRANCH  37  40
HETATM   40  C25 UNL     1      46.202  11.388  -3.778  1.00  0.00     0.086 A 
HETATM   41  C26 UNL     1      45.827  11.373  -2.322  1.00  0.00     0.027 A 
HETATM   42  C27 UNL     1      47.273  11.434  -2.747  1.00  0.00     0.027 A 
ENDBRANCH  37  40
ENDBRANCH   7  34
ENDBRANCH   3   4
TORSDOF 15
ENDMDL
MODEL 3
REMARK VINA RESULT: -5.319521376      2.529      5.427
REMARK  15 active torsions:
REMARK  status: ('A' for Active; 'I' for Inactive)
REMARK    1  A    between atoms: C3_3  and  C4_4 
REMARK    2  A    between atoms: C4_4  and  C5_5 
REMARK    3  A    between atoms: N1_10  and  C10_11 
REMARK    4  A    between atoms: C10_11  and  C11_12 
REMARK    5  A    between atoms: C11_12  and  C12_13 
REMARK    6  A    between atoms: C12_13  and  C13_14 
REMARK    7  A    between atoms: C13_14  and  C14_15 
REMARK    8  A    between atoms: C14_15  and  C15_16 
REMARK    9  A    between atoms: C15_16  and  N2_17 
REMARK   10  A    between atoms: C17_25  and  C18_26 
REMARK   11  A    between atoms: C18_26  and  C19_27 
REMARK   12  A    between atoms: C19_27  and  C20_28 
REMARK   13  A    between atoms: C22_30  and  O2_31 
REMARK   14  A    between atoms: C23_33  and  N4_34 
REMARK       I    between atoms: N4_34  and  C24_36 
REMARK       I    between atoms: C24_36  and  N5_38 
REMARK   15  A    between atoms: N5_38  and  C25_40 
ROOT
HETATM    1  C1  UNL     1      48.345  14.271 -13.567  1.00  0.00     0.112 C 
HETATM    2  C2  UNL     1      48.562  15.052 -12.348  1.00  0.00    -0.108 C 
HETATM    3  C3  UNL     1      48.760  15.699 -11.325  1.00  0.00    -0.066 C 
ENDROOT
BRANCH   3   4
HETATM    4  C4  UNL     1      49.005  16.427 -10.117  1.00  0.00     0.208 C 
HETATM    5  C7  UNL     1      48.254  15.908  -8.959  1.00  0.00     0.066 C 
HETATM    6  C8  UNL     1      48.148  17.099  -8.022  1.00  0.00     0.039 C 
HETATM    7  C23 UNL     1      47.092  15.043  -9.065  1.00  0.00     0.152 C 
HETATM    8  C9  UNL     1      48.622  18.288  -8.806  1.00  0.00     0.252 C 
HETATM    9  N1  UNL     1      48.723  17.821 -10.209  1.00  0.00     0.034 N 
HETATM   10  C16 UNL     1      47.474  18.076 -10.747  1.00  0.00     0.421 C 
HETATM   11  O1  UNL     1      47.475  19.246 -11.285  1.00  0.00    -0.239 OA
HETATM   12  N3  UNL     1      46.222  17.426 -10.869  1.00  0.00    -0.304 N 
HETATM   13  C17 UNL     1      45.323  16.586 -10.129  1.00  0.00     0.044 C 
ATOM     14  H3  UNL     1      45.826  17.620 -11.789  1.00  0.00     0.170 HD
HETATM   15  C22 UNL     1      45.816  15.290  -9.663  1.00  0.00     0.089 C 
BRANCH   4  16
HETATM   16  C5  UNL     1      50.516  16.248  -9.810  1.00  0.00     0.050 C 
HETATM   17  C6  UNL     1      50.671  14.750  -9.532  1.00  0.00     0.009 C 
ENDBRANCH   4  16
BRANCH   9  18
HETATM   18  C10 UNL     1      49.749  18.647 -10.786  1.00  0.00     0.252 C 
BRANCH  18  19
HETATM   19  C11 UNL     1      50.381  19.680  -9.963  1.00  0.00     0.029 C 
BRANCH  19  20
HETATM   20  C12 UNL     1      50.859  20.906 -10.778  1.00  0.00     0.002 C 
BRANCH  20  21
HETATM   21  C13 UNL     1      50.518  20.735 -12.218  1.00  0.00     0.002 C 
BRANCH  21  22
HETATM   22  C14 UNL     1      50.802  21.868 -13.124  1.00  0.00     0.027 C 
BRANCH  22  23
HETATM   23  C15 UNL     1      51.943  22.754 -12.766  1.00  0.00     0.229 C 
BRANCH  23  24
HETATM   24  N2  UNL     1      51.629  24.117 -12.505  1.00  0.00    -0.079 N 
ATOM     25  H23 UNL     1      51.145  24.519 -13.309  1.00  0.00     0.274 HD
ATOM     26  H22 UNL     1      50.894  24.172 -11.800  1.00  0.00     0.274 HD
ATOM     27  H21 UNL     1      52.407  24.719 -12.237  1.00  0.00     0.274 HD
ENDBRANCH  23  24
ENDBRANCH  22  23
ENDBRANCH  21  22
ENDBRANCH  20  21
ENDBRANCH  19  20
ENDBRANCH  18  19
ENDBRANCH   9  18
BRANCH  13  28
HETATM   28  C18 UNL     1      44.469  17.385  -9.167  1.00  0.00     0.060 C 
BRANCH  28  29
HETATM   29  C19 UNL     1      43.887  16.617  -8.025  1.00  0.00     0.006 C 
BRANCH  29  30
HETATM   30  C20 UNL     1      42.428  16.224  -8.334  1.00  0.00    -0.004 C 
HETATM   31  C21 UNL     1      41.679  17.388  -8.946  1.00  0.00     0.005 C 
ENDBRANCH  29  30
ENDBRANCH  28  29
ENDBRANCH  13  28
BRANCH  15  32
HETATM   32  O2  UNL     1      45.530  14.275 -10.653  1.00  0.00    -0.361 OA
ATOM     33  H2  UNL     1      45.013  13.581 -10.261  1.00  0.00     0.217 HD
ENDBRANCH  15  32
BRANCH   7  34
HETATM   34  N4  UNL     1      46.881  14.628  -7.649  1.00  0.00    -0.332 N 
HETATM   35  C24 UNL     1      46.502  13.354  -7.250  1.00  0.00     0.317 C 
HETATM   36  O3  UNL     1      46.310  12.455  -8.099  1.00  0.00    -0.247 OA
HETATM   37  N5  UNL     1      46.326  13.050  -5.886  1.00  0.00    -0.339 N 
ATOM     38  H5  UNL     1      46.486  13.793  -5.206  1.00  0.00     0.164 HD
ATOM     39  H4  UNL     1      47.025  15.330  -6.922  1.00  0.00     0.165 HD
BRANCH  37  40
HETATM   40  C25 UNL     1      45.932  11.748  -5.391  1.00  0.00     0.086 A 
HETATM   41  C26 UNL     1      44.490  11.478  -5.063  1.00  0.00     0.027 A 
HETATM   42  C27 UNL     1      45.524  11.581  -3.970  1.00  0.00     0.027 A 
ENDBRANCH  37  40
ENDBRANCH   7  34
ENDBRANCH   3   4
TORSDOF 15
ENDMDL
MODEL 4
REMARK VINA RESULT: -5.309995907      4.056      7.972
REMARK  15 active torsions:
REMARK  status: ('A' for Active; 'I' for Inactive)
REMARK    1  A    between atoms: C3_3  and  C4_4 
REMARK    2  A    between atoms: C4_4  and  C5_5 
REMARK    3  A    between atoms: N1_10  and  C10_11 
REMARK    4  A    between atoms: C10_11  and  C11_12 
REMARK    5  A    between atoms: C11_12  and  C12_13 
REMARK    6  A    between atoms: C12_13  and  C13_14 
REMARK    7  A    between atoms: C13_14  and  C14_15 
REMARK    8  A    between atoms: C14_15  and  C15_16 
REMARK    9  A    between atoms: C15_16  and  N2_17 
REMARK   10  A    between atoms: C17_25  and  C18_26 
REMARK   11  A    between atoms: C18_26  and  C19_27 
REMARK   12  A    between atoms: C19_27  and  C20_28 
REMARK   13  A    between atoms: C22_30  and  O2_31 
REMARK   14  A    between atoms: C23_33  and  N4_34 
REMARK       I    between atoms: N4_34  and  C24_36 
REMARK       I    between atoms: C24_36  and  N5_38 
REMARK   15  A    between atoms: N5_38  and  C25_40 
ROOT
HETATM    1  C1  UNL     1      49.777  16.265 -14.873  1.00  0.00     0.112 C 
HETATM    2  C2  UNL     1      49.005  16.837 -13.769  1.00  0.00    -0.108 C 
HETATM    3  C3  UNL     1      48.348  17.325 -12.855  1.00  0.00    -0.066 C 
ENDROOT
BRANCH   3   4
HETATM    4  C4  UNL     1      47.581  17.925 -11.805  1.00  0.00     0.208 C 
HETATM    5  C7  UNL     1      47.009  19.233 -12.174  1.00  0.00     0.066 C 
HETATM    6  C8  UNL     1      46.810  19.938 -10.843  1.00  0.00     0.039 C 
HETATM    7  C23 UNL     1      47.475  20.040 -13.288  1.00  0.00     0.152 C 
HETATM    8  C9  UNL     1      47.510  19.096  -9.817  1.00  0.00     0.252 C 
HETATM    9  N1  UNL     1      48.303  18.110 -10.590  1.00  0.00     0.034 N 
HETATM   10  C16 UNL     1      49.524  18.729 -10.787  1.00  0.00     0.421 C 
HETATM   11  O1  UNL     1      50.322  18.408  -9.828  1.00  0.00    -0.239 OA
HETATM   12  N3  UNL     1      50.131  19.600 -11.725  1.00  0.00    -0.304 N 
HETATM   13  C17 UNL     1      49.836  20.747 -12.537  1.00  0.00     0.044 C 
ATOM     14  H3  UNL     1      51.100  19.318 -11.874  1.00  0.00     0.170 HD
HETATM   15  C22 UNL     1      48.753  20.641 -13.514  1.00  0.00     0.089 C 
BRANCH   4  16
HETATM   16  C5  UNL     1      46.398  16.958 -11.535  1.00  0.00     0.050 C 
HETATM   17  C6  UNL     1      45.583  16.985 -12.831  1.00  0.00     0.009 C 
ENDBRANCH   4  16
BRANCH   9  18
HETATM   18  C10 UNL     1      48.399  16.969  -9.721  1.00  0.00     0.252 C 
BRANCH  18  19
HETATM   19  C11 UNL     1      47.720  17.002  -8.424  1.00  0.00     0.029 C 
BRANCH  19  20
HETATM   20  C12 UNL     1      48.447  16.181  -7.330  1.00  0.00     0.002 C 
BRANCH  20  21
HETATM   21  C13 UNL     1      49.334  17.065  -6.524  1.00  0.00     0.002 C 
BRANCH  21  22
HETATM   22  C14 UNL     1      50.789  16.977  -6.773  1.00  0.00     0.027 C 
BRANCH  22  23
HETATM   23  C15 UNL     1      51.602  18.191  -6.493  1.00  0.00     0.229 C 
BRANCH  23  24
HETATM   24  N2  UNL     1      50.914  19.295  -5.916  1.00  0.00    -0.079 N 
ATOM     25  H23 UNL     1      50.102  19.530  -6.487  1.00  0.00     0.274 HD
ATOM     26  H22 UNL     1      50.456  19.001  -5.053  1.00  0.00     0.274 HD
ATOM     27  H21 UNL     1      51.467  20.134  -5.743  1.00  0.00     0.274 HD
ENDBRANCH  23  24
ENDBRANCH  22  23
ENDBRANCH  21  22
ENDBRANCH  20  21
ENDBRANCH  19  20
ENDBRANCH  18  19
ENDBRANCH   9  18
BRANCH  13  28
HETATM   28  C18 UNL     1      49.927  22.035 -11.744  1.00  0.00     0.060 C 
BRANCH  28  29
HETATM   29  C19 UNL     1      50.579  23.182 -12.446  1.00  0.00     0.006 C 
BRANCH  29  30
HETATM   30  C20 UNL     1      51.967  22.765 -12.974  1.00  0.00    -0.004 C 
HETATM   31  C21 UNL     1      51.959  22.676 -14.485  1.00  0.00     0.005 C 
ENDBRANCH  29  30
ENDBRANCH  28  29
ENDBRANCH  13  28
BRANCH  15  32
HETATM   32  O2  UNL     1      49.285  20.206 -14.787  1.00  0.00    -0.361 OA
ATOM     33  H2  UNL     1      49.360  19.260 -14.796  1.00  0.00     0.217 HD
ENDBRANCH  15  32
BRANCH   7  34
HETATM   34  N4  UNL     1      46.430  21.101 -13.364  1.00  0.00    -0.332 N 
HETATM   35  C24 UNL     1      45.604  21.316 -14.459  1.00  0.00     0.317 C 
HETATM   36  O3  UNL     1      45.705  20.598 -15.479  1.00  0.00    -0.247 OA
HETATM   37  N5  UNL     1      44.643  22.344 -14.443  1.00  0.00    -0.339 N 
ATOM     38  H5  UNL     1      44.573  22.921 -13.604  1.00  0.00     0.164 HD
ATOM     39  H4  UNL     1      46.314  21.711 -12.555  1.00  0.00     0.165 HD
BRANCH  37  40
HETATM   40  C25 UNL     1      43.747  22.632 -15.543  1.00  0.00     0.086 A 
HETATM   41  C26 UNL     1      42.919  23.887 -15.525  1.00  0.00     0.027 A 
HETATM   42  C27 UNL     1      42.275  22.534 -15.354  1.00  0.00     0.027 A 
ENDBRANCH  37  40
ENDBRANCH   7  34
ENDBRANCH   3   4
TORSDOF 15
ENDMDL
MODEL 5
REMARK VINA RESULT: -5.303630592      7.831     10.837
REMARK  15 active torsions:
REMARK  status: ('A' for Active; 'I' for Inactive)
REMARK    1  A    between atoms: C3_3  and  C4_4 
REMARK    2  A    between atoms: C4_4  and  C5_5 
REMARK    3  A    between atoms: N1_10  and  C10_11 
REMARK    4  A    between atoms: C10_11  and  C11_12 
REMARK    5  A    between atoms: C11_12  and  C12_13 
REMARK    6  A    between atoms: C12_13  and  C13_14 
REMARK    7  A    between atoms: C13_14  and  C14_15 
REMARK    8  A    between atoms: C14_15  and  C15_16 
REMARK    9  A    between atoms: C15_16  and  N2_17 
REMARK   10  A    between atoms: C17_25  and  C18_26 
REMARK   11  A    between atoms: C18_26  and  C19_27 
REMARK   12  A    between atoms: C19_27  and  C20_28 
REMARK   13  A    between atoms: C22_30  and  O2_31 
REMARK   14  A    between atoms: C23_33  and  N4_34 
REMARK       I    between atoms: N4_34  and  C24_36 
REMARK       I    between atoms: C24_36  and  N5_38 
REMARK   15  A    between atoms: N5_38  and  C25_40 
ROOT
HETATM    1  C1  UNL     1      55.129  10.377  -6.675  1.00  0.00     0.112 C 
HETATM    2  C2  UNL     1      54.884  11.153  -5.459  1.00  0.00    -0.108 C 
HETATM    3  C3  UNL     1      54.662  11.808  -4.445  1.00  0.00    -0.066 C 
ENDROOT
BRANCH   3   4
HETATM    4  C4  UNL     1      54.385  12.594  -3.281  1.00  0.00     0.208 C 
HETATM    5  C7  UNL     1      53.910  11.795  -2.136  1.00  0.00     0.066 C 
HETATM    6  C8  UNL     1      53.120  12.785  -1.297  1.00  0.00     0.039 C 
HETATM    7  C23 UNL     1      53.376  10.449  -2.250  1.00  0.00     0.152 C 
HETATM    8  C9  UNL     1      52.980  14.022  -2.136  1.00  0.00     0.252 C 
HETATM    9  N1  UNL     1      53.434  13.634  -3.492  1.00  0.00     0.034 N 
HETATM   10  C16 UNL     1      52.287  13.184  -4.123  1.00  0.00     0.421 C 
HETATM   11  O1  UNL     1      51.732  14.166  -4.744  1.00  0.00    -0.239 OA
HETATM   12  N3  UNL     1      51.568  11.974  -4.273  1.00  0.00    -0.304 N 
HETATM   13  C17 UNL     1      51.170  10.811  -3.530  1.00  0.00     0.044 C 
ATOM     14  H3  UNL     1      51.214  11.904  -5.227  1.00  0.00     0.170 HD
HETATM   15  C22 UNL     1      52.217   9.977  -2.941  1.00  0.00     0.089 C 
BRANCH   4  16
HETATM   16  C5  UNL     1      55.737  13.237  -2.870  1.00  0.00     0.050 C 
HETATM   17  C6  UNL     1      56.639  12.046  -2.537  1.00  0.00     0.009 C 
ENDBRANCH   4  16
BRANCH   9  18
HETATM   18  C10 UNL     1      53.933  14.854  -4.065  1.00  0.00     0.252 C 
BRANCH  18  19
HETATM   19  C11 UNL     1      53.934  16.074  -3.254  1.00  0.00     0.029 C 
BRANCH  19  20
HETATM   20  C12 UNL     1      54.087  17.367  -4.092  1.00  0.00     0.002 C 
BRANCH  20  21
HETATM   21  C13 UNL     1      54.156  18.557  -3.197  1.00  0.00     0.002 C 
BRANCH  21  22
HETATM   22  C14 UNL     1      53.773  18.366  -1.782  1.00  0.00     0.027 C 
BRANCH  22  23
HETATM   23  C15 UNL     1      52.514  19.014  -1.326  1.00  0.00     0.229 C 
BRANCH  23  24
HETATM   24  N2  UNL     1      51.315  18.590  -1.964  1.00  0.00    -0.079 N 
ATOM     25  H23 UNL     1      51.538  17.930  -2.709  1.00  0.00     0.274 HD
ATOM     26  H22 UNL     1      50.785  17.987  -1.334  1.00  0.00     0.274 HD
ATOM     27  H21 UNL     1      50.708  19.326  -2.326  1.00  0.00     0.274 HD
ENDBRANCH  23  24
ENDBRANCH  22  23
ENDBRANCH  21  22
ENDBRANCH  20  21
ENDBRANCH  19  20
ENDBRANCH  18  19
ENDBRANCH   9  18
BRANCH  13  28
HETATM   28  C18 UNL     1      49.942  11.078  -2.683  1.00  0.00     0.060 C 
BRANCH  28  29
HETATM   29  C19 UNL     1      49.630  10.043  -1.652  1.00  0.00     0.006 C 
BRANCH  29  30
HETATM   30  C20 UNL     1      49.894  10.600  -0.238  1.00  0.00    -0.004 C 
HETATM   31  C21 UNL     1      49.845   9.491   0.790  1.00  0.00     0.005 C 
ENDBRANCH  29  30
ENDBRANCH  28  29
ENDBRANCH  13  28
BRANCH  15  32
HETATM   32  O2  UNL     1      52.587   8.932  -3.869  1.00  0.00    -0.361 OA
ATOM     33  H2  UNL     1      53.085   9.303  -4.588  1.00  0.00     0.217 HD
ENDBRANCH  15  32
BRANCH   7  34
HETATM   34  N4  UNL     1      53.283  10.029  -0.822  1.00  0.00    -0.332 N 
HETATM   35  C24 UNL     1      53.451   8.726  -0.372  1.00  0.00     0.317 C 
HETATM   36  O3  UNL     1      53.697   7.804  -1.181  1.00  0.00    -0.247 OA
HETATM   37  N5  UNL     1      53.346   8.420   0.998  1.00  0.00    -0.339 N 
ATOM     38  H5  UNL     1      53.145   9.183   1.644  1.00  0.00     0.164 HD
ATOM     39  H4  UNL     1      53.083  10.749  -0.128  1.00  0.00     0.165 HD
BRANCH  37  40
HETATM   40  C25 UNL     1      53.506   7.089   1.545  1.00  0.00     0.086 A 
HETATM   41  C26 UNL     1      52.367   6.441   2.281  1.00  0.00     0.027 A 
HETATM   42  C27 UNL     1      53.604   6.893   3.016  1.00  0.00     0.027 A 
ENDBRANCH  37  40
ENDBRANCH   7  34
ENDBRANCH   3   4
TORSDOF 15
ENDMDL
