MODEL 1
REMARK VINA RESULT: -6.964396427      0.000      0.000
REMARK  13 active torsions:
REMARK  status: ('A' for Active; 'I' for Inactive)
REMARK       I    between atoms: N1_2  and  C3_4 
REMARK    1  A    between atoms: N3_6  and  C4_8 
REMARK    2  A    between atoms: C4_8  and  C5_12 
REMARK       I    between atoms: N5_16  and  C9_17 
REMARK    3  A    between atoms: C9_17  and  C10_19 
REMARK    4  A    between atoms: C10_19  and  N6_20 
REMARK    5  A    between atoms: N6_20  and  C11_23 
REMARK    6  A    between atoms: C11_23  and  C12_24 
REMARK    7  A    between atoms: C12_24  and  C13_25 
REMARK    8  A    between atoms: C13_25  and  C14_26 
REMARK    9  A    between atoms: C14_26  and  C15_27 
REMARK   10  A    between atoms: C15_27  and  C16_28 
REMARK   11  A    between atoms: C16_28  and  C17_29 
REMARK   12  A    between atoms: C17_29  and  C18_30 
REMARK   13  A    between atoms: C18_30  and  N7_31 
REMARK       I    between atoms: N7_31  and  C19_33 
REMARK       I    between atoms: C19_33  and  N9_37 
ROOT
HETATM    1  N6  UNL     1      51.820  12.320  -4.901  1.00  0.00    -0.067 N 
ATOM      2  H61 UNL     1      52.053  12.469  -5.883  1.00  0.00     0.277 HD
ATOM      3  H62 UNL     1      50.805  12.385  -4.975  1.00  0.00     0.277 HD
ENDROOT
BRANCH   1   4
HETATM    4  C10 UNL     1      52.361  13.346  -4.062  1.00  0.00     0.334 C 
BRANCH   4   5
HETATM    5  C9  UNL     1      52.380  14.673  -4.745  1.00  0.00     0.246 C 
HETATM    6  N5  UNL     1      53.132  15.717  -4.174  1.00  0.00    -0.339 N 
HETATM    7  C5  UNL     1      53.247  17.040  -4.725  1.00  0.00     0.154 C 
HETATM    8  C8  UNL     1      53.902  15.635  -2.968  1.00  0.00     0.127 C 
HETATM    9  C6  UNL     1      54.304  17.752  -3.903  1.00  0.00     0.035 C 
HETATM   10  C7  UNL     1      54.214  17.046  -2.558  1.00  0.00     0.022 C 
HETATM   11  O1  UNL     1      51.709  14.781  -5.812  1.00  0.00    -0.272 OA
BRANCH   7  12
HETATM   12  C4  UNL     1      51.996  17.813  -4.679  1.00  0.00     0.100 C 
HETATM   13  N4  UNL     1      51.554  18.430  -3.666  1.00  0.00    -0.387 N 
ATOM     14  H42 UNL     1      50.687  18.966  -3.633  1.00  0.00     0.157 HD
ATOM     15  H41 UNL     1      52.113  18.384  -2.814  1.00  0.00     0.157 HD
BRANCH  12  16
HETATM   16  N3  UNL     1      51.204  17.879  -5.884  1.00  0.00    -0.319 N 
HETATM   17  C3  UNL     1      51.408  18.845  -6.697  1.00  0.00     0.191 C 
HETATM   18  N1  UNL     1      50.651  18.936  -7.881  1.00  0.00    -0.364 N 
HETATM   19  N2  UNL     1      52.393  19.818  -6.399  1.00  0.00    -0.063 NA
HETATM   20  C1  UNL     1      51.119  19.804  -8.966  1.00  0.00     0.151 C 
HETATM   21  C2  UNL     1      49.409  18.192  -8.069  1.00  0.00     0.151 C 
ATOM     22  H3  UNL     1      50.497  17.170  -6.084  1.00  0.00     0.169 HD
ENDBRANCH  12  16
ENDBRANCH   7  12
ENDBRANCH   4   5
ENDBRANCH   1   4
BRANCH   1  23
HETATM   23  C11 UNL     1      52.237  11.031  -4.447  1.00  0.00     0.233 C 
BRANCH  23  24
HETATM   24  C12 UNL     1      53.086  10.317  -5.426  1.00  0.00     0.027 C 
BRANCH  24  25
HETATM   25  C13 UNL     1      54.066  11.070  -6.237  1.00  0.00     0.002 C 
BRANCH  25  26
HETATM   26  C14 UNL     1      55.349  10.474  -6.604  1.00  0.00     0.000 C 
BRANCH  26  27
HETATM   27  C15 UNL     1      55.730   9.176  -6.018  1.00  0.00     0.000 C 
BRANCH  27  28
HETATM   28  C16 UNL     1      57.226   9.143  -5.711  1.00  0.00     0.002 C 
BRANCH  28  29
HETATM   29  C17 UNL     1      57.918  10.429  -5.979  1.00  0.00     0.020 C 
BRANCH  29  30
HETATM   30  C18 UNL     1      59.354  10.294  -5.490  1.00  0.00     0.138 C 
BRANCH  30  31
HETATM   31  N7  UNL     1      59.320   9.665  -4.182  1.00  0.00    -0.227 N 
HETATM   32  C19 UNL     1      59.245  10.425  -2.978  1.00  0.00     0.669 C 
HETATM   33  N8  UNL     1      60.316  10.762  -2.331  1.00  0.00    -0.235 N 
HETATM   34  N9  UNL     1      58.014  10.845  -2.430  1.00  0.00    -0.218 N 
ATOM     35  H82 UNL     1      61.206  10.458  -2.727  1.00  0.00     0.174 HD
ATOM     36  H81 UNL     1      60.262  11.306  -1.470  1.00  0.00     0.174 HD
HETATM   37  C20 UNL     1      57.135   9.931  -1.751  1.00  0.00     0.141 C 
HETATM   38  C24 UNL     1      57.624  12.223  -2.551  1.00  0.00     0.141 C 
HETATM   39  C21 UNL     1      55.727   9.999  -2.307  1.00  0.00     0.020 C 
HETATM   40  C22 UNL     1      55.291  11.419  -2.562  1.00  0.00     0.003 C 
HETATM   41  C23 UNL     1      56.298  12.240  -3.303  1.00  0.00     0.020 C 
ATOM     42  H7  UNL     1      59.351   8.647  -4.124  1.00  0.00     0.177 HD
ENDBRANCH  30  31
ENDBRANCH  29  30
ENDBRANCH  28  29
ENDBRANCH  27  28
ENDBRANCH  26  27
ENDBRANCH  25  26
ENDBRANCH  24  25
ENDBRANCH  23  24
ENDBRANCH   1  23
TORSDOF 13
ENDMDL
MODEL 2
REMARK VINA RESULT: -6.915602893      3.863      6.535
REMARK  13 active torsions:
REMARK  status: ('A' for Active; 'I' for Inactive)
REMARK       I    between atoms: N1_2  and  C3_4 
REMARK    1  A    between atoms: N3_6  and  C4_8 
REMARK    2  A    between atoms: C4_8  and  C5_12 
REMARK       I    between atoms: N5_16  and  C9_17 
REMARK    3  A    between atoms: C9_17  and  C10_19 
REMARK    4  A    between atoms: C10_19  and  N6_20 
REMARK    5  A    between atoms: N6_20  and  C11_23 
REMARK    6  A    between atoms: C11_23  and  C12_24 
REMARK    7  A    between atoms: C12_24  and  C13_25 
REMARK    8  A    between atoms: C13_25  and  C14_26 
REMARK    9  A    between atoms: C14_26  and  C15_27 
REMARK   10  A    between atoms: C15_27  and  C16_28 
REMARK   11  A    between atoms: C16_28  and  C17_29 
REMARK   12  A    between atoms: C17_29  and  C18_30 
REMARK   13  A    between atoms: C18_30  and  N7_31 
REMARK       I    between atoms: N7_31  and  C19_33 
REMARK       I    between atoms: C19_33  and  N9_37 
ROOT
HETATM    1  N6  UNL     1      51.616  13.627  -6.417  1.00  0.00    -0.067 N 
ATOM      2  H61 UNL     1      51.660  14.239  -5.602  1.00  0.00     0.277 HD
ATOM      3  H62 UNL     1      52.579  13.730  -6.736  1.00  0.00     0.277 HD
ENDROOT
BRANCH   1   4
HETATM    4  C10 UNL     1      50.679  14.102  -7.390  1.00  0.00     0.334 C 
BRANCH   4   5
HETATM    5  C9  UNL     1      50.469  15.576  -7.290  1.00  0.00     0.246 C 
HETATM    6  N5  UNL     1      49.686  16.216  -8.269  1.00  0.00    -0.339 N 
HETATM    7  C5  UNL     1      49.395  17.624  -8.294  1.00  0.00     0.154 C 
HETATM    8  C8  UNL     1      49.053  15.579  -9.387  1.00  0.00     0.127 C 
HETATM    9  C6  UNL     1      48.366  17.826  -9.390  1.00  0.00     0.035 C 
HETATM   10  C7  UNL     1      48.655  16.671 -10.337  1.00  0.00     0.022 C 
HETATM   11  O1  UNL     1      51.016  16.171  -6.316  1.00  0.00    -0.272 OA
BRANCH   7  12
HETATM   12  C4  UNL     1      50.567  18.468  -8.571  1.00  0.00     0.100 C 
HETATM   13  N4  UNL     1      51.563  18.613  -7.805  1.00  0.00    -0.387 N 
ATOM     14  H42 UNL     1      52.376  19.198  -7.997  1.00  0.00     0.157 HD
ATOM     15  H41 UNL     1      51.548  18.101  -6.922  1.00  0.00     0.157 HD
BRANCH  12  16
HETATM   16  N3  UNL     1      50.590  19.193  -9.820  1.00  0.00    -0.319 N 
HETATM   17  C3  UNL     1      50.335  20.446  -9.803  1.00  0.00     0.191 C 
HETATM   18  N1  UNL     1      50.349  21.180 -11.005  1.00  0.00    -0.364 N 
HETATM   19  N2  UNL     1      50.038  21.087  -8.575  1.00  0.00    -0.063 NA
HETATM   20  C1  UNL     1      50.422  22.643 -10.950  1.00  0.00     0.151 C 
HETATM   21  C2  UNL     1      50.292  20.533 -12.312  1.00  0.00     0.151 C 
ATOM     22  H3  UNL     1      50.804  18.716 -10.697  1.00  0.00     0.169 HD
ENDBRANCH  12  16
ENDBRANCH   7  12
ENDBRANCH   4   5
ENDBRANCH   1   4
BRANCH   1  23
HETATM   23  C11 UNL     1      51.318  12.279  -6.053  1.00  0.00     0.233 C 
BRANCH  23  24
HETATM   24  C12 UNL     1      51.444  12.027  -4.600  1.00  0.00     0.027 C 
BRANCH  24  25
HETATM   25  C13 UNL     1      52.741  11.587  -4.041  1.00  0.00     0.002 C 
BRANCH  25  26
HETATM   26  C14 UNL     1      52.960  11.557  -2.596  1.00  0.00     0.000 C 
BRANCH  26  27
HETATM   27  C15 UNL     1      53.866  12.547  -1.987  1.00  0.00     0.000 C 
BRANCH  27  28
HETATM   28  C16 UNL     1      53.182  13.908  -1.881  1.00  0.00     0.002 C 
BRANCH  28  29
HETATM   29  C17 UNL     1      53.871  14.982  -2.640  1.00  0.00     0.020 C 
BRANCH  29  30
HETATM   30  C18 UNL     1      52.966  15.388  -3.796  1.00  0.00     0.138 C 
BRANCH  30  31
HETATM   31  N7  UNL     1      53.317  16.744  -4.178  1.00  0.00    -0.227 N 
HETATM   32  C19 UNL     1      52.597  17.877  -3.695  1.00  0.00     0.669 C 
HETATM   33  N8  UNL     1      51.612  18.382  -4.370  1.00  0.00    -0.235 N 
HETATM   34  N9  UNL     1      52.915  18.504  -2.471  1.00  0.00    -0.218 N 
ATOM     35  H82 UNL     1      51.383  17.929  -5.254  1.00  0.00     0.174 HD
ATOM     36  H81 UNL     1      51.098  19.191  -4.024  1.00  0.00     0.174 HD
HETATM   37  C20 UNL     1      54.072  19.346  -2.329  1.00  0.00     0.141 C 
HETATM   38  C24 UNL     1      52.061  18.297  -1.333  1.00  0.00     0.141 C 
HETATM   39  C21 UNL     1      54.919  18.928  -1.144  1.00  0.00     0.020 C 
HETATM   40  C22 UNL     1      54.077  18.590   0.059  1.00  0.00     0.003 C 
HETATM   41  C23 UNL     1      52.927  17.682  -0.240  1.00  0.00     0.020 C 
ATOM     42  H7  UNL     1      54.102  16.891  -4.812  1.00  0.00     0.177 HD
ENDBRANCH  30  31
ENDBRANCH  29  30
ENDBRANCH  28  29
ENDBRANCH  27  28
ENDBRANCH  26  27
ENDBRANCH  25  26
ENDBRANCH  24  25
ENDBRANCH  23  24
ENDBRANCH   1  23
TORSDOF 13
ENDMDL
MODEL 3
REMARK VINA RESULT: -6.791917436      2.562      3.443
REMARK  13 active torsions:
REMARK  status: ('A' for Active; 'I' for Inactive)
REMARK       I    between atoms: N1_2  and  C3_4 
REMARK    1  A    between atoms: N3_6  and  C4_8 
REMARK    2  A    between atoms: C4_8  and  C5_12 
REMARK       I    between atoms: N5_16  and  C9_17 
REMARK    3  A    between atoms: C9_17  and  C10_19 
REMARK    4  A    between atoms: C10_19  and  N6_20 
REMARK    5  A    between atoms: N6_20  and  C11_23 
REMARK    6  A    between atoms: C11_23  and  C12_24 
REMARK    7  A    between atoms: C12_24  and  C13_25 
REMARK    8  A    between atoms: C13_25  and  C14_26 
REMARK    9  A    between atoms: C14_26  and  C15_27 
REMARK   10  A    between atoms: C15_27  and  C16_28 
REMARK   11  A    between atoms: C16_28  and  C17_29 
REMARK   12  A    between atoms: C17_29  and  C18_30 
REMARK   13  A    between atoms: C18_30  and  N7_31 
REMARK       I    between atoms: N7_31  and  C19_33 
REMARK       I    between atoms: C19_33  and  N9_37 
ROOT
HETATM    1  N6  UNL     1      52.183  11.419  -7.000  1.00  0.00    -0.067 N 
ATOM      2  H61 UNL     1      52.754  12.190  -7.347  1.00  0.00     0.277 HD
ATOM      3  H62 UNL     1      51.312  11.649  -7.477  1.00  0.00     0.277 HD
ENDROOT
BRANCH   1   4
HETATM    4  C10 UNL     1      52.038  11.463  -5.577  1.00  0.00     0.334 C 
BRANCH   4   5
HETATM    5  C9  UNL     1      52.774  12.614  -4.975  1.00  0.00     0.246 C 
HETATM    6  N5  UNL     1      52.548  12.930  -3.623  1.00  0.00    -0.339 N 
HETATM    7  C5  UNL     1      53.191  14.002  -2.913  1.00  0.00     0.154 C 
HETATM    8  C8  UNL     1      51.656  12.241  -2.737  1.00  0.00     0.127 C 
HETATM    9  C6  UNL     1      52.806  13.838  -1.455  1.00  0.00     0.035 C 
HETATM   10  C7  UNL     1      51.463  13.128  -1.541  1.00  0.00     0.022 C 
HETATM   11  O1  UNL     1      53.569  13.246  -5.730  1.00  0.00    -0.272 OA
BRANCH   7  12
HETATM   12  C4  UNL     1      52.789  15.342  -3.371  1.00  0.00     0.100 C 
HETATM   13  N4  UNL     1      52.360  15.622  -4.528  1.00  0.00    -0.387 N 
ATOM     14  H42 UNL     1      52.082  16.550  -4.845  1.00  0.00     0.157 HD
ATOM     15  H41 UNL     1      52.289  14.853  -5.195  1.00  0.00     0.157 HD
BRANCH  12  16
HETATM   16  N3  UNL     1      52.891  16.430  -2.427  1.00  0.00    -0.319 N 
HETATM   17  C3  UNL     1      53.820  17.294  -2.589  1.00  0.00     0.191 C 
HETATM   18  N1  UNL     1      53.944  18.367  -1.685  1.00  0.00    -0.364 N 
HETATM   19  N2  UNL     1      54.719  17.164  -3.676  1.00  0.00    -0.063 NA
HETATM   20  C1  UNL     1      54.749  19.532  -2.063  1.00  0.00     0.151 C 
HETATM   21  C2  UNL     1      53.297  18.360  -0.376  1.00  0.00     0.151 C 
ATOM     22  H3  UNL     1      52.236  16.508  -1.648  1.00  0.00     0.169 HD
ENDBRANCH  12  16
ENDBRANCH   7  12
ENDBRANCH   4   5
ENDBRANCH   1   4
BRANCH   1  23
HETATM   23  C11 UNL     1      52.695  10.151  -7.411  1.00  0.00     0.233 C 
BRANCH  23  24
HETATM   24  C12 UNL     1      54.153  10.017  -7.198  1.00  0.00     0.027 C 
BRANCH  24  25
HETATM   25  C13 UNL     1      54.792   8.687  -7.302  1.00  0.00     0.002 C 
BRANCH  25  26
HETATM   26  C14 UNL     1      56.203   8.561  -7.663  1.00  0.00     0.000 C 
BRANCH  26  27
HETATM   27  C15 UNL     1      57.142   7.976  -6.689  1.00  0.00     0.000 C 
BRANCH  27  28
HETATM   28  C16 UNL     1      57.315   8.901  -5.486  1.00  0.00     0.002 C 
BRANCH  28  29
HETATM   29  C17 UNL     1      57.792  10.261  -5.844  1.00  0.00     0.020 C 
BRANCH  29  30
HETATM   30  C18 UNL     1      59.261  10.356  -5.452  1.00  0.00     0.138 C 
BRANCH  30  31
HETATM   31  N7  UNL     1      59.411   9.749  -4.142  1.00  0.00    -0.227 N 
HETATM   32  C19 UNL     1      59.338  10.514  -2.941  1.00  0.00     0.669 C 
HETATM   33  N8  UNL     1      60.407  10.992  -2.385  1.00  0.00    -0.235 N 
HETATM   34  N9  UNL     1      58.112  10.787  -2.297  1.00  0.00    -0.218 N 
ATOM     35  H82 UNL     1      61.293  10.794  -2.851  1.00  0.00     0.174 HD
ATOM     36  H81 UNL     1      60.355  11.539  -1.527  1.00  0.00     0.174 HD
HETATM   37  C20 UNL     1      57.411   9.783  -1.542  1.00  0.00     0.141 C 
HETATM   38  C24 UNL     1      57.544  12.104  -2.395  1.00  0.00     0.141 C 
HETATM   39  C21 UNL     1      55.966   9.668  -1.982  1.00  0.00     0.020 C 
HETATM   40  C22 UNL     1      55.337  11.018  -2.210  1.00  0.00     0.003 C 
HETATM   41  C23 UNL     1      56.171  11.944  -3.036  1.00  0.00     0.020 C 
ATOM     42  H7  UNL     1      59.573   8.744  -4.080  1.00  0.00     0.177 HD
ENDBRANCH  30  31
ENDBRANCH  29  30
ENDBRANCH  28  29
ENDBRANCH  27  28
ENDBRANCH  26  27
ENDBRANCH  25  26
ENDBRANCH  24  25
ENDBRANCH  23  24
ENDBRANCH   1  23
TORSDOF 13
ENDMDL
MODEL 4
REMARK VINA RESULT: -6.747215401      4.246     11.855
REMARK  13 active torsions:
REMARK  status: ('A' for Active; 'I' for Inactive)
REMARK       I    between atoms: N1_2  and  C3_4 
REMARK    1  A    between atoms: N3_6  and  C4_8 
REMARK    2  A    between atoms: C4_8  and  C5_12 
REMARK       I    between atoms: N5_16  and  C9_17 
REMARK    3  A    between atoms: C9_17  and  C10_19 
REMARK    4  A    between atoms: C10_19  and  N6_20 
REMARK    5  A    between atoms: N6_20  and  C11_23 
REMARK    6  A    between atoms: C11_23  and  C12_24 
REMARK    7  A    between atoms: C12_24  and  C13_25 
REMARK    8  A    between atoms: C13_25  and  C14_26 
REMARK    9  A    between atoms: C14_26  and  C15_27 
REMARK   10  A    between atoms: C15_27  and  C16_28 
REMARK   11  A    between atoms: C16_28  and  C17_29 
REMARK   12  A    between atoms: C17_29  and  C18_30 
REMARK   13  A    between atoms: C18_30  and  N7_31 
REMARK       I    between atoms: N7_31  and  C19_33 
REMARK       I    between atoms: C19_33  and  N9_37 
ROOT
HETATM    1  N6  UNL     1      51.591  19.612  -6.174  1.00  0.00    -0.067 N 
ATOM      2  H61 UNL     1      51.934  20.560  -6.328  1.00  0.00     0.277 HD
ATOM      3  H62 UNL     1      51.131  19.761  -5.277  1.00  0.00     0.277 HD
ENDROOT
BRANCH   1   4
HETATM    4  C10 UNL     1      52.662  18.668  -6.073  1.00  0.00     0.334 C 
BRANCH   4   5
HETATM    5  C9  UNL     1      52.371  17.596  -5.076  1.00  0.00     0.246 C 
HETATM    6  N5  UNL     1      52.898  17.717  -3.778  1.00  0.00    -0.339 N 
HETATM    7  C5  UNL     1      52.692  16.768  -2.718  1.00  0.00     0.154 C 
HETATM    8  C8  UNL     1      53.714  18.795  -3.300  1.00  0.00     0.127 C 
HETATM    9  C6  UNL     1      53.263  17.402  -1.463  1.00  0.00     0.035 C 
HETATM   10  C7  UNL     1      54.335  18.330  -2.014  1.00  0.00     0.022 C 
HETATM   11  O1  UNL     1      51.654  16.628  -5.466  1.00  0.00    -0.272 OA
BRANCH   7  12
HETATM   12  C4  UNL     1      53.350  15.472  -2.945  1.00  0.00     0.100 C 
HETATM   13  N4  UNL     1      54.592  15.253  -2.843  1.00  0.00    -0.387 N 
ATOM     14  H42 UNL     1      55.048  14.355  -3.001  1.00  0.00     0.157 HD
ATOM     15  H41 UNL     1      55.182  16.043  -2.582  1.00  0.00     0.157 HD
BRANCH  12  16
HETATM   16  N3  UNL     1      52.514  14.353  -3.316  1.00  0.00    -0.319 N 
HETATM   17  C3  UNL     1      52.209  13.496  -2.417  1.00  0.00     0.191 C 
HETATM   18  N1  UNL     1      51.396  12.394  -2.747  1.00  0.00    -0.364 N 
HETATM   19  N2  UNL     1      52.693  13.659  -1.096  1.00  0.00    -0.063 NA
HETATM   20  C1  UNL     1      50.754  11.630  -1.674  1.00  0.00     0.151 C 
HETATM   21  C2  UNL     1      51.168  11.983  -4.130  1.00  0.00     0.151 C 
ATOM     22  H3  UNL     1      52.175  14.249  -4.272  1.00  0.00     0.169 HD
ENDBRANCH  12  16
ENDBRANCH   7  12
ENDBRANCH   4   5
ENDBRANCH   1   4
BRANCH   1  23
HETATM   23  C11 UNL     1      50.666  19.212  -7.186  1.00  0.00     0.233 C 
BRANCH  23  24
HETATM   24  C12 UNL     1      50.880  19.904  -8.476  1.00  0.00     0.027 C 
BRANCH  24  25
HETATM   25  C13 UNL     1      50.140  21.150  -8.773  1.00  0.00     0.002 C 
BRANCH  25  26
HETATM   26  C14 UNL     1      50.397  21.897 -10.003  1.00  0.00     0.000 C 
BRANCH  26  27
HETATM   27  C15 UNL     1      51.191  21.265 -11.072  1.00  0.00     0.000 C 
BRANCH  27  28
HETATM   28  C16 UNL     1      51.110  22.084 -12.359  1.00  0.00     0.002 C 
BRANCH  28  29
HETATM   29  C17 UNL     1      50.415  23.386 -12.192  1.00  0.00     0.020 C 
BRANCH  29  30
HETATM   30  C18 UNL     1      49.247  23.418 -13.169  1.00  0.00     0.138 C 
BRANCH  30  31
HETATM   31  N7  UNL     1      48.068  22.947 -12.464  1.00  0.00    -0.227 N 
HETATM   32  C19 UNL     1      47.176  21.992 -13.037  1.00  0.00     0.669 C 
HETATM   33  N8  UNL     1      46.125  22.369 -13.695  1.00  0.00    -0.235 N 
HETATM   34  N9  UNL     1      47.384  20.602 -12.916  1.00  0.00    -0.218 N 
ATOM     35  H82 UNL     1      45.974  23.375 -13.781  1.00  0.00     0.174 HD
ATOM     36  H81 UNL     1      45.487  21.687 -14.104  1.00  0.00     0.174 HD
HETATM   37  C20 UNL     1      47.133  19.901 -11.685  1.00  0.00     0.141 C 
HETATM   38  C24 UNL     1      47.862  19.862 -14.052  1.00  0.00     0.141 C 
HETATM   39  C21 UNL     1      48.329  19.068 -11.268  1.00  0.00     0.020 C 
HETATM   40  C22 UNL     1      48.948  18.347 -12.436  1.00  0.00     0.003 C 
HETATM   41  C23 UNL     1      49.175  19.213 -13.634  1.00  0.00     0.020 C 
ATOM     42  H7  UNL     1      47.872  23.310 -11.532  1.00  0.00     0.177 HD
ENDBRANCH  30  31
ENDBRANCH  29  30
ENDBRANCH  28  29
ENDBRANCH  27  28
ENDBRANCH  26  27
ENDBRANCH  25  26
ENDBRANCH  24  25
ENDBRANCH  23  24
ENDBRANCH   1  23
TORSDOF 13
ENDMDL
MODEL 5
REMARK VINA RESULT: -6.717979226      1.959      3.353
REMARK  13 active torsions:
REMARK  status: ('A' for Active; 'I' for Inactive)
REMARK       I    between atoms: N1_2  and  C3_4 
REMARK    1  A    between atoms: N3_6  and  C4_8 
REMARK    2  A    between atoms: C4_8  and  C5_12 
REMARK       I    between atoms: N5_16  and  C9_17 
REMARK    3  A    between atoms: C9_17  and  C10_19 
REMARK    4  A    between atoms: C10_19  and  N6_20 
REMARK    5  A    between atoms: N6_20  and  C11_23 
REMARK    6  A    between atoms: C11_23  and  C12_24 
REMARK    7  A    between atoms: C12_24  and  C13_25 
REMARK    8  A    between atoms: C13_25  and  C14_26 
REMARK    9  A    between atoms: C14_26  and  C15_27 
REMARK   10  A    between atoms: C15_27  and  C16_28 
REMARK   11  A    between atoms: C16_28  and  C17_29 
REMARK   12  A    between atoms: C17_29  and  C18_30 
REMARK   13  A    between atoms: C18_30  and  N7_31 
REMARK       I    between atoms: N7_31  and  C19_33 
REMARK       I    between atoms: C19_33  and  N9_37 
ROOT
HETATM    1  N6  UNL     1      51.652  13.838  -1.348  1.00  0.00    -0.067 N 
ATOM      2  H61 UNL     1      50.879  14.074  -1.971  1.00  0.00     0.277 HD
ATOM      3  H62 UNL     1      51.400  14.435  -0.561  1.00  0.00     0.277 HD
ENDROOT
BRANCH   1   4
HETATM    4  C10 UNL     1      52.917  14.201  -1.909  1.00  0.00     0.334 C 
BRANCH   4   5
HETATM    5  C9  UNL     1      52.769  14.882  -3.229  1.00  0.00     0.246 C 
HETATM    6  N5  UNL     1      53.338  16.157  -3.402  1.00  0.00    -0.339 N 
HETATM    7  C5  UNL     1      53.280  16.923  -4.617  1.00  0.00     0.154 C 
HETATM    8  C8  UNL     1      54.065  16.894  -2.410  1.00  0.00     0.127 C 
HETATM    9  C6  UNL     1      54.189  18.119  -4.410  1.00  0.00     0.035 C 
HETATM   10  C7  UNL     1      54.153  18.310  -2.900  1.00  0.00     0.022 C 
HETATM   11  O1  UNL     1      52.130  14.260  -4.128  1.00  0.00    -0.272 OA
BRANCH   7  12
HETATM   12  C4  UNL     1      51.929  17.397  -4.956  1.00  0.00     0.100 C 
HETATM   13  N4  UNL     1      51.398  18.462  -4.528  1.00  0.00    -0.387 N 
ATOM     14  H42 UNL     1      50.461  18.791  -4.762  1.00  0.00     0.157 HD
ATOM     15  H41 UNL     1      51.955  19.037  -3.895  1.00  0.00     0.157 HD
BRANCH  12  16
HETATM   16  N3  UNL     1      51.139  16.584  -5.851  1.00  0.00    -0.319 N 
HETATM   17  C3  UNL     1      51.115  16.890  -7.093  1.00  0.00     0.191 C 
HETATM   18  N1  UNL     1      50.354  16.117  -7.991  1.00  0.00    -0.364 N 
HETATM   19  N2  UNL     1      51.852  18.008  -7.556  1.00  0.00    -0.063 NA
HETATM   20  C1  UNL     1      50.608  16.232  -9.430  1.00  0.00     0.151 C 
HETATM   21  C2  UNL     1      49.314  15.197  -7.537  1.00  0.00     0.151 C 
ATOM     22  H3  UNL     1      50.613  15.783  -5.502  1.00  0.00     0.169 HD
ENDBRANCH  12  16
ENDBRANCH   7  12
ENDBRANCH   4   5
ENDBRANCH   1   4
BRANCH   1  23
HETATM   23  C11 UNL     1      51.642  12.455  -0.990  1.00  0.00     0.233 C 
BRANCH  23  24
HETATM   24  C12 UNL     1      52.991  11.920  -0.700  1.00  0.00     0.027 C 
BRANCH  24  25
HETATM   25  C13 UNL     1      53.152  10.820   0.275  1.00  0.00     0.002 C 
BRANCH  25  26
HETATM   26  C14 UNL     1      54.188   9.805   0.093  1.00  0.00     0.000 C 
BRANCH  26  27
HETATM   27  C15 UNL     1      54.919   9.748  -1.186  1.00  0.00     0.000 C 
BRANCH  27  28
HETATM   28  C16 UNL     1      56.372  10.181  -0.995  1.00  0.00     0.002 C 
BRANCH  28  29
HETATM   29  C17 UNL     1      57.084   9.423   0.064  1.00  0.00     0.020 C 
BRANCH  29  30
HETATM   30  C18 UNL     1      58.325   8.801  -0.564  1.00  0.00     0.138 C 
BRANCH  30  31
HETATM   31  N7  UNL     1      59.141   9.878  -1.093  1.00  0.00    -0.227 N 
HETATM   32  C19 UNL     1      59.708   9.826  -2.401  1.00  0.00     0.669 C 
HETATM   33  N8  UNL     1      60.909   9.377  -2.593  1.00  0.00    -0.235 N 
HETATM   34  N9  UNL     1      59.003  10.258  -3.544  1.00  0.00    -0.218 N 
ATOM     35  H82 UNL     1      61.419   9.065  -1.766  1.00  0.00     0.174 HD
ATOM     36  H81 UNL     1      61.314   9.339  -3.527  1.00  0.00     0.174 HD
HETATM   37  C20 UNL     1      58.804  11.654  -3.830  1.00  0.00     0.141 C 
HETATM   38  C24 UNL     1      58.465   9.280  -4.450  1.00  0.00     0.141 C 
HETATM   39  C21 UNL     1      57.343  11.965  -4.085  1.00  0.00     0.020 C 
HETATM   40  C22 UNL     1      56.686  10.916  -4.944  1.00  0.00     0.003 C 
HETATM   41  C23 UNL     1      56.960   9.512  -4.506  1.00  0.00     0.020 C 
ATOM     42  H7  UNL     1      59.315  10.698  -0.511  1.00  0.00     0.177 HD
ENDBRANCH  30  31
ENDBRANCH  29  30
ENDBRANCH  28  29
ENDBRANCH  27  28
ENDBRANCH  26  27
ENDBRANCH  25  26
ENDBRANCH  24  25
ENDBRANCH  23  24
ENDBRANCH   1  23
TORSDOF 13
ENDMDL
