MODEL 1
REMARK VINA RESULT: -4.540601231      0.000      0.000
REMARK  1 active torsions:
REMARK  status: ('A' for Active; 'I' for Inactive)
REMARK    1  A    between atoms: C2_2  and  C3_3 
ROOT
HETATM    1  C3  UNL     1      29.286  14.856  17.479  1.00  0.00     0.055 C 
HETATM    2  N1  UNL     1      29.382  16.024  18.267  1.00  0.00    -0.102 NA
HETATM    3  C4  UNL     1      28.679  13.804  17.977  1.00  0.00    -0.012 A 
HETATM    4  C5  UNL     1      28.504  12.540  17.288  1.00  0.00     0.013 A 
HETATM    5  C6  UNL     1      27.851  11.756  18.125  1.00  0.00     0.001 A 
HETATM    6  C7  UNL     1      27.577  12.466  19.373  1.00  0.00     0.001 A 
HETATM    7  C8  UNL     1      28.072  13.694  19.290  1.00  0.00     0.013 A 
ENDROOT
BRANCH   1   8
HETATM    8  C2  UNL     1      29.857  14.837  16.140  1.00  0.00     0.017 C 
HETATM    9  C1  UNL     1      29.320  15.558  15.184  1.00  0.00     0.013 C 
ENDBRANCH   1   8
TORSDOF 1
ENDMDL
MODEL 2
REMARK VINA RESULT: -4.430227945      1.957      3.929
REMARK  1 active torsions:
REMARK  status: ('A' for Active; 'I' for Inactive)
REMARK    1  A    between atoms: C2_2  and  C3_3 
ROOT
HETATM    1  C3  UNL     1      29.810  13.161  18.834  1.00  0.00     0.055 C 
HETATM    2  N1  UNL     1      30.920  12.442  18.338  1.00  0.00    -0.102 NA
HETATM    3  C4  UNL     1      29.284  14.106  18.089  1.00  0.00    -0.012 A 
HETATM    4  C5  UNL     1      28.146  14.925  18.463  1.00  0.00     0.013 A 
HETATM    5  C6  UNL     1      27.937  15.742  17.449  1.00  0.00     0.001 A 
HETATM    6  C7  UNL     1      28.912  15.493  16.389  1.00  0.00     0.001 A 
HETATM    7  C8  UNL     1      29.722  14.512  16.767  1.00  0.00     0.013 A 
ENDROOT
BRANCH   1   8
HETATM    8  C2  UNL     1      29.273  12.848  20.150  1.00  0.00     0.017 C 
HETATM    9  C1  UNL     1      29.266  11.609  20.582  1.00  0.00     0.013 C 
ENDBRANCH   1   8
TORSDOF 1
ENDMDL
MODEL 3
REMARK VINA RESULT: -4.346759521      1.571      3.643
REMARK  1 active torsions:
REMARK  status: ('A' for Active; 'I' for Inactive)
REMARK    1  A    between atoms: C2_2  and  C3_3 
ROOT
HETATM    1  C3  UNL     1      28.575  14.285  19.209  1.00  0.00     0.055 C 
HETATM    2  N1  UNL     1      27.497  14.896  19.888  1.00  0.00    -0.102 NA
HETATM    3  C4  UNL     1      28.855  14.674  17.987  1.00  0.00    -0.012 A 
HETATM    4  C5  UNL     1      29.928  14.141  17.169  1.00  0.00     0.013 A 
HETATM    5  C6  UNL     1      29.870  14.792  16.023  1.00  0.00     0.001 A 
HETATM    6  C7  UNL     1      28.776  15.761  16.047  1.00  0.00     0.001 A 
HETATM    7  C8  UNL     1      28.164  15.695  17.222  1.00  0.00     0.013 A 
ENDROOT
BRANCH   1   8
HETATM    8  C2  UNL     1      29.350  13.244  19.869  1.00  0.00     0.017 C 
HETATM    9  C1  UNL     1      28.807  12.075  20.116  1.00  0.00     0.013 C 
ENDBRANCH   1   8
TORSDOF 1
ENDMDL
MODEL 4
REMARK VINA RESULT: -4.312535948      1.932      2.547
REMARK  1 active torsions:
REMARK  status: ('A' for Active; 'I' for Inactive)
REMARK    1  A    between atoms: C2_2  and  C3_3 
ROOT
HETATM    1  C3  UNL     1      28.589  15.606  16.898  1.00  0.00     0.055 C 
HETATM    2  N1  UNL     1      29.188  15.985  15.677  1.00  0.00    -0.102 NA
HETATM    3  C4  UNL     1      29.087  14.588  17.559  1.00  0.00    -0.012 A 
HETATM    4  C5  UNL     1      28.580  14.086  18.822  1.00  0.00     0.013 A 
HETATM    5  C6  UNL     1      29.353  13.066  19.146  1.00  0.00     0.001 A 
HETATM    6  C7  UNL     1      30.379  12.865  18.124  1.00  0.00     0.001 A 
HETATM    7  C8  UNL     1      30.224  13.775  17.170  1.00  0.00     0.013 A 
ENDROOT
BRANCH   1   8
HETATM    8  C2  UNL     1      27.438  16.343  17.400  1.00  0.00     0.017 C 
HETATM    9  C1  UNL     1      26.885  17.281  16.667  1.00  0.00     0.013 C 
ENDBRANCH   1   8
TORSDOF 1
ENDMDL
MODEL 5
REMARK VINA RESULT: -4.306444822      2.005      3.439
REMARK  1 active torsions:
REMARK  status: ('A' for Active; 'I' for Inactive)
REMARK    1  A    between atoms: C2_2  and  C3_3 
ROOT
HETATM    1  C3  UNL     1      29.552  13.149  18.993  1.00  0.00     0.055 C 
HETATM    2  N1  UNL     1      29.038  13.071  20.306  1.00  0.00    -0.102 NA
HETATM    3  C4  UNL     1      29.102  14.087  18.192  1.00  0.00    -0.012 A 
HETATM    4  C5  UNL     1      29.534  14.290  16.822  1.00  0.00     0.013 A 
HETATM    5  C6  UNL     1      28.847  15.324  16.373  1.00  0.00     0.001 A 
HETATM    6  C7  UNL     1      27.955  15.829  17.415  1.00  0.00     0.001 A 
HETATM    7  C8  UNL     1      28.104  15.091  18.508  1.00  0.00     0.013 A 
ENDROOT
BRANCH   1   8
HETATM    8  C2  UNL     1      30.561  12.197  18.552  1.00  0.00     0.017 C 
HETATM    9  C1  UNL     1      30.396  10.914  18.770  1.00  0.00     0.013 C 
ENDBRANCH   1   8
TORSDOF 1
ENDMDL
