MODEL 1
REMARK VINA RESULT: -6.699988431      0.000      0.000
REMARK  11 active torsions:
REMARK  status: ('A' for Active; 'I' for Inactive)
REMARK    1  A    between atoms: C3_3  and  N1_4 
REMARK    2  A    between atoms: N2_7  and  C6_8 
REMARK    3  A    between atoms: C6_8  and  C7_9 
REMARK    4  A    between atoms: C8_10  and  O1_11 
REMARK    5  A    between atoms: C8_10  and  C9_13 
REMARK    6  A    between atoms: C9_13  and  C10_14 
REMARK    7  A    between atoms: C10_14  and  C11_15 
REMARK    8  A    between atoms: N3_19  and  C16_21 
REMARK    9  A    between atoms: C20_25  and  C21_26 
REMARK   10  A    between atoms: C22_27  and  C23_28 
REMARK   11  A    between atoms: C23_28  and  O2_29 
ROOT
HETATM    1  C1  UNL     1      20.920 -12.644  19.814  1.00  0.00     0.013 C 
HETATM    2  C2  UNL     1      20.196 -13.506  20.245  1.00  0.00    -0.089 C 
HETATM    3  C3  UNL     1      19.308 -14.529  20.759  1.00  0.00     0.333 C 
ENDROOT
BRANCH   3   4
HETATM    4  N1  UNL     1      18.161 -13.901  21.340  1.00  0.00    -0.014 N 
HETATM    5  C4  UNL     1      18.109 -12.484  21.162  1.00  0.00     0.270 C 
HETATM    6  C5  UNL     1      16.630 -12.234  21.465  1.00  0.00     0.269 C 
HETATM    7  N2  UNL     1      16.000 -13.517  21.634  1.00  0.00    -0.021 N 
HETATM    8  C18 UNL     1      16.395 -14.077  22.865  1.00  0.00     0.269 C 
HETATM    9  C20 UNL     1      16.913 -14.307  20.729  1.00  0.00     0.471 C 
HETATM   10  C19 UNL     1      17.920 -14.229  22.703  1.00  0.00     0.270 C 
BRANCH   7  11
HETATM   11  C6  UNL     1      14.712 -13.683  21.148  1.00  0.00     0.278 C 
BRANCH  11  12
HETATM   12  C7  UNL     1      13.487 -13.169  21.712  1.00  0.00     0.250 C 
HETATM   13  C8  UNL     1      12.260 -14.005  21.292  1.00  0.00     0.090 C 
HETATM   14  C13 UNL     1      11.274 -13.352  22.225  1.00  0.00     0.068 C 
HETATM   15  C14 UNL     1      11.600 -11.907  21.958  1.00  0.00     0.240 C 
HETATM   16  N3  UNL     1      12.990 -11.877  21.433  1.00  0.00    -0.062 N 
HETATM   17  C15 UNL     1      12.970 -11.496  20.040  1.00  0.00     0.273 C 
BRANCH  13  18
HETATM   18  O1  UNL     1      11.862 -13.796  20.006  1.00  0.00    -0.388 OA
ATOM     19  H1  UNL     1      12.505 -14.056  19.356  1.00  0.00     0.210 HD
ENDBRANCH  13  18
BRANCH  13  20
HETATM   20  C9  UNL     1      12.417 -15.464  21.534  1.00  0.00     0.040 C 
BRANCH  20  21
HETATM   21  C10 UNL     1      12.122 -16.345  20.353  1.00  0.00     0.003 C 
BRANCH  21  22
HETATM   22  C11 UNL     1      13.456 -16.980  19.941  1.00  0.00    -0.004 C 
HETATM   23  C12 UNL     1      13.884 -16.353  18.630  1.00  0.00     0.005 C 
ENDBRANCH  21  22
ENDBRANCH  20  21
ENDBRANCH  13  20
BRANCH  16  24
HETATM   24  C16 UNL     1      13.589 -10.761  22.143  1.00  0.00     0.233 C 
HETATM   25  C17 UNL     1      12.686 -10.363  23.324  1.00  0.00     0.035 C 
ENDBRANCH  16  24
ENDBRANCH  11  12
ENDBRANCH   7  11
BRANCH   9  26
HETATM   26  C21 UNL     1      16.771 -13.804  19.386  1.00  0.00    -0.042 C 
HETATM   27  C22 UNL     1      16.665 -13.405  18.272  1.00  0.00    -0.077 C 
BRANCH  27  28
HETATM   28  C23 UNL     1      16.550 -12.932  16.892  1.00  0.00     0.257 C 
BRANCH  28  29
HETATM   29  O2  UNL     1      16.660 -11.535  16.931  1.00  0.00    -0.389 OA
ATOM     30  H2  UNL     1      15.842 -11.204  17.283  1.00  0.00     0.210 HD
ENDBRANCH  28  29
ENDBRANCH  27  28
ENDBRANCH   9  26
ENDBRANCH   3   4
TORSDOF 11
ENDMDL
MODEL 2
REMARK VINA RESULT: -6.659539620      2.485      5.985
REMARK  11 active torsions:
REMARK  status: ('A' for Active; 'I' for Inactive)
REMARK    1  A    between atoms: C3_3  and  N1_4 
REMARK    2  A    between atoms: N2_7  and  C6_8 
REMARK    3  A    between atoms: C6_8  and  C7_9 
REMARK    4  A    between atoms: C8_10  and  O1_11 
REMARK    5  A    between atoms: C8_10  and  C9_13 
REMARK    6  A    between atoms: C9_13  and  C10_14 
REMARK    7  A    between atoms: C10_14  and  C11_15 
REMARK    8  A    between atoms: N3_19  and  C16_21 
REMARK    9  A    between atoms: C20_25  and  C21_26 
REMARK   10  A    between atoms: C22_27  and  C23_28 
REMARK   11  A    between atoms: C23_28  and  O2_29 
ROOT
HETATM    1  C1  UNL     1      13.428 -10.444  22.436  1.00  0.00     0.013 C 
HETATM    2  C2  UNL     1      13.264 -11.086  21.430  1.00  0.00    -0.089 C 
HETATM    3  C3  UNL     1      13.063 -11.877  20.232  1.00  0.00     0.333 C 
ENDROOT
BRANCH   3   4
HETATM    4  N1  UNL     1      13.435 -13.232  20.501  1.00  0.00    -0.014 N 
HETATM    5  C4  UNL     1      13.264 -14.122  19.397  1.00  0.00     0.270 C 
HETATM    6  C5  UNL     1      14.144 -15.287  19.858  1.00  0.00     0.269 C 
HETATM    7  N2  UNL     1      14.806 -14.875  21.068  1.00  0.00    -0.021 N 
HETATM    8  C18 UNL     1      13.880 -14.853  22.128  1.00  0.00     0.269 C 
HETATM    9  C20 UNL     1      14.846 -13.395  20.778  1.00  0.00     0.471 C 
HETATM   10  C19 UNL     1      12.857 -13.794  21.674  1.00  0.00     0.270 C 
BRANCH   7  11
HETATM   11  C6  UNL     1      16.118 -15.281  21.266  1.00  0.00     0.278 C 
BRANCH  11  12
HETATM   12  C7  UNL     1      16.663 -15.963  22.415  1.00  0.00     0.250 C 
HETATM   13  C8  UNL     1      18.171 -15.687  22.591  1.00  0.00     0.090 C 
HETATM   14  C13 UNL     1      18.308 -16.321  23.951  1.00  0.00     0.068 C 
HETATM   15  C14 UNL     1      17.581 -17.614  23.696  1.00  0.00     0.240 C 
HETATM   16  N3  UNL     1      16.669 -17.369  22.549  1.00  0.00    -0.062 N 
HETATM   17  C15 UNL     1      17.131 -18.109  21.398  1.00  0.00     0.273 C 
BRANCH  13  18
HETATM   18  O1  UNL     1      18.962 -16.356  21.705  1.00  0.00    -0.388 OA
ATOM     19  H1  UNL     1      19.507 -17.024  22.104  1.00  0.00     0.210 HD
ENDBRANCH  13  18
BRANCH  13  20
HETATM   20  C9  UNL     1      18.522 -14.242  22.580  1.00  0.00     0.040 C 
BRANCH  20  21
HETATM   21  C10 UNL     1      19.806 -13.900  21.877  1.00  0.00     0.003 C 
BRANCH  21  22
HETATM   22  C11 UNL     1      19.427 -12.993  20.699  1.00  0.00    -0.004 C 
HETATM   23  C12 UNL     1      20.529 -13.091  19.665  1.00  0.00     0.005 C 
ENDBRANCH  21  22
ENDBRANCH  20  21
ENDBRANCH  13  20
BRANCH  16  24
HETATM   24  C16 UNL     1      15.433 -18.007  22.965  1.00  0.00     0.233 C 
HETATM   25  C17 UNL     1      15.698 -18.868  24.213  1.00  0.00     0.035 C 
ENDBRANCH  16  24
ENDBRANCH  11  12
ENDBRANCH   7  11
BRANCH   9  26
HETATM   26  C21 UNL     1      15.663 -13.180  19.610  1.00  0.00    -0.042 C 
HETATM   27  C22 UNL     1      16.320 -12.991  18.640  1.00  0.00    -0.077 C 
BRANCH  27  28
HETATM   28  C23 UNL     1      17.112 -12.747  17.433  1.00  0.00     0.257 C 
BRANCH  28  29
HETATM   29  O2  UNL     1      16.622 -11.567  16.858  1.00  0.00    -0.389 OA
ATOM     30  H2  UNL     1      17.280 -11.267  16.242  1.00  0.00     0.210 HD
ENDBRANCH  28  29
ENDBRANCH  27  28
ENDBRANCH   9  26
ENDBRANCH   3   4
TORSDOF 11
ENDMDL
MODEL 3
REMARK VINA RESULT: -6.603741438      2.474      5.513
REMARK  11 active torsions:
REMARK  status: ('A' for Active; 'I' for Inactive)
REMARK    1  A    between atoms: C3_3  and  N1_4 
REMARK    2  A    between atoms: N2_7  and  C6_8 
REMARK    3  A    between atoms: C6_8  and  C7_9 
REMARK    4  A    between atoms: C8_10  and  O1_11 
REMARK    5  A    between atoms: C8_10  and  C9_13 
REMARK    6  A    between atoms: C9_13  and  C10_14 
REMARK    7  A    between atoms: C10_14  and  C11_15 
REMARK    8  A    between atoms: N3_19  and  C16_21 
REMARK    9  A    between atoms: C20_25  and  C21_26 
REMARK   10  A    between atoms: C22_27  and  C23_28 
REMARK   11  A    between atoms: C23_28  and  O2_29 
ROOT
HETATM    1  C1  UNL     1      11.659 -10.287  24.310  1.00  0.00     0.013 C 
HETATM    2  C2  UNL     1      12.440 -10.463  23.409  1.00  0.00    -0.089 C 
HETATM    3  C3  UNL     1      13.364 -10.687  22.315  1.00  0.00     0.333 C 
ENDROOT
BRANCH   3   4
HETATM    4  N1  UNL     1      13.040 -11.927  21.678  1.00  0.00    -0.014 N 
HETATM    5  C4  UNL     1      13.543 -12.058  20.348  1.00  0.00     0.270 C 
HETATM    6  C5  UNL     1      13.430 -13.574  20.171  1.00  0.00     0.269 C 
HETATM    7  N2  UNL     1      13.022 -14.127  21.435  1.00  0.00    -0.021 N 
HETATM    8  C18 UNL     1      11.667 -13.821  21.669  1.00  0.00     0.269 C 
HETATM    9  C20 UNL     1      13.642 -13.075  22.322  1.00  0.00     0.471 C 
HETATM   10  C19 UNL     1      11.663 -12.281  21.715  1.00  0.00     0.270 C 
BRANCH   7  11
HETATM   11  C6  UNL     1      13.562 -15.346  21.821  1.00  0.00     0.278 C 
BRANCH  11  12
HETATM   12  C7  UNL     1      13.996 -16.425  20.966  1.00  0.00     0.250 C 
HETATM   13  C8  UNL     1      13.001 -17.604  20.972  1.00  0.00     0.090 C 
HETATM   14  C13 UNL     1      13.631 -18.371  19.839  1.00  0.00     0.068 C 
HETATM   15  C14 UNL     1      15.072 -18.315  20.273  1.00  0.00     0.240 C 
HETATM   16  N3  UNL     1      15.198 -17.137  21.170  1.00  0.00    -0.062 N 
HETATM   17  C15 UNL     1      15.445 -17.584  22.521  1.00  0.00     0.273 C 
BRANCH  13  18
HETATM   18  O1  UNL     1      13.049 -18.361  22.104  1.00  0.00    -0.388 OA
ATOM     19  H1  UNL     1      13.415 -19.227  21.973  1.00  0.00     0.210 HD
ENDBRANCH  13  18
BRANCH  13  20
HETATM   20  C9  UNL     1      11.595 -17.205  20.698  1.00  0.00     0.040 C 
BRANCH  20  21
HETATM   21  C10 UNL     1      11.332 -16.693  19.310  1.00  0.00     0.003 C 
BRANCH  21  22
HETATM   22  C11 UNL     1      10.132 -17.484  18.776  1.00  0.00    -0.004 C 
HETATM   23  C12 UNL     1      10.634 -18.416  17.692  1.00  0.00     0.005 C 
ENDBRANCH  21  22
ENDBRANCH  20  21
ENDBRANCH  13  20
BRANCH  16  24
HETATM   24  C16 UNL     1      16.430 -16.511  20.725  1.00  0.00     0.233 C 
HETATM   25  C17 UNL     1      17.573 -16.897  21.681  1.00  0.00     0.035 C 
ENDBRANCH  16  24
ENDBRANCH  11  12
ENDBRANCH   7  11
BRANCH   9  26
HETATM   26  C21 UNL     1      15.072 -13.115  22.146  1.00  0.00    -0.042 C 
HETATM   27  C22 UNL     1      16.252 -13.141  22.019  1.00  0.00    -0.077 C 
BRANCH  27  28
HETATM   28  C23 UNL     1      17.710 -13.160  21.886  1.00  0.00     0.257 C 
BRANCH  28  29
HETATM   29  O2  UNL     1      18.077 -11.958  21.268  1.00  0.00    -0.389 OA
ATOM     30  H2  UNL     1      19.012 -12.004  21.107  1.00  0.00     0.210 HD
ENDBRANCH  28  29
ENDBRANCH  27  28
ENDBRANCH   9  26
ENDBRANCH   3   4
TORSDOF 11
ENDMDL
MODEL 4
REMARK VINA RESULT: -6.407092746      2.345      5.678
REMARK  11 active torsions:
REMARK  status: ('A' for Active; 'I' for Inactive)
REMARK    1  A    between atoms: C3_3  and  N1_4 
REMARK    2  A    between atoms: N2_7  and  C6_8 
REMARK    3  A    between atoms: C6_8  and  C7_9 
REMARK    4  A    between atoms: C8_10  and  O1_11 
REMARK    5  A    between atoms: C8_10  and  C9_13 
REMARK    6  A    between atoms: C9_13  and  C10_14 
REMARK    7  A    between atoms: C10_14  and  C11_15 
REMARK    8  A    between atoms: N3_19  and  C16_21 
REMARK    9  A    between atoms: C20_25  and  C21_26 
REMARK   10  A    between atoms: C22_27  and  C23_28 
REMARK   11  A    between atoms: C23_28  and  O2_29 
ROOT
HETATM    1  C1  UNL     1      11.428 -10.633  24.234  1.00  0.00     0.013 C 
HETATM    2  C2  UNL     1      12.324 -10.782  23.443  1.00  0.00    -0.089 C 
HETATM    3  C3  UNL     1      13.387 -10.969  22.475  1.00  0.00     0.333 C 
ENDROOT
BRANCH   3   4
HETATM    4  N1  UNL     1      13.014 -12.013  21.570  1.00  0.00    -0.014 N 
HETATM    5  C4  UNL     1      13.186 -11.687  20.190  1.00  0.00     0.270 C 
HETATM    6  C5  UNL     1      13.149 -13.091  19.581  1.00  0.00     0.269 C 
HETATM    7  N2  UNL     1      13.105 -14.033  20.669  1.00  0.00    -0.021 N 
HETATM    8  C18 UNL     1      11.829 -14.006  21.264  1.00  0.00     0.269 C 
HETATM    9  C20 UNL     1      13.841 -13.195  21.686  1.00  0.00     0.471 C 
HETATM   10  C19 UNL     1      11.718 -12.560  21.783  1.00  0.00     0.270 C 
BRANCH   7  11
HETATM   11  C6  UNL     1      13.814 -15.218  20.537  1.00  0.00     0.278 C 
BRANCH  11  12
HETATM   12  C7  UNL     1      13.604 -16.452  21.256  1.00  0.00     0.250 C 
HETATM   13  C8  UNL     1      14.930 -17.180  21.556  1.00  0.00     0.090 C 
HETATM   14  C13 UNL     1      14.355 -18.222  22.479  1.00  0.00     0.068 C 
HETATM   15  C14 UNL     1      13.173 -18.658  21.654  1.00  0.00     0.240 C 
HETATM   16  N3  UNL     1      12.861 -17.534  20.734  1.00  0.00    -0.062 N 
HETATM   17  C15 UNL     1      13.175 -17.918  19.378  1.00  0.00     0.273 C 
BRANCH  13  18
HETATM   18  O1  UNL     1      15.479 -17.799  20.472  1.00  0.00    -0.388 OA
ATOM     19  H1  UNL     1      16.189 -18.393  20.686  1.00  0.00     0.210 HD
ENDBRANCH  13  18
BRANCH  13  20
HETATM   20  C9  UNL     1      15.953 -16.320  22.209  1.00  0.00     0.040 C 
BRANCH  20  21
HETATM   21  C10 UNL     1      17.306 -16.325  21.556  1.00  0.00     0.003 C 
BRANCH  21  22
HETATM   22  C11 UNL     1      18.253 -15.591  22.514  1.00  0.00    -0.004 C 
HETATM   23  C12 UNL     1      19.605 -15.482  21.840  1.00  0.00     0.005 C 
ENDBRANCH  21  22
ENDBRANCH  20  21
ENDBRANCH  13  20
BRANCH  16  24
HETATM   24  C16 UNL     1      11.414 -17.444  20.798  1.00  0.00     0.233 C 
HETATM   25  C17 UNL     1      10.857 -17.150  19.394  1.00  0.00     0.035 C 
ENDBRANCH  16  24
ENDBRANCH  11  12
ENDBRANCH   7  11
BRANCH   9  26
HETATM   26  C21 UNL     1      15.183 -12.975  21.211  1.00  0.00    -0.042 C 
HETATM   27  C22 UNL     1      16.295 -12.810  20.830  1.00  0.00    -0.077 C 
BRANCH  27  28
HETATM   28  C23 UNL     1      17.674 -12.624  20.376  1.00  0.00     0.257 C 
BRANCH  28  29
HETATM   29  O2  UNL     1      18.321 -11.849  21.348  1.00  0.00    -0.389 OA
ATOM     30  H2  UNL     1      19.244 -11.841  21.125  1.00  0.00     0.210 HD
ENDBRANCH  28  29
ENDBRANCH  27  28
ENDBRANCH   9  26
ENDBRANCH   3   4
TORSDOF 11
ENDMDL
MODEL 5
REMARK VINA RESULT: -6.378746147      3.148      7.025
REMARK  11 active torsions:
REMARK  status: ('A' for Active; 'I' for Inactive)
REMARK    1  A    between atoms: C3_3  and  N1_4 
REMARK    2  A    between atoms: N2_7  and  C6_8 
REMARK    3  A    between atoms: C6_8  and  C7_9 
REMARK    4  A    between atoms: C8_10  and  O1_11 
REMARK    5  A    between atoms: C8_10  and  C9_13 
REMARK    6  A    between atoms: C9_13  and  C10_14 
REMARK    7  A    between atoms: C10_14  and  C11_15 
REMARK    8  A    between atoms: N3_19  and  C16_21 
REMARK    9  A    between atoms: C20_25  and  C21_26 
REMARK   10  A    between atoms: C22_27  and  C23_28 
REMARK   11  A    between atoms: C23_28  and  O2_29 
ROOT
HETATM    1  C1  UNL     1      11.514 -17.453  20.784  1.00  0.00     0.013 C 
HETATM    2  C2  UNL     1      12.397 -16.769  21.239  1.00  0.00    -0.089 C 
HETATM    3  C3  UNL     1      13.473 -15.958  21.772  1.00  0.00     0.333 C 
ENDROOT
BRANCH   3   4
HETATM    4  N1  UNL     1      14.680 -16.726  21.769  1.00  0.00    -0.014 N 
HETATM    5  C4  UNL     1      15.065 -17.219  20.485  1.00  0.00     0.270 C 
HETATM    6  C5  UNL     1      16.532 -17.557  20.760  1.00  0.00     0.269 C 
HETATM    7  N2  UNL     1      16.839 -17.096  22.089  1.00  0.00    -0.021 N 
HETATM    8  C18 UNL     1      16.228 -17.942  23.034  1.00  0.00     0.269 C 
HETATM    9  C20 UNL     1      15.850 -15.958  22.138  1.00  0.00     0.471 C 
HETATM   10  C19 UNL     1      14.727 -17.777  22.728  1.00  0.00     0.270 C 
BRANCH   7  11
HETATM   11  C6  UNL     1      18.093 -16.548  22.318  1.00  0.00     0.278 C 
BRANCH  11  12
HETATM   12  C7  UNL     1      18.560 -15.893  23.516  1.00  0.00     0.250 C 
HETATM   13  C8  UNL     1      19.772 -14.978  23.241  1.00  0.00     0.090 C 
HETATM   14  C13 UNL     1      19.805 -14.319  24.595  1.00  0.00     0.068 C 
HETATM   15  C14 UNL     1      19.690 -15.540  25.468  1.00  0.00     0.240 C 
HETATM   16  N3  UNL     1      19.053 -16.595  24.638  1.00  0.00    -0.062 N 
HETATM   17  C15 UNL     1      20.015 -17.635  24.359  1.00  0.00     0.273 C 
BRANCH  13  18
HETATM   18  O1  UNL     1      20.940 -15.652  23.044  1.00  0.00    -0.388 OA
ATOM     19  H1  UNL     1      20.889 -16.578  23.246  1.00  0.00     0.210 HD
ENDBRANCH  13  18
BRANCH  13  20
HETATM   20  C9  UNL     1      19.557 -14.017  22.127  1.00  0.00     0.040 C 
BRANCH  20  21
HETATM   21  C10 UNL     1      20.562 -14.094  21.012  1.00  0.00     0.003 C 
BRANCH  21  22
HETATM   22  C11 UNL     1      20.578 -12.711  20.347  1.00  0.00    -0.004 C 
HETATM   23  C12 UNL     1      20.533 -12.916  18.847  1.00  0.00     0.005 C 
ENDBRANCH  21  22
ENDBRANCH  20  21
ENDBRANCH  13  20
BRANCH  16  24
HETATM   24  C16 UNL     1      18.079 -17.183  25.540  1.00  0.00     0.233 C 
HETATM   25  C17 UNL     1      18.601 -18.541  26.041  1.00  0.00     0.035 C 
ENDBRANCH  16  24
ENDBRANCH  11  12
ENDBRANCH   7  11
BRANCH   9  26
HETATM   26  C21 UNL     1      16.213 -14.994  21.130  1.00  0.00    -0.042 C 
HETATM   27  C22 UNL     1      16.501 -14.185  20.310  1.00  0.00    -0.077 C 
BRANCH  27  28
HETATM   28  C23 UNL     1      16.841 -13.172  19.310  1.00  0.00     0.257 C 
BRANCH  28  29
HETATM   29  O2  UNL     1      16.436 -11.936  19.830  1.00  0.00    -0.389 OA
ATOM     30  H2  UNL     1      15.532 -12.035  20.105  1.00  0.00     0.210 HD
ENDBRANCH  28  29
ENDBRANCH  27  28
ENDBRANCH   9  26
ENDBRANCH   3   4
TORSDOF 11
ENDMDL
