MODEL 1
REMARK VINA RESULT: -6.399932500      0.000      0.000
REMARK  6 active torsions:
REMARK  status: ('A' for Active; 'I' for Inactive)
REMARK    1  A    between atoms: C1_2  and  N1_3 
REMARK    2  A    between atoms: C1_2  and  O1_10 
REMARK    3  A    between atoms: N1_3  and  C2_5 
REMARK    4  A    between atoms: O1_10  and  C7_11 
REMARK    5  A    between atoms: C7_11  and  C8_12 
REMARK    6  A    between atoms: C8_12  and  C9_13 
ROOT
HETATM    1  S1  UNL     1      22.205   4.325   4.521  1.00  0.00    -0.033 SA
HETATM    2  C1  UNL     1      22.184   4.056   2.899  1.00  0.00     0.210 C 
ENDROOT
BRANCH   2   3
HETATM    3  N1  UNL     1      23.101   4.734   2.078  1.00  0.00    -0.357 N 
ATOM      4  H1  UNL     1      23.005   5.738   1.929  1.00  0.00     0.162 HD
BRANCH   3   5
HETATM    5  C2  UNL     1      24.170   4.017   1.450  1.00  0.00     0.084 C 
HETATM    6  C3  UNL     1      25.534   4.470   1.936  1.00  0.00     0.025 C 
HETATM    7  C4  UNL     1      26.451   4.470   0.732  1.00  0.00     0.002 C 
HETATM    8  C5  UNL     1      25.629   3.831  -0.366  1.00  0.00     0.002 C 
HETATM    9  C6  UNL     1      24.240   4.396  -0.037  1.00  0.00     0.025 C 
ENDBRANCH   3   5
ENDBRANCH   2   3
BRANCH   2  10
HETATM   10  O1  UNL     1      21.282   3.185   2.345  1.00  0.00    -0.327 OA
BRANCH  10  11
HETATM   11  C7  UNL     1      20.087   3.638   1.784  1.00  0.00     0.178 C 
BRANCH  11  12
HETATM   12  C8  UNL     1      19.817   2.909   0.501  1.00  0.00     0.031 C 
BRANCH  12  13
HETATM   13  C9  UNL     1      20.787   3.450  -0.539  1.00  0.00    -0.013 C 
HETATM   14  C10 UNL     1      20.582   2.767  -1.855  1.00  0.00     0.005 C 
HETATM   15  C11 UNL     1      19.590   3.528  -2.709  1.00  0.00     0.000 C 
HETATM   16  C12 UNL     1      20.194   4.881  -3.109  1.00  0.00     0.000 C 
HETATM   17  C13 UNL     1      21.204   5.315  -2.060  1.00  0.00     0.000 C 
HETATM   18  C14 UNL     1      20.585   4.929  -0.711  1.00  0.00     0.005 C 
ENDBRANCH  12  13
ENDBRANCH  11  12
ENDBRANCH  10  11
ENDBRANCH   2  10
TORSDOF 6
ENDMDL
MODEL 2
REMARK VINA RESULT: -6.366313607      2.022      3.866
REMARK  6 active torsions:
REMARK  status: ('A' for Active; 'I' for Inactive)
REMARK    1  A    between atoms: C1_2  and  N1_3 
REMARK    2  A    between atoms: C1_2  and  O1_10 
REMARK    3  A    between atoms: N1_3  and  C2_5 
REMARK    4  A    between atoms: O1_10  and  C7_11 
REMARK    5  A    between atoms: C7_11  and  C8_12 
REMARK    6  A    between atoms: C8_12  and  C9_13 
ROOT
HETATM    1  S1  UNL     1      26.175   5.140   3.898  1.00  0.00    -0.033 SA
HETATM    2  C1  UNL     1      25.293   4.394   2.727  1.00  0.00     0.210 C 
ENDROOT
BRANCH   2   3
HETATM    3  N1  UNL     1      24.362   3.407   3.093  1.00  0.00    -0.357 N 
ATOM      4  H1  UNL     1      24.450   2.462   2.720  1.00  0.00     0.162 HD
BRANCH   3   5
HETATM    5  C2  UNL     1      23.290   3.726   3.987  1.00  0.00     0.084 C 
HETATM    6  C3  UNL     1      22.103   2.796   3.822  1.00  0.00     0.025 C 
HETATM    7  C4  UNL     1      20.858   3.643   3.967  1.00  0.00     0.002 C 
HETATM    8  C5  UNL     1      21.373   4.997   4.402  1.00  0.00     0.002 C 
HETATM    9  C6  UNL     1      22.672   5.075   3.587  1.00  0.00     0.025 C 
ENDBRANCH   3   5
ENDBRANCH   2   3
BRANCH   2  10
HETATM   10  O1  UNL     1      25.460   4.724   1.407  1.00  0.00    -0.327 OA
BRANCH  10  11
HETATM   11  C7  UNL     1      24.660   4.158   0.413  1.00  0.00     0.178 C 
BRANCH  11  12
HETATM   12  C8  UNL     1      23.673   5.171  -0.085  1.00  0.00     0.031 C 
BRANCH  12  13
HETATM   13  C9  UNL     1      22.536   4.406  -0.748  1.00  0.00    -0.013 C 
HETATM   14  C10 UNL     1      21.531   3.968   0.271  1.00  0.00     0.005 C 
HETATM   15  C11 UNL     1      20.440   5.006   0.433  1.00  0.00     0.000 C 
HETATM   16  C12 UNL     1      19.615   5.085  -0.859  1.00  0.00     0.000 C 
HETATM   17  C13 UNL     1      20.478   4.665  -2.037  1.00  0.00     0.000 C 
HETATM   18  C14 UNL     1      21.860   5.274  -1.772  1.00  0.00     0.005 C 
ENDBRANCH  12  13
ENDBRANCH  11  12
ENDBRANCH  10  11
ENDBRANCH   2  10
TORSDOF 6
ENDMDL
MODEL 3
REMARK VINA RESULT: -6.362779951      2.527      3.697
REMARK  6 active torsions:
REMARK  status: ('A' for Active; 'I' for Inactive)
REMARK    1  A    between atoms: C1_2  and  N1_3 
REMARK    2  A    between atoms: C1_2  and  O1_10 
REMARK    3  A    between atoms: N1_3  and  C2_5 
REMARK    4  A    between atoms: O1_10  and  C7_11 
REMARK    5  A    between atoms: C7_11  and  C8_12 
REMARK    6  A    between atoms: C8_12  and  C9_13 
ROOT
HETATM    1  S1  UNL     1      21.019   0.266   3.767  1.00  0.00    -0.033 SA
HETATM    2  C1  UNL     1      20.905   1.313   2.504  1.00  0.00     0.210 C 
ENDROOT
BRANCH   2   3
HETATM    3  N1  UNL     1      21.595   2.536   2.560  1.00  0.00    -0.357 N 
ATOM      4  H1  UNL     1      22.236   2.794   1.810  1.00  0.00     0.162 HD
BRANCH   3   5
HETATM    5  C2  UNL     1      21.400   3.420   3.669  1.00  0.00     0.084 C 
HETATM    6  C3  UNL     1      20.055   4.120   3.621  1.00  0.00     0.025 C 
HETATM    7  C4  UNL     1      20.281   5.540   4.094  1.00  0.00     0.002 C 
HETATM    8  C5  UNL     1      21.713   5.549   4.581  1.00  0.00     0.002 C 
HETATM    9  C6  UNL     1      22.362   4.612   3.553  1.00  0.00     0.025 C 
ENDBRANCH   3   5
ENDBRANCH   2   3
BRANCH   2  10
HETATM   10  O1  UNL     1      20.146   1.004   1.405  1.00  0.00    -0.327 OA
BRANCH  10  11
HETATM   11  C7  UNL     1      19.399   1.981   0.743  1.00  0.00     0.178 C 
BRANCH  11  12
HETATM   12  C8  UNL     1      19.896   2.138  -0.663  1.00  0.00     0.031 C 
BRANCH  12  13
HETATM   13  C9  UNL     1      19.709   3.599  -1.048  1.00  0.00    -0.013 C 
HETATM   14  C10 UNL     1      20.443   4.492  -0.097  1.00  0.00     0.005 C 
HETATM   15  C11 UNL     1      21.845   4.772  -0.595  1.00  0.00     0.000 C 
HETATM   16  C12 UNL     1      21.773   5.612  -1.877  1.00  0.00     0.000 C 
HETATM   17  C13 UNL     1      20.458   5.340  -2.587  1.00  0.00     0.000 C 
HETATM   18  C14 UNL     1      20.217   3.833  -2.442  1.00  0.00     0.005 C 
ENDBRANCH  12  13
ENDBRANCH  11  12
ENDBRANCH  10  11
ENDBRANCH   2  10
TORSDOF 6
ENDMDL
MODEL 4
REMARK VINA RESULT: -6.351161537      1.306      1.560
REMARK  6 active torsions:
REMARK  status: ('A' for Active; 'I' for Inactive)
REMARK    1  A    between atoms: C1_2  and  N1_3 
REMARK    2  A    between atoms: C1_2  and  O1_10 
REMARK    3  A    between atoms: N1_3  and  C2_5 
REMARK    4  A    between atoms: O1_10  and  C7_11 
REMARK    5  A    between atoms: C7_11  and  C8_12 
REMARK    6  A    between atoms: C8_12  and  C9_13 
ROOT
HETATM    1  S1  UNL     1      22.027   1.454   3.994  1.00  0.00    -0.033 SA
HETATM    2  C1  UNL     1      21.425   2.657   3.048  1.00  0.00     0.210 C 
ENDROOT
BRANCH   2   3
HETATM    3  N1  UNL     1      22.204   3.804   2.817  1.00  0.00    -0.357 N 
ATOM      4  H1  UNL     1      21.753   4.714   2.726  1.00  0.00     0.162 HD
BRANCH   3   5
HETATM    5  C2  UNL     1      23.628   3.697   2.710  1.00  0.00     0.084 C 
HETATM    6  C3  UNL     1      24.350   4.510   3.768  1.00  0.00     0.025 C 
HETATM    7  C4  UNL     1      25.564   5.118   3.101  1.00  0.00     0.002 C 
HETATM    8  C5  UNL     1      25.602   4.475   1.732  1.00  0.00     0.002 C 
HETATM    9  C6  UNL     1      24.101   4.390   1.424  1.00  0.00     0.025 C 
ENDBRANCH   3   5
ENDBRANCH   2   3
BRANCH   2  10
HETATM   10  O1  UNL     1      20.179   2.550   2.488  1.00  0.00    -0.327 OA
BRANCH  10  11
HETATM   11  C7  UNL     1      19.997   1.976   1.228  1.00  0.00     0.178 C 
BRANCH  11  12
HETATM   12  C8  UNL     1      19.528   3.018   0.256  1.00  0.00     0.031 C 
BRANCH  12  13
HETATM   13  C9  UNL     1      20.731   3.428  -0.581  1.00  0.00    -0.013 C 
HETATM   14  C10 UNL     1      20.497   3.117  -2.027  1.00  0.00     0.005 C 
HETATM   15  C11 UNL     1      19.879   4.302  -2.740  1.00  0.00     0.000 C 
HETATM   16  C12 UNL     1      20.893   5.453  -2.790  1.00  0.00     0.000 C 
HETATM   17  C13 UNL     1      21.850   5.335  -1.616  1.00  0.00     0.000 C 
HETATM   18  C14 UNL     1      20.989   4.900  -0.425  1.00  0.00     0.005 C 
ENDBRANCH  12  13
ENDBRANCH  11  12
ENDBRANCH  10  11
ENDBRANCH   2  10
TORSDOF 6
ENDMDL
MODEL 5
REMARK VINA RESULT: -6.246831461      1.386      2.062
REMARK  6 active torsions:
REMARK  status: ('A' for Active; 'I' for Inactive)
REMARK    1  A    between atoms: C1_2  and  N1_3 
REMARK    2  A    between atoms: C1_2  and  O1_10 
REMARK    3  A    between atoms: N1_3  and  C2_5 
REMARK    4  A    between atoms: O1_10  and  C7_11 
REMARK    5  A    between atoms: C7_11  and  C8_12 
REMARK    6  A    between atoms: C8_12  and  C9_13 
ROOT
HETATM    1  S1  UNL     1      21.890   1.365   4.245  1.00  0.00    -0.033 SA
HETATM    2  C1  UNL     1      21.478   2.254   2.924  1.00  0.00     0.210 C 
ENDROOT
BRANCH   2   3
HETATM    3  N1  UNL     1      22.125   3.479   2.690  1.00  0.00    -0.357 N 
ATOM      4  H1  UNL     1      21.576   4.312   2.480  1.00  0.00     0.162 HD
BRANCH   3   5
HETATM    5  C2  UNL     1      23.554   3.559   2.746  1.00  0.00     0.084 C 
HETATM    6  C3  UNL     1      24.038   4.504   3.830  1.00  0.00     0.025 C 
HETATM    7  C4  UNL     1      25.234   5.241   3.267  1.00  0.00     0.002 C 
HETATM    8  C5  UNL     1      25.512   4.553   1.949  1.00  0.00     0.002 C 
HETATM    9  C6  UNL     1      24.080   4.256   1.483  1.00  0.00     0.025 C 
ENDBRANCH   3   5
ENDBRANCH   2   3
BRANCH   2  10
HETATM   10  O1  UNL     1      20.512   1.813   2.057  1.00  0.00    -0.327 OA
BRANCH  10  11
HETATM   11  C7  UNL     1      19.781   2.706   1.271  1.00  0.00     0.178 C 
BRANCH  11  12
HETATM   12  C8  UNL     1      19.981   2.389  -0.181  1.00  0.00     0.031 C 
BRANCH  12  13
HETATM   13  C9  UNL     1      19.603   3.634  -0.972  1.00  0.00    -0.013 C 
HETATM   14  C10 UNL     1      20.250   4.848  -0.381  1.00  0.00     0.005 C 
HETATM   15  C11 UNL     1      21.591   5.115  -1.032  1.00  0.00     0.000 C 
HETATM   16  C12 UNL     1      21.378   5.511  -2.499  1.00  0.00     0.000 C 
HETATM   17  C13 UNL     1      20.085   4.895  -3.007  1.00  0.00     0.000 C 
HETATM   18  C14 UNL     1      20.037   3.486  -2.403  1.00  0.00     0.005 C 
ENDBRANCH  12  13
ENDBRANCH  11  12
ENDBRANCH  10  11
ENDBRANCH   2  10
TORSDOF 6
ENDMDL
