MODEL 1
REMARK VINA RESULT: -6.066089448      0.000      0.000
REMARK  13 active torsions:
REMARK  status: ('A' for Active; 'I' for Inactive)
REMARK    1  A    between atoms: O1_2  and  C2_3 
REMARK    2  A    between atoms: C3_4  and  S1_5 
REMARK    3  A    between atoms: S1_5  and  S2_6 
REMARK    4  A    between atoms: S2_6  and  C4_7 
REMARK    5  A    between atoms: C4_7  and  N1_8 
REMARK       I    between atoms: N1_8  and  C5_10 
REMARK    6  A    between atoms: C5_10  and  C6_12 
REMARK    7  A    between atoms: C9_25  and  O3_26 
REMARK    8  A    between atoms: C10_28  and  C11_29 
REMARK       I    between atoms: N8_35  and  C13_37 
REMARK    9  A    between atoms: C13_37  and  C14_39 
REMARK   10  A    between atoms: C14_39  and  N9_40 
REMARK   11  A    between atoms: C14_39  and  C15_44 
REMARK   12  A    between atoms: C17_47  and  O7_48 
REMARK   13  A    between atoms: O7_48  and  S5_49 
ROOT
HETATM    1  C2  UNL     1      31.371 -41.835 -26.600  1.00  0.00     0.098 C 
HETATM    2  C3  UNL     1      32.009 -42.572 -27.650  1.00  0.00     0.078 C 
HETATM    3  C10 UNL     1      31.340 -42.838 -28.764  1.00  0.00     0.139 C 
HETATM    4  N7  UNL     1      30.016 -42.488 -28.914  1.00  0.00    -0.295 N 
HETATM    5  S3  UNL     1      28.438 -42.463 -29.842  1.00  0.00     0.005 SA
HETATM    6  C12 UNL     1      28.081 -42.791 -28.041  1.00  0.00     0.097 C 
HETATM    7  N8  UNL     1      27.250 -43.530 -27.481  1.00  0.00    -0.320 N 
ATOM      8  H8  UNL     1      26.659 -44.042 -28.136  1.00  0.00     0.169 HD
HETATM    9  C13 UNL     1      26.964 -43.802 -26.158  1.00  0.00     0.253 C 
HETATM   10  O6  UNL     1      26.319 -43.046 -25.422  1.00  0.00    -0.271 OA
HETATM   11  C16 UNL     1      29.228 -41.809 -27.903  1.00  0.00     0.193 C 
HETATM   12  C17 UNL     1      29.854 -41.799 -26.571  1.00  0.00     0.233 C 
ENDROOT
BRANCH   2  13
HETATM   13  S1  UNL     1      33.650 -43.193 -27.517  1.00  0.00    -0.048 SA
BRANCH  13  14
HETATM   14  S2  UNL     1      33.585 -45.107 -26.681  1.00  0.00    -0.028 SA
BRANCH  14  15
HETATM   15  C4  UNL     1      34.143 -45.058 -25.018  1.00  0.00     0.287 C 
HETATM   16  N6  UNL     1      35.521 -44.457 -24.991  1.00  0.00    -0.033 N 
HETATM   17  C8  UNL     1      35.804 -45.425 -23.942  1.00  0.00     0.273 C 
ATOM     18  H62 UNL     1      36.097 -44.388 -25.831  1.00  0.00     0.281 HD
ATOM     19  H61 UNL     1      35.671 -43.456 -24.856  1.00  0.00     0.281 HD
HETATM   20  C9  UNL     1      34.708 -46.330 -24.421  1.00  0.00     0.212 C 
BRANCH  15  21
HETATM   21  N1  UNL     1      33.391 -44.327 -24.035  1.00  0.00    -0.310 N 
HETATM   22  C5  UNL     1      32.220 -44.658 -23.354  1.00  0.00     0.291 C 
HETATM   23  O2  UNL     1      31.634 -45.736 -23.539  1.00  0.00    -0.264 OA
ATOM     24  H1  UNL     1      33.779 -43.415 -23.794  1.00  0.00     0.166 HD
BRANCH  22  25
HETATM   25  C6  UNL     1      31.609 -43.743 -22.378  1.00  0.00     0.206 A 
HETATM   26  N2  UNL     1      31.524 -42.412 -22.462  1.00  0.00    -0.264 N 
HETATM   27  N3  UNL     1      30.895 -41.994 -21.355  1.00  0.00    -0.225 N 
ATOM     28  H2  UNL     1      31.871 -41.827 -23.222  1.00  0.00     0.190 HD
HETATM   29  N4  UNL     1      30.589 -43.006 -20.592  1.00  0.00    -0.223 N 
ATOM     30  H3  UNL     1      30.684 -41.020 -21.139  1.00  0.00     0.210 HD
HETATM   31  C7  UNL     1      29.898 -42.948 -19.299  1.00  0.00     0.202 C 
HETATM   32  N5  UNL     1      31.028 -44.093 -21.221  1.00  0.00    -0.262 N 
ATOM     33  H5  UNL     1      30.936 -45.048 -20.875  1.00  0.00     0.190 HD
ENDBRANCH  22  25
ENDBRANCH  15  21
BRANCH  20  34
HETATM   34  O3  UNL     1      35.023 -47.343 -25.274  1.00  0.00    -0.389 OA
ATOM     35  H3  UNL     1      34.921 -48.234 -24.958  1.00  0.00     0.210 HD
ENDBRANCH  20  34
ENDBRANCH  14  15
ENDBRANCH  13  14
ENDBRANCH   2  13
BRANCH   1  36
HETATM   36  O1  UNL     1      31.879 -42.001 -25.337  1.00  0.00    -0.356 OA
HETATM   37  C1  UNL     1      32.780 -40.946 -25.002  1.00  0.00     0.209 C 
ENDBRANCH   1  36
BRANCH   3  38
HETATM   38  C11 UNL     1      31.979 -43.589 -29.863  1.00  0.00     0.229 C 
HETATM   39  O4  UNL     1      32.020 -44.845 -29.855  1.00  0.00    -0.643 OA
HETATM   40  O5  UNL     1      32.528 -42.891 -30.895  1.00  0.00    -0.643 OA
ENDBRANCH   3  38
BRANCH  12  41
HETATM   41  O7  UNL     1      29.577 -40.627 -25.854  1.00  0.00    -0.242 OA
BRANCH  41  42
HETATM   42  S5  UNL     1      28.926 -40.700 -24.376  1.00  0.00     0.252 S 
HETATM   43  O8  UNL     1      27.514 -40.278 -24.182  1.00  0.00    -0.572 OA
HETATM   44  O9  UNL     1      28.943 -42.183 -23.957  1.00  0.00    -0.572 OA
HETATM   45  O10 UNL     1      29.921 -39.966 -23.196  1.00  0.00    -0.572 OA
ENDBRANCH  41  42
ENDBRANCH  12  41
BRANCH   9  46
HETATM   46  C14 UNL     1      27.463 -45.104 -25.568  1.00  0.00     0.285 C 
BRANCH  46  47
HETATM   47  N9  UNL     1      28.878 -44.984 -25.284  1.00  0.00    -0.066 N 
ATOM     48  H93 UNL     1      29.435 -45.671 -25.792  1.00  0.00     0.275 HD
ATOM     49  H92 UNL     1      29.285 -44.141 -25.691  1.00  0.00     0.275 HD
ATOM     50  H91 UNL     1      29.022 -45.037 -24.276  1.00  0.00     0.275 HD
ENDBRANCH  46  47
BRANCH  46  51
HETATM   51  C15 UNL     1      27.283 -46.245 -26.546  1.00  0.00     0.129 C 
HETATM   52  S4  UNL     1      25.690 -47.084 -26.294  1.00  0.00    -0.095 SA
ENDBRANCH  46  51
ENDBRANCH   9  46
TORSDOF 13
ENDMDL
MODEL 2
REMARK VINA RESULT: -5.824733130      3.300      7.920
REMARK  13 active torsions:
REMARK  status: ('A' for Active; 'I' for Inactive)
REMARK    1  A    between atoms: O1_2  and  C2_3 
REMARK    2  A    between atoms: C3_4  and  S1_5 
REMARK    3  A    between atoms: S1_5  and  S2_6 
REMARK    4  A    between atoms: S2_6  and  C4_7 
REMARK    5  A    between atoms: C4_7  and  N1_8 
REMARK       I    between atoms: N1_8  and  C5_10 
REMARK    6  A    between atoms: C5_10  and  C6_12 
REMARK    7  A    between atoms: C9_25  and  O3_26 
REMARK    8  A    between atoms: C10_28  and  C11_29 
REMARK       I    between atoms: N8_35  and  C13_37 
REMARK    9  A    between atoms: C13_37  and  C14_39 
REMARK   10  A    between atoms: C14_39  and  N9_40 
REMARK   11  A    between atoms: C14_39  and  C15_44 
REMARK   12  A    between atoms: C17_47  and  O7_48 
REMARK   13  A    between atoms: O7_48  and  S5_49 
ROOT
HETATM    1  C2  UNL     1      30.743 -44.063 -24.092  1.00  0.00     0.098 C 
HETATM    2  C3  UNL     1      31.098 -44.445 -25.427  1.00  0.00     0.078 C 
HETATM    3  C10 UNL     1      32.315 -44.909 -25.674  1.00  0.00     0.139 C 
HETATM    4  N7  UNL     1      33.281 -44.969 -24.693  1.00  0.00    -0.295 N 
HETATM    5  S3  UNL     1      34.981 -45.304 -24.108  1.00  0.00     0.005 SA
HETATM    6  C12 UNL     1      34.363 -43.733 -23.314  1.00  0.00     0.097 C 
HETATM    7  N8  UNL     1      34.933 -42.662 -23.040  1.00  0.00    -0.320 N 
ATOM      8  H8  UNL     1      35.921 -42.653 -23.295  1.00  0.00     0.169 HD
HETATM    9  C13 UNL     1      34.507 -41.483 -22.462  1.00  0.00     0.253 C 
HETATM   10  O6  UNL     1      34.326 -41.334 -21.248  1.00  0.00    -0.271 OA
HETATM   11  C16 UNL     1      33.081 -44.543 -23.321  1.00  0.00     0.193 C 
HETATM   12  C17 UNL     1      31.862 -43.743 -23.119  1.00  0.00     0.233 C 
ENDROOT
BRANCH   2  13
HETATM   13  S1  UNL     1      29.995 -44.283 -26.789  1.00  0.00    -0.048 SA
BRANCH  13  14
HETATM   14  S2  UNL     1      28.170 -45.172 -26.295  1.00  0.00    -0.028 SA
BRANCH  14  15
HETATM   15  C4  UNL     1      26.846 -44.275 -27.016  1.00  0.00     0.287 C 
HETATM   16  N6  UNL     1      27.419 -43.169 -27.860  1.00  0.00    -0.033 N 
HETATM   17  C8  UNL     1      26.298 -42.373 -27.382  1.00  0.00     0.273 C 
ATOM     18  H62 UNL     1      28.385 -42.857 -27.757  1.00  0.00     0.281 HD
ATOM     19  H61 UNL     1      27.607 -43.293 -28.855  1.00  0.00     0.281 HD
HETATM   20  C9  UNL     1      26.147 -43.234 -26.165  1.00  0.00     0.212 C 
BRANCH  15  21
HETATM   21  N1  UNL     1      25.904 -44.951 -27.865  1.00  0.00    -0.310 N 
HETATM   22  C5  UNL     1      25.161 -46.112 -27.656  1.00  0.00     0.291 C 
HETATM   23  O2  UNL     1      25.235 -46.759 -26.600  1.00  0.00    -0.264 OA
ATOM     24  H1  UNL     1      25.754 -44.508 -28.771  1.00  0.00     0.166 HD
BRANCH  22  25
HETATM   25  C6  UNL     1      24.246 -46.638 -28.680  1.00  0.00     0.206 A 
HETATM   26  N2  UNL     1      22.972 -47.004 -28.514  1.00  0.00    -0.264 N 
HETATM   27  N3  UNL     1      22.531 -47.422 -29.709  1.00  0.00    -0.225 N 
ATOM     28  H2  UNL     1      22.438 -46.972 -27.646  1.00  0.00     0.190 HD
HETATM   29  N4  UNL     1      23.474 -47.332 -30.603  1.00  0.00    -0.223 N 
ATOM     30  H3  UNL     1      21.588 -47.764 -29.892  1.00  0.00     0.210 HD
HETATM   31  C7  UNL     1      23.373 -47.696 -32.021  1.00  0.00     0.202 C 
HETATM   32  N5  UNL     1      24.540 -46.846 -29.973  1.00  0.00    -0.262 N 
ATOM     33  H5  UNL     1      25.444 -46.659 -30.407  1.00  0.00     0.190 HD
ENDBRANCH  22  25
ENDBRANCH  15  21
BRANCH  20  34
HETATM   34  O3  UNL     1      26.757 -42.849 -25.010  1.00  0.00    -0.389 OA
ATOM     35  H3  UNL     1      26.682 -43.424 -24.258  1.00  0.00     0.210 HD
ENDBRANCH  20  34
ENDBRANCH  14  15
ENDBRANCH  13  14
ENDBRANCH   2  13
BRANCH   1  36
HETATM   36  O1  UNL     1      29.713 -43.167 -23.963  1.00  0.00    -0.356 OA
HETATM   37  C1  UNL     1      30.072 -41.891 -24.491  1.00  0.00     0.209 C 
ENDBRANCH   1  36
BRANCH   3  38
HETATM   38  C11 UNL     1      32.701 -45.316 -27.041  1.00  0.00     0.229 C 
HETATM   39  O4  UNL     1      32.523 -46.493 -27.444  1.00  0.00    -0.643 OA
HETATM   40  O5  UNL     1      33.259 -44.385 -27.863  1.00  0.00    -0.643 OA
ENDBRANCH   3  38
BRANCH  12  41
HETATM   41  O7  UNL     1      31.271 -43.968 -21.868  1.00  0.00    -0.242 OA
BRANCH  41  42
HETATM   42  S5  UNL     1      31.053 -42.748 -20.830  1.00  0.00     0.252 S 
HETATM   43  O8  UNL     1      31.103 -41.350 -21.330  1.00  0.00    -0.572 OA
HETATM   44  O9  UNL     1      29.628 -42.900 -20.261  1.00  0.00    -0.572 OA
HETATM   45  O10 UNL     1      32.031 -42.904 -19.436  1.00  0.00    -0.572 OA
ENDBRANCH  41  42
ENDBRANCH  12  41
BRANCH   9  46
HETATM   46  C14 UNL     1      34.247 -40.294 -23.364  1.00  0.00     0.285 C 
BRANCH  46  47
HETATM   47  N9  UNL     1      32.818 -40.084 -23.472  1.00  0.00    -0.066 N 
ATOM     48  H93 UNL     1      32.444 -39.552 -22.687  1.00  0.00     0.275 HD
ATOM     49  H92 UNL     1      32.577 -39.430 -24.216  1.00  0.00     0.275 HD
ATOM     50  H91 UNL     1      32.357 -40.987 -23.584  1.00  0.00     0.275 HD
ENDBRANCH  46  47
BRANCH  46  51
HETATM   51  C15 UNL     1      34.785 -40.544 -24.756  1.00  0.00     0.129 C 
HETATM   52  S4  UNL     1      33.453 -41.008 -25.903  1.00  0.00    -0.095 SA
ENDBRANCH  46  51
ENDBRANCH   9  46
TORSDOF 13
ENDMDL
MODEL 3
REMARK VINA RESULT: -5.742515279      1.583      2.046
REMARK  13 active torsions:
REMARK  status: ('A' for Active; 'I' for Inactive)
REMARK    1  A    between atoms: O1_2  and  C2_3 
REMARK    2  A    between atoms: C3_4  and  S1_5 
REMARK    3  A    between atoms: S1_5  and  S2_6 
REMARK    4  A    between atoms: S2_6  and  C4_7 
REMARK    5  A    between atoms: C4_7  and  N1_8 
REMARK       I    between atoms: N1_8  and  C5_10 
REMARK    6  A    between atoms: C5_10  and  C6_12 
REMARK    7  A    between atoms: C9_25  and  O3_26 
REMARK    8  A    between atoms: C10_28  and  C11_29 
REMARK       I    between atoms: N8_35  and  C13_37 
REMARK    9  A    between atoms: C13_37  and  C14_39 
REMARK   10  A    between atoms: C14_39  and  N9_40 
REMARK   11  A    between atoms: C14_39  and  C15_44 
REMARK   12  A    between atoms: C17_47  and  O7_48 
REMARK   13  A    between atoms: O7_48  and  S5_49 
ROOT
HETATM    1  C2  UNL     1      31.092 -43.495 -25.481  1.00  0.00     0.098 C 
HETATM    2  C3  UNL     1      31.734 -43.438 -26.761  1.00  0.00     0.078 C 
HETATM    3  C10 UNL     1      31.314 -42.563 -27.666  1.00  0.00     0.139 C 
HETATM    4  N7  UNL     1      30.225 -41.751 -27.438  1.00  0.00    -0.295 N 
HETATM    5  S3  UNL     1      29.001 -40.493 -27.955  1.00  0.00     0.005 SA
HETATM    6  C12 UNL     1      28.130 -41.826 -26.984  1.00  0.00     0.097 C 
HETATM    7  N8  UNL     1      27.012 -42.355 -27.120  1.00  0.00    -0.320 N 
ATOM      8  H8  UNL     1      26.481 -41.981 -27.906  1.00  0.00     0.169 HD
HETATM    9  C13 UNL     1      26.342 -43.344 -26.428  1.00  0.00     0.253 C 
HETATM   10  O6  UNL     1      25.777 -43.166 -25.343  1.00  0.00    -0.271 OA
HETATM   11  C16 UNL     1      29.437 -41.760 -26.219  1.00  0.00     0.193 C 
HETATM   12  C17 UNL     1      29.691 -42.926 -25.358  1.00  0.00     0.233 C 
ENDROOT
BRANCH   2  13
HETATM   13  S1  UNL     1      33.044 -44.519 -27.220  1.00  0.00    -0.048 SA
BRANCH  13  14
HETATM   14  S2  UNL     1      34.801 -43.894 -26.278  1.00  0.00    -0.028 SA
BRANCH  14  15
HETATM   15  C4  UNL     1      35.019 -44.762 -24.769  1.00  0.00     0.287 C 
HETATM   16  N6  UNL     1      36.351 -44.380 -24.183  1.00  0.00    -0.033 N 
HETATM   17  C8  UNL     1      36.444 -45.772 -23.768  1.00  0.00     0.273 C 
ATOM     18  H62 UNL     1      37.079 -43.935 -24.743  1.00  0.00     0.281 HD
ATOM     19  H61 UNL     1      36.447 -43.612 -23.519  1.00  0.00     0.281 HD
HETATM   20  C9  UNL     1      35.486 -46.201 -24.838  1.00  0.00     0.212 C 
BRANCH  15  21
HETATM   21  N1  UNL     1      34.072 -44.588 -23.702  1.00  0.00    -0.310 N 
HETATM   22  C5  UNL     1      33.813 -43.488 -22.885  1.00  0.00     0.291 C 
HETATM   23  O2  UNL     1      34.437 -42.421 -23.002  1.00  0.00    -0.264 OA
ATOM     24  H1  UNL     1      33.491 -45.405 -23.511  1.00  0.00     0.166 HD
BRANCH  22  25
HETATM   25  C6  UNL     1      32.785 -43.531 -21.834  1.00  0.00     0.206 A 
HETATM   26  N2  UNL     1      31.489 -43.815 -21.984  1.00  0.00    -0.264 N 
HETATM   27  N3  UNL     1      30.932 -43.734 -20.768  1.00  0.00    -0.225 N 
ATOM     28  H2  UNL     1      31.014 -44.049 -22.856  1.00  0.00     0.190 HD
HETATM   29  N4  UNL     1      31.825 -43.412 -19.875  1.00  0.00    -0.223 N 
ATOM     30  H3  UNL     1      29.946 -43.902 -20.568  1.00  0.00     0.210 HD
HETATM   31  C7  UNL     1      31.598 -43.228 -18.438  1.00  0.00     0.202 C 
HETATM   32  N5  UNL     1      32.977 -43.285 -20.530  1.00  0.00    -0.262 N 
ATOM     33  H5  UNL     1      33.870 -43.039 -20.103  1.00  0.00     0.190 HD
ENDBRANCH  22  25
ENDBRANCH  15  21
BRANCH  20  34
HETATM   34  O3  UNL     1      35.986 -46.647 -26.024  1.00  0.00    -0.389 OA
ATOM     35  H3  UNL     1      36.842 -47.059 -26.015  1.00  0.00     0.210 HD
ENDBRANCH  20  34
ENDBRANCH  14  15
ENDBRANCH  13  14
ENDBRANCH   2  13
BRANCH   1  36
HETATM   36  O1  UNL     1      31.202 -44.675 -24.791  1.00  0.00    -0.356 OA
HETATM   37  C1  UNL     1      30.182 -45.595 -25.179  1.00  0.00     0.209 C 
ENDBRANCH   1  36
BRANCH   3  38
HETATM   38  C11 UNL     1      31.965 -42.480 -28.989  1.00  0.00     0.229 C 
HETATM   39  O4  UNL     1      31.538 -43.146 -29.966  1.00  0.00    -0.643 OA
HETATM   40  O5  UNL     1      33.044 -41.663 -29.134  1.00  0.00    -0.643 OA
ENDBRANCH   3  38
BRANCH  12  41
HETATM   41  O7  UNL     1      29.590 -42.621 -23.993  1.00  0.00    -0.242 OA
BRANCH  41  42
HETATM   42  S5  UNL     1      29.762 -41.100 -23.475  1.00  0.00     0.252 S 
HETATM   43  O8  UNL     1      28.630 -40.149 -23.621  1.00  0.00    -0.572 OA
HETATM   44  O9  UNL     1      30.005 -41.174 -21.955  1.00  0.00    -0.572 OA
HETATM   45  O10 UNL     1      31.203 -40.382 -24.050  1.00  0.00    -0.572 OA
ENDBRANCH  41  42
ENDBRANCH  12  41
BRANCH   9  46
HETATM   46  C14 UNL     1      26.287 -44.733 -27.031  1.00  0.00     0.285 C 
BRANCH  46  47
HETATM   47  N9  UNL     1      24.959 -44.968 -27.559  1.00  0.00    -0.066 N 
ATOM     48  H93 UNL     1      24.899 -45.840 -28.084  1.00  0.00     0.275 HD
ATOM     49  H92 UNL     1      24.286 -45.195 -26.827  1.00  0.00     0.275 HD
ATOM     50  H91 UNL     1      24.673 -44.161 -28.113  1.00  0.00     0.275 HD
ENDBRANCH  46  47
BRANCH  46  51
HETATM   51  C15 UNL     1      26.562 -45.789 -25.983  1.00  0.00     0.129 C 
HETATM   52  S4  UNL     1      25.570 -47.284 -26.277  1.00  0.00    -0.095 SA
ENDBRANCH  46  51
ENDBRANCH   9  46
TORSDOF 13
ENDMDL
MODEL 4
REMARK VINA RESULT: -5.666025082      2.716      5.493
REMARK  13 active torsions:
REMARK  status: ('A' for Active; 'I' for Inactive)
REMARK    1  A    between atoms: O1_2  and  C2_3 
REMARK    2  A    between atoms: C3_4  and  S1_5 
REMARK    3  A    between atoms: S1_5  and  S2_6 
REMARK    4  A    between atoms: S2_6  and  C4_7 
REMARK    5  A    between atoms: C4_7  and  N1_8 
REMARK       I    between atoms: N1_8  and  C5_10 
REMARK    6  A    between atoms: C5_10  and  C6_12 
REMARK    7  A    between atoms: C9_25  and  O3_26 
REMARK    8  A    between atoms: C10_28  and  C11_29 
REMARK       I    between atoms: N8_35  and  C13_37 
REMARK    9  A    between atoms: C13_37  and  C14_39 
REMARK   10  A    between atoms: C14_39  and  N9_40 
REMARK   11  A    between atoms: C14_39  and  C15_44 
REMARK   12  A    between atoms: C17_47  and  O7_48 
REMARK   13  A    between atoms: O7_48  and  S5_49 
ROOT
HETATM    1  C2  UNL     1      30.406 -44.151 -24.854  1.00  0.00     0.098 C 
HETATM    2  C3  UNL     1      31.776 -44.490 -24.605  1.00  0.00     0.078 C 
HETATM    3  C10 UNL     1      32.606 -43.566 -24.140  1.00  0.00     0.139 C 
HETATM    4  N7  UNL     1      32.206 -42.261 -23.955  1.00  0.00    -0.295 N 
HETATM    5  S3  UNL     1      32.522 -40.512 -23.519  1.00  0.00     0.005 SA
HETATM    6  C12 UNL     1      31.407 -40.575 -25.013  1.00  0.00     0.097 C 
HETATM    7  N8  UNL     1      31.349 -39.869 -26.035  1.00  0.00    -0.320 N 
ATOM      8  H8  UNL     1      32.039 -39.117 -26.047  1.00  0.00     0.169 HD
HETATM    9  C13 UNL     1      30.545 -39.890 -27.158  1.00  0.00     0.253 C 
HETATM   10  O6  UNL     1      29.383 -39.472 -27.183  1.00  0.00    -0.271 OA
HETATM   11  C16 UNL     1      30.872 -41.764 -24.239  1.00  0.00     0.193 C 
HETATM   12  C17 UNL     1      30.055 -42.687 -25.043  1.00  0.00     0.233 C 
ENDROOT
BRANCH   2  13
HETATM   13  S1  UNL     1      32.438 -46.087 -24.935  1.00  0.00    -0.048 SA
BRANCH  13  14
HETATM   14  S2  UNL     1      32.888 -46.228 -26.971  1.00  0.00    -0.028 SA
BRANCH  14  15
HETATM   15  C4  UNL     1      34.579 -45.847 -27.243  1.00  0.00     0.287 C 
HETATM   16  N6  UNL     1      34.678 -44.428 -27.734  1.00  0.00    -0.033 N 
HETATM   17  C8  UNL     1      35.747 -44.917 -28.593  1.00  0.00     0.273 C 
ATOM     18  H62 UNL     1      33.871 -43.929 -28.109  1.00  0.00     0.281 HD
ATOM     19  H61 UNL     1      34.815 -43.645 -27.095  1.00  0.00     0.281 HD
HETATM   20  C9  UNL     1      35.213 -46.316 -28.535  1.00  0.00     0.212 C 
BRANCH  15  21
HETATM   21  N1  UNL     1      35.515 -45.938 -26.156  1.00  0.00    -0.310 N 
HETATM   22  C5  UNL     1      35.939 -47.037 -25.410  1.00  0.00     0.291 C 
HETATM   23  O2  UNL     1      35.512 -48.182 -25.626  1.00  0.00    -0.264 OA
ATOM     24  H1  UNL     1      35.940 -45.051 -25.886  1.00  0.00     0.166 HD
BRANCH  22  25
HETATM   25  C6  UNL     1      36.916 -46.900 -24.320  1.00  0.00     0.206 A 
HETATM   26  N2  UNL     1      37.970 -47.685 -24.077  1.00  0.00    -0.264 N 
HETATM   27  N3  UNL     1      38.576 -47.191 -22.988  1.00  0.00    -0.225 N 
ATOM     28  H2  UNL     1      38.257 -48.502 -24.615  1.00  0.00     0.190 HD
HETATM   29  N4  UNL     1      37.945 -46.139 -22.549  1.00  0.00    -0.223 N 
ATOM     30  H3  UNL     1      39.416 -47.585 -22.563  1.00  0.00     0.210 HD
HETATM   31  C7  UNL     1      38.305 -45.328 -21.381  1.00  0.00     0.202 C 
HETATM   32  N5  UNL     1      36.916 -45.952 -23.371  1.00  0.00    -0.262 N 
ATOM     33  H5  UNL     1      36.230 -45.202 -23.291  1.00  0.00     0.190 HD
ENDBRANCH  22  25
ENDBRANCH  15  21
BRANCH  20  34
HETATM   34  O3  UNL     1      34.385 -46.742 -29.528  1.00  0.00    -0.389 OA
ATOM     35  H3  UNL     1      34.201 -47.673 -29.581  1.00  0.00     0.210 HD
ENDBRANCH  20  34
ENDBRANCH  14  15
ENDBRANCH  13  14
ENDBRANCH   2  13
BRANCH   1  36
HETATM   36  O1  UNL     1      29.734 -44.935 -25.756  1.00  0.00    -0.356 OA
HETATM   37  C1  UNL     1      28.800 -45.791 -25.098  1.00  0.00     0.209 C 
ENDBRANCH   1  36
BRANCH   3  38
HETATM   38  C11 UNL     1      34.020 -43.894 -23.868  1.00  0.00     0.229 C 
HETATM   39  O4  UNL     1      34.922 -43.616 -24.697  1.00  0.00    -0.643 OA
HETATM   40  O5  UNL     1      34.332 -44.509 -22.694  1.00  0.00    -0.643 OA
ENDBRANCH   3  38
BRANCH  12  41
HETATM   41  O7  UNL     1      28.696 -42.639 -24.704  1.00  0.00    -0.242 OA
BRANCH  41  42
HETATM   42  S5  UNL     1      27.596 -42.139 -25.778  1.00  0.00     0.252 S 
HETATM   43  O8  UNL     1      27.874 -42.297 -27.229  1.00  0.00    -0.572 OA
HETATM   44  O9  UNL     1      26.328 -42.981 -25.538  1.00  0.00    -0.572 OA
HETATM   45  O10 UNL     1      27.057 -40.549 -25.457  1.00  0.00    -0.572 OA
ENDBRANCH  41  42
ENDBRANCH  12  41
BRANCH   9  46
HETATM   46  C14 UNL     1      31.119 -40.457 -28.441  1.00  0.00     0.285 C 
BRANCH  46  47
HETATM   47  N9  UNL     1      30.031 -40.863 -29.306  1.00  0.00    -0.066 N 
ATOM     48  H93 UNL     1      29.529 -41.674 -28.944  1.00  0.00     0.275 HD
ATOM     49  H92 UNL     1      29.257 -40.199 -29.294  1.00  0.00     0.275 HD
ATOM     50  H91 UNL     1      30.393 -41.020 -30.247  1.00  0.00     0.275 HD
ENDBRANCH  46  47
BRANCH  46  51
HETATM   51  C15 UNL     1      31.967 -41.678 -28.160  1.00  0.00     0.129 C 
HETATM   52  S4  UNL     1      31.132 -43.200 -28.703  1.00  0.00    -0.095 SA
ENDBRANCH  46  51
ENDBRANCH   9  46
TORSDOF 13
ENDMDL
MODEL 5
REMARK VINA RESULT: -5.630842125      1.714      2.257
REMARK  13 active torsions:
REMARK  status: ('A' for Active; 'I' for Inactive)
REMARK    1  A    between atoms: O1_2  and  C2_3 
REMARK    2  A    between atoms: C3_4  and  S1_5 
REMARK    3  A    between atoms: S1_5  and  S2_6 
REMARK    4  A    between atoms: S2_6  and  C4_7 
REMARK    5  A    between atoms: C4_7  and  N1_8 
REMARK       I    between atoms: N1_8  and  C5_10 
REMARK    6  A    between atoms: C5_10  and  C6_12 
REMARK    7  A    between atoms: C9_25  and  O3_26 
REMARK    8  A    between atoms: C10_28  and  C11_29 
REMARK       I    between atoms: N8_35  and  C13_37 
REMARK    9  A    between atoms: C13_37  and  C14_39 
REMARK   10  A    between atoms: C14_39  and  N9_40 
REMARK   11  A    between atoms: C14_39  and  C15_44 
REMARK   12  A    between atoms: C17_47  and  O7_48 
REMARK   13  A    between atoms: O7_48  and  S5_49 
ROOT
HETATM    1  C2  UNL     1      31.218 -44.002 -24.719  1.00  0.00     0.098 C 
HETATM    2  C3  UNL     1      31.942 -44.376 -25.897  1.00  0.00     0.078 C 
HETATM    3  C10 UNL     1      31.665 -43.784 -27.052  1.00  0.00     0.139 C 
HETATM    4  N7  UNL     1      30.645 -42.866 -27.169  1.00  0.00    -0.295 N 
HETATM    5  S3  UNL     1      29.581 -41.735 -28.137  1.00  0.00     0.005 SA
HETATM    6  C12 UNL     1      28.528 -42.652 -26.901  1.00  0.00     0.097 C 
HETATM    7  N8  UNL     1      27.376 -43.117 -26.975  1.00  0.00    -0.320 N 
ATOM      8  H8  UNL     1      26.934 -42.959 -27.881  1.00  0.00     0.169 HD
HETATM    9  C13 UNL     1      26.573 -43.804 -26.087  1.00  0.00     0.253 C 
HETATM   10  O6  UNL     1      25.959 -43.270 -25.156  1.00  0.00    -0.271 OA
HETATM   11  C16 UNL     1      29.784 -42.454 -26.076  1.00  0.00     0.193 C 
HETATM   12  C17 UNL     1      29.871 -43.324 -24.892  1.00  0.00     0.233 C 
ENDROOT
BRANCH   2  13
HETATM   13  S1  UNL     1      33.171 -45.635 -25.901  1.00  0.00    -0.048 SA
BRANCH  13  14
HETATM   14  S2  UNL     1      35.052 -44.749 -25.696  1.00  0.00    -0.028 SA
BRANCH  14  15
HETATM   15  C4  UNL     1      35.615 -44.904 -24.041  1.00  0.00     0.287 C 
HETATM   16  N6  UNL     1      36.830 -44.035 -23.864  1.00  0.00    -0.033 N 
HETATM   17  C8  UNL     1      37.335 -45.104 -23.015  1.00  0.00     0.273 C 
ATOM     18  H62 UNL     1      37.362 -43.683 -24.660  1.00  0.00     0.281 HD
ATOM     19  H61 UNL     1      36.761 -43.072 -23.535  1.00  0.00     0.281 HD
HETATM   20  C9  UNL     1      36.454 -46.114 -23.687  1.00  0.00     0.212 C 
BRANCH  15  21
HETATM   21  N1  UNL     1      34.740 -44.558 -22.955  1.00  0.00    -0.310 N 
HETATM   22  C5  UNL     1      34.172 -43.336 -22.597  1.00  0.00     0.291 C 
HETATM   23  O2  UNL     1      34.378 -42.300 -23.248  1.00  0.00    -0.264 OA
ATOM     24  H1  UNL     1      34.493 -45.337 -22.343  1.00  0.00     0.166 HD
BRANCH  22  25
HETATM   25  C6  UNL     1      33.296 -43.205 -21.423  1.00  0.00     0.206 A 
HETATM   26  N2  UNL     1      33.663 -43.190 -20.139  1.00  0.00    -0.264 N 
HETATM   27  N3  UNL     1      32.542 -43.056 -19.418  1.00  0.00    -0.225 N 
ATOM     28  H2  UNL     1      34.613 -43.265 -19.777  1.00  0.00     0.190 HD
HETATM   29  N4  UNL     1      31.500 -42.989 -20.197  1.00  0.00    -0.223 N 
ATOM     30  H3  UNL     1      32.508 -43.012 -18.399  1.00  0.00     0.210 HD
HETATM   31  C7  UNL     1      30.102 -42.842 -19.778  1.00  0.00     0.202 C 
HETATM   32  N5  UNL     1      31.960 -43.080 -21.442  1.00  0.00    -0.262 N 
ATOM     33  H5  UNL     1      31.384 -43.058 -22.284  1.00  0.00     0.190 HD
ENDBRANCH  22  25
ENDBRANCH  15  21
BRANCH  20  34
HETATM   34  O3  UNL     1      36.966 -46.851 -24.711  1.00  0.00    -0.389 OA
ATOM     35  H3  UNL     1      37.896 -47.043 -24.695  1.00  0.00     0.210 HD
ENDBRANCH  20  34
ENDBRANCH  14  15
ENDBRANCH  13  14
ENDBRANCH   2  13
BRANCH   1  36
HETATM   36  O1  UNL     1      31.172 -44.927 -23.707  1.00  0.00    -0.356 OA
HETATM   37  C1  UNL     1      30.387 -46.059 -24.080  1.00  0.00     0.209 C 
ENDBRANCH   1  36
BRANCH   3  38
HETATM   38  C11 UNL     1      32.404 -44.147 -28.278  1.00  0.00     0.229 C 
HETATM   39  O4  UNL     1      32.023 -45.094 -29.010  1.00  0.00    -0.643 OA
HETATM   40  O5  UNL     1      33.515 -43.431 -28.604  1.00  0.00    -0.643 OA
ENDBRANCH   3  38
BRANCH  12  41
HETATM   41  O7  UNL     1      29.712 -42.619 -23.691  1.00  0.00    -0.242 OA
BRANCH  41  42
HETATM   42  S5  UNL     1      29.755 -41.004 -23.673  1.00  0.00     0.252 S 
HETATM   43  O8  UNL     1      28.528 -40.240 -24.022  1.00  0.00    -0.572 OA
HETATM   44  O9  UNL     1      30.067 -40.584 -22.224  1.00  0.00    -0.572 OA
HETATM   45  O10 UNL     1      31.092 -40.383 -24.539  1.00  0.00    -0.572 OA
ENDBRANCH  41  42
ENDBRANCH  12  41
BRANCH   9  46
HETATM   46  C14 UNL     1      26.426 -45.302 -26.260  1.00  0.00     0.285 C 
BRANCH  46  47
HETATM   47  N9  UNL     1      27.742 -45.906 -26.284  1.00  0.00    -0.066 N 
ATOM     48  H93 UNL     1      28.340 -45.506 -27.007  1.00  0.00     0.275 HD
ATOM     49  H92 UNL     1      28.303 -45.646 -25.474  1.00  0.00     0.275 HD
ATOM     50  H91 UNL     1      27.643 -46.917 -26.379  1.00  0.00     0.275 HD
ENDBRANCH  46  47
BRANCH  46  51
HETATM   51  C15 UNL     1      25.743 -45.630 -27.570  1.00  0.00     0.129 C 
HETATM   52  S4  UNL     1      24.567 -47.002 -27.375  1.00  0.00    -0.095 SA
ENDBRANCH  46  51
ENDBRANCH   9  46
TORSDOF 13
ENDMDL
