MODEL 1
REMARK VINA RESULT: -7.520946852      0.000      0.000
REMARK  16 active torsions:
REMARK  status: ('A' for Active; 'I' for Inactive)
REMARK    1  A    between atoms: O1_2  and  C2_3 
REMARK    2  A    between atoms: C2_3  and  O2_4 
REMARK    3  A    between atoms: C6_9  and  C7_10 
REMARK    4  A    between atoms: C7_10  and  O4_11 
REMARK    5  A    between atoms: C7_10  and  C8_13 
REMARK    6  A    between atoms: C8_13  and  O5_14 
REMARK    7  A    between atoms: C13_21  and  O7_22 
REMARK    8  A    between atoms: O7_22  and  C14_23 
REMARK    9  A    between atoms: C20_31  and  N1_32 
REMARK   10  A    between atoms: C22_37  and  O10_38 
REMARK   11  A    between atoms: O10_38  and  S1_39 
REMARK   12  A    between atoms: S1_39  and  O13_42 
REMARK   13  A    between atoms: O13_42  and  C23_43 
REMARK   14  A    between atoms: C23_43  and  C24_44 
REMARK   15  A    between atoms: C25_48  and  O14_49 
REMARK   16  A    between atoms: C26_51  and  N3_52 
ROOT
HETATM    1  C14 UNL     1      34.360 -44.594 -25.336  1.00  0.00     0.291 C 
HETATM    2  O8  UNL     1      34.550 -45.769 -26.090  1.00  0.00    -0.351 OA
HETATM    3  C15 UNL     1      34.832 -46.883 -25.346  1.00  0.00     0.150 C 
HETATM    4  C16 UNL     1      35.106 -48.010 -26.349  1.00  0.00     0.042 C 
HETATM    5  C17 UNL     1      36.018 -46.711 -24.469  1.00  0.00     0.159 C 
HETATM    6  O9  UNL     1      37.120 -47.473 -24.740  1.00  0.00    -0.376 OA
HETATM    7  C18 UNL     1      38.120 -46.841 -24.003  1.00  0.00     0.149 C 
HETATM    8  C19 UNL     1      39.505 -47.166 -24.456  1.00  0.00     0.042 C 
HETATM    9  C20 UNL     1      37.849 -45.329 -24.114  1.00  0.00     0.221 C 
HETATM   10  C21 UNL     1      36.577 -45.313 -24.813  1.00  0.00     0.085 C 
HETATM   11  C22 UNL     1      35.484 -44.380 -24.354  1.00  0.00     0.208 C 
ENDROOT
BRANCH   1  12
HETATM   12  O7  UNL     1      33.089 -44.527 -24.825  1.00  0.00    -0.347 OA
BRANCH  12  13
HETATM   13  C13 UNL     1      32.165 -44.002 -25.682  1.00  0.00     0.194 C 
HETATM   14  C2  UNL     1      31.030 -44.943 -26.036  1.00  0.00     0.193 C 
HETATM   15  C4  UNL     1      30.236 -43.941 -26.922  1.00  0.00     0.112 C 
HETATM   16  C5  UNL     1      30.038 -42.871 -25.841  1.00  0.00     0.101 C 
HETATM   17  O3  UNL     1      29.013 -43.287 -25.036  1.00  0.00    -0.344 OA
HETATM   18  C9  UNL     1      29.528 -41.589 -26.389  1.00  0.00     0.156 C 
HETATM   19  C11 UNL     1      31.388 -42.808 -25.180  1.00  0.00     0.053 C 
HETATM   20  C6  UNL     1      27.864 -42.608 -25.379  1.00  0.00     0.292 C 
HETATM   21  O6  UNL     1      28.159 -41.907 -26.570  1.00  0.00    -0.351 OA
HETATM   22  C10 UNL     1      29.576 -40.534 -25.333  1.00  0.00     0.042 C 
HETATM   23  C12 UNL     1      32.160 -41.574 -25.671  1.00  0.00     0.016 C 
BRANCH  14  24
HETATM   24  O1  UNL     1      31.456 -46.010 -26.789  1.00  0.00    -0.358 OA
HETATM   25  C1  UNL     1      31.938 -45.673 -28.025  1.00  0.00     0.205 C 
ENDBRANCH  14  24
BRANCH  14  26
HETATM   26  O2  UNL     1      30.318 -45.254 -24.930  1.00  0.00    -0.358 OA
HETATM   27  C3  UNL     1      30.614 -46.352 -24.202  1.00  0.00     0.205 C 
ENDBRANCH  14  26
BRANCH  20  28
HETATM   28  C7  UNL     1      26.695 -43.496 -25.688  1.00  0.00     0.197 C 
BRANCH  28  29
HETATM   29  O4  UNL     1      27.082 -44.817 -25.460  1.00  0.00    -0.389 OA
ATOM     30  H4  UNL     1      26.331 -45.376 -25.614  1.00  0.00     0.210 HD
ENDBRANCH  28  29
BRANCH  28  31
HETATM   31  C8  UNL     1      26.232 -43.388 -27.118  1.00  0.00     0.200 C 
BRANCH  31  32
HETATM   32  O5  UNL     1      25.254 -42.400 -27.216  1.00  0.00    -0.398 OA
ATOM     33  H5  UNL     1      25.669 -41.546 -27.241  1.00  0.00     0.209 HD
ENDBRANCH  31  32
ENDBRANCH  28  31
ENDBRANCH  20  28
ENDBRANCH  12  13
ENDBRANCH   1  12
BRANCH  11  34
HETATM   34  O10 UNL     1      35.037 -44.641 -23.096  1.00  0.00    -0.243 OA
BRANCH  34  35
HETATM   35  S1  UNL     1      34.522 -43.883 -21.850  1.00  0.00     0.402 S 
HETATM   36  O11 UNL     1      34.215 -42.447 -22.559  1.00  0.00    -0.169 OA
HETATM   37  O12 UNL     1      35.843 -44.630 -20.717  1.00  0.00    -0.169 OA
BRANCH  35  38
HETATM   38  O13 UNL     1      33.620 -43.580 -20.535  1.00  0.00    -0.250 OA
BRANCH  38  39
HETATM   39  C23 UNL     1      32.279 -43.342 -20.410  1.00  0.00     0.253 C 
BRANCH  39  40
HETATM   40  C24 UNL     1      31.904 -42.936 -19.001  1.00  0.00     0.351 C 
HETATM   41  N2  UNL     1      30.558 -43.291 -18.669  1.00  0.00    -0.016 N 
HETATM   42  C25 UNL     1      30.619 -44.050 -17.444  1.00  0.00     0.378 C 
ATOM     43  H22 UNL     1      29.932 -42.488 -18.613  1.00  0.00     0.283 HD
ATOM     44  H21 UNL     1      30.074 -43.780 -19.421  1.00  0.00     0.283 HD
HETATM   45  C26 UNL     1      32.030 -43.874 -16.987  1.00  0.00     0.377 C 
HETATM   46  O15 UNL     1      32.737 -43.656 -18.145  1.00  0.00    -0.321 OA
BRANCH  42  47
HETATM   47  O14 UNL     1      29.770 -43.492 -16.483  1.00  0.00    -0.366 OA
ATOM     48  H14 UNL     1      30.108 -43.652 -15.610  1.00  0.00     0.212 HD
ENDBRANCH  42  47
BRANCH  45  49
HETATM   49  N3  UNL     1      32.529 -45.070 -16.330  1.00  0.00    -0.049 N 
ATOM     50  H33 UNL     1      33.529 -45.004 -16.145  1.00  0.00     0.277 HD
ATOM     51  H32 UNL     1      32.193 -45.134 -15.369  1.00  0.00     0.277 HD
ATOM     52  H31 UNL     1      32.302 -45.910 -16.863  1.00  0.00     0.277 HD
ENDBRANCH  45  49
ENDBRANCH  39  40
ENDBRANCH  38  39
ENDBRANCH  35  38
ENDBRANCH  34  35
ENDBRANCH  11  34
BRANCH   9  53
HETATM   53  N1  UNL     1      37.978 -44.676 -22.865  1.00  0.00    -0.072 N 
ATOM     54  H13 UNL     1      37.463 -45.169 -22.134  1.00  0.00     0.274 HD
ATOM     55  H12 UNL     1      38.921 -44.775 -22.490  1.00  0.00     0.274 HD
ATOM     56  H11 UNL     1      37.700 -43.696 -22.918  1.00  0.00     0.274 HD
ENDBRANCH   9  53
TORSDOF 16
ENDMDL
MODEL 2
REMARK VINA RESULT: -7.281758479      4.721      9.843
REMARK  16 active torsions:
REMARK  status: ('A' for Active; 'I' for Inactive)
REMARK    1  A    between atoms: O1_2  and  C2_3 
REMARK    2  A    between atoms: C2_3  and  O2_4 
REMARK    3  A    between atoms: C6_9  and  C7_10 
REMARK    4  A    between atoms: C7_10  and  O4_11 
REMARK    5  A    between atoms: C7_10  and  C8_13 
REMARK    6  A    between atoms: C8_13  and  O5_14 
REMARK    7  A    between atoms: C13_21  and  O7_22 
REMARK    8  A    between atoms: O7_22  and  C14_23 
REMARK    9  A    between atoms: C20_31  and  N1_32 
REMARK   10  A    between atoms: C22_37  and  O10_38 
REMARK   11  A    between atoms: O10_38  and  S1_39 
REMARK   12  A    between atoms: S1_39  and  O13_42 
REMARK   13  A    between atoms: O13_42  and  C23_43 
REMARK   14  A    between atoms: C23_43  and  C24_44 
REMARK   15  A    between atoms: C25_48  and  O14_49 
REMARK   16  A    between atoms: C26_51  and  N3_52 
ROOT
HETATM    1  C14 UNL     1      26.895 -43.781 -26.336  1.00  0.00     0.291 C 
HETATM    2  O8  UNL     1      26.643 -45.084 -25.863  1.00  0.00    -0.351 OA
HETATM    3  C15 UNL     1      26.646 -46.051 -26.833  1.00  0.00     0.150 C 
HETATM    4  C16 UNL     1      26.250 -47.358 -26.136  1.00  0.00     0.042 C 
HETATM    5  C17 UNL     1      25.689 -45.775 -27.933  1.00  0.00     0.159 C 
HETATM    6  O9  UNL     1      24.629 -46.626 -28.077  1.00  0.00    -0.376 OA
HETATM    7  C18 UNL     1      23.776 -45.916 -28.921  1.00  0.00     0.149 C 
HETATM    8  C19 UNL     1      22.359 -46.385 -28.886  1.00  0.00     0.042 C 
HETATM    9  C20 UNL     1      23.873 -44.440 -28.490  1.00  0.00     0.221 C 
HETATM   10  C21 UNL     1      24.939 -44.494 -27.506  1.00  0.00     0.085 C 
HETATM   11  C22 UNL     1      26.018 -43.441 -27.515  1.00  0.00     0.208 C 
ENDROOT
BRANCH   1  12
HETATM   12  O7  UNL     1      28.239 -43.558 -26.497  1.00  0.00    -0.347 OA
BRANCH  12  13
HETATM   13  C13 UNL     1      28.938 -43.464 -25.328  1.00  0.00     0.194 C 
HETATM   14  C2  UNL     1      30.159 -44.359 -25.252  1.00  0.00     0.193 C 
HETATM   15  C4  UNL     1      30.646 -43.879 -23.855  1.00  0.00     0.112 C 
HETATM   16  C5  UNL     1      30.801 -42.399 -24.223  1.00  0.00     0.101 C 
HETATM   17  O3  UNL     1      31.980 -42.267 -24.906  1.00  0.00    -0.344 OA
HETATM   18  C9  UNL     1      31.009 -41.530 -23.037  1.00  0.00     0.156 C 
HETATM   19  C11 UNL     1      29.560 -42.121 -25.027  1.00  0.00     0.053 C 
HETATM   20  C6  UNL     1      32.941 -41.763 -24.056  1.00  0.00     0.292 C 
HETATM   21  O6  UNL     1      32.375 -41.783 -22.762  1.00  0.00    -0.351 OA
HETATM   22  C10 UNL     1      30.923 -40.095 -23.441  1.00  0.00     0.042 C 
HETATM   23  C12 UNL     1      28.531 -41.369 -24.170  1.00  0.00     0.016 C 
BRANCH  14  24
HETATM   24  O1  UNL     1      29.824 -45.691 -25.207  1.00  0.00    -0.358 OA
HETATM   25  C1  UNL     1      30.369 -46.376 -24.155  1.00  0.00     0.205 C 
ENDBRANCH  14  24
BRANCH  14  26
HETATM   26  O2  UNL     1      31.054 -44.012 -26.203  1.00  0.00    -0.358 OA
HETATM   27  C3  UNL     1      31.328 -44.842 -27.232  1.00  0.00     0.205 C 
ENDBRANCH  14  26
BRANCH  20  28
HETATM   28  C7  UNL     1      34.192 -42.587 -23.986  1.00  0.00     0.197 C 
BRANCH  28  29
HETATM   29  O4  UNL     1      34.023 -43.701 -24.809  1.00  0.00    -0.389 OA
ATOM     30  H4  UNL     1      33.122 -43.992 -24.732  1.00  0.00     0.210 HD
ENDBRANCH  28  29
BRANCH  28  31
HETATM   31  C8  UNL     1      34.499 -43.079 -22.595  1.00  0.00     0.200 C 
BRANCH  31  32
HETATM   32  O5  UNL     1      33.794 -44.257 -22.354  1.00  0.00    -0.398 OA
ATOM     33  H5  UNL     1      32.955 -44.219 -22.797  1.00  0.00     0.209 HD
ENDBRANCH  31  32
ENDBRANCH  28  31
ENDBRANCH  20  28
ENDBRANCH  12  13
ENDBRANCH   1  12
BRANCH  11  34
HETATM   34  O10 UNL     1      26.769 -43.440 -28.648  1.00  0.00    -0.243 OA
BRANCH  34  35
HETATM   35  S1  UNL     1      27.301 -42.444 -29.705  1.00  0.00     0.402 S 
HETATM   36  O11 UNL     1      27.034 -41.061 -28.882  1.00  0.00    -0.169 OA
HETATM   37  O12 UNL     1      26.515 -43.388 -31.147  1.00  0.00    -0.169 OA
BRANCH  35  38
HETATM   38  O13 UNL     1      28.338 -41.774 -30.759  1.00  0.00    -0.250 OA
BRANCH  38  39
HETATM   39  C23 UNL     1      29.658 -41.442 -30.623  1.00  0.00     0.253 C 
BRANCH  39  40
HETATM   40  C24 UNL     1      29.894 -39.960 -30.823  1.00  0.00     0.351 C 
HETATM   41  N2  UNL     1      28.674 -39.216 -30.895  1.00  0.00    -0.016 N 
HETATM   42  C25 UNL     1      28.774 -38.160 -29.919  1.00  0.00     0.378 C 
ATOM     43  H22 UNL     1      28.463 -38.878 -31.833  1.00  0.00     0.283 HD
ATOM     44  H21 UNL     1      27.842 -39.795 -30.776  1.00  0.00     0.283 HD
HETATM   45  C26 UNL     1      30.204 -38.204 -29.493  1.00  0.00     0.377 C 
HETATM   46  O15 UNL     1      30.578 -39.512 -29.694  1.00  0.00    -0.321 OA
BRANCH  42  47
HETATM   47  O14 UNL     1      28.529 -36.920 -30.517  1.00  0.00    -0.366 OA
ATOM     48  H14 UNL     1      28.916 -36.222 -30.002  1.00  0.00     0.212 HD
ENDBRANCH  42  47
BRANCH  45  49
HETATM   49  N3  UNL     1      30.351 -37.867 -28.087  1.00  0.00    -0.049 N 
ATOM     50  H33 UNL     1      30.891 -37.011 -27.963  1.00  0.00     0.277 HD
ATOM     51  H32 UNL     1      29.467 -37.556 -27.684  1.00  0.00     0.277 HD
ATOM     52  H31 UNL     1      30.752 -38.641 -27.558  1.00  0.00     0.277 HD
ENDBRANCH  45  49
ENDBRANCH  39  40
ENDBRANCH  38  39
ENDBRANCH  35  38
ENDBRANCH  34  35
ENDBRANCH  11  34
BRANCH   9  53
HETATM   53  N1  UNL     1      23.981 -43.571 -29.602  1.00  0.00    -0.072 N 
ATOM     54  H13 UNL     1      24.882 -43.091 -29.611  1.00  0.00     0.274 HD
ATOM     55  H12 UNL     1      24.070 -44.094 -30.474  1.00  0.00     0.274 HD
ATOM     56  H11 UNL     1      23.207 -42.908 -29.644  1.00  0.00     0.274 HD
ENDBRANCH   9  53
TORSDOF 16
ENDMDL
MODEL 3
REMARK VINA RESULT: -7.190291621      1.821      2.383
REMARK  16 active torsions:
REMARK  status: ('A' for Active; 'I' for Inactive)
REMARK    1  A    between atoms: O1_2  and  C2_3 
REMARK    2  A    between atoms: C2_3  and  O2_4 
REMARK    3  A    between atoms: C6_9  and  C7_10 
REMARK    4  A    between atoms: C7_10  and  O4_11 
REMARK    5  A    between atoms: C7_10  and  C8_13 
REMARK    6  A    between atoms: C8_13  and  O5_14 
REMARK    7  A    between atoms: C13_21  and  O7_22 
REMARK    8  A    between atoms: O7_22  and  C14_23 
REMARK    9  A    between atoms: C20_31  and  N1_32 
REMARK   10  A    between atoms: C22_37  and  O10_38 
REMARK   11  A    between atoms: O10_38  and  S1_39 
REMARK   12  A    between atoms: S1_39  and  O13_42 
REMARK   13  A    between atoms: O13_42  and  C23_43 
REMARK   14  A    between atoms: C23_43  and  C24_44 
REMARK   15  A    between atoms: C25_48  and  O14_49 
REMARK   16  A    between atoms: C26_51  and  N3_52 
ROOT
HETATM    1  C14 UNL     1      34.797 -44.530 -25.537  1.00  0.00     0.291 C 
HETATM    2  O8  UNL     1      34.915 -45.774 -26.187  1.00  0.00    -0.351 OA
HETATM    3  C15 UNL     1      35.095 -46.840 -25.345  1.00  0.00     0.150 C 
HETATM    4  C16 UNL     1      35.307 -48.064 -26.244  1.00  0.00     0.042 C 
HETATM    5  C17 UNL     1      36.269 -46.682 -24.450  1.00  0.00     0.159 C 
HETATM    6  O9  UNL     1      37.317 -47.543 -24.625  1.00  0.00    -0.376 OA
HETATM    7  C18 UNL     1      38.344 -46.926 -23.911  1.00  0.00     0.149 C 
HETATM    8  C19 UNL     1      39.711 -47.388 -24.295  1.00  0.00     0.042 C 
HETATM    9  C20 UNL     1      38.190 -45.413 -24.155  1.00  0.00     0.221 C 
HETATM   10  C21 UNL     1      36.940 -45.362 -24.890  1.00  0.00     0.085 C 
HETATM   11  C22 UNL     1      35.910 -44.317 -24.542  1.00  0.00     0.208 C 
ENDROOT
BRANCH   1  12
HETATM   12  O7  UNL     1      33.522 -44.327 -25.072  1.00  0.00    -0.347 OA
BRANCH  12  13
HETATM   13  C13 UNL     1      32.648 -43.860 -26.011  1.00  0.00     0.194 C 
HETATM   14  C2  UNL     1      31.472 -44.777 -26.285  1.00  0.00     0.193 C 
HETATM   15  C4  UNL     1      30.754 -43.847 -27.305  1.00  0.00     0.112 C 
HETATM   16  C5  UNL     1      30.591 -42.648 -26.363  1.00  0.00     0.101 C 
HETATM   17  O3  UNL     1      29.526 -42.912 -25.545  1.00  0.00    -0.344 OA
HETATM   18  C9  UNL     1      30.164 -41.415 -27.072  1.00  0.00     0.156 C 
HETATM   19  C11 UNL     1      31.926 -42.577 -25.675  1.00  0.00     0.053 C 
HETATM   20  C6  UNL     1      28.424 -42.220 -25.998  1.00  0.00     0.292 C 
HETATM   21  O6  UNL     1      28.784 -41.681 -27.254  1.00  0.00    -0.351 OA
HETATM   22  C10 UNL     1      30.245 -40.247 -26.145  1.00  0.00     0.042 C 
HETATM   23  C12 UNL     1      32.776 -41.451 -26.284  1.00  0.00     0.016 C 
BRANCH  14  24
HETATM   24  O1  UNL     1      31.856 -45.946 -26.896  1.00  0.00    -0.358 OA
HETATM   25  C1  UNL     1      32.244 -45.802 -28.201  1.00  0.00     0.205 C 
ENDBRANCH  14  24
BRANCH  14  26
HETATM   26  O2  UNL     1      30.719 -44.917 -25.172  1.00  0.00    -0.358 OA
HETATM   27  C3  UNL     1      30.744 -46.064 -24.459  1.00  0.00     0.205 C 
ENDBRANCH  14  26
BRANCH  20  28
HETATM   28  C7  UNL     1      27.216 -43.077 -26.235  1.00  0.00     0.197 C 
BRANCH  28  29
HETATM   29  O4  UNL     1      26.388 -42.977 -25.116  1.00  0.00    -0.389 OA
ATOM     30  H4  UNL     1      25.797 -43.721 -25.119  1.00  0.00     0.210 HD
ENDBRANCH  28  29
BRANCH  28  31
HETATM   31  C8  UNL     1      27.554 -44.532 -26.434  1.00  0.00     0.200 C 
BRANCH  31  32
HETATM   32  O5  UNL     1      27.600 -45.171 -25.197  1.00  0.00    -0.398 OA
ATOM     33  H5  UNL     1      27.528 -44.525 -24.505  1.00  0.00     0.209 HD
ENDBRANCH  31  32
ENDBRANCH  28  31
ENDBRANCH  20  28
ENDBRANCH  12  13
ENDBRANCH   1  12
BRANCH  11  34
HETATM   34  O10 UNL     1      35.415 -44.438 -23.281  1.00  0.00    -0.243 OA
BRANCH  34  35
HETATM   35  S1  UNL     1      35.175 -43.571 -22.024  1.00  0.00     0.402 S 
HETATM   36  O11 UNL     1      35.520 -42.115 -22.673  1.00  0.00    -0.169 OA
HETATM   37  O12 UNL     1      36.007 -44.821 -20.870  1.00  0.00    -0.169 OA
BRANCH  35  38
HETATM   38  O13 UNL     1      34.393 -42.962 -20.738  1.00  0.00    -0.250 OA
BRANCH  38  39
HETATM   39  C23 UNL     1      33.058 -42.914 -20.446  1.00  0.00     0.253 C 
BRANCH  39  40
HETATM   40  C24 UNL     1      32.221 -42.610 -21.670  1.00  0.00     0.351 C 
HETATM   41  N2  UNL     1      30.819 -42.759 -21.426  1.00  0.00    -0.016 N 
HETATM   42  C25 UNL     1      30.193 -41.525 -21.830  1.00  0.00     0.378 C 
ATOM     43  H22 UNL     1      30.417 -43.580 -21.877  1.00  0.00     0.283 HD
ATOM     44  H21 UNL     1      30.604 -43.022 -20.464  1.00  0.00     0.283 HD
HETATM   45  C26 UNL     1      31.281 -40.792 -22.544  1.00  0.00     0.377 C 
HETATM   46  O15 UNL     1      32.439 -41.267 -21.976  1.00  0.00    -0.321 OA
BRANCH  42  47
HETATM   47  O14 UNL     1      29.160 -41.777 -22.738  1.00  0.00    -0.366 OA
ATOM     48  H14 UNL     1      29.406 -41.488 -23.609  1.00  0.00     0.212 HD
ENDBRANCH  42  47
BRANCH  45  49
HETATM   49  N3  UNL     1      31.186 -39.358 -22.330  1.00  0.00    -0.049 N 
ATOM     50  H33 UNL     1      31.916 -38.856 -22.835  1.00  0.00     0.277 HD
ATOM     51  H32 UNL     1      30.370 -38.965 -22.798  1.00  0.00     0.277 HD
ATOM     52  H31 UNL     1      31.195 -39.129 -21.336  1.00  0.00     0.277 HD
ENDBRANCH  45  49
ENDBRANCH  39  40
ENDBRANCH  38  39
ENDBRANCH  35  38
ENDBRANCH  34  35
ENDBRANCH  11  34
BRANCH   9  53
HETATM   53  N1  UNL     1      38.338 -44.669 -22.960  1.00  0.00    -0.072 N 
ATOM     54  H13 UNL     1      37.453 -44.596 -22.456  1.00  0.00     0.274 HD
ATOM     55  H12 UNL     1      38.875 -45.186 -22.264  1.00  0.00     0.274 HD
ATOM     56  H11 UNL     1      38.743 -43.749 -23.132  1.00  0.00     0.274 HD
ENDBRANCH   9  53
TORSDOF 16
ENDMDL
MODEL 4
REMARK VINA RESULT: -7.178644439      4.733      9.211
REMARK  16 active torsions:
REMARK  status: ('A' for Active; 'I' for Inactive)
REMARK    1  A    between atoms: O1_2  and  C2_3 
REMARK    2  A    between atoms: C2_3  and  O2_4 
REMARK    3  A    between atoms: C6_9  and  C7_10 
REMARK    4  A    between atoms: C7_10  and  O4_11 
REMARK    5  A    between atoms: C7_10  and  C8_13 
REMARK    6  A    between atoms: C8_13  and  O5_14 
REMARK    7  A    between atoms: C13_21  and  O7_22 
REMARK    8  A    between atoms: O7_22  and  C14_23 
REMARK    9  A    between atoms: C20_31  and  N1_32 
REMARK   10  A    between atoms: C22_37  and  O10_38 
REMARK   11  A    between atoms: O10_38  and  S1_39 
REMARK   12  A    between atoms: S1_39  and  O13_42 
REMARK   13  A    between atoms: O13_42  and  C23_43 
REMARK   14  A    between atoms: C23_43  and  C24_44 
REMARK   15  A    between atoms: C25_48  and  O14_49 
REMARK   16  A    between atoms: C26_51  and  N3_52 
ROOT
HETATM    1  C14 UNL     1      30.609 -43.205 -28.667  1.00  0.00     0.291 C 
HETATM    2  O8  UNL     1      31.552 -42.226 -29.036  1.00  0.00    -0.351 OA
HETATM    3  C15 UNL     1      31.580 -41.127 -28.219  1.00  0.00     0.150 C 
HETATM    4  C16 UNL     1      32.581 -40.151 -28.847  1.00  0.00     0.042 C 
HETATM    5  C17 UNL     1      30.259 -40.460 -28.097  1.00  0.00     0.159 C 
HETATM    6  O9  UNL     1      30.137 -39.201 -28.614  1.00  0.00    -0.376 OA
HETATM    7  C18 UNL     1      28.756 -39.018 -28.657  1.00  0.00     0.149 C 
HETATM    8  C19 UNL     1      28.315 -37.937 -29.589  1.00  0.00     0.042 C 
HETATM    9  C20 UNL     1      28.153 -40.374 -29.071  1.00  0.00     0.221 C 
HETATM   10  C21 UNL     1      29.327 -41.229 -29.060  1.00  0.00     0.085 C 
HETATM   11  C22 UNL     1      29.245 -42.601 -28.441  1.00  0.00     0.208 C 
ENDROOT
BRANCH   1  12
HETATM   12  O7  UNL     1      31.088 -44.010 -27.665  1.00  0.00    -0.347 OA
BRANCH  12  13
HETATM   13  C13 UNL     1      32.379 -44.418 -27.840  1.00  0.00     0.194 C 
HETATM   14  C2  UNL     1      33.229 -44.367 -26.586  1.00  0.00     0.193 C 
HETATM   15  C4  UNL     1      34.520 -44.960 -27.220  1.00  0.00     0.112 C 
HETATM   16  C5  UNL     1      33.899 -46.286 -27.673  1.00  0.00     0.101 C 
HETATM   17  O3  UNL     1      33.821 -47.099 -26.575  1.00  0.00    -0.344 OA
HETATM   18  C9  UNL     1      34.783 -47.052 -28.587  1.00  0.00     0.156 C 
HETATM   19  C11 UNL     1      32.577 -45.859 -28.250  1.00  0.00     0.053 C 
HETATM   20  C6  UNL     1      34.855 -48.010 -26.612  1.00  0.00     0.292 C 
HETATM   21  O6  UNL     1      35.706 -47.601 -27.663  1.00  0.00    -0.351 OA
HETATM   22  C10 UNL     1      34.033 -48.208 -29.165  1.00  0.00     0.042 C 
HETATM   23  C12 UNL     1      32.647 -45.848 -29.784  1.00  0.00     0.016 C 
BRANCH  14  24
HETATM   24  O1  UNL     1      33.455 -43.079 -26.164  1.00  0.00    -0.358 OA
HETATM   25  C1  UNL     1      34.625 -42.532 -26.617  1.00  0.00     0.205 C 
ENDBRANCH  14  24
BRANCH  14  26
HETATM   26  O2  UNL     1      32.738 -45.212 -25.653  1.00  0.00    -0.358 OA
HETATM   27  C3  UNL     1      32.593 -44.817 -24.369  1.00  0.00     0.205 C 
ENDBRANCH  14  26
BRANCH  20  28
HETATM   28  C7  UNL     1      35.695 -48.034 -25.369  1.00  0.00     0.197 C 
BRANCH  28  29
HETATM   29  O4  UNL     1      35.181 -47.091 -24.479  1.00  0.00    -0.389 OA
ATOM     30  H4  UNL     1      34.238 -47.202 -24.443  1.00  0.00     0.210 HD
ENDBRANCH  28  29
BRANCH  28  31
HETATM   31  C8  UNL     1      37.140 -47.690 -25.627  1.00  0.00     0.200 C 
BRANCH  31  32
HETATM   32  O5  UNL     1      37.831 -47.656 -24.417  1.00  0.00    -0.398 OA
ATOM     33  H5  UNL     1      38.513 -48.317 -24.424  1.00  0.00     0.209 HD
ENDBRANCH  31  32
ENDBRANCH  28  31
ENDBRANCH  20  28
ENDBRANCH  12  13
ENDBRANCH   1  12
BRANCH  11  34
HETATM   34  O10 UNL     1      28.977 -42.584 -27.108  1.00  0.00    -0.243 OA
BRANCH  34  35
HETATM   35  S1  UNL     1      27.980 -43.203 -26.101  1.00  0.00     0.402 S 
HETATM   36  O11 UNL     1      27.155 -41.846 -25.722  1.00  0.00    -0.169 OA
HETATM   37  O12 UNL     1      29.299 -44.305 -25.307  1.00  0.00    -0.169 OA
BRANCH  35  38
HETATM   38  O13 UNL     1      26.845 -44.213 -25.529  1.00  0.00    -0.250 OA
BRANCH  38  39
HETATM   39  C23 UNL     1      26.714 -45.569 -25.653  1.00  0.00     0.253 C 
BRANCH  39  40
HETATM   40  C24 UNL     1      26.260 -45.971 -27.039  1.00  0.00     0.351 C 
HETATM   41  N2  UNL     1      25.494 -47.179 -27.036  1.00  0.00    -0.016 N 
HETATM   42  C25 UNL     1      24.259 -46.890 -27.720  1.00  0.00     0.378 C 
ATOM     43  H22 UNL     1      25.996 -47.975 -27.430  1.00  0.00     0.283 HD
ATOM     44  H21 UNL     1      25.356 -47.565 -26.102  1.00  0.00     0.283 HD
HETATM   45  C26 UNL     1      24.492 -45.543 -28.321  1.00  0.00     0.377 C 
HETATM   46  O15 UNL     1      25.415 -44.956 -27.489  1.00  0.00    -0.321 OA
BRANCH  42  47
HETATM   47  O14 UNL     1      24.049 -47.807 -28.755  1.00  0.00    -0.366 OA
ATOM     48  H14 UNL     1      24.670 -47.659 -29.459  1.00  0.00     0.212 HD
ENDBRANCH  42  47
BRANCH  45  49
HETATM   49  N3  UNL     1      23.275 -44.749 -28.334  1.00  0.00    -0.049 N 
ATOM     50  H33 UNL     1      22.622 -45.054 -27.613  1.00  0.00     0.277 HD
ATOM     51  H32 UNL     1      23.446 -43.800 -28.002  1.00  0.00     0.277 HD
ATOM     52  H31 UNL     1      22.839 -44.750 -29.256  1.00  0.00     0.277 HD
ENDBRANCH  45  49
ENDBRANCH  39  40
ENDBRANCH  38  39
ENDBRANCH  35  38
ENDBRANCH  34  35
ENDBRANCH  11  34
BRANCH   9  53
HETATM   53  N1  UNL     1      27.025 -40.712 -28.286  1.00  0.00    -0.072 N 
ATOM     54  H13 UNL     1      26.582 -39.880 -27.896  1.00  0.00     0.274 HD
ATOM     55  H12 UNL     1      26.256 -41.046 -28.866  1.00  0.00     0.274 HD
ATOM     56  H11 UNL     1      27.258 -41.385 -27.555  1.00  0.00     0.274 HD
ENDBRANCH   9  53
TORSDOF 16
ENDMDL
MODEL 5
REMARK VINA RESULT: -7.173940088      2.504      7.642
REMARK  16 active torsions:
REMARK  status: ('A' for Active; 'I' for Inactive)
REMARK    1  A    between atoms: O1_2  and  C2_3 
REMARK    2  A    between atoms: C2_3  and  O2_4 
REMARK    3  A    between atoms: C6_9  and  C7_10 
REMARK    4  A    between atoms: C7_10  and  O4_11 
REMARK    5  A    between atoms: C7_10  and  C8_13 
REMARK    6  A    between atoms: C8_13  and  O5_14 
REMARK    7  A    between atoms: C13_21  and  O7_22 
REMARK    8  A    between atoms: O7_22  and  C14_23 
REMARK    9  A    between atoms: C20_31  and  N1_32 
REMARK   10  A    between atoms: C22_37  and  O10_38 
REMARK   11  A    between atoms: O10_38  and  S1_39 
REMARK   12  A    between atoms: S1_39  and  O13_42 
REMARK   13  A    between atoms: O13_42  and  C23_43 
REMARK   14  A    between atoms: C23_43  and  C24_44 
REMARK   15  A    between atoms: C25_48  and  O14_49 
REMARK   16  A    between atoms: C26_51  and  N3_52 
ROOT
HETATM    1  C14 UNL     1      32.258 -45.402 -27.468  1.00  0.00     0.291 C 
HETATM    2  O8  UNL     1      31.815 -44.636 -28.565  1.00  0.00    -0.351 OA
HETATM    3  C15 UNL     1      31.276 -43.422 -28.229  1.00  0.00     0.150 C 
HETATM    4  C16 UNL     1      30.765 -42.804 -29.535  1.00  0.00     0.042 C 
HETATM    5  C17 UNL     1      30.150 -43.531 -27.267  1.00  0.00     0.159 C 
HETATM    6  O9  UNL     1      28.907 -43.172 -27.707  1.00  0.00    -0.376 OA
HETATM    7  C18 UNL     1      28.068 -43.709 -26.731  1.00  0.00     0.149 C 
HETATM    8  C19 UNL     1      26.651 -43.873 -27.172  1.00  0.00     0.042 C 
HETATM    9  C20 UNL     1      28.678 -45.067 -26.337  1.00  0.00     0.221 C 
HETATM   10  C21 UNL     1      29.929 -45.048 -27.073  1.00  0.00     0.085 C 
HETATM   11  C22 UNL     1      31.200 -45.499 -26.398  1.00  0.00     0.208 C 
ENDROOT
BRANCH   1  12
HETATM   12  O7  UNL     1      33.505 -45.007 -27.054  1.00  0.00    -0.347 OA
BRANCH  12  13
HETATM   13  C13 UNL     1      34.351 -46.037 -26.757  1.00  0.00     0.194 C 
HETATM   14  C2  UNL     1      35.190 -46.517 -27.924  1.00  0.00     0.193 C 
HETATM   15  C4  UNL     1      36.003 -47.583 -27.134  1.00  0.00     0.112 C 
HETATM   16  C5  UNL     1      36.601 -46.617 -26.104  1.00  0.00     0.101 C 
HETATM   17  O3  UNL     1      37.646 -45.970 -26.707  1.00  0.00    -0.344 OA
HETATM   18  C9  UNL     1      37.257 -47.319 -24.972  1.00  0.00     0.156 C 
HETATM   19  C11 UNL     1      35.430 -45.745 -25.741  1.00  0.00     0.053 C 
HETATM   20  C6  UNL     1      38.831 -46.541 -26.294  1.00  0.00     0.292 C 
HETATM   21  O6  UNL     1      38.479 -47.706 -25.575  1.00  0.00    -0.351 OA
HETATM   22  C10 UNL     1      37.611 -46.336 -23.906  1.00  0.00     0.042 C 
HETATM   23  C12 UNL     1      34.851 -46.174 -24.384  1.00  0.00     0.016 C 
BRANCH  14  24
HETATM   24  O1  UNL     1      34.430 -47.123 -28.896  1.00  0.00    -0.358 OA
HETATM   25  C1  UNL     1      34.356 -48.486 -28.789  1.00  0.00     0.205 C 
ENDBRANCH  14  24
BRANCH  14  26
HETATM   26  O2  UNL     1      36.007 -45.529 -28.351  1.00  0.00    -0.358 OA
HETATM   27  C3  UNL     1      35.792 -44.916 -29.534  1.00  0.00     0.205 C 
ENDBRANCH  14  26
BRANCH  20  28
HETATM   28  C7  UNL     1      39.721 -46.986 -27.416  1.00  0.00     0.197 C 
BRANCH  28  29
HETATM   29  O4  UNL     1      40.968 -47.307 -26.879  1.00  0.00    -0.389 OA
ATOM     30  H4  UNL     1      41.483 -47.727 -27.557  1.00  0.00     0.210 HD
ENDBRANCH  28  29
BRANCH  28  31
HETATM   31  C8  UNL     1      39.927 -45.923 -28.464  1.00  0.00     0.200 C 
BRANCH  31  32
HETATM   32  O5  UNL     1      38.891 -45.982 -29.394  1.00  0.00    -0.398 OA
ATOM     33  H5  UNL     1      38.949 -46.796 -29.881  1.00  0.00     0.209 HD
ENDBRANCH  31  32
ENDBRANCH  28  31
ENDBRANCH  20  28
ENDBRANCH  12  13
ENDBRANCH   1  12
BRANCH  11  34
HETATM   34  O10 UNL     1      31.560 -44.725 -25.339  1.00  0.00    -0.243 OA
BRANCH  34  35
HETATM   35  S1  UNL     1      31.447 -44.717 -23.797  1.00  0.00     0.402 S 
HETATM   36  O11 UNL     1      31.234 -46.318 -23.567  1.00  0.00    -0.169 OA
HETATM   37  O12 UNL     1      30.387 -43.147 -23.776  1.00  0.00    -0.169 OA
BRANCH  35  38
HETATM   38  O13 UNL     1      31.858 -44.414 -22.256  1.00  0.00    -0.250 OA
BRANCH  38  39
HETATM   39  C23 UNL     1      32.613 -43.410 -21.715  1.00  0.00     0.253 C 
BRANCH  39  40
HETATM   40  C24 UNL     1      31.842 -42.612 -20.685  1.00  0.00     0.351 C 
HETATM   41  N2  UNL     1      30.426 -42.699 -20.873  1.00  0.00    -0.016 N 
HETATM   42  C25 UNL     1      29.866 -43.120 -19.613  1.00  0.00     0.378 C 
ATOM     43  H22 UNL     1      30.014 -41.837 -21.228  1.00  0.00     0.283 HD
ATOM     44  H21 UNL     1      30.160 -43.300 -21.653  1.00  0.00     0.283 HD
HETATM   45  C26 UNL     1      31.010 -43.012 -18.660  1.00  0.00     0.377 C 
HETATM   46  O15 UNL     1      32.124 -43.188 -19.446  1.00  0.00    -0.321 OA
BRANCH  42  47
HETATM   47  O14 UNL     1      28.864 -42.233 -19.205  1.00  0.00    -0.366 OA
ATOM     48  H14 UNL     1      29.031 -41.930 -18.320  1.00  0.00     0.212 HD
ENDBRANCH  42  47
BRANCH  45  49
HETATM   49  N3  UNL     1      30.959 -44.052 -17.648  1.00  0.00    -0.049 N 
ATOM     50  H33 UNL     1      30.233 -44.738 -17.854  1.00  0.00     0.277 HD
ATOM     51  H32 UNL     1      31.774 -44.663 -17.700  1.00  0.00     0.277 HD
ATOM     52  H31 UNL     1      30.846 -43.659 -16.714  1.00  0.00     0.277 HD
ENDBRANCH  45  49
ENDBRANCH  39  40
ENDBRANCH  38  39
ENDBRANCH  35  38
ENDBRANCH  34  35
ENDBRANCH  11  34
BRANCH   9  53
HETATM   53  N1  UNL     1      28.687 -45.255 -24.934  1.00  0.00    -0.072 N 
ATOM     54  H13 UNL     1      29.364 -44.640 -24.482  1.00  0.00     0.274 HD
ATOM     55  H12 UNL     1      27.834 -44.894 -24.506  1.00  0.00     0.274 HD
ATOM     56  H11 UNL     1      28.845 -46.230 -24.682  1.00  0.00     0.274 HD
ENDBRANCH   9  53
TORSDOF 16
ENDMDL
