MODEL 1
REMARK VINA RESULT: -4.899909096      0.000      0.000
REMARK  6 active torsions:
REMARK  status: ('A' for Active; 'I' for Inactive)
REMARK    1  A    between atoms: N1_1  and  C1_4 
REMARK    2  A    between atoms: C2_9  and  S1_10 
REMARK    3  A    between atoms: S1_10  and  C3_11 
REMARK    4  A    between atoms: C3_11  and  C4_12 
REMARK    5  A    between atoms: C4_12  and  N4_13 
REMARK    6  A    between atoms: N5_17  and  N6_18 
ROOT
HETATM    1  C1  UNL     1      27.096  34.871  19.075  1.00  0.00     0.713 A 
HETATM    2  N2  UNL     1      27.274  34.206  17.919  1.00  0.00    -0.129 N 
ATOM      3  H2  UNL     1      27.730  34.576  17.086  1.00  0.00     0.205 HD
HETATM    4  N3  UNL     1      26.760  32.992  18.038  1.00  0.00    -0.263 N 
ATOM      5  H3  UNL     1      26.759  32.280  17.308  1.00  0.00     0.189 HD
HETATM    6  C2  UNL     1      26.236  32.840  19.278  1.00  0.00     0.198 A 
HETATM    7  N5  UNL     1      26.461  34.026  19.898  1.00  0.00    -0.068 N 
ENDROOT
BRANCH   6   8
HETATM    8  S1  UNL     1      25.423  31.400  19.963  1.00  0.00    -0.088 SA
BRANCH   8   9
HETATM    9  C3  UNL     1      25.013  30.301  18.607  1.00  0.00     0.109 C 
BRANCH   9  10
HETATM   10  C4  UNL     1      23.530  30.179  18.373  1.00  0.00     0.240 C 
BRANCH  10  11
HETATM   11  N4  UNL     1      23.129  30.468  17.033  1.00  0.00    -0.079 N 
ATOM     12  H43 UNL     1      22.433  31.214  17.020  1.00  0.00     0.274 HD
ATOM     13  H42 UNL     1      23.884  30.929  16.525  1.00  0.00     0.274 HD
ATOM     14  H41 UNL     1      22.793  29.655  16.517  1.00  0.00     0.274 HD
ENDBRANCH  10  11
ENDBRANCH   9  10
ENDBRANCH   8   9
ENDBRANCH   6   8
BRANCH   7  15
HETATM   15  N6  UNL     1      26.060  34.267  21.218  1.00  0.00    -0.322 N 
ATOM     16  H62 UNL     1      25.950  35.211  21.589  1.00  0.00     0.178 HD
ATOM     17  H61 UNL     1      25.840  33.574  21.933  1.00  0.00     0.178 HD
ENDBRANCH   7  15
BRANCH   1  18
HETATM   18  N1  UNL     1      27.437  36.072  19.406  1.00  0.00    -0.231 N 
ATOM     19  H12 UNL     1      27.952  36.703  18.793  1.00  0.00     0.174 HD
ATOM     20  H11 UNL     1      27.273  36.588  20.270  1.00  0.00     0.174 HD
ENDBRANCH   1  18
TORSDOF 6
ENDMDL
MODEL 2
REMARK VINA RESULT: -4.733959442      1.649      2.560
REMARK  6 active torsions:
REMARK  status: ('A' for Active; 'I' for Inactive)
REMARK    1  A    between atoms: N1_1  and  C1_4 
REMARK    2  A    between atoms: C2_9  and  S1_10 
REMARK    3  A    between atoms: S1_10  and  C3_11 
REMARK    4  A    between atoms: C3_11  and  C4_12 
REMARK    5  A    between atoms: C4_12  and  N4_13 
REMARK    6  A    between atoms: N5_17  and  N6_18 
ROOT
HETATM    1  C1  UNL     1      28.115  35.953  20.431  1.00  0.00     0.713 A 
HETATM    2  N2  UNL     1      28.169  35.554  21.715  1.00  0.00    -0.129 N 
ATOM      3  H2  UNL     1      28.789  35.936  22.429  1.00  0.00     0.205 HD
HETATM    4  N3  UNL     1      27.286  34.587  21.903  1.00  0.00    -0.263 N 
ATOM      5  H3  UNL     1      27.120  34.105  22.787  1.00  0.00     0.189 HD
HETATM    6  C2  UNL     1      26.636  34.333  20.741  1.00  0.00     0.198 A 
HETATM    7  N5  UNL     1      27.174  35.200  19.846  1.00  0.00    -0.068 N 
ENDROOT
BRANCH   6   8
HETATM    8  S1  UNL     1      25.349  33.128  20.438  1.00  0.00    -0.088 SA
BRANCH   8   9
HETATM    9  C3  UNL     1      25.958  31.968  19.214  1.00  0.00     0.109 C 
BRANCH   9  10
HETATM   10  C4  UNL     1      25.206  30.662  19.212  1.00  0.00     0.240 C 
BRANCH  10  11
HETATM   11  N4  UNL     1      25.010  30.109  17.911  1.00  0.00    -0.079 N 
ATOM     12  H43 UNL     1      25.069  30.837  17.198  1.00  0.00     0.274 HD
ATOM     13  H42 UNL     1      25.812  29.538  17.639  1.00  0.00     0.274 HD
ATOM     14  H41 UNL     1      24.144  29.579  17.812  1.00  0.00     0.274 HD
ENDBRANCH  10  11
ENDBRANCH   9  10
ENDBRANCH   8   9
ENDBRANCH   6   8
BRANCH   7  15
HETATM   15  N6  UNL     1      26.758  35.248  18.510  1.00  0.00    -0.322 N 
ATOM     16  H62 UNL     1      27.047  35.994  17.877  1.00  0.00     0.178 HD
ATOM     17  H61 UNL     1      26.151  34.586  18.028  1.00  0.00     0.178 HD
ENDBRANCH   7  15
BRANCH   1  18
HETATM   18  N1  UNL     1      28.791  36.862  19.812  1.00  0.00    -0.231 N 
ATOM     19  H12 UNL     1      28.723  37.033  18.809  1.00  0.00     0.174 HD
ATOM     20  H11 UNL     1      29.470  37.535  20.169  1.00  0.00     0.174 HD
ENDBRANCH   1  18
TORSDOF 6
ENDMDL
MODEL 3
REMARK VINA RESULT: -4.665804912      1.497      1.895
REMARK  6 active torsions:
REMARK  status: ('A' for Active; 'I' for Inactive)
REMARK    1  A    between atoms: N1_1  and  C1_4 
REMARK    2  A    between atoms: C2_9  and  S1_10 
REMARK    3  A    between atoms: S1_10  and  C3_11 
REMARK    4  A    between atoms: C3_11  and  C4_12 
REMARK    5  A    between atoms: C4_12  and  N4_13 
REMARK    6  A    between atoms: N5_17  and  N6_18 
ROOT
HETATM    1  C1  UNL     1      27.450  36.349  20.443  1.00  0.00     0.713 A 
HETATM    2  N2  UNL     1      27.686  35.962  19.176  1.00  0.00    -0.129 N 
ATOM      3  H2  UNL     1      28.233  36.481  18.489  1.00  0.00     0.205 HD
HETATM    4  N3  UNL     1      27.093  34.798  18.965  1.00  0.00    -0.263 N 
ATOM      5  H3  UNL     1      27.112  34.279  18.087  1.00  0.00     0.189 HD
HETATM    6  C2  UNL     1      26.457  34.400  20.093  1.00  0.00     0.198 A 
HETATM    7  N5  UNL     1      26.699  35.386  20.994  1.00  0.00    -0.068 N 
ENDROOT
BRANCH   6   8
HETATM    8  S1  UNL     1      25.506  32.908  20.355  1.00  0.00    -0.088 SA
BRANCH   8   9
HETATM    9  C3  UNL     1      25.794  31.818  18.961  1.00  0.00     0.109 C 
BRANCH   9  10
HETATM   10  C4  UNL     1      25.102  30.487  19.098  1.00  0.00     0.240 C 
BRANCH  10  11
HETATM   11  N4  UNL     1      24.924  29.796  17.861  1.00  0.00    -0.079 N 
ATOM     12  H43 UNL     1      24.743  28.806  18.025  1.00  0.00     0.274 HD
ATOM     13  H42 UNL     1      24.041  30.062  17.425  1.00  0.00     0.274 HD
ATOM     14  H41 UNL     1      25.697  29.916  17.206  1.00  0.00     0.274 HD
ENDBRANCH  10  11
ENDBRANCH   9  10
ENDBRANCH   8   9
ENDBRANCH   6   8
BRANCH   7  15
HETATM   15  N6  UNL     1      26.202  35.342  22.302  1.00  0.00    -0.322 N 
ATOM     16  H62 UNL     1      25.632  36.092  22.693  1.00  0.00     0.178 HD
ATOM     17  H61 UNL     1      26.337  34.601  22.989  1.00  0.00     0.178 HD
ENDBRANCH   7  15
BRANCH   1  18
HETATM   18  N1  UNL     1      27.832  37.409  21.075  1.00  0.00    -0.231 N 
ATOM     19  H12 UNL     1      27.325  37.810  21.863  1.00  0.00     0.174 HD
ATOM     20  H11 UNL     1      28.645  38.006  20.926  1.00  0.00     0.174 HD
ENDBRANCH   1  18
TORSDOF 6
ENDMDL
MODEL 4
REMARK VINA RESULT: -4.507082301      1.083      2.074
REMARK  6 active torsions:
REMARK  status: ('A' for Active; 'I' for Inactive)
REMARK    1  A    between atoms: N1_1  and  C1_4 
REMARK    2  A    between atoms: C2_9  and  S1_10 
REMARK    3  A    between atoms: S1_10  and  C3_11 
REMARK    4  A    between atoms: C3_11  and  C4_12 
REMARK    5  A    between atoms: C4_12  and  N4_13 
REMARK    6  A    between atoms: N5_17  and  N6_18 
ROOT
HETATM    1  C1  UNL     1      26.534  34.024  19.306  1.00  0.00     0.713 A 
HETATM    2  N2  UNL     1      25.894  33.866  20.479  1.00  0.00    -0.129 N 
ATOM      3  H2  UNL     1      25.771  34.588  21.189  1.00  0.00     0.205 HD
HETATM    4  N3  UNL     1      25.449  32.623  20.563  1.00  0.00    -0.263 N 
ATOM      5  H3  UNL     1      24.928  32.237  21.350  1.00  0.00     0.189 HD
HETATM    6  C2  UNL     1      25.790  31.942  19.442  1.00  0.00     0.198 A 
HETATM    7  N5  UNL     1      26.464  32.841  18.681  1.00  0.00    -0.068 N 
ENDROOT
BRANCH   6   8
HETATM    8  S1  UNL     1      25.437  30.235  19.039  1.00  0.00    -0.088 SA
BRANCH   8   9
HETATM    9  C3  UNL     1      23.658  30.059  18.896  1.00  0.00     0.109 C 
BRANCH   9  10
HETATM   10  C4  UNL     1      23.060  30.942  17.832  1.00  0.00     0.240 C 
BRANCH  10  11
HETATM   11  N4  UNL     1      22.687  30.245  16.643  1.00  0.00    -0.079 N 
ATOM     12  H43 UNL     1      22.507  30.902  15.884  1.00  0.00     0.274 HD
ATOM     13  H42 UNL     1      23.488  29.748  16.253  1.00  0.00     0.274 HD
ATOM     14  H41 UNL     1      21.896  29.613  16.765  1.00  0.00     0.274 HD
ENDBRANCH  10  11
ENDBRANCH   9  10
ENDBRANCH   8   9
ENDBRANCH   6   8
BRANCH   7  15
HETATM   15  N6  UNL     1      26.987  32.512  17.424  1.00  0.00    -0.322 N 
ATOM     16  H62 UNL     1      27.454  33.200  16.833  1.00  0.00     0.178 HD
ATOM     17  H61 UNL     1      26.969  31.601  16.967  1.00  0.00     0.178 HD
ENDBRANCH   7  15
BRANCH   1  18
HETATM   18  N1  UNL     1      27.120  35.062  18.809  1.00  0.00    -0.231 N 
ATOM     19  H12 UNL     1      26.768  35.579  18.004  1.00  0.00     0.174 HD
ATOM     20  H11 UNL     1      27.978  35.533  19.096  1.00  0.00     0.174 HD
ENDBRANCH   1  18
TORSDOF 6
ENDMDL
MODEL 5
REMARK VINA RESULT: -4.421347879      1.307      2.155
REMARK  6 active torsions:
REMARK  status: ('A' for Active; 'I' for Inactive)
REMARK    1  A    between atoms: N1_1  and  C1_4 
REMARK    2  A    between atoms: C2_9  and  S1_10 
REMARK    3  A    between atoms: S1_10  and  C3_11 
REMARK    4  A    between atoms: C3_11  and  C4_12 
REMARK    5  A    between atoms: C4_12  and  N4_13 
REMARK    6  A    between atoms: N5_17  and  N6_18 
ROOT
HETATM    1  C1  UNL     1      26.910  35.484  20.597  1.00  0.00     0.713 A 
HETATM    2  N2  UNL     1      26.310  34.813  21.598  1.00  0.00    -0.129 N 
ATOM      3  H2  UNL     1      26.203  35.149  22.555  1.00  0.00     0.205 HD
HETATM    4  N3  UNL     1      25.882  33.648  21.139  1.00  0.00    -0.263 N 
ATOM      5  H3  UNL     1      25.393  32.944  21.691  1.00  0.00     0.189 HD
HETATM    6  C2  UNL     1      26.194  33.535  19.825  1.00  0.00     0.198 A 
HETATM    7  N5  UNL     1      26.832  34.693  19.519  1.00  0.00    -0.068 N 
ENDROOT
BRANCH   6   8
HETATM    8  S1  UNL     1      25.847  32.168  18.724  1.00  0.00    -0.088 SA
BRANCH   8   9
HETATM    9  C3  UNL     1      25.415  30.747  19.729  1.00  0.00     0.109 C 
BRANCH   9  10
HETATM   10  C4  UNL     1      24.646  29.698  18.968  1.00  0.00     0.240 C 
BRANCH  10  11
HETATM   11  N4  UNL     1      24.597  29.924  17.559  1.00  0.00    -0.079 N 
ATOM     12  H43 UNL     1      25.263  29.321  17.075  1.00  0.00     0.274 HD
ATOM     13  H42 UNL     1      23.726  29.565  17.168  1.00  0.00     0.274 HD
ATOM     14  H41 UNL     1      24.736  30.898  17.291  1.00  0.00     0.274 HD
ENDBRANCH  10  11
ENDBRANCH   9  10
ENDBRANCH   8   9
ENDBRANCH   6   8
BRANCH   7  15
HETATM   15  N6  UNL     1      27.316  34.960  18.233  1.00  0.00    -0.322 N 
ATOM     16  H62 UNL     1      27.443  35.911  17.886  1.00  0.00     0.178 HD
ATOM     17  H61 UNL     1      27.588  34.282  17.522  1.00  0.00     0.178 HD
ENDBRANCH   7  15
BRANCH   1  18
HETATM   18  N1  UNL     1      27.467  36.649  20.591  1.00  0.00    -0.231 N 
ATOM     19  H12 UNL     1      27.727  37.155  21.436  1.00  0.00     0.174 HD
ATOM     20  H11 UNL     1      27.736  37.246  19.809  1.00  0.00     0.174 HD
ENDBRANCH   1  18
TORSDOF 6
ENDMDL
