MODEL 1
REMARK VINA RESULT: -5.485508458      0.000      0.000
REMARK  7 active torsions:
REMARK  status: ('A' for Active; 'I' for Inactive)
REMARK    1  A    between atoms: N1_1  and  N2_4 
REMARK    2  A    between atoms: N2_4  and  N3_5 
REMARK    3  A    between atoms: N3_5  and  C1_7 
REMARK    4  A    between atoms: C1_7  and  C2_8 
REMARK    5  A    between atoms: C2_8  and  N4_9 
REMARK    6  A    between atoms: N7_16  and  N8_17 
REMARK    7  A    between atoms: C4_20  and  N9_21 
ROOT
HETATM    1  N4  UNL     1      26.558  34.429  20.777  1.00  0.00    -0.106 N 
HETATM    2  N5  UNL     1      27.184  34.644  21.930  1.00  0.00    -0.114 N 
ATOM      3  H5  UNL     1      26.984  34.177  22.814  1.00  0.00     0.206 HD
HETATM    4  C3  UNL     1      28.134  35.594  21.727  1.00  0.00     0.727 A 
HETATM    5  N6  UNL     1      28.938  36.058  22.619  1.00  0.00    -0.231 N 
ATOM      6  H61 UNL     1      29.652  36.771  22.468  1.00  0.00     0.174 HD
ATOM      7  H62 UNL     1      28.965  35.772  23.598  1.00  0.00     0.174 HD
HETATM    8  N7  UNL     1      28.099  35.970  20.439  1.00  0.00     0.085 N 
HETATM    9  C4  UNL     1      27.125  35.249  19.860  1.00  0.00     0.729 A 
ENDROOT
BRANCH   1  10
HETATM   10  C2  UNL     1      25.473  33.499  20.527  1.00  0.00     0.191 C 
BRANCH  10  11
HETATM   11  C1  UNL     1      26.103  32.173  20.164  1.00  0.00     0.178 C 
BRANCH  11  12
HETATM   12  N3  UNL     1      25.738  31.739  18.834  1.00  0.00    -0.251 N 
ATOM     13  H3  UNL     1      24.916  31.159  18.663  1.00  0.00     0.197 HD
BRANCH  12  14
HETATM   14  N2  UNL     1      26.474  32.109  17.920  1.00  0.00    -0.249 NA
BRANCH  14  15
HETATM   15  N1  UNL     1      27.206  32.465  16.981  1.00  0.00    -0.261 N 
ATOM     16  H12 UNL     1      26.961  31.543  17.344  1.00  0.00     0.193 HD
ATOM     17  H11 UNL     1      27.802  32.777  16.215  1.00  0.00     0.193 HD
ENDBRANCH  14  15
ENDBRANCH  12  14
ENDBRANCH  11  12
ENDBRANCH  10  11
ENDBRANCH   1  10
BRANCH   9  18
HETATM   18  N9  UNL     1      26.790  35.332  18.617  1.00  0.00    -0.231 N 
ATOM     19  H92 UNL     1      27.006  34.630  17.910  1.00  0.00     0.174 HD
ATOM     20  H91 UNL     1      26.273  36.101  18.191  1.00  0.00     0.174 HD
ENDBRANCH   9  18
BRANCH   8  21
HETATM   21  N8  UNL     1      28.912  36.921  19.832  1.00  0.00    -0.309 N 
ATOM     22  H82 UNL     1      29.356  37.725  20.276  1.00  0.00     0.178 HD
ATOM     23  H81 UNL     1      29.183  36.950  18.849  1.00  0.00     0.178 HD
ENDBRANCH   8  21
TORSDOF 7
ENDMDL
MODEL 2
REMARK VINA RESULT: -5.384341705      0.798      1.143
REMARK  7 active torsions:
REMARK  status: ('A' for Active; 'I' for Inactive)
REMARK    1  A    between atoms: N1_1  and  N2_4 
REMARK    2  A    between atoms: N2_4  and  N3_5 
REMARK    3  A    between atoms: N3_5  and  C1_7 
REMARK    4  A    between atoms: C1_7  and  C2_8 
REMARK    5  A    between atoms: C2_8  and  N4_9 
REMARK    6  A    between atoms: N7_16  and  N8_17 
REMARK    7  A    between atoms: C4_20  and  N9_21 
ROOT
HETATM    1  N4  UNL     1      26.539  34.328  20.585  1.00  0.00    -0.106 N 
HETATM    2  N5  UNL     1      27.097  34.513  21.777  1.00  0.00    -0.114 N 
ATOM      3  H5  UNL     1      26.874  33.998  22.628  1.00  0.00     0.206 HD
HETATM    4  C3  UNL     1      28.016  35.508  21.666  1.00  0.00     0.727 A 
HETATM    5  N6  UNL     1      28.756  35.960  22.618  1.00  0.00    -0.231 N 
ATOM      6  H61 UNL     1      29.446  36.707  22.536  1.00  0.00     0.174 HD
ATOM      7  H62 UNL     1      28.746  35.629  23.583  1.00  0.00     0.174 HD
HETATM    8  N7  UNL     1      28.029  35.943  20.396  1.00  0.00     0.085 N 
HETATM    9  C4  UNL     1      27.116  35.212  19.736  1.00  0.00     0.729 A 
ENDROOT
BRANCH   1  10
HETATM   10  C2  UNL     1      25.507  33.370  20.238  1.00  0.00     0.191 C 
BRANCH  10  11
HETATM   11  C1  UNL     1      26.208  32.125  19.744  1.00  0.00     0.178 C 
BRANCH  11  12
HETATM   12  N3  UNL     1      25.972  31.885  18.338  1.00  0.00    -0.251 N 
ATOM     13  H3  UNL     1      26.225  32.568  17.624  1.00  0.00     0.197 HD
BRANCH  12  14
HETATM   14  N2  UNL     1      25.449  30.809  18.051  1.00  0.00    -0.249 NA
BRANCH  14  15
HETATM   15  N1  UNL     1      24.898  29.734  17.758  1.00  0.00    -0.261 N 
ATOM     16  H12 UNL     1      24.791  30.679  17.388  1.00  0.00     0.193 HD
ATOM     17  H11 UNL     1      24.457  28.842  17.533  1.00  0.00     0.193 HD
ENDBRANCH  14  15
ENDBRANCH  12  14
ENDBRANCH  11  12
ENDBRANCH  10  11
ENDBRANCH   1  10
BRANCH   9  18
HETATM   18  N9  UNL     1      26.839  35.341  18.484  1.00  0.00    -0.231 N 
ATOM     19  H92 UNL     1      25.908  35.234  18.081  1.00  0.00     0.174 HD
ATOM     20  H91 UNL     1      27.508  35.563  17.746  1.00  0.00     0.174 HD
ENDBRANCH   9  18
BRANCH   8  21
HETATM   21  N8  UNL     1      28.831  36.953  19.875  1.00  0.00    -0.309 N 
ATOM     22  H82 UNL     1      29.757  37.232  20.199  1.00  0.00     0.178 HD
ATOM     23  H81 UNL     1      28.606  37.562  19.089  1.00  0.00     0.178 HD
ENDBRANCH   8  21
TORSDOF 7
ENDMDL
MODEL 3
REMARK VINA RESULT: -5.313228251      1.744      2.297
REMARK  7 active torsions:
REMARK  status: ('A' for Active; 'I' for Inactive)
REMARK    1  A    between atoms: N1_1  and  N2_4 
REMARK    2  A    between atoms: N2_4  and  N3_5 
REMARK    3  A    between atoms: N3_5  and  C1_7 
REMARK    4  A    between atoms: C1_7  and  C2_8 
REMARK    5  A    between atoms: C2_8  and  N4_9 
REMARK    6  A    between atoms: N7_16  and  N8_17 
REMARK    7  A    between atoms: C4_20  and  N9_21 
ROOT
HETATM    1  N4  UNL     1      26.263  33.230  19.385  1.00  0.00    -0.106 N 
HETATM    2  N5  UNL     1      26.010  33.464  20.668  1.00  0.00    -0.114 N 
ATOM      3  H5  UNL     1      25.510  32.840  21.302  1.00  0.00     0.206 HD
HETATM    4  C3  UNL     1      26.530  34.677  20.990  1.00  0.00     0.727 A 
HETATM    5  N6  UNL     1      26.477  35.236  22.149  1.00  0.00    -0.231 N 
ATOM      6  H61 UNL     1      26.868  36.147  22.392  1.00  0.00     0.174 HD
ATOM      7  H62 UNL     1      26.035  34.839  22.978  1.00  0.00     0.174 HD
HETATM    8  N7  UNL     1      27.112  35.200  19.899  1.00  0.00     0.085 N 
HETATM    9  C4  UNL     1      26.943  34.303  18.913  1.00  0.00     0.729 A 
ENDROOT
BRANCH   1  10
HETATM   10  C2  UNL     1      25.892  32.058  18.615  1.00  0.00     0.191 C 
BRANCH  10  11
HETATM   11  C1  UNL     1      25.401  31.021  19.600  1.00  0.00     0.178 C 
BRANCH  11  12
HETATM   12  N3  UNL     1      24.867  29.849  18.943  1.00  0.00    -0.251 N 
ATOM     13  H3  UNL     1      25.122  28.905  19.232  1.00  0.00     0.197 HD
BRANCH  12  14
HETATM   14  N2  UNL     1      24.086  30.055  18.014  1.00  0.00    -0.249 NA
BRANCH  14  15
HETATM   15  N1  UNL     1      23.280  30.248  17.088  1.00  0.00    -0.261 N 
ATOM     16  H12 UNL     1      23.940  29.492  17.272  1.00  0.00     0.193 HD
ATOM     17  H11 UNL     1      22.611  30.426  16.338  1.00  0.00     0.193 HD
ENDBRANCH  14  15
ENDBRANCH  12  14
ENDBRANCH  11  12
ENDBRANCH  10  11
ENDBRANCH   1  10
BRANCH   9  18
HETATM   18  N9  UNL     1      27.369  34.451  17.705  1.00  0.00    -0.231 N 
ATOM     19  H92 UNL     1      27.468  33.695  17.028  1.00  0.00     0.174 HD
ATOM     20  H91 UNL     1      27.657  35.333  17.280  1.00  0.00     0.174 HD
ENDBRANCH   9  18
BRANCH   8  21
HETATM   21  N8  UNL     1      27.758  36.428  19.814  1.00  0.00    -0.309 N 
ATOM     22  H82 UNL     1      28.714  36.642  20.100  1.00  0.00     0.178 HD
ATOM     23  H81 UNL     1      27.366  37.297  19.450  1.00  0.00     0.178 HD
ENDBRANCH   8  21
TORSDOF 7
ENDMDL
MODEL 4
REMARK VINA RESULT: -5.189614112      1.242      2.024
REMARK  7 active torsions:
REMARK  status: ('A' for Active; 'I' for Inactive)
REMARK    1  A    between atoms: N1_1  and  N2_4 
REMARK    2  A    between atoms: N2_4  and  N3_5 
REMARK    3  A    between atoms: N3_5  and  C1_7 
REMARK    4  A    between atoms: C1_7  and  C2_8 
REMARK    5  A    between atoms: C2_8  and  N4_9 
REMARK    6  A    between atoms: N7_16  and  N8_17 
REMARK    7  A    between atoms: C4_20  and  N9_21 
ROOT
HETATM    1  N4  UNL     1      25.928  34.215  20.758  1.00  0.00    -0.106 N 
HETATM    2  N5  UNL     1      26.865  34.573  19.886  1.00  0.00    -0.114 N 
ATOM      3  H5  UNL     1      27.124  34.060  19.043  1.00  0.00     0.206 HD
HETATM    4  C3  UNL     1      27.419  35.738  20.311  1.00  0.00     0.727 A 
HETATM    5  N6  UNL     1      28.361  36.385  19.717  1.00  0.00    -0.231 N 
ATOM      6  H61 UNL     1      28.777  37.261  20.036  1.00  0.00     0.174 HD
ATOM      7  H62 UNL     1      28.815  36.105  18.848  1.00  0.00     0.174 HD
HETATM    8  N7  UNL     1      26.821  36.108  21.455  1.00  0.00     0.085 N 
HETATM    9  C4  UNL     1      25.904  35.164  21.725  1.00  0.00     0.729 A 
ENDROOT
BRANCH   1  10
HETATM   10  C2  UNL     1      25.082  33.038  20.706  1.00  0.00     0.191 C 
BRANCH  10  11
HETATM   11  C1  UNL     1      25.930  31.909  20.164  1.00  0.00     0.178 C 
BRANCH  11  12
HETATM   12  N3  UNL     1      25.625  31.607  18.784  1.00  0.00    -0.251 N 
ATOM     13  H3  UNL     1      24.818  31.040  18.522  1.00  0.00     0.197 HD
BRANCH  12  14
HETATM   14  N2  UNL     1      26.393  32.072  17.943  1.00  0.00    -0.249 NA
BRANCH  14  15
HETATM   15  N1  UNL     1      27.169  32.519  17.081  1.00  0.00    -0.261 N 
ATOM     16  H12 UNL     1      27.316  32.233  18.049  1.00  0.00     0.193 HD
ATOM     17  H11 UNL     1      27.789  32.886  16.359  1.00  0.00     0.193 HD
ENDBRANCH  14  15
ENDBRANCH  12  14
ENDBRANCH  11  12
ENDBRANCH  10  11
ENDBRANCH   1  10
BRANCH   9  18
HETATM   18  N9  UNL     1      25.124  35.172  22.751  1.00  0.00    -0.231 N 
ATOM     19  H92 UNL     1      24.620  35.991  23.091  1.00  0.00     0.174 HD
ATOM     20  H91 UNL     1      24.915  34.369  23.346  1.00  0.00     0.174 HD
ENDBRANCH   9  18
BRANCH   8  21
HETATM   21  N8  UNL     1      27.103  37.243  22.207  1.00  0.00    -0.309 N 
ATOM     22  H82 UNL     1      27.040  37.342  23.220  1.00  0.00     0.178 HD
ATOM     23  H81 UNL     1      27.416  38.146  21.849  1.00  0.00     0.178 HD
ENDBRANCH   8  21
TORSDOF 7
ENDMDL
MODEL 5
REMARK VINA RESULT: -5.147224490      1.867      2.923
REMARK  7 active torsions:
REMARK  status: ('A' for Active; 'I' for Inactive)
REMARK    1  A    between atoms: N1_1  and  N2_4 
REMARK    2  A    between atoms: N2_4  and  N3_5 
REMARK    3  A    between atoms: N3_5  and  C1_7 
REMARK    4  A    between atoms: C1_7  and  C2_8 
REMARK    5  A    between atoms: C2_8  and  N4_9 
REMARK    6  A    between atoms: N7_16  and  N8_17 
REMARK    7  A    between atoms: C4_20  and  N9_21 
ROOT
HETATM    1  N4  UNL     1      25.635  33.259  20.094  1.00  0.00    -0.106 N 
HETATM    2  N5  UNL     1      26.600  33.860  19.406  1.00  0.00    -0.114 N 
ATOM      3  H5  UNL     1      27.006  33.529  18.531  1.00  0.00     0.206 HD
HETATM    4  C3  UNL     1      26.954  34.991  20.071  1.00  0.00     0.727 A 
HETATM    5  N6  UNL     1      27.859  35.830  19.702  1.00  0.00    -0.231 N 
ATOM      6  H61 UNL     1      28.125  36.680  20.200  1.00  0.00     0.174 HD
ATOM      7  H62 UNL     1      28.430  35.753  18.860  1.00  0.00     0.174 HD
HETATM    8  N7  UNL     1      26.202  35.094  21.178  1.00  0.00     0.085 N 
HETATM    9  C4  UNL     1      25.392  34.022  21.186  1.00  0.00     0.729 A 
ENDROOT
BRANCH   1  10
HETATM   10  C2  UNL     1      24.958  32.021  19.757  1.00  0.00     0.191 C 
BRANCH  10  11
HETATM   11  C1  UNL     1      25.641  31.463  18.529  1.00  0.00     0.178 C 
BRANCH  11  12
HETATM   12  N3  UNL     1      25.043  30.225  18.083  1.00  0.00    -0.251 N 
ATOM     13  H3  UNL     1      25.503  29.325  18.217  1.00  0.00     0.197 HD
BRANCH  12  14
HETATM   14  N2  UNL     1      23.946  30.319  17.533  1.00  0.00    -0.249 NA
BRANCH  14  15
HETATM   15  N1  UNL     1      22.834  30.387  16.982  1.00  0.00    -0.261 N 
ATOM     16  H12 UNL     1      23.202  30.815  17.832  1.00  0.00     0.193 HD
ATOM     17  H11 UNL     1      21.929  30.430  16.514  1.00  0.00     0.193 HD
ENDBRANCH  14  15
ENDBRANCH  12  14
ENDBRANCH  11  12
ENDBRANCH  10  11
ENDBRANCH   1  10
BRANCH   9  18
HETATM   18  N9  UNL     1      24.519  33.769  22.101  1.00  0.00    -0.231 N 
ATOM     19  H92 UNL     1      23.510  33.761  21.953  1.00  0.00     0.174 HD
ATOM     20  H91 UNL     1      24.725  33.548  23.075  1.00  0.00     0.174 HD
ENDBRANCH   9  18
BRANCH   8  21
HETATM   21  N8  UNL     1      26.259  36.110  22.126  1.00  0.00    -0.309 N 
ATOM     22  H82 UNL     1      25.984  37.084  22.001  1.00  0.00     0.178 HD
ATOM     23  H81 UNL     1      26.585  36.024  23.089  1.00  0.00     0.178 HD
ENDBRANCH   8  21
TORSDOF 7
ENDMDL
