MODEL 1
REMARK VINA RESULT: -5.685503587      0.000      0.000
REMARK  4 active torsions:
REMARK  status: ('A' for Active; 'I' for Inactive)
REMARK    1  A    between atoms: C2_3  and  N2_4 
REMARK    2  A    between atoms: C2_3  and  C3_8 
REMARK    3  A    between atoms: C3_8  and  N3_9 
REMARK    4  A    between atoms: C3_8  and  C4_13 
ROOT
HETATM    1  N1  UNL     1       5.356 -22.202 -15.678  1.00  0.00    -0.195 NA
HETATM    2  C1  UNL     1       5.839 -23.217 -16.010  1.00  0.00     0.095 C 
HETATM    3  C2  UNL     1       6.465 -24.472 -16.427  1.00  0.00     0.327 C 
ENDROOT
BRANCH   3   4
HETATM    4  N2  UNL     1       5.456 -25.499 -16.396  1.00  0.00    -0.060 N 
ATOM      5  H23 UNL     1       4.534 -25.141 -16.146  1.00  0.00     0.276 HD
ATOM      6  H22 UNL     1       5.218 -25.849 -17.324  1.00  0.00     0.276 HD
ATOM      7  H21 UNL     1       5.778 -26.234 -15.766  1.00  0.00     0.276 HD
ENDBRANCH   3   4
BRANCH   3   8
HETATM    8  C3  UNL     1       6.976 -24.327 -17.832  1.00  0.00     0.303 C 
BRANCH   8   9
HETATM    9  N3  UNL     1       6.019 -23.580 -18.591  1.00  0.00    -0.065 N 
ATOM     10  H33 UNL     1       5.545 -22.870 -18.031  1.00  0.00     0.275 HD
ATOM     11  H32 UNL     1       6.458 -22.956 -19.267  1.00  0.00     0.275 HD
ATOM     12  H31 UNL     1       5.368 -24.233 -19.027  1.00  0.00     0.275 HD
ENDBRANCH   8   9
BRANCH   8  13
HETATM   13  C4  UNL     1       8.333 -23.751 -17.841  1.00  0.00     0.176 A 
HETATM   14  N4  UNL     1       9.379 -23.958 -17.040  1.00  0.00    -0.278 N 
HETATM   15  N5  UNL     1      10.410 -23.215 -17.427  1.00  0.00    -0.263 N 
ATOM     16  H4  UNL     1       9.386 -24.596 -16.245  1.00  0.00     0.189 HD
HETATM   17  C5  UNL     1       9.989 -22.529 -18.500  1.00  0.00     0.238 A 
ATOM     18  H5  UNL     1      11.334 -23.173 -16.995  1.00  0.00     0.190 HD
HETATM   19  N6  UNL     1      10.654 -21.675 -19.214  1.00  0.00    -0.364 N 
HETATM   20  O1  UNL     1       8.760 -22.858 -18.730  1.00  0.00    -0.262 OA
ATOM     21  H62 UNL     1      11.624 -21.416 -19.032  1.00  0.00     0.159 HD
ATOM     22  H61 UNL     1      10.334 -21.154 -20.030  1.00  0.00     0.159 HD
ENDBRANCH   8  13
ENDBRANCH   3   8
TORSDOF 4
ENDMDL
MODEL 2
REMARK VINA RESULT: -5.306847119      1.151      1.492
REMARK  4 active torsions:
REMARK  status: ('A' for Active; 'I' for Inactive)
REMARK    1  A    between atoms: C2_3  and  N2_4 
REMARK    2  A    between atoms: C2_3  and  C3_8 
REMARK    3  A    between atoms: C3_8  and  N3_9 
REMARK    4  A    between atoms: C3_8  and  C4_13 
ROOT
HETATM    1  N1  UNL     1       5.346 -22.194 -15.732  1.00  0.00    -0.195 NA
HETATM    2  C1  UNL     1       5.841 -23.219 -16.014  1.00  0.00     0.095 C 
HETATM    3  C2  UNL     1       6.481 -24.486 -16.367  1.00  0.00     0.327 C 
ENDROOT
BRANCH   3   4
HETATM    4  N2  UNL     1       5.464 -25.506 -16.377  1.00  0.00    -0.060 N 
ATOM      5  H23 UNL     1       4.722 -25.330 -15.701  1.00  0.00     0.276 HD
ATOM      6  H22 UNL     1       4.889 -25.483 -17.219  1.00  0.00     0.276 HD
ATOM      7  H21 UNL     1       5.924 -26.405 -16.236  1.00  0.00     0.276 HD
ENDBRANCH   3   4
BRANCH   3   8
HETATM    8  C3  UNL     1       7.077 -24.372 -17.741  1.00  0.00     0.303 C 
BRANCH   8   9
HETATM    9  N3  UNL     1       6.171 -23.640 -18.573  1.00  0.00    -0.065 N 
ATOM     10  H33 UNL     1       5.976 -22.706 -18.211  1.00  0.00     0.275 HD
ATOM     11  H32 UNL     1       6.591 -23.362 -19.460  1.00  0.00     0.275 HD
ATOM     12  H31 UNL     1       5.324 -24.195 -18.698  1.00  0.00     0.275 HD
ENDBRANCH   8   9
BRANCH   8  13
HETATM   13  C4  UNL     1       8.435 -23.800 -17.680  1.00  0.00     0.176 A 
HETATM   14  N4  UNL     1       9.081 -22.983 -18.513  1.00  0.00    -0.278 N 
HETATM   15  N5  UNL     1      10.300 -22.725 -18.053  1.00  0.00    -0.263 N 
ATOM     16  H4  UNL     1       8.694 -22.611 -19.380  1.00  0.00     0.189 HD
HETATM   17  C5  UNL     1      10.410 -23.401 -16.900  1.00  0.00     0.238 A 
ATOM     18  H5  UNL     1      11.008 -22.134 -18.488  1.00  0.00     0.190 HD
HETATM   19  N6  UNL     1      11.427 -23.450 -16.096  1.00  0.00    -0.364 N 
HETATM   20  O1  UNL     1       9.299 -24.031 -16.695  1.00  0.00    -0.262 OA
ATOM     21  H62 UNL     1      12.302 -22.953 -16.258  1.00  0.00     0.159 HD
ATOM     22  H61 UNL     1      11.510 -23.965 -15.219  1.00  0.00     0.159 HD
ENDBRANCH   8  13
ENDBRANCH   3   8
TORSDOF 4
ENDMDL
MODEL 3
REMARK VINA RESULT: -5.189123375      1.441      4.802
REMARK  4 active torsions:
REMARK  status: ('A' for Active; 'I' for Inactive)
REMARK    1  A    between atoms: C2_3  and  N2_4 
REMARK    2  A    between atoms: C2_3  and  C3_8 
REMARK    3  A    between atoms: C3_8  and  N3_9 
REMARK    4  A    between atoms: C3_8  and  C4_13 
ROOT
HETATM    1  N1  UNL     1      12.443 -21.855 -19.542  1.00  0.00    -0.195 NA
HETATM    2  C1  UNL     1      11.351 -21.965 -19.131  1.00  0.00     0.095 C 
HETATM    3  C2  UNL     1       9.997 -22.107 -18.593  1.00  0.00     0.327 C 
ENDROOT
BRANCH   3   4
HETATM    4  N2  UNL     1       9.073 -21.981 -19.690  1.00  0.00    -0.060 N 
ATOM      5  H23 UNL     1       8.642 -21.058 -19.740  1.00  0.00     0.276 HD
ATOM      6  H22 UNL     1       9.536 -21.964 -20.598  1.00  0.00     0.276 HD
ATOM      7  H21 UNL     1       8.389 -22.733 -19.608  1.00  0.00     0.276 HD
ENDBRANCH   3   4
BRANCH   3   8
HETATM    8  C3  UNL     1       9.849 -23.469 -17.978  1.00  0.00     0.303 C 
BRANCH   8   9
HETATM    9  N3  UNL     1      10.571 -23.493 -16.742  1.00  0.00    -0.065 N 
ATOM     10  H33 UNL     1      11.577 -23.386 -16.874  1.00  0.00     0.275 HD
ATOM     11  H32 UNL     1      10.412 -22.657 -16.181  1.00  0.00     0.275 HD
ATOM     12  H31 UNL     1      10.331 -24.350 -16.242  1.00  0.00     0.275 HD
ENDBRANCH   8   9
BRANCH   8  13
HETATM   13  C4  UNL     1       8.427 -23.838 -17.854  1.00  0.00     0.176 A 
HETATM   14  N4  UNL     1       7.800 -24.997 -18.060  1.00  0.00    -0.278 N 
HETATM   15  N5  UNL     1       6.500 -24.866 -17.823  1.00  0.00    -0.263 N 
ATOM     16  H4  UNL     1       8.255 -25.860 -18.357  1.00  0.00     0.189 HD
HETATM   17  C5  UNL     1       6.318 -23.588 -17.458  1.00  0.00     0.238 A 
ATOM     18  H5  UNL     1       5.785 -25.589 -17.903  1.00  0.00     0.190 HD
HETATM   19  N6  UNL     1       5.209 -23.001 -17.131  1.00  0.00    -0.364 N 
HETATM   20  O1  UNL     1       7.467 -22.996 -17.482  1.00  0.00    -0.262 OA
ATOM     21  H62 UNL     1       4.303 -23.469 -17.112  1.00  0.00     0.159 HD
ATOM     22  H61 UNL     1       5.071 -22.029 -16.854  1.00  0.00     0.159 HD
ENDBRANCH   8  13
ENDBRANCH   3   8
TORSDOF 4
ENDMDL
MODEL 4
REMARK VINA RESULT: -5.173641733      1.474      4.660
REMARK  4 active torsions:
REMARK  status: ('A' for Active; 'I' for Inactive)
REMARK    1  A    between atoms: C2_3  and  N2_4 
REMARK    2  A    between atoms: C2_3  and  C3_8 
REMARK    3  A    between atoms: C3_8  and  N3_9 
REMARK    4  A    between atoms: C3_8  and  C4_13 
ROOT
HETATM    1  N1  UNL     1      11.235 -21.443 -19.575  1.00  0.00    -0.195 NA
HETATM    2  C1  UNL     1      10.142 -21.753 -19.287  1.00  0.00     0.095 C 
HETATM    3  C2  UNL     1       8.785 -22.141 -18.902  1.00  0.00     0.327 C 
ENDROOT
BRANCH   3   4
HETATM    4  N2  UNL     1       7.983 -22.185 -20.098  1.00  0.00    -0.060 N 
ATOM      5  H23 UNL     1       7.206 -21.526 -20.077  1.00  0.00     0.276 HD
ATOM      6  H22 UNL     1       8.464 -21.802 -20.911  1.00  0.00     0.276 HD
ATOM      7  H21 UNL     1       7.681 -23.149 -20.234  1.00  0.00     0.276 HD
ENDBRANCH   3   4
BRANCH   3   8
HETATM    8  C3  UNL     1       8.819 -23.509 -18.282  1.00  0.00     0.303 C 
BRANCH   8   9
HETATM    9  N3  UNL     1       9.921 -23.570 -17.371  1.00  0.00    -0.065 N 
ATOM     10  H33 UNL     1      10.636 -24.236 -17.666  1.00  0.00     0.275 HD
ATOM     11  H32 UNL     1      10.495 -22.728 -17.394  1.00  0.00     0.275 HD
ATOM     12  H31 UNL     1       9.561 -23.771 -16.438  1.00  0.00     0.275 HD
ENDBRANCH   8   9
BRANCH   8  13
HETATM   13  C4  UNL     1       7.517 -23.846 -17.677  1.00  0.00     0.176 A 
HETATM   14  N4  UNL     1       6.934 -25.022 -17.449  1.00  0.00    -0.278 N 
HETATM   15  N5  UNL     1       5.748 -24.846 -16.877  1.00  0.00    -0.263 N 
ATOM     16  H4  UNL     1       7.340 -25.929 -17.680  1.00  0.00     0.189 HD
HETATM   17  C5  UNL     1       5.595 -23.520 -16.746  1.00  0.00     0.238 A 
ATOM     18  H5  UNL     1       5.088 -25.571 -16.595  1.00  0.00     0.190 HD
HETATM   19  N6  UNL     1       4.588 -22.878 -16.240  1.00  0.00    -0.364 N 
HETATM   20  O1  UNL     1       6.649 -22.944 -17.224  1.00  0.00    -0.262 OA
ATOM     21  H62 UNL     1       3.756 -23.333 -15.863  1.00  0.00     0.159 HD
ATOM     22  H61 UNL     1       4.471 -21.870 -16.141  1.00  0.00     0.159 HD
ENDBRANCH   8  13
ENDBRANCH   3   8
TORSDOF 4
ENDMDL
MODEL 5
REMARK VINA RESULT: -5.117690553      1.652      5.093
REMARK  4 active torsions:
REMARK  status: ('A' for Active; 'I' for Inactive)
REMARK    1  A    between atoms: C2_3  and  N2_4 
REMARK    2  A    between atoms: C2_3  and  C3_8 
REMARK    3  A    between atoms: C3_8  and  N3_9 
REMARK    4  A    between atoms: C3_8  and  C4_13 
ROOT
HETATM    1  N1  UNL     1      13.128 -20.757 -19.644  1.00  0.00    -0.195 NA
HETATM    2  C1  UNL     1      12.046 -21.076 -19.325  1.00  0.00     0.095 C 
HETATM    3  C2  UNL     1      10.704 -21.480 -18.903  1.00  0.00     0.327 C 
ENDROOT
BRANCH   3   4
HETATM    4  N2  UNL     1       9.828 -21.349 -20.039  1.00  0.00    -0.060 N 
ATOM      5  H23 UNL     1       8.918 -20.958 -19.794  1.00  0.00     0.276 HD
ATOM      6  H22 UNL     1      10.121 -20.615 -20.684  1.00  0.00     0.276 HD
ATOM      7  H21 UNL     1       9.758 -22.263 -20.485  1.00  0.00     0.276 HD
ENDBRANCH   3   4
BRANCH   3   8
HETATM    8  C3  UNL     1      10.734 -22.917 -18.468  1.00  0.00     0.303 C 
BRANCH   8   9
HETATM    9  N3  UNL     1      11.813 -23.092 -17.543  1.00  0.00    -0.065 N 
ATOM     10  H33 UNL     1      12.720 -22.874 -17.956  1.00  0.00     0.275 HD
ATOM     11  H32 UNL     1      11.818 -22.382 -16.810  1.00  0.00     0.275 HD
ATOM     12  H31 UNL     1      11.770 -24.039 -17.169  1.00  0.00     0.275 HD
ENDBRANCH   8   9
BRANCH   8  13
HETATM   13  C4  UNL     1       9.420 -23.336 -17.947  1.00  0.00     0.176 A 
HETATM   14  N4  UNL     1       9.077 -23.913 -16.795  1.00  0.00    -0.278 N 
HETATM   15  N5  UNL     1       7.764 -24.113 -16.752  1.00  0.00    -0.263 N 
ATOM     16  H4  UNL     1       9.729 -24.165 -16.053  1.00  0.00     0.189 HD
HETATM   17  C5  UNL     1       7.282 -23.643 -17.912  1.00  0.00     0.238 A 
ATOM     18  H5  UNL     1       7.232 -24.537 -15.992  1.00  0.00     0.190 HD
HETATM   19  N6  UNL     1       6.049 -23.626 -18.316  1.00  0.00    -0.364 N 
HETATM   20  O1  UNL     1       8.273 -23.189 -18.606  1.00  0.00    -0.262 OA
ATOM     21  H62 UNL     1       5.267 -23.984 -17.768  1.00  0.00     0.159 HD
ATOM     22  H61 UNL     1       5.682 -23.269 -19.198  1.00  0.00     0.159 HD
ENDBRANCH   8  13
ENDBRANCH   3   8
TORSDOF 4
ENDMDL
