MODEL 1
REMARK VINA RESULT: -6.294427424      0.000      0.000
REMARK  6 active torsions:
REMARK  status: ('A' for Active; 'I' for Inactive)
REMARK       I    between atoms: C2_2  and  N1_4 
REMARK    1  A    between atoms: N1_4  and  C3_6 
REMARK    2  A    between atoms: C3_6  and  N2_7 
REMARK    3  A    between atoms: C6_16  and  N5_17 
REMARK    4  A    between atoms: N5_17  and  C7_20 
REMARK    5  A    between atoms: C7_20  and  O2_21 
REMARK    6  A    between atoms: O2_21  and  N6_22 
ROOT
HETATM    1  C3  UNL     1       7.232   2.615  -1.605  1.00  0.00     0.283 C 
HETATM    2  C4  UNL     1       8.513   2.802  -0.891  1.00  0.00     0.148 C 
HETATM    3  N3  UNL     1       9.773   2.426  -1.480  1.00  0.00    -0.083 NA
HETATM    4  N4  UNL     1       8.283   3.315   0.246  1.00  0.00    -0.376 N 
ATOM      5  H4  UNL     1       9.008   3.540   0.927  1.00  0.00     0.160 HD
HETATM    6  C5  UNL     1       6.868   3.543   0.461  1.00  0.00     0.159 C 
HETATM    7  C6  UNL     1       6.315   3.601  -0.994  1.00  0.00     0.269 C 
ENDROOT
BRANCH   1   8
HETATM    8  N1  UNL     1       7.416   2.608  -3.006  1.00  0.00    -0.321 N 
HETATM    9  C2  UNL     1       6.563   2.185  -4.015  1.00  0.00     0.215 C 
HETATM   10  C1  UNL     1       6.979   2.261  -5.450  1.00  0.00     0.117 C 
HETATM   11  O1  UNL     1       5.429   1.730  -3.786  1.00  0.00    -0.274 OA
ATOM     12  H1  UNL     1       8.315   2.970  -3.325  1.00  0.00     0.165 HD
ENDBRANCH   1   8
BRANCH   1  13
HETATM   13  N2  UNL     1       6.762   1.282  -1.135  1.00  0.00    -0.043 N 
ATOM     14  H23 UNL     1       6.831   0.576  -1.867  1.00  0.00     0.278 HD
ATOM     15  H22 UNL     1       7.409   0.868  -0.462  1.00  0.00     0.278 HD
ATOM     16  H21 UNL     1       5.817   1.349  -0.760  1.00  0.00     0.278 HD
ENDBRANCH   1  13
BRANCH   7  17
HETATM   17  N5  UNL     1       6.396   4.953  -1.428  1.00  0.00    -0.042 N 
ATOM     18  H52 UNL     1       6.593   5.596  -0.661  1.00  0.00     0.280 HD
ATOM     19  H51 UNL     1       7.232   5.134  -1.983  1.00  0.00     0.280 HD
BRANCH  17  20
HETATM   20  C7  UNL     1       5.171   5.296  -2.141  1.00  0.00     0.432 C 
BRANCH  20  21
HETATM   21  O2  UNL     1       4.282   5.957  -1.314  1.00  0.00    -0.260 OA
BRANCH  21  22
HETATM   22  N6  UNL     1       3.990   7.188  -1.608  1.00  0.00    -0.309 N 
ATOM     23  H62 UNL     1       3.829   7.461  -2.578  1.00  0.00     0.184 HD
ATOM     24  H61 UNL     1       3.930   7.855  -0.839  1.00  0.00     0.184 HD
ENDBRANCH  21  22
ENDBRANCH  20  21
ENDBRANCH  17  20
ENDBRANCH   7  17
TORSDOF 6
ENDMDL
MODEL 2
REMARK VINA RESULT: -6.291410000      2.137      4.302
REMARK  6 active torsions:
REMARK  status: ('A' for Active; 'I' for Inactive)
REMARK       I    between atoms: C2_2  and  N1_4 
REMARK    1  A    between atoms: N1_4  and  C3_6 
REMARK    2  A    between atoms: C3_6  and  N2_7 
REMARK    3  A    between atoms: C6_16  and  N5_17 
REMARK    4  A    between atoms: N5_17  and  C7_20 
REMARK    5  A    between atoms: C7_20  and  O2_21 
REMARK    6  A    between atoms: O2_21  and  N6_22 
ROOT
HETATM    1  C3  UNL     1       6.004   5.771  -1.667  1.00  0.00     0.283 C 
HETATM    2  C4  UNL     1       5.009   6.809  -1.322  1.00  0.00     0.148 C 
HETATM    3  N3  UNL     1       3.853   7.056  -2.146  1.00  0.00    -0.083 NA
HETATM    4  N4  UNL     1       5.362   7.381  -0.248  1.00  0.00    -0.376 N 
ATOM      5  H4  UNL     1       4.838   8.135   0.197  1.00  0.00     0.160 HD
HETATM    6  C5  UNL     1       6.599   6.835   0.275  1.00  0.00     0.159 C 
HETATM    7  C6  UNL     1       6.644   5.423  -0.380  1.00  0.00     0.269 C 
ENDROOT
BRANCH   1   8
HETATM    8  N1  UNL     1       5.434   4.750  -2.461  1.00  0.00    -0.321 N 
HETATM    9  C2  UNL     1       6.034   3.668  -3.088  1.00  0.00     0.215 C 
HETATM   10  C1  UNL     1       5.223   2.707  -3.899  1.00  0.00     0.117 C 
HETATM   11  O1  UNL     1       7.255   3.443  -3.011  1.00  0.00    -0.274 OA
ATOM     12  H1  UNL     1       4.425   4.819  -2.593  1.00  0.00     0.165 HD
ENDBRANCH   1   8
BRANCH   1  13
HETATM   13  N2  UNL     1       7.034   6.518  -2.441  1.00  0.00    -0.043 N 
ATOM     14  H23 UNL     1       7.397   5.969  -3.219  1.00  0.00     0.278 HD
ATOM     15  H22 UNL     1       6.624   7.285  -2.975  1.00  0.00     0.278 HD
ATOM     16  H21 UNL     1       7.779   6.841  -1.824  1.00  0.00     0.278 HD
ENDBRANCH   1  13
BRANCH   7  17
HETATM   17  N5  UNL     1       5.962   4.527   0.489  1.00  0.00    -0.042 N 
ATOM     18  H52 UNL     1       5.822   4.920   1.420  1.00  0.00     0.280 HD
ATOM     19  H51 UNL     1       4.982   4.409   0.236  1.00  0.00     0.280 HD
BRANCH  17  20
HETATM   20  C7  UNL     1       6.684   3.260   0.523  1.00  0.00     0.432 C 
BRANCH  20  21
HETATM   21  O2  UNL     1       8.023   3.443   0.231  1.00  0.00    -0.260 OA
BRANCH  21  22
HETATM   22  N6  UNL     1       8.676   2.429  -0.253  1.00  0.00    -0.309 N 
ATOM     23  H62 UNL     1       8.566   1.502   0.159  1.00  0.00     0.184 HD
ATOM     24  H61 UNL     1       9.291   2.601  -1.048  1.00  0.00     0.184 HD
ENDBRANCH  21  22
ENDBRANCH  20  21
ENDBRANCH  17  20
ENDBRANCH   7  17
TORSDOF 6
ENDMDL
MODEL 3
REMARK VINA RESULT: -6.273540865      1.718      1.913
REMARK  6 active torsions:
REMARK  status: ('A' for Active; 'I' for Inactive)
REMARK       I    between atoms: C2_2  and  N1_4 
REMARK    1  A    between atoms: N1_4  and  C3_6 
REMARK    2  A    between atoms: C3_6  and  N2_7 
REMARK    3  A    between atoms: C6_16  and  N5_17 
REMARK    4  A    between atoms: N5_17  and  C7_20 
REMARK    5  A    between atoms: C7_20  and  O2_21 
REMARK    6  A    between atoms: O2_21  and  N6_22 
ROOT
HETATM    1  C3  UNL     1       7.527   2.206  -2.341  1.00  0.00     0.283 C 
HETATM    2  C4  UNL     1       8.940   1.785  -2.454  1.00  0.00     0.148 C 
HETATM    3  N3  UNL     1       9.424   1.047  -3.592  1.00  0.00    -0.083 NA
HETATM    4  N4  UNL     1       9.573   2.177  -1.427  1.00  0.00    -0.376 N 
ATOM      5  H4  UNL     1      10.566   2.008  -1.270  1.00  0.00     0.160 HD
HETATM    6  C5  UNL     1       8.716   2.893  -0.504  1.00  0.00     0.159 C 
HETATM    7  C6  UNL     1       7.554   3.367  -1.427  1.00  0.00     0.269 C 
ENDROOT
BRANCH   1   8
HETATM    8  N1  UNL     1       6.922   2.331  -3.611  1.00  0.00    -0.321 N 
HETATM    9  C2  UNL     1       5.579   2.386  -3.958  1.00  0.00     0.215 C 
HETATM   10  C1  UNL     1       5.162   2.510  -5.389  1.00  0.00     0.117 C 
HETATM   11  O1  UNL     1       4.667   2.336  -3.113  1.00  0.00    -0.274 OA
ATOM     12  H1  UNL     1       7.571   2.391  -4.395  1.00  0.00     0.165 HD
ENDBRANCH   1   8
BRANCH   1  13
HETATM   13  N2  UNL     1       6.895   1.099  -1.569  1.00  0.00    -0.043 N 
ATOM     14  H23 UNL     1       6.536   1.420  -0.671  1.00  0.00     0.278 HD
ATOM     15  H22 UNL     1       6.014   0.801  -1.988  1.00  0.00     0.278 HD
ATOM     16  H21 UNL     1       7.547   0.323  -1.462  1.00  0.00     0.278 HD
ENDBRANCH   1  13
BRANCH   7  17
HETATM   17  N5  UNL     1       7.922   4.634  -1.960  1.00  0.00    -0.042 N 
ATOM     18  H52 UNL     1       8.827   4.952  -1.616  1.00  0.00     0.280 HD
ATOM     19  H51 UNL     1       8.155   4.586  -2.951  1.00  0.00     0.280 HD
BRANCH  17  20
HETATM   20  C7  UNL     1       6.855   5.590  -1.686  1.00  0.00     0.432 C 
BRANCH  20  21
HETATM   21  O2  UNL     1       7.310   6.631  -0.898  1.00  0.00    -0.260 OA
BRANCH  21  22
HETATM   22  N6  UNL     1       6.537   7.040   0.062  1.00  0.00    -0.309 N 
ATOM     23  H62 UNL     1       5.659   6.558   0.257  1.00  0.00     0.184 HD
ATOM     24  H61 UNL     1       6.842   7.850   0.601  1.00  0.00     0.184 HD
ENDBRANCH  21  22
ENDBRANCH  20  21
ENDBRANCH  17  20
ENDBRANCH   7  17
TORSDOF 6
ENDMDL
MODEL 4
REMARK VINA RESULT: -6.254185819      1.932      2.246
REMARK  6 active torsions:
REMARK  status: ('A' for Active; 'I' for Inactive)
REMARK       I    between atoms: C2_2  and  N1_4 
REMARK    1  A    between atoms: N1_4  and  C3_6 
REMARK    2  A    between atoms: C3_6  and  N2_7 
REMARK    3  A    between atoms: C6_16  and  N5_17 
REMARK    4  A    between atoms: N5_17  and  C7_20 
REMARK    5  A    between atoms: C7_20  and  O2_21 
REMARK    6  A    between atoms: O2_21  and  N6_22 
ROOT
HETATM    1  C3  UNL     1       7.349   3.515  -1.213  1.00  0.00     0.283 C 
HETATM    2  C4  UNL     1       8.469   2.704  -0.688  1.00  0.00     0.148 C 
HETATM    3  N3  UNL     1       9.752   2.667  -1.342  1.00  0.00    -0.083 NA
HETATM    4  N4  UNL     1       8.089   2.104   0.362  1.00  0.00    -0.376 N 
ATOM      5  H4  UNL     1       8.682   1.481   0.910  1.00  0.00     0.160 HD
HETATM    6  C5  UNL     1       6.711   2.408   0.690  1.00  0.00     0.159 C 
HETATM    7  C6  UNL     1       6.485   3.765  -0.041  1.00  0.00     0.269 C 
ENDROOT
BRANCH   1   8
HETATM    8  N1  UNL     1       7.816   4.606  -1.982  1.00  0.00    -0.321 N 
HETATM    9  C2  UNL     1       7.175   5.341  -2.968  1.00  0.00     0.215 C 
HETATM   10  C1  UNL     1       7.878   6.462  -3.666  1.00  0.00     0.117 C 
HETATM   11  O1  UNL     1       6.003   5.112  -3.318  1.00  0.00    -0.274 OA
ATOM     12  H1  UNL     1       8.772   4.898  -1.779  1.00  0.00     0.165 HD
ENDBRANCH   1   8
BRANCH   1  13
HETATM   13  N2  UNL     1       6.598   2.557  -2.072  1.00  0.00    -0.043 N 
ATOM     14  H23 UNL     1       6.588   2.850  -3.048  1.00  0.00     0.278 HD
ATOM     15  H22 UNL     1       7.098   1.675  -2.183  1.00  0.00     0.278 HD
ATOM     16  H21 UNL     1       5.656   2.416  -1.709  1.00  0.00     0.278 HD
ENDBRANCH   1  13
BRANCH   7  17
HETATM   17  N5  UNL     1       6.856   4.802   0.859  1.00  0.00    -0.042 N 
ATOM     18  H52 UNL     1       7.043   4.452   1.799  1.00  0.00     0.280 HD
ATOM     19  H51 UNL     1       7.783   5.177   0.660  1.00  0.00     0.280 HD
BRANCH  17  20
HETATM   20  C7  UNL     1       5.824   5.833   0.844  1.00  0.00     0.432 C 
BRANCH  20  21
HETATM   21  O2  UNL     1       5.044   5.739  -0.293  1.00  0.00    -0.260 OA
BRANCH  21  22
HETATM   22  N6  UNL     1       4.748   6.842  -0.911  1.00  0.00    -0.309 N 
ATOM     23  H62 UNL     1       4.542   6.833  -1.910  1.00  0.00     0.184 HD
ATOM     24  H61 UNL     1       4.732   7.701  -0.362  1.00  0.00     0.184 HD
ENDBRANCH  21  22
ENDBRANCH  20  21
ENDBRANCH  17  20
ENDBRANCH   7  17
TORSDOF 6
ENDMDL
MODEL 5
REMARK VINA RESULT: -6.158593235      1.991      2.227
REMARK  6 active torsions:
REMARK  status: ('A' for Active; 'I' for Inactive)
REMARK       I    between atoms: C2_2  and  N1_4 
REMARK    1  A    between atoms: N1_4  and  C3_6 
REMARK    2  A    between atoms: C3_6  and  N2_7 
REMARK    3  A    between atoms: C6_16  and  N5_17 
REMARK    4  A    between atoms: N5_17  and  C7_20 
REMARK    5  A    between atoms: C7_20  and  O2_21 
REMARK    6  A    between atoms: O2_21  and  N6_22 
ROOT
HETATM    1  C3  UNL     1       7.321   2.354  -2.119  1.00  0.00     0.283 C 
HETATM    2  C4  UNL     1       8.635   1.824  -2.541  1.00  0.00     0.148 C 
HETATM    3  N3  UNL     1       8.821   1.186  -3.819  1.00  0.00    -0.083 NA
HETATM    4  N4  UNL     1       9.481   2.032  -1.620  1.00  0.00    -0.376 N 
ATOM      5  H4  UNL     1      10.462   1.757  -1.674  1.00  0.00     0.160 HD
HETATM    6  C5  UNL     1       8.889   2.708  -0.483  1.00  0.00     0.159 C 
HETATM    7  C6  UNL     1       7.641   3.391  -1.115  1.00  0.00     0.269 C 
ENDROOT
BRANCH   1   8
HETATM    8  N1  UNL     1       6.514   2.684  -3.231  1.00  0.00    -0.321 N 
HETATM    9  C2  UNL     1       5.145   2.900  -3.307  1.00  0.00     0.215 C 
HETATM   10  C1  UNL     1       4.495   3.232  -4.613  1.00  0.00     0.117 C 
HETATM   11  O1  UNL     1       4.401   2.832  -2.313  1.00  0.00    -0.274 OA
ATOM     12  H1  UNL     1       7.015   2.779  -4.115  1.00  0.00     0.165 HD
ENDBRANCH   1   8
BRANCH   1  13
HETATM   13  N2  UNL     1       6.719   1.226  -1.355  1.00  0.00    -0.043 N 
ATOM     14  H23 UNL     1       5.890   0.854  -1.818  1.00  0.00     0.278 HD
ATOM     15  H22 UNL     1       7.302   0.389  -1.393  1.00  0.00     0.278 HD
ATOM     16  H21 UNL     1       6.523   1.509  -0.396  1.00  0.00     0.278 HD
ENDBRANCH   1  13
BRANCH   7  17
HETATM   17  N5  UNL     1       8.045   4.674  -1.579  1.00  0.00    -0.042 N 
ATOM     18  H52 UNL     1       8.981   4.924  -1.262  1.00  0.00     0.280 HD
ATOM     19  H51 UNL     1       8.226   4.685  -2.582  1.00  0.00     0.280 HD
BRANCH  17  20
HETATM   20  C7  UNL     1       7.042   5.657  -1.184  1.00  0.00     0.432 C 
BRANCH  20  21
HETATM   21  O2  UNL     1       6.888   6.628  -2.156  1.00  0.00    -0.260 OA
BRANCH  21  22
HETATM   22  N6  UNL     1       7.787   6.689  -3.093  1.00  0.00    -0.309 N 
ATOM     23  H62 UNL     1       7.509   6.831  -4.064  1.00  0.00     0.184 HD
ATOM     24  H61 UNL     1       8.763   6.588  -2.816  1.00  0.00     0.184 HD
ENDBRANCH  21  22
ENDBRANCH  20  21
ENDBRANCH  17  20
ENDBRANCH   7  17
TORSDOF 6
ENDMDL
