MODEL 1
REMARK VINA RESULT: -7.107615223      0.000      0.000
REMARK  10 active torsions:
REMARK  status: ('A' for Active; 'I' for Inactive)
REMARK    1  A    between atoms: C2_2  and  C4_4 
REMARK    2  A    between atoms: C11_11  and  O1_12 
REMARK    3  A    between atoms: O1_12  and  S1_13 
REMARK    4  A    between atoms: C12_17  and  C13_18 
REMARK    5  A    between atoms: C13_18  and  N1_19 
REMARK    6  A    between atoms: N1_19  and  C14_21 
REMARK    7  A    between atoms: C14_21  and  C15_22 
REMARK    8  A    between atoms: C15_22  and  C16_23 
REMARK    9  A    between atoms: C16_23  and  C17_24 
REMARK   10  A    between atoms: C17_24  and  O6_26 
ROOT
HETATM    1  C4  UNL     1      34.624 160.089  58.596  1.00  0.00    -0.001 C 
HETATM    2  C5  UNL     1      34.588 159.523  59.978  1.00  0.00     0.016 C 
HETATM    3  C6  UNL     1      33.793 158.245  59.915  1.00  0.00     0.011 C 
HETATM    4  C7  UNL     1      33.765 157.850  58.467  1.00  0.00    -0.033 A 
HETATM    5  C8  UNL     1      33.559 156.464  58.033  1.00  0.00     0.011 A 
HETATM    6  C9  UNL     1      32.464 157.499  57.817  1.00  0.00     0.011 A 
HETATM    7  C10 UNL     1      34.623 158.800  57.726  1.00  0.00     0.039 C 
HETATM    8  C11 UNL     1      36.105 158.785  57.944  1.00  0.00     0.161 C 
HETATM    9  C12 UNL     1      35.993 160.331  58.024  1.00  0.00     0.068 C 
ENDROOT
BRANCH   9  10
HETATM   10  C13 UNL     1      37.032 160.950  58.863  1.00  0.00     0.064 C 
BRANCH  10  11
HETATM   11  N1  UNL     1      38.321 161.102  58.314  1.00  0.00    -0.402 N 
ATOM     12  H1  UNL     1      38.469 161.434  57.361  1.00  0.00     0.158 HD
BRANCH  11  13
HETATM   13  C14 UNL     1      39.436 160.752  59.200  1.00  0.00     0.119 C 
BRANCH  13  14
HETATM   14  C15 UNL     1      40.016 162.069  59.650  1.00  0.00     0.029 C 
BRANCH  14  15
HETATM   15  C16 UNL     1      41.416 162.280  59.168  1.00  0.00     0.112 C 
BRANCH  15  16
HETATM   16  C17 UNL     1      41.631 161.973  57.741  1.00  0.00     0.258 C 
HETATM   17  O5  UNL     1      40.958 162.521  56.840  1.00  0.00    -0.265 OA
BRANCH  16  18
HETATM   18  O6  UNL     1      42.583 161.068  57.361  1.00  0.00    -0.326 OA
HETATM   19  C18 UNL     1      43.176 161.092  56.053  1.00  0.00     0.213 C 
ENDBRANCH  16  18
ENDBRANCH  15  16
ENDBRANCH  14  15
ENDBRANCH  13  14
ENDBRANCH  11  13
ENDBRANCH  10  11
ENDBRANCH   9  10
BRANCH   1  20
HETATM   20  C2  UNL     1      33.531 160.997  58.194  1.00  0.00    -0.083 C 
HETATM   21  C1  UNL     1      33.679 161.758  57.123  1.00  0.00     0.015 C 
HETATM   22  C3  UNL     1      32.282 161.096  58.979  1.00  0.00     0.043 C 
ENDBRANCH   1  20
BRANCH   8  23
HETATM   23  O1  UNL     1      36.862 158.437  56.822  1.00  0.00    -0.250 OA
BRANCH  23  24
HETATM   24  S1  UNL     1      37.846 157.151  57.263  1.00  0.00     0.252 S 
HETATM   25  O2  UNL     1      38.974 157.061  56.245  1.00  0.00    -0.572 OA
HETATM   26  O3  UNL     1      36.999 155.895  57.157  1.00  0.00    -0.572 OA
HETATM   27  O4  UNL     1      38.464 157.333  58.817  1.00  0.00    -0.572 OA
ENDBRANCH  23  24
ENDBRANCH   8  23
TORSDOF 10
ENDMDL
MODEL 2
REMARK VINA RESULT: -7.098809944      0.658      1.166
REMARK  10 active torsions:
REMARK  status: ('A' for Active; 'I' for Inactive)
REMARK    1  A    between atoms: C2_2  and  C4_4 
REMARK    2  A    between atoms: C11_11  and  O1_12 
REMARK    3  A    between atoms: O1_12  and  S1_13 
REMARK    4  A    between atoms: C12_17  and  C13_18 
REMARK    5  A    between atoms: C13_18  and  N1_19 
REMARK    6  A    between atoms: N1_19  and  C14_21 
REMARK    7  A    between atoms: C14_21  and  C15_22 
REMARK    8  A    between atoms: C15_22  and  C16_23 
REMARK    9  A    between atoms: C16_23  and  C17_24 
REMARK   10  A    between atoms: C17_24  and  O6_26 
ROOT
HETATM    1  C4  UNL     1      34.618 159.992  58.609  1.00  0.00    -0.001 C 
HETATM    2  C5  UNL     1      34.597 159.477  60.012  1.00  0.00     0.016 C 
HETATM    3  C6  UNL     1      33.735 158.242  60.019  1.00  0.00     0.011 C 
HETATM    4  C7  UNL     1      33.640 157.798  58.588  1.00  0.00    -0.033 A 
HETATM    5  C8  UNL     1      33.347 156.411  58.212  1.00  0.00     0.011 A 
HETATM    6  C9  UNL     1      32.302 157.495  57.991  1.00  0.00     0.011 A 
HETATM    7  C10 UNL     1      34.522 158.675  57.788  1.00  0.00     0.039 C 
HETATM    8  C11 UNL     1      36.008 158.588  57.962  1.00  0.00     0.161 C 
HETATM    9  C12 UNL     1      35.979 160.140  57.988  1.00  0.00     0.068 C 
ENDROOT
BRANCH   9  10
HETATM   10  C13 UNL     1      37.076 160.732  58.772  1.00  0.00     0.064 C 
BRANCH  10  11
HETATM   11  N1  UNL     1      38.373 160.699  58.223  1.00  0.00    -0.402 N 
ATOM     12  H1  UNL     1      38.547 160.417  57.259  1.00  0.00     0.158 HD
BRANCH  11  13
HETATM   13  C14 UNL     1      39.457 161.097  59.127  1.00  0.00     0.119 C 
BRANCH  13  14
HETATM   14  C15 UNL     1      39.932 162.434  58.615  1.00  0.00     0.029 C 
BRANCH  14  15
HETATM   15  C16 UNL     1      41.373 162.421  58.213  1.00  0.00     0.112 C 
BRANCH  15  16
HETATM   16  C17 UNL     1      41.675 163.162  56.973  1.00  0.00     0.258 C 
HETATM   17  O5  UNL     1      41.600 164.409  56.917  1.00  0.00    -0.265 OA
BRANCH  16  18
HETATM   18  O6  UNL     1      42.047 162.495  55.839  1.00  0.00    -0.326 OA
HETATM   19  C18 UNL     1      42.914 161.350  55.881  1.00  0.00     0.213 C 
ENDBRANCH  16  18
ENDBRANCH  15  16
ENDBRANCH  14  15
ENDBRANCH  13  14
ENDBRANCH  11  13
ENDBRANCH  10  11
ENDBRANCH   9  10
BRANCH   1  20
HETATM   20  C2  UNL     1      33.563 160.943  58.208  1.00  0.00    -0.083 C 
HETATM   21  C1  UNL     1      33.736 161.691  57.132  1.00  0.00     0.015 C 
HETATM   22  C3  UNL     1      32.322 161.097  58.998  1.00  0.00     0.043 C 
ENDBRANCH   1  20
BRANCH   8  23
HETATM   23  O1  UNL     1      36.709 158.161  56.831  1.00  0.00    -0.250 OA
BRANCH  23  24
HETATM   24  S1  UNL     1      37.834 157.026  57.341  1.00  0.00     0.252 S 
HETATM   25  O2  UNL     1      37.090 155.727  57.616  1.00  0.00    -0.572 OA
HETATM   26  O3  UNL     1      38.410 157.538  58.650  1.00  0.00    -0.572 OA
HETATM   27  O4  UNL     1      39.048 156.784  56.202  1.00  0.00    -0.572 OA
ENDBRANCH  23  24
ENDBRANCH   8  23
TORSDOF 10
ENDMDL
MODEL 3
REMARK VINA RESULT: -7.043580659      1.696      2.338
REMARK  10 active torsions:
REMARK  status: ('A' for Active; 'I' for Inactive)
REMARK    1  A    between atoms: C2_2  and  C4_4 
REMARK    2  A    between atoms: C11_11  and  O1_12 
REMARK    3  A    between atoms: O1_12  and  S1_13 
REMARK    4  A    between atoms: C12_17  and  C13_18 
REMARK    5  A    between atoms: C13_18  and  N1_19 
REMARK    6  A    between atoms: N1_19  and  C14_21 
REMARK    7  A    between atoms: C14_21  and  C15_22 
REMARK    8  A    between atoms: C15_22  and  C16_23 
REMARK    9  A    between atoms: C16_23  and  C17_24 
REMARK   10  A    between atoms: C17_24  and  O6_26 
ROOT
HETATM    1  C4  UNL     1      34.625 160.025  58.607  1.00  0.00    -0.001 C 
HETATM    2  C5  UNL     1      34.617 159.524  60.014  1.00  0.00     0.016 C 
HETATM    3  C6  UNL     1      33.755 158.288  60.041  1.00  0.00     0.011 C 
HETATM    4  C7  UNL     1      33.648 157.831  58.616  1.00  0.00    -0.033 A 
HETATM    5  C8  UNL     1      33.353 156.440  58.255  1.00  0.00     0.011 A 
HETATM    6  C9  UNL     1      32.305 157.522  58.034  1.00  0.00     0.011 A 
HETATM    7  C10 UNL     1      34.522 158.700  57.799  1.00  0.00     0.039 C 
HETATM    8  C11 UNL     1      36.010 158.616  57.961  1.00  0.00     0.161 C 
HETATM    9  C12 UNL     1      35.980 160.167  57.972  1.00  0.00     0.068 C 
ENDROOT
BRANCH   9  10
HETATM   10  C13 UNL     1      37.084 160.768  58.741  1.00  0.00     0.064 C 
BRANCH  10  11
HETATM   11  N1  UNL     1      38.354 160.829  58.135  1.00  0.00    -0.402 N 
ATOM     12  H1  UNL     1      38.480 160.735  57.127  1.00  0.00     0.158 HD
BRANCH  11  13
HETATM   13  C14 UNL     1      39.484 161.036  59.045  1.00  0.00     0.119 C 
BRANCH  13  14
HETATM   14  C15 UNL     1      39.173 162.314  59.783  1.00  0.00     0.029 C 
BRANCH  14  15
HETATM   15  C16 UNL     1      39.710 163.528  59.092  1.00  0.00     0.112 C 
BRANCH  15  16
HETATM   16  C17 UNL     1      38.695 164.350  58.408  1.00  0.00     0.258 C 
HETATM   17  O5  UNL     1      38.359 165.476  58.839  1.00  0.00    -0.265 OA
BRANCH  16  18
HETATM   18  O6  UNL     1      38.083 163.896  57.272  1.00  0.00    -0.326 OA
HETATM   19  C18 UNL     1      36.674 164.065  57.049  1.00  0.00     0.213 C 
ENDBRANCH  16  18
ENDBRANCH  15  16
ENDBRANCH  14  15
ENDBRANCH  13  14
ENDBRANCH  11  13
ENDBRANCH  10  11
ENDBRANCH   9  10
BRANCH   1  20
HETATM   20  C2  UNL     1      33.565 160.971  58.206  1.00  0.00    -0.083 C 
HETATM   21  C1  UNL     1      33.726 161.705  57.117  1.00  0.00     0.015 C 
HETATM   22  C3  UNL     1      32.335 161.138  59.009  1.00  0.00     0.043 C 
ENDBRANCH   1  20
BRANCH   8  23
HETATM   23  O1  UNL     1      36.701 158.178  56.828  1.00  0.00    -0.250 OA
BRANCH  23  24
HETATM   24  S1  UNL     1      37.861 157.082  57.344  1.00  0.00     0.252 S 
HETATM   25  O2  UNL     1      37.157 155.763  57.631  1.00  0.00    -0.572 OA
HETATM   26  O3  UNL     1      38.423 157.621  58.648  1.00  0.00    -0.572 OA
HETATM   27  O4  UNL     1      39.079 156.868  56.205  1.00  0.00    -0.572 OA
ENDBRANCH  23  24
ENDBRANCH   8  23
TORSDOF 10
ENDMDL
MODEL 4
REMARK VINA RESULT: -7.012257630      1.291      1.725
REMARK  10 active torsions:
REMARK  status: ('A' for Active; 'I' for Inactive)
REMARK    1  A    between atoms: C2_2  and  C4_4 
REMARK    2  A    between atoms: C11_11  and  O1_12 
REMARK    3  A    between atoms: O1_12  and  S1_13 
REMARK    4  A    between atoms: C12_17  and  C13_18 
REMARK    5  A    between atoms: C13_18  and  N1_19 
REMARK    6  A    between atoms: N1_19  and  C14_21 
REMARK    7  A    between atoms: C14_21  and  C15_22 
REMARK    8  A    between atoms: C15_22  and  C16_23 
REMARK    9  A    between atoms: C16_23  and  C17_24 
REMARK   10  A    between atoms: C17_24  and  O6_26 
ROOT
HETATM    1  C4  UNL     1      34.633 160.107  58.601  1.00  0.00    -0.001 C 
HETATM    2  C5  UNL     1      34.597 159.538  59.982  1.00  0.00     0.016 C 
HETATM    3  C6  UNL     1      33.797 158.263  59.917  1.00  0.00     0.011 C 
HETATM    4  C7  UNL     1      33.767 157.871  58.468  1.00  0.00    -0.033 A 
HETATM    5  C8  UNL     1      33.555 156.487  58.031  1.00  0.00     0.011 A 
HETATM    6  C9  UNL     1      32.464 157.526  57.819  1.00  0.00     0.011 A 
HETATM    7  C10 UNL     1      34.626 158.820  57.729  1.00  0.00     0.039 C 
HETATM    8  C11 UNL     1      36.109 158.799  57.945  1.00  0.00     0.161 C 
HETATM    9  C12 UNL     1      36.002 160.345  58.028  1.00  0.00     0.068 C 
ENDROOT
BRANCH   9  10
HETATM   10  C13 UNL     1      37.044 160.959  58.868  1.00  0.00     0.064 C 
BRANCH  10  11
HETATM   11  N1  UNL     1      38.319 161.155  58.301  1.00  0.00    -0.402 N 
ATOM     12  H1  UNL     1      38.443 161.467  57.338  1.00  0.00     0.158 HD
BRANCH  11  13
HETATM   13  C14 UNL     1      39.457 160.880  59.184  1.00  0.00     0.119 C 
BRANCH  13  14
HETATM   14  C15 UNL     1      39.756 162.189  59.869  1.00  0.00     0.029 C 
BRANCH  14  15
HETATM   15  C16 UNL     1      40.917 162.910  59.260  1.00  0.00     0.112 C 
BRANCH  15  16
HETATM   16  C17 UNL     1      40.553 163.942  58.271  1.00  0.00     0.258 C 
HETATM   17  O5  UNL     1      41.416 164.672  57.733  1.00  0.00    -0.265 OA
BRANCH  16  18
HETATM   18  O6  UNL     1      39.247 164.132  57.913  1.00  0.00    -0.326 OA
HETATM   19  C18 UNL     1      38.480 165.244  58.402  1.00  0.00     0.213 C 
ENDBRANCH  16  18
ENDBRANCH  15  16
ENDBRANCH  14  15
ENDBRANCH  13  14
ENDBRANCH  11  13
ENDBRANCH  10  11
ENDBRANCH   9  10
BRANCH   1  20
HETATM   20  C2  UNL     1      33.543 161.020  58.203  1.00  0.00    -0.083 C 
HETATM   21  C1  UNL     1      33.691 161.780  57.131  1.00  0.00     0.015 C 
HETATM   22  C3  UNL     1      32.296 161.123  58.991  1.00  0.00     0.043 C 
ENDBRANCH   1  20
BRANCH   8  23
HETATM   23  O1  UNL     1      36.863 158.451  56.822  1.00  0.00    -0.250 OA
BRANCH  23  24
HETATM   24  S1  UNL     1      37.839 157.157  57.257  1.00  0.00     0.252 S 
HETATM   25  O2  UNL     1      38.964 157.061  56.236  1.00  0.00    -0.572 OA
HETATM   26  O3  UNL     1      36.982 155.908  57.148  1.00  0.00    -0.572 OA
HETATM   27  O4  UNL     1      38.460 157.328  58.810  1.00  0.00    -0.572 OA
ENDBRANCH  23  24
ENDBRANCH   8  23
TORSDOF 10
ENDMDL
MODEL 5
REMARK VINA RESULT: -6.965264574      1.979      2.748
REMARK  10 active torsions:
REMARK  status: ('A' for Active; 'I' for Inactive)
REMARK    1  A    between atoms: C2_2  and  C4_4 
REMARK    2  A    between atoms: C11_11  and  O1_12 
REMARK    3  A    between atoms: O1_12  and  S1_13 
REMARK    4  A    between atoms: C12_17  and  C13_18 
REMARK    5  A    between atoms: C13_18  and  N1_19 
REMARK    6  A    between atoms: N1_19  and  C14_21 
REMARK    7  A    between atoms: C14_21  and  C15_22 
REMARK    8  A    between atoms: C15_22  and  C16_23 
REMARK    9  A    between atoms: C16_23  and  C17_24 
REMARK   10  A    between atoms: C17_24  and  O6_26 
ROOT
HETATM    1  C4  UNL     1      34.491 159.944  58.344  1.00  0.00    -0.001 C 
HETATM    2  C5  UNL     1      34.599 159.912  59.833  1.00  0.00     0.016 C 
HETATM    3  C6  UNL     1      33.836 158.702  60.308  1.00  0.00     0.011 C 
HETATM    4  C7  UNL     1      33.683 157.815  59.107  1.00  0.00    -0.033 A 
HETATM    5  C8  UNL     1      33.474 156.368  59.219  1.00  0.00     0.011 A 
HETATM    6  C9  UNL     1      32.337 157.266  58.755  1.00  0.00     0.011 A 
HETATM    7  C10 UNL     1      34.443 158.430  57.997  1.00  0.00     0.039 C 
HETATM    8  C11 UNL     1      35.939 158.480  58.062  1.00  0.00     0.161 C 
HETATM    9  C12 UNL     1      35.793 159.953  57.594  1.00  0.00     0.068 C 
ENDROOT
BRANCH   9  10
HETATM   10  C13 UNL     1      36.890 160.823  58.052  1.00  0.00     0.064 C 
BRANCH  10  11
HETATM   11  N1  UNL     1      37.443 161.731  57.127  1.00  0.00    -0.402 N 
ATOM     12  H1  UNL     1      38.450 161.843  57.012  1.00  0.00     0.158 HD
BRANCH  11  13
HETATM   13  C14 UNL     1      36.478 162.504  56.339  1.00  0.00     0.119 C 
BRANCH  13  14
HETATM   14  C15 UNL     1      36.342 163.822  57.059  1.00  0.00     0.029 C 
BRANCH  14  15
HETATM   15  C16 UNL     1      37.585 164.652  56.988  1.00  0.00     0.112 C 
BRANCH  15  16
HETATM   16  C17 UNL     1      38.274 164.844  58.279  1.00  0.00     0.258 C 
HETATM   17  O5  UNL     1      38.332 165.963  58.834  1.00  0.00    -0.265 OA
BRANCH  16  18
HETATM   18  O6  UNL     1      38.876 163.790  58.908  1.00  0.00    -0.326 OA
HETATM   19  C18 UNL     1      40.272 163.497  58.732  1.00  0.00     0.213 C 
ENDBRANCH  16  18
ENDBRANCH  15  16
ENDBRANCH  14  15
ENDBRANCH  13  14
ENDBRANCH  11  13
ENDBRANCH  10  11
ENDBRANCH   9  10
BRANCH   1  20
HETATM   20  C2  UNL     1      33.342 160.658  57.751  1.00  0.00    -0.083 C 
HETATM   21  C1  UNL     1      33.078 161.896  58.134  1.00  0.00     0.015 C 
HETATM   22  C3  UNL     1      32.461 160.009  56.756  1.00  0.00     0.043 C 
ENDBRANCH   1  20
BRANCH   8  23
HETATM   23  O1  UNL     1      36.596 157.747  57.071  1.00  0.00    -0.250 OA
BRANCH  23  24
HETATM   24  S1  UNL     1      37.810 156.867  57.825  1.00  0.00     0.252 S 
HETATM   25  O2  UNL     1      37.166 155.648  58.470  1.00  0.00    -0.572 OA
HETATM   26  O3  UNL     1      38.375 157.751  58.922  1.00  0.00    -0.572 OA
HETATM   27  O4  UNL     1      39.014 156.400  56.747  1.00  0.00    -0.572 OA
ENDBRANCH  23  24
ENDBRANCH   8  23
TORSDOF 10
ENDMDL
