MODEL 1
REMARK VINA RESULT: -4.916876378      0.000      0.000
REMARK  1 active torsions:
REMARK  status: ('A' for Active; 'I' for Inactive)
REMARK    1  A    between atoms: C3_3  and  C4_4 
ROOT
HETATM    1  C4  UNL     1       7.014  29.615  19.616  1.00  0.00     0.217 C 
HETATM    2  C5  UNL     1       6.678  30.394  18.396  1.00  0.00     0.267 C 
HETATM    3  N1  UNL     1       7.004  29.537  17.279  1.00  0.00    -0.049 N 
ATOM      4  H11 UNL     1       7.350  30.050  16.467  1.00  0.00     0.279 HD
ATOM      5  H12 UNL     1       6.182  29.130  16.832  1.00  0.00     0.279 HD
HETATM    6  C6  UNL     1       7.936  28.548  17.768  1.00  0.00     0.463 C 
HETATM    7  N2  UNL     1       7.776  28.473  19.189  1.00  0.00    -0.045 N 
ATOM      8  H21 UNL     1       7.364  27.590  19.493  1.00  0.00     0.279 HD
ATOM      9  H22 UNL     1       8.665  28.387  19.682  1.00  0.00     0.279 HD
ENDROOT
BRANCH   1  10
HETATM   10  C3  UNL     1       7.688  30.410  20.698  1.00  0.00     0.021 C 
HETATM   11  C2  UNL     1       7.342  31.854  20.713  1.00  0.00     0.026 C 
HETATM   12  C1  UNL     1       6.642  32.335  21.930  1.00  0.00     0.114 C 
HETATM   13  N3  UNL     1       7.076  31.783  23.163  1.00  0.00    -0.421 N 
HETATM   14  C8  UNL     1       7.982  30.692  23.085  1.00  0.00     0.114 C 
ATOM     15  H3  UNL     1       6.754  32.149  24.058  1.00  0.00     0.153 HD
HETATM   16  C7  UNL     1       7.457  29.727  22.030  1.00  0.00     0.026 C 
ENDBRANCH   1  10
TORSDOF 1
ENDMDL
MODEL 2
REMARK VINA RESULT: -4.369696602      1.040      4.353
REMARK  1 active torsions:
REMARK  status: ('A' for Active; 'I' for Inactive)
REMARK    1  A    between atoms: C3_3  and  C4_4 
ROOT
HETATM    1  C4  UNL     1       7.506  31.142  20.875  1.00  0.00     0.217 C 
HETATM    2  C5  UNL     1       6.506  31.838  21.725  1.00  0.00     0.267 C 
HETATM    3  N1  UNL     1       6.988  31.715  23.082  1.00  0.00    -0.049 N 
ATOM      4  H11 UNL     1       6.239  31.627  23.769  1.00  0.00     0.279 HD
ATOM      5  H12 UNL     1       7.394  32.578  23.444  1.00  0.00     0.279 HD
HETATM    6  C6  UNL     1       7.909  30.601  23.099  1.00  0.00     0.463 C 
HETATM    7  N2  UNL     1       8.366  30.402  21.757  1.00  0.00    -0.045 N 
ATOM      8  H21 UNL     1       9.351  30.641  21.637  1.00  0.00     0.279 HD
ATOM      9  H22 UNL     1       8.432  29.415  21.505  1.00  0.00     0.279 HD
ENDROOT
BRANCH   1  10
HETATM   10  C3  UNL     1       6.914  30.303  19.777  1.00  0.00     0.021 C 
HETATM   11  C2  UNL     1       6.787  30.994  18.469  1.00  0.00     0.026 C 
HETATM   12  C1  UNL     1       7.586  30.420  17.358  1.00  0.00     0.114 C 
HETATM   13  N3  UNL     1       7.672  29.004  17.313  1.00  0.00    -0.421 N 
HETATM   14  C8  UNL     1       7.161  28.302  18.436  1.00  0.00     0.114 C 
ATOM     15  H3  UNL     1       8.080  28.516  16.515  1.00  0.00     0.153 HD
HETATM   16  C7  UNL     1       7.675  28.995  19.691  1.00  0.00     0.026 C 
ENDBRANCH   1  10
TORSDOF 1
ENDMDL
MODEL 3
REMARK VINA RESULT: -4.260485660      1.336      2.147
REMARK  1 active torsions:
REMARK  status: ('A' for Active; 'I' for Inactive)
REMARK    1  A    between atoms: C3_3  and  C4_4 
ROOT
HETATM    1  C4  UNL     1       6.519  29.911  18.273  1.00  0.00     0.217 C 
HETATM    2  C5  UNL     1       7.618  30.444  17.427  1.00  0.00     0.267 C 
HETATM    3  N1  UNL     1       8.412  29.298  17.044  1.00  0.00    -0.049 N 
ATOM      4  H11 UNL     1       9.408  29.507  16.965  1.00  0.00     0.279 HD
ATOM      5  H12 UNL     1       8.263  29.012  16.077  1.00  0.00     0.279 HD
HETATM    6  C6  UNL     1       8.123  28.252  17.999  1.00  0.00     0.463 C 
HETATM    7  N2  UNL     1       6.855  28.551  18.593  1.00  0.00    -0.045 N 
ATOM      8  H21 UNL     1       6.127  27.891  18.318  1.00  0.00     0.279 HD
ATOM      9  H22 UNL     1       6.837  28.367  19.596  1.00  0.00     0.279 HD
ENDROOT
BRANCH   1  10
HETATM   10  C3  UNL     1       6.202  30.746  19.481  1.00  0.00     0.021 C 
HETATM   11  C2  UNL     1       6.826  30.274  20.743  1.00  0.00     0.026 C 
HETATM   12  C1  UNL     1       7.796  31.206  21.370  1.00  0.00     0.114 C 
HETATM   13  N3  UNL     1       7.467  32.585  21.312  1.00  0.00    -0.421 N 
HETATM   14  C8  UNL     1       6.363  32.940  20.494  1.00  0.00     0.114 C 
ATOM     15  H3  UNL     1       7.997  33.285  21.831  1.00  0.00     0.153 HD
HETATM   16  C7  UNL     1       6.506  32.198  19.171  1.00  0.00     0.026 C 
ENDBRANCH   1  10
TORSDOF 1
ENDMDL
MODEL 4
REMARK VINA RESULT: -3.987726370      1.278      4.322
REMARK  1 active torsions:
REMARK  status: ('A' for Active; 'I' for Inactive)
REMARK    1  A    between atoms: C3_3  and  C4_4 
ROOT
HETATM    1  C4  UNL     1       6.598  30.156  20.902  1.00  0.00     0.217 C 
HETATM    2  C5  UNL     1       7.659  29.555  21.751  1.00  0.00     0.267 C 
HETATM    3  N1  UNL     1       8.220  30.648  22.513  1.00  0.00    -0.049 N 
ATOM      4  H11 UNL     1       9.220  30.544  22.689  1.00  0.00     0.279 HD
ATOM      5  H12 UNL     1       7.918  30.655  23.487  1.00  0.00     0.279 HD
HETATM    6  C6  UNL     1       7.890  31.864  21.805  1.00  0.00     0.463 C 
HETATM    7  N2  UNL     1       6.759  31.582  20.972  1.00  0.00    -0.045 N 
ATOM      8  H21 UNL     1       5.913  32.059  21.284  1.00  0.00     0.279 HD
ATOM      9  H22 UNL     1       6.831  32.016  20.051  1.00  0.00     0.279 HD
ENDROOT
BRANCH   1  10
HETATM   10  C3  UNL     1       6.554  29.630  19.495  1.00  0.00     0.021 C 
HETATM   11  C2  UNL     1       6.556  30.676  18.442  1.00  0.00     0.026 C 
HETATM   12  C1  UNL     1       7.729  30.672  17.533  1.00  0.00     0.114 C 
HETATM   13  N3  UNL     1       8.223  29.398  17.151  1.00  0.00    -0.421 N 
HETATM   14  C8  UNL     1       7.676  28.277  17.830  1.00  0.00     0.114 C 
ATOM     15  H3  UNL     1       8.932  29.292  16.426  1.00  0.00     0.153 HD
HETATM   16  C7  UNL     1       7.653  28.601  19.318  1.00  0.00     0.026 C 
ENDBRANCH   1  10
TORSDOF 1
ENDMDL
MODEL 5
REMARK VINA RESULT: -3.737768538      0.938      1.728
REMARK  1 active torsions:
REMARK  status: ('A' for Active; 'I' for Inactive)
REMARK    1  A    between atoms: C3_3  and  C4_4 
ROOT
HETATM    1  C4  UNL     1       6.515  29.719  18.937  1.00  0.00     0.217 C 
HETATM    2  C5  UNL     1       7.208  30.542  17.913  1.00  0.00     0.267 C 
HETATM    3  N1  UNL     1       7.990  29.616  17.125  1.00  0.00    -0.049 N 
ATOM      4  H11 UNL     1       8.872  30.011  16.797  1.00  0.00     0.279 HD
ATOM      5  H12 UNL     1       7.585  29.428  16.208  1.00  0.00     0.279 HD
HETATM    6  C6  UNL     1       8.161  28.426  17.927  1.00  0.00     0.463 C 
HETATM    7  N2  UNL     1       7.116  28.414  18.906  1.00  0.00    -0.045 N 
ATOM      8  H21 UNL     1       6.435  27.670  18.745  1.00  0.00     0.279 HD
ATOM      9  H22 UNL     1       7.440  28.108  19.824  1.00  0.00     0.279 HD
ENDROOT
BRANCH   1  10
HETATM   10  C3  UNL     1       6.483  30.328  20.310  1.00  0.00     0.021 C 
HETATM   11  C2  UNL     1       7.069  29.479  21.378  1.00  0.00     0.026 C 
HETATM   12  C1  UNL     1       8.269  30.032  22.054  1.00  0.00     0.114 C 
HETATM   13  N3  UNL     1       8.262  31.431  22.298  1.00  0.00    -0.421 N 
HETATM   14  C8  UNL     1       7.214  32.174  21.695  1.00  0.00     0.114 C 
ATOM     15  H3  UNL     1       8.974  31.878  22.876  1.00  0.00     0.153 HD
HETATM   16  C7  UNL     1       7.090  31.715  20.249  1.00  0.00     0.026 C 
ENDBRANCH   1  10
TORSDOF 1
ENDMDL
