MODEL 1
REMARK VINA RESULT: -10.516923816      0.000      0.000
REMARK  11 active torsions:
REMARK  status: ('A' for Active; 'I' for Inactive)
REMARK    1  A    between atoms: C3_3  and  C4_4 
REMARK    2  A    between atoms: C4_4  and  N1_5 
REMARK    3  A    between atoms: C4_4  and  C9_23 
REMARK       I    between atoms: N1_5  and  C5_7 
REMARK    4  A    between atoms: C5_7  and  C6_9 
REMARK    5  A    between atoms: C6_9  and  O2_10 
REMARK    6  A    between atoms: C6_9  and  C7_12 
REMARK    7  A    between atoms: C7_12  and  N2_13 
REMARK    8  A    between atoms: C8_19  and  N6_20 
REMARK    9  A    between atoms: N9_37  and  N10_38 
REMARK   10  A    between atoms: N10_38  and  C19_40 
REMARK   11  A    between atoms: N12_45  and  O3_46 
ROOT
HETATM    1  C4  UNL     1      59.954  -1.407  66.013  1.00  0.00     0.186 C 
ENDROOT
BRANCH   1   2
HETATM    2  C3  UNL     1      59.861  -1.458  67.495  1.00  0.00     0.058 C 
HETATM    3  C2  UNL     1      58.790  -1.941  68.142  1.00  0.00     0.050 C 
HETATM    4  C1  UNL     1      57.670  -2.437  67.346  1.00  0.00     0.072 C 
HETATM    5  N9  UNL     1      58.711  -1.990  69.548  1.00  0.00    -0.279 N 
HETATM    6  C18 UNL     1      59.453  -1.014  70.346  1.00  0.00     0.169 C 
HETATM    7  C17 UNL     1      60.692  -0.505  69.667  1.00  0.00     0.141 C 
HETATM    8  N8  UNL     1      60.907  -0.992  68.341  1.00  0.00    -0.388 N 
ATOM      9  H8  UNL     1      61.862  -1.007  67.982  1.00  0.00     0.159 HD
BRANCH   5  10
HETATM   10  N10 UNL     1      57.970  -2.926  70.224  1.00  0.00    -0.128 N 
ATOM     11  H10 UNL     1      58.438  -3.819  70.377  1.00  0.00     0.206 HD
BRANCH  10  12
HETATM   12  C19 UNL     1      56.672  -2.846  70.736  1.00  0.00     0.714 C 
HETATM   13  N11 UNL     1      56.350  -2.020  71.705  1.00  0.00    -0.221 N 
HETATM   14  C20 UNL     1      54.953  -2.141  72.040  1.00  0.00     0.161 C 
ATOM     15  H11 UNL     1      57.001  -1.380  72.160  1.00  0.00     0.177 HD
HETATM   16  C21 UNL     1      54.546  -3.474  71.441  1.00  0.00     0.195 C 
HETATM   17  N12 UNL     1      55.515  -3.572  70.351  1.00  0.00    -0.088 N 
BRANCH  17  18
HETATM   18  O3  UNL     1      55.318  -4.234  69.194  1.00  0.00    -0.274 OA
ATOM     19  H3  UNL     1      54.703  -4.013  68.504  1.00  0.00     0.245 HD
ENDBRANCH  17  18
ENDBRANCH  10  12
ENDBRANCH   5  10
ENDBRANCH   1   2
BRANCH   1  20
HETATM   20  N1  UNL     1      61.171  -2.055  65.540  1.00  0.00    -0.343 N 
HETATM   21  C5  UNL     1      61.201  -3.401  65.094  1.00  0.00     0.249 C 
HETATM   22  O1  UNL     1      60.130  -4.060  65.109  1.00  0.00    -0.271 OA
ATOM     23  H1  UNL     1      62.038  -1.517  65.529  1.00  0.00     0.163 HD
BRANCH  21  24
HETATM   24  C6  UNL     1      62.420  -4.068  64.614  1.00  0.00     0.230 C 
BRANCH  24  25
HETATM   25  O2  UNL     1      62.356  -4.391  63.264  1.00  0.00    -0.384 OA
ATOM     26  H2  UNL     1      61.908  -5.214  63.106  1.00  0.00     0.210 HD
ENDBRANCH  24  25
BRANCH  24  27
HETATM   27  C7  UNL     1      63.685  -3.320  64.943  1.00  0.00     0.207 C 
BRANCH  27  28
HETATM   28  N2  UNL     1      64.498  -3.932  65.947  1.00  0.00    -0.103 N 
HETATM   29  N3  UNL     1      65.315  -4.955  65.769  1.00  0.00     0.011 NA
HETATM   30  N4  UNL     1      65.903  -5.246  66.940  1.00  0.00    -0.211 N 
HETATM   31  N5  UNL     1      65.449  -4.402  67.839  1.00  0.00    -0.118 N 
ATOM     32  H4  UNL     1      66.582  -5.990  67.103  1.00  0.00     0.206 HD
HETATM   33  C8  UNL     1      64.562  -3.564  67.235  1.00  0.00     0.706 A 
ATOM     34  H5  UNL     1      65.716  -4.378  68.822  1.00  0.00     0.207 HD
BRANCH  33  35
HETATM   35  N6  UNL     1      63.960  -2.632  67.880  1.00  0.00    -0.232 N 
ATOM     36  H62 UNL     1      63.355  -1.958  67.413  1.00  0.00     0.174 HD
ATOM     37  H61 UNL     1      63.957  -2.395  68.871  1.00  0.00     0.174 HD
ENDBRANCH  33  35
ENDBRANCH  27  28
ENDBRANCH  24  27
ENDBRANCH  21  24
ENDBRANCH   1  20
BRANCH   1  38
HETATM   38  C9  UNL     1      59.826  -0.032  65.490  1.00  0.00     0.039 A 
HETATM   39  C10 UNL     1      59.276   1.041  66.160  1.00  0.00     0.041 A 
HETATM   40  C11 UNL     1      59.320   2.170  65.372  1.00  0.00    -0.007 A 
HETATM   41  C12 UNL     1      58.919   3.475  65.548  1.00  0.00     0.014 A 
HETATM   42  C16 UNL     1      59.915   1.765  64.193  1.00  0.00     0.042 A 
HETATM   43  C13 UNL     1      59.105   4.401  64.545  1.00  0.00     0.001 A 
HETATM   44  C14 UNL     1      59.695   3.988  63.381  1.00  0.00     0.002 A 
HETATM   45  C15 UNL     1      60.095   2.695  63.202  1.00  0.00     0.030 A 
HETATM   46  N7  UNL     1      60.202   0.466  64.289  1.00  0.00    -0.357 N 
ATOM     47  H7  UNL     1      60.647  -0.082  63.552  1.00  0.00     0.166 HD
ENDBRANCH   1  38
TORSDOF 11
ENDMDL
MODEL 2
REMARK VINA RESULT: -10.499540064      0.857      1.044
REMARK  11 active torsions:
REMARK  status: ('A' for Active; 'I' for Inactive)
REMARK    1  A    between atoms: C3_3  and  C4_4 
REMARK    2  A    between atoms: C4_4  and  N1_5 
REMARK    3  A    between atoms: C4_4  and  C9_23 
REMARK       I    between atoms: N1_5  and  C5_7 
REMARK    4  A    between atoms: C5_7  and  C6_9 
REMARK    5  A    between atoms: C6_9  and  O2_10 
REMARK    6  A    between atoms: C6_9  and  C7_12 
REMARK    7  A    between atoms: C7_12  and  N2_13 
REMARK    8  A    between atoms: C8_19  and  N6_20 
REMARK    9  A    between atoms: N9_37  and  N10_38 
REMARK   10  A    between atoms: N10_38  and  C19_40 
REMARK   11  A    between atoms: N12_45  and  O3_46 
ROOT
HETATM    1  C4  UNL     1      60.087  -1.404  65.938  1.00  0.00     0.186 C 
ENDROOT
BRANCH   1   2
HETATM    2  C3  UNL     1      59.872  -1.492  67.405  1.00  0.00     0.058 C 
HETATM    3  C2  UNL     1      58.744  -1.971  67.950  1.00  0.00     0.050 C 
HETATM    4  C1  UNL     1      57.685  -2.423  67.053  1.00  0.00     0.072 C 
HETATM    5  N9  UNL     1      58.550  -2.055  69.343  1.00  0.00    -0.279 N 
HETATM    6  C18 UNL     1      59.242  -1.115  70.225  1.00  0.00     0.169 C 
HETATM    7  C17 UNL     1      60.540  -0.612  69.663  1.00  0.00     0.141 C 
HETATM    8  N8  UNL     1      60.854  -1.068  68.346  1.00  0.00    -0.388 N 
ATOM      9  H8  UNL     1      61.834  -1.092  68.064  1.00  0.00     0.159 HD
BRANCH   5  10
HETATM   10  N10 UNL     1      57.740  -2.994  69.931  1.00  0.00    -0.128 N 
ATOM     11  H10 UNL     1      58.036  -3.961  69.800  1.00  0.00     0.206 HD
BRANCH  10  12
HETATM   12  C19 UNL     1      56.573  -2.831  70.680  1.00  0.00     0.714 C 
HETATM   13  N11 UNL     1      55.379  -3.055  70.178  1.00  0.00    -0.221 N 
HETATM   14  C20 UNL     1      54.354  -2.812  71.161  1.00  0.00     0.161 C 
ATOM     15  H11 UNL     1      55.203  -3.360  69.221  1.00  0.00     0.177 HD
HETATM   16  C21 UNL     1      55.051  -1.979  72.221  1.00  0.00     0.195 C 
HETATM   17  N12 UNL     1      56.429  -2.429  72.033  1.00  0.00    -0.088 N 
BRANCH  17  18
HETATM   18  O3  UNL     1      57.376  -2.452  72.993  1.00  0.00    -0.274 OA
ATOM     19  H3  UNL     1      58.166  -1.926  73.032  1.00  0.00     0.245 HD
ENDBRANCH  17  18
ENDBRANCH  10  12
ENDBRANCH   5  10
ENDBRANCH   1   2
BRANCH   1  20
HETATM   20  N1  UNL     1      61.377  -1.967  65.560  1.00  0.00    -0.343 N 
HETATM   21  C5  UNL     1      61.534  -3.315  65.144  1.00  0.00     0.249 C 
HETATM   22  O1  UNL     1      60.514  -4.050  65.100  1.00  0.00    -0.271 OA
ATOM     23  H1  UNL     1      62.201  -1.368  65.596  1.00  0.00     0.163 HD
BRANCH  21  24
HETATM   24  C6  UNL     1      62.827  -3.898  64.760  1.00  0.00     0.230 C 
BRANCH  24  25
HETATM   25  O2  UNL     1      62.941  -4.090  63.389  1.00  0.00    -0.384 OA
ATOM     26  H2  UNL     1      63.833  -3.986  63.078  1.00  0.00     0.210 HD
ENDBRANCH  24  25
BRANCH  24  27
HETATM   27  C7  UNL     1      64.012  -3.151  65.312  1.00  0.00     0.207 C 
BRANCH  27  28
HETATM   28  N2  UNL     1      64.822  -3.901  66.220  1.00  0.00    -0.103 N 
HETATM   29  N3  UNL     1      65.437  -5.040  65.954  1.00  0.00     0.011 NA
HETATM   30  N4  UNL     1      66.098  -5.439  67.052  1.00  0.00    -0.211 N 
HETATM   31  N5  UNL     1      65.891  -4.546  67.994  1.00  0.00    -0.118 N 
ATOM     32  H4  UNL     1      66.660  -6.285  67.140  1.00  0.00     0.206 HD
HETATM   33  C8  UNL     1      65.089  -3.567  67.491  1.00  0.00     0.706 A 
ATOM     34  H5  UNL     1      66.267  -4.580  68.941  1.00  0.00     0.207 HD
BRANCH  33  35
HETATM   35  N6  UNL     1      64.724  -2.559  68.196  1.00  0.00    -0.232 N 
ATOM     36  H62 UNL     1      64.239  -1.761  67.786  1.00  0.00     0.174 HD
ATOM     37  H61 UNL     1      64.824  -2.363  69.192  1.00  0.00     0.174 HD
ENDBRANCH  33  35
ENDBRANCH  27  28
ENDBRANCH  24  27
ENDBRANCH  21  24
ENDBRANCH   1  20
BRANCH   1  38
HETATM   38  C9  UNL     1      59.920  -0.027  65.428  1.00  0.00     0.039 A 
HETATM   39  C10 UNL     1      59.351   1.026  66.113  1.00  0.00     0.041 A 
HETATM   40  C11 UNL     1      59.359   2.163  65.335  1.00  0.00    -0.007 A 
HETATM   41  C12 UNL     1      58.929   3.455  65.526  1.00  0.00     0.014 A 
HETATM   42  C16 UNL     1      59.949   1.782  64.145  1.00  0.00     0.042 A 
HETATM   43  C13 UNL     1      59.081   4.394  64.529  1.00  0.00     0.001 A 
HETATM   44  C14 UNL     1      59.667   4.005  63.354  1.00  0.00     0.002 A 
HETATM   45  C15 UNL     1      60.096   2.724  63.160  1.00  0.00     0.030 A 
HETATM   46  N7  UNL     1      60.269   0.489  64.227  1.00  0.00    -0.357 N 
ATOM     47  H7  UNL     1      60.718  -0.042  63.480  1.00  0.00     0.166 HD
ENDBRANCH   1  38
TORSDOF 11
ENDMDL
MODEL 3
REMARK VINA RESULT: -10.480297454      1.274      1.469
REMARK  11 active torsions:
REMARK  status: ('A' for Active; 'I' for Inactive)
REMARK    1  A    between atoms: C3_3  and  C4_4 
REMARK    2  A    between atoms: C4_4  and  N1_5 
REMARK    3  A    between atoms: C4_4  and  C9_23 
REMARK       I    between atoms: N1_5  and  C5_7 
REMARK    4  A    between atoms: C5_7  and  C6_9 
REMARK    5  A    between atoms: C6_9  and  O2_10 
REMARK    6  A    between atoms: C6_9  and  C7_12 
REMARK    7  A    between atoms: C7_12  and  N2_13 
REMARK    8  A    between atoms: C8_19  and  N6_20 
REMARK    9  A    between atoms: N9_37  and  N10_38 
REMARK   10  A    between atoms: N10_38  and  C19_40 
REMARK   11  A    between atoms: N12_45  and  O3_46 
ROOT
HETATM    1  C4  UNL     1      59.959  -1.495  65.776  1.00  0.00     0.186 C 
ENDROOT
BRANCH   1   2
HETATM    2  C3  UNL     1      59.814  -1.663  67.245  1.00  0.00     0.058 C 
HETATM    3  C2  UNL     1      58.675  -2.072  67.824  1.00  0.00     0.050 C 
HETATM    4  C1  UNL     1      57.532  -2.364  66.963  1.00  0.00     0.072 C 
HETATM    5  N9  UNL     1      58.548  -2.233  69.217  1.00  0.00    -0.279 N 
HETATM    6  C18 UNL     1      59.370  -1.422  70.115  1.00  0.00     0.169 C 
HETATM    7  C17 UNL     1      60.679  -1.004  69.511  1.00  0.00     0.141 C 
HETATM    8  N8  UNL     1      60.879  -1.396  68.152  1.00  0.00    -0.388 N 
ATOM      9  H8  UNL     1      61.837  -1.490  67.813  1.00  0.00     0.159 HD
BRANCH   5  10
HETATM   10  N10 UNL     1      57.683  -3.131  69.792  1.00  0.00    -0.128 N 
ATOM     11  H10 UNL     1      57.911  -4.112  69.630  1.00  0.00     0.206 HD
BRANCH  10  12
HETATM   12  C19 UNL     1      56.540  -2.911  70.563  1.00  0.00     0.714 C 
HETATM   13  N11 UNL     1      55.328  -3.074  70.084  1.00  0.00    -0.221 N 
HETATM   14  C20 UNL     1      54.335  -2.781  71.088  1.00  0.00     0.161 C 
ATOM     15  H11 UNL     1      55.117  -3.367  69.130  1.00  0.00     0.177 HD
HETATM   16  C21 UNL     1      55.093  -1.987  72.134  1.00  0.00     0.195 C 
HETATM   17  N12 UNL     1      56.443  -2.505  71.920  1.00  0.00    -0.088 N 
BRANCH  17  18
HETATM   18  O3  UNL     1      57.405  -2.579  72.861  1.00  0.00    -0.274 OA
ATOM     19  H3  UNL     1      58.068  -1.926  73.056  1.00  0.00     0.245 HD
ENDBRANCH  17  18
ENDBRANCH  10  12
ENDBRANCH   5  10
ENDBRANCH   1   2
BRANCH   1  20
HETATM   20  N1  UNL     1      61.207  -2.078  65.301  1.00  0.00    -0.343 N 
HETATM   21  C5  UNL     1      61.349  -2.635  64.004  1.00  0.00     0.249 C 
HETATM   22  O1  UNL     1      60.354  -2.623  63.235  1.00  0.00    -0.271 OA
ATOM     23  H1  UNL     1      62.013  -2.085  65.927  1.00  0.00     0.163 HD
BRANCH  21  24
HETATM   24  C6  UNL     1      62.600  -3.227  63.510  1.00  0.00     0.230 C 
BRANCH  24  25
HETATM   25  O2  UNL     1      63.422  -2.295  62.887  1.00  0.00    -0.384 OA
ATOM     26  H2  UNL     1      64.009  -2.692  62.252  1.00  0.00     0.210 HD
ENDBRANCH  24  25
BRANCH  24  27
HETATM   27  C7  UNL     1      63.349  -4.012  64.554  1.00  0.00     0.207 C 
BRANCH  27  28
HETATM   28  N2  UNL     1      64.385  -3.286  65.220  1.00  0.00    -0.103 N 
HETATM   29  N3  UNL     1      65.461  -2.768  64.653  1.00  0.00     0.011 NA
HETATM   30  N4  UNL     1      66.198  -2.165  65.599  1.00  0.00    -0.211 N 
HETATM   31  N5  UNL     1      65.577  -2.311  66.747  1.00  0.00    -0.118 N 
ATOM     32  H4  UNL     1      67.083  -1.680  65.452  1.00  0.00     0.206 HD
HETATM   33  C8  UNL     1      64.431  -3.015  66.532  1.00  0.00     0.706 A 
ATOM     34  H5  UNL     1      65.898  -1.957  67.648  1.00  0.00     0.207 HD
BRANCH  33  35
HETATM   35  N6  UNL     1      63.622  -3.304  67.486  1.00  0.00    -0.232 N 
ATOM     36  H62 UNL     1      62.650  -2.998  67.480  1.00  0.00     0.174 HD
ATOM     37  H61 UNL     1      63.759  -3.835  68.346  1.00  0.00     0.174 HD
ENDBRANCH  33  35
ENDBRANCH  27  28
ENDBRANCH  24  27
ENDBRANCH  21  24
ENDBRANCH   1  20
BRANCH   1  38
HETATM   38  C9  UNL     1      59.817  -0.086  65.355  1.00  0.00     0.039 A 
HETATM   39  C10 UNL     1      59.294   0.937  66.118  1.00  0.00     0.041 A 
HETATM   40  C11 UNL     1      59.314   2.119  65.410  1.00  0.00    -0.007 A 
HETATM   41  C12 UNL     1      58.923   3.408  65.691  1.00  0.00     0.014 A 
HETATM   42  C16 UNL     1      59.864   1.797  64.184  1.00  0.00     0.042 A 
HETATM   43  C13 UNL     1      59.076   4.402  64.749  1.00  0.00     0.001 A 
HETATM   44  C14 UNL     1      59.622   4.071  63.538  1.00  0.00     0.002 A 
HETATM   45  C15 UNL     1      60.011   2.794  63.255  1.00  0.00     0.030 A 
HETATM   46  N7  UNL     1      60.150   0.493  64.179  1.00  0.00    -0.357 N 
ATOM     47  H7  UNL     1      60.566  -0.002  63.390  1.00  0.00     0.166 HD
ENDBRANCH   1  38
TORSDOF 11
ENDMDL
MODEL 4
REMARK VINA RESULT: -10.470975341      1.173      1.837
REMARK  11 active torsions:
REMARK  status: ('A' for Active; 'I' for Inactive)
REMARK    1  A    between atoms: C3_3  and  C4_4 
REMARK    2  A    between atoms: C4_4  and  N1_5 
REMARK    3  A    between atoms: C4_4  and  C9_23 
REMARK       I    between atoms: N1_5  and  C5_7 
REMARK    4  A    between atoms: C5_7  and  C6_9 
REMARK    5  A    between atoms: C6_9  and  O2_10 
REMARK    6  A    between atoms: C6_9  and  C7_12 
REMARK    7  A    between atoms: C7_12  and  N2_13 
REMARK    8  A    between atoms: C8_19  and  N6_20 
REMARK    9  A    between atoms: N9_37  and  N10_38 
REMARK   10  A    between atoms: N10_38  and  C19_40 
REMARK   11  A    between atoms: N12_45  and  O3_46 
ROOT
HETATM    1  C4  UNL     1      60.317  -1.404  65.955  1.00  0.00     0.186 C 
ENDROOT
BRANCH   1   2
HETATM    2  C3  UNL     1      59.966  -1.622  67.382  1.00  0.00     0.058 C 
HETATM    3  C2  UNL     1      58.757  -2.042  67.780  1.00  0.00     0.050 C 
HETATM    4  C1  UNL     1      57.744  -2.293  66.757  1.00  0.00     0.072 C 
HETATM    5  N9  UNL     1      58.434  -2.251  69.135  1.00  0.00    -0.279 N 
HETATM    6  C18 UNL     1      59.125  -1.480  70.168  1.00  0.00     0.169 C 
HETATM    7  C17 UNL     1      60.508  -1.052  69.769  1.00  0.00     0.141 C 
HETATM    8  N8  UNL     1      60.895  -1.397  68.438  1.00  0.00    -0.388 N 
ATOM      9  H8  UNL     1      61.890  -1.487  68.233  1.00  0.00     0.159 HD
BRANCH   5  10
HETATM   10  N10 UNL     1      57.494  -3.162  69.549  1.00  0.00    -0.128 N 
ATOM     11  H10 UNL     1      57.642  -4.114  69.217  1.00  0.00     0.206 HD
BRANCH  10  12
HETATM   12  C19 UNL     1      56.367  -2.986  70.354  1.00  0.00     0.714 C 
HETATM   13  N11 UNL     1      55.145  -3.121  69.890  1.00  0.00    -0.221 N 
HETATM   14  C20 UNL     1      54.172  -2.887  70.928  1.00  0.00     0.161 C 
ATOM     15  H11 UNL     1      54.916  -3.358  68.925  1.00  0.00     0.177 HD
HETATM   16  C21 UNL     1      54.952  -2.155  72.004  1.00  0.00     0.195 C 
HETATM   17  N12 UNL     1      56.297  -2.660  71.733  1.00  0.00    -0.088 N 
BRANCH  17  18
HETATM   18  O3  UNL     1      57.276  -2.789  72.650  1.00  0.00    -0.274 OA
ATOM     19  H3  UNL     1      57.745  -2.089  73.090  1.00  0.00     0.245 HD
ENDBRANCH  17  18
ENDBRANCH  10  12
ENDBRANCH   5  10
ENDBRANCH   1   2
BRANCH   1  20
HETATM   20  N1  UNL     1      61.702  -1.771  65.690  1.00  0.00    -0.343 N 
HETATM   21  C5  UNL     1      62.062  -2.904  64.917  1.00  0.00     0.249 C 
HETATM   22  O1  UNL     1      61.143  -3.619  64.440  1.00  0.00    -0.271 OA
ATOM     23  H1  UNL     1      62.445  -1.188  66.078  1.00  0.00     0.163 HD
BRANCH  21  24
HETATM   24  C6  UNL     1      63.453  -3.288  64.642  1.00  0.00     0.230 C 
BRANCH  24  25
HETATM   25  O2  UNL     1      64.306  -2.193  64.569  1.00  0.00    -0.384 OA
ATOM     26  H2  UNL     1      64.809  -2.175  63.763  1.00  0.00     0.210 HD
ENDBRANCH  24  25
BRANCH  24  27
HETATM   27  C7  UNL     1      63.985  -4.339  65.581  1.00  0.00     0.207 C 
BRANCH  27  28
HETATM   28  N2  UNL     1      64.285  -3.869  66.897  1.00  0.00    -0.103 N 
HETATM   29  N3  UNL     1      63.590  -2.977  67.581  1.00  0.00     0.011 NA
HETATM   30  N4  UNL     1      64.181  -2.793  68.773  1.00  0.00    -0.211 N 
HETATM   31  N5  UNL     1      65.237  -3.573  68.823  1.00  0.00    -0.118 N 
ATOM     32  H4  UNL     1      63.865  -2.162  69.509  1.00  0.00     0.206 HD
HETATM   33  C8  UNL     1      65.322  -4.261  67.651  1.00  0.00     0.706 A 
ATOM     34  H5  UNL     1      65.884  -3.650  69.607  1.00  0.00     0.207 HD
BRANCH  33  35
HETATM   35  N6  UNL     1      66.264  -5.102  67.423  1.00  0.00    -0.232 N 
ATOM     36  H62 UNL     1      66.189  -6.082  67.693  1.00  0.00     0.174 HD
ATOM     37  H61 UNL     1      67.175  -4.988  66.980  1.00  0.00     0.174 HD
ENDBRANCH  33  35
ENDBRANCH  27  28
ENDBRANCH  24  27
ENDBRANCH  21  24
ENDBRANCH   1  20
BRANCH   1  38
HETATM   38  C9  UNL     1      60.021  -0.026  65.508  1.00  0.00     0.039 A 
HETATM   39  C10 UNL     1      60.330   0.508  64.275  1.00  0.00     0.041 A 
HETATM   40  C11 UNL     1      59.908   1.818  64.202  1.00  0.00    -0.007 A 
HETATM   41  C12 UNL     1      59.963   2.787  63.227  1.00  0.00     0.014 A 
HETATM   42  C16 UNL     1      59.329   2.079  65.429  1.00  0.00     0.042 A 
HETATM   43  C13 UNL     1      59.438   4.039  63.461  1.00  0.00     0.001 A 
HETATM   44  C14 UNL     1      58.867   4.287  64.680  1.00  0.00     0.002 A 
HETATM   45  C15 UNL     1      58.810   3.329  65.650  1.00  0.00     0.030 A 
HETATM   46  N7  UNL     1      59.410   0.977  66.178  1.00  0.00    -0.357 N 
ATOM     47  H7  UNL     1      59.056   0.902  67.132  1.00  0.00     0.166 HD
ENDBRANCH   1  38
TORSDOF 11
ENDMDL
MODEL 5
REMARK VINA RESULT: -10.459841052      0.988      1.077
REMARK  11 active torsions:
REMARK  status: ('A' for Active; 'I' for Inactive)
REMARK    1  A    between atoms: C3_3  and  C4_4 
REMARK    2  A    between atoms: C4_4  and  N1_5 
REMARK    3  A    between atoms: C4_4  and  C9_23 
REMARK       I    between atoms: N1_5  and  C5_7 
REMARK    4  A    between atoms: C5_7  and  C6_9 
REMARK    5  A    between atoms: C6_9  and  O2_10 
REMARK    6  A    between atoms: C6_9  and  C7_12 
REMARK    7  A    between atoms: C7_12  and  N2_13 
REMARK    8  A    between atoms: C8_19  and  N6_20 
REMARK    9  A    between atoms: N9_37  and  N10_38 
REMARK   10  A    between atoms: N10_38  and  C19_40 
REMARK   11  A    between atoms: N12_45  and  O3_46 
ROOT
HETATM    1  C4  UNL     1      59.996  -1.356  65.880  1.00  0.00     0.186 C 
ENDROOT
BRANCH   1   2
HETATM    2  C3  UNL     1      59.923  -1.465  67.359  1.00  0.00     0.058 C 
HETATM    3  C2  UNL     1      58.847  -1.940  68.004  1.00  0.00     0.050 C 
HETATM    4  C1  UNL     1      57.700  -2.367  67.206  1.00  0.00     0.072 C 
HETATM    5  N9  UNL     1      58.787  -2.044  69.407  1.00  0.00    -0.279 N 
HETATM    6  C18 UNL     1      59.571  -1.125  70.232  1.00  0.00     0.169 C 
HETATM    7  C17 UNL     1      60.815  -0.628  69.555  1.00  0.00     0.141 C 
HETATM    8  N8  UNL     1      60.995  -1.067  68.207  1.00  0.00    -0.388 N 
ATOM      9  H8  UNL     1      61.944  -1.096  67.832  1.00  0.00     0.159 HD
BRANCH   5  10
HETATM   10  N10 UNL     1      58.025  -2.982  70.057  1.00  0.00    -0.128 N 
ATOM     11  H10 UNL     1      58.456  -3.902  70.143  1.00  0.00     0.206 HD
BRANCH  10  12
HETATM   12  C19 UNL     1      56.751  -2.874  70.618  1.00  0.00     0.714 C 
HETATM   13  N11 UNL     1      56.487  -2.050  71.607  1.00  0.00    -0.221 N 
HETATM   14  C20 UNL     1      55.101  -2.138  71.994  1.00  0.00     0.161 C 
ATOM     15  H11 UNL     1      57.172  -1.432  72.043  1.00  0.00     0.177 HD
HETATM   16  C21 UNL     1      54.636  -3.454  71.399  1.00  0.00     0.195 C 
HETATM   17  N12 UNL     1      55.561  -3.565  70.271  1.00  0.00    -0.088 N 
BRANCH  17  18
HETATM   18  O3  UNL     1      55.302  -4.210  69.116  1.00  0.00    -0.274 OA
ATOM     19  H3  UNL     1      54.450  -4.446  68.770  1.00  0.00     0.245 HD
ENDBRANCH  17  18
ENDBRANCH  10  12
ENDBRANCH   5  10
ENDBRANCH   1   2
BRANCH   1  20
HETATM   20  N1  UNL     1      61.222  -1.956  65.368  1.00  0.00    -0.343 N 
HETATM   21  C5  UNL     1      61.309  -2.545  64.081  1.00  0.00     0.249 C 
HETATM   22  O1  UNL     1      60.283  -2.547  63.353  1.00  0.00    -0.271 OA
ATOM     23  H1  UNL     1      62.052  -1.952  65.961  1.00  0.00     0.163 HD
BRANCH  21  24
HETATM   24  C6  UNL     1      62.537  -3.155  63.551  1.00  0.00     0.230 C 
BRANCH  24  25
HETATM   25  O2  UNL     1      63.361  -2.232  62.917  1.00  0.00    -0.384 OA
ATOM     26  H2  UNL     1      63.719  -1.589  63.517  1.00  0.00     0.210 HD
ENDBRANCH  24  25
BRANCH  24  27
HETATM   27  C7  UNL     1      63.296  -3.963  64.569  1.00  0.00     0.207 C 
BRANCH  27  28
HETATM   28  N2  UNL     1      64.348  -3.257  65.231  1.00  0.00    -0.103 N 
HETATM   29  N3  UNL     1      65.423  -2.746  64.657  1.00  0.00     0.011 NA
HETATM   30  N4  UNL     1      66.178  -2.162  65.601  1.00  0.00    -0.211 N 
HETATM   31  N5  UNL     1      65.568  -2.312  66.755  1.00  0.00    -0.118 N 
ATOM     32  H4  UNL     1      67.067  -1.685  65.448  1.00  0.00     0.206 HD
HETATM   33  C8  UNL     1      64.412  -3.000  66.545  1.00  0.00     0.706 A 
ATOM     34  H5  UNL     1      65.904  -1.971  67.655  1.00  0.00     0.207 HD
BRANCH  33  35
HETATM   35  N6  UNL     1      63.611  -3.290  67.505  1.00  0.00    -0.232 N 
ATOM     36  H62 UNL     1      63.949  -3.536  68.435  1.00  0.00     0.174 HD
ATOM     37  H61 UNL     1      62.593  -3.331  67.541  1.00  0.00     0.174 HD
ENDBRANCH  33  35
ENDBRANCH  27  28
ENDBRANCH  24  27
ENDBRANCH  21  24
ENDBRANCH   1  20
BRANCH   1  38
HETATM   38  C9  UNL     1      59.830   0.035  65.410  1.00  0.00     0.039 A 
HETATM   39  C10 UNL     1      59.279   1.072  66.133  1.00  0.00     0.041 A 
HETATM   40  C11 UNL     1      59.282   2.230  65.385  1.00  0.00    -0.007 A 
HETATM   41  C12 UNL     1      58.863   3.519  65.619  1.00  0.00     0.014 A 
HETATM   42  C16 UNL     1      59.850   1.878  64.176  1.00  0.00     0.042 A 
HETATM   43  C13 UNL     1      59.005   4.484  64.645  1.00  0.00     0.001 A 
HETATM   44  C14 UNL     1      59.569   4.124  63.451  1.00  0.00     0.002 A 
HETATM   45  C15 UNL     1      59.986   2.846  63.215  1.00  0.00     0.030 A 
HETATM   46  N7  UNL     1      60.162   0.581  64.218  1.00  0.00    -0.357 N 
ATOM     47  H7  UNL     1      60.596   0.068  63.450  1.00  0.00     0.166 HD
ENDBRANCH   1  38
TORSDOF 11
ENDMDL
