MODEL 1
REMARK VINA RESULT: -9.114292937      0.000      0.000
REMARK  6 active torsions:
REMARK  status: ('A' for Active; 'I' for Inactive)
REMARK    1  A    between atoms: C2_3  and  O1_4 
REMARK    2  A    between atoms: C2_3  and  C3_6 
REMARK    3  A    between atoms: C2_3  and  N4_25 
REMARK    4  A    between atoms: C3_6  and  C4_10 
REMARK    5  A    between atoms: C7_13  and  C8_14 
REMARK    6  A    between atoms: C13_19  and  N3_20 
ROOT
HETATM    1  N1  UNL     1      27.221   8.528   1.025  1.00  0.00    -0.191 NA
HETATM    2  C1  UNL     1      27.719   9.187   0.207  1.00  0.00     0.134 C 
HETATM    3  C2  UNL     1      28.334  10.046  -0.841  1.00  0.00     0.328 C 
ENDROOT
BRANCH   3   4
HETATM    4  O1  UNL     1      28.048   9.413  -2.035  1.00  0.00    -0.350 OA
ATOM      5  H1  UNL     1      27.425   9.981  -2.472  1.00  0.00     0.214 HD
ENDBRANCH   3   4
BRANCH   3   6
HETATM    6  C3  UNL     1      27.704  11.393  -0.718  1.00  0.00     0.090 C 
HETATM    7  N2  UNL     1      26.455  11.514  -0.947  1.00  0.00    -0.397 N 
ATOM      8  H22 UNL     1      25.924  10.687  -1.222  1.00  0.00     0.156 HD
ATOM      9  H21 UNL     1      26.025  12.435  -0.864  1.00  0.00     0.156 HD
BRANCH   6  10
HETATM   10  C4  UNL     1      28.464  12.578  -0.326  1.00  0.00    -0.008 A 
HETATM   11  C5  UNL     1      29.000  13.387  -1.313  1.00  0.00     0.014 A 
HETATM   12  C6  UNL     1      29.741  14.526  -0.990  1.00  0.00     0.013 A 
HETATM   13  C7  UNL     1      29.970  14.889   0.319  1.00  0.00    -0.024 A 
HETATM   14  C14 UNL     1      29.445  14.097   1.311  1.00  0.00     0.013 A 
HETATM   15  C15 UNL     1      28.705  12.961   0.964  1.00  0.00     0.014 A 
BRANCH  13  16
HETATM   16  C8  UNL     1      30.787  16.077   0.570  1.00  0.00     0.007 A 
HETATM   17  C9  UNL     1      30.168  17.330   0.683  1.00  0.00     0.015 A 
HETATM   18  C10 UNL     1      30.820  18.500   0.882  1.00  0.00     0.001 A 
HETATM   19  C11 UNL     1      32.197  18.460   0.981  1.00  0.00     0.002 A 
HETATM   20  C12 UNL     1      32.854  17.265   0.878  1.00  0.00     0.037 A 
HETATM   21  C13 UNL     1      32.158  16.059   0.673  1.00  0.00     0.114 A 
BRANCH  21  22
HETATM   22  N3  UNL     1      32.900  14.856   0.590  1.00  0.00    -0.115 N 
HETATM   23  O2  UNL     1      33.393  14.339  -0.399  1.00  0.00    -0.532 OA
HETATM   24  O3  UNL     1      33.063  14.161   1.792  1.00  0.00    -0.532 OA
ENDBRANCH  21  22
ENDBRANCH  13  16
ENDBRANCH   6  10
ENDBRANCH   3   6
BRANCH   3  25
HETATM   25  N4  UNL     1      29.743  10.061  -0.498  1.00  0.00    -0.095 N 
HETATM   26  O4  UNL     1      30.180   9.865   0.667  1.00  0.00    -0.533 OA
HETATM   27  O5  UNL     1      30.684  10.279  -1.456  1.00  0.00    -0.533 OA
ENDBRANCH   3  25
TORSDOF 6
ENDMDL
MODEL 2
REMARK VINA RESULT: -9.035463966      4.100      5.474
REMARK  6 active torsions:
REMARK  status: ('A' for Active; 'I' for Inactive)
REMARK    1  A    between atoms: C2_3  and  O1_4 
REMARK    2  A    between atoms: C2_3  and  C3_6 
REMARK    3  A    between atoms: C2_3  and  N4_25 
REMARK    4  A    between atoms: C3_6  and  C4_10 
REMARK    5  A    between atoms: C7_13  and  C8_14 
REMARK    6  A    between atoms: C13_19  and  N3_20 
ROOT
HETATM    1  N1  UNL     1      29.954   8.907   6.179  1.00  0.00    -0.191 NA
HETATM    2  C1  UNL     1      30.024   8.803   5.024  1.00  0.00     0.134 C 
HETATM    3  C2  UNL     1      30.087   8.668   3.543  1.00  0.00     0.328 C 
ENDROOT
BRANCH   3   4
HETATM    4  O1  UNL     1      30.295   7.321   3.316  1.00  0.00    -0.350 OA
ATOM      5  H1  UNL     1      30.796   7.282   2.510  1.00  0.00     0.214 HD
ENDBRANCH   3   4
BRANCH   3   6
HETATM    6  C3  UNL     1      28.784   9.165   3.009  1.00  0.00     0.090 C 
HETATM    7  N2  UNL     1      27.748   9.098   3.751  1.00  0.00    -0.397 N 
ATOM      8  H22 UNL     1      27.837   8.695   4.683  1.00  0.00     0.156 HD
ATOM      9  H21 UNL     1      26.858   9.438   3.386  1.00  0.00     0.156 HD
BRANCH   6  10
HETATM   10  C4  UNL     1      28.657   9.742   1.673  1.00  0.00    -0.008 A 
HETATM   11  C5  UNL     1      28.621  11.120   1.540  1.00  0.00     0.014 A 
HETATM   12  C6  UNL     1      28.492  11.720   0.285  1.00  0.00     0.013 A 
HETATM   13  C7  UNL     1      28.395  10.970  -0.865  1.00  0.00    -0.024 A 
HETATM   14  C14 UNL     1      28.428   9.602  -0.751  1.00  0.00     0.013 A 
HETATM   15  C15 UNL     1      28.559   9.021   0.516  1.00  0.00     0.014 A 
BRANCH  13  16
HETATM   16  C8  UNL     1      28.226  11.678  -2.135  1.00  0.00     0.007 A 
HETATM   17  C9  UNL     1      26.935  11.991  -2.585  1.00  0.00     0.015 A 
HETATM   18  C10 UNL     1      26.653  12.613  -3.755  1.00  0.00     0.001 A 
HETATM   19  C11 UNL     1      27.712  12.964  -4.567  1.00  0.00     0.002 A 
HETATM   20  C12 UNL     1      28.994  12.683  -4.180  1.00  0.00     0.037 A 
HETATM   21  C13 UNL     1      29.266  12.038  -2.959  1.00  0.00     0.114 A 
BRANCH  21  22
HETATM   22  N3  UNL     1      30.616  11.790  -2.613  1.00  0.00    -0.115 N 
HETATM   23  O2  UNL     1      31.287  10.799  -2.850  1.00  0.00    -0.532 OA
HETATM   24  O3  UNL     1      31.249  12.800  -1.883  1.00  0.00    -0.532 OA
ENDBRANCH  21  22
ENDBRANCH  13  16
ENDBRANCH   6  10
ENDBRANCH   3   6
BRANCH   3  25
HETATM   25  N4  UNL     1      31.200   9.515   3.161  1.00  0.00    -0.095 N 
HETATM   26  O4  UNL     1      31.377  10.679   3.610  1.00  0.00    -0.533 OA
HETATM   27  O5  UNL     1      32.139   9.068   2.285  1.00  0.00    -0.533 OA
ENDBRANCH   3  25
TORSDOF 6
ENDMDL
MODEL 3
REMARK VINA RESULT: -9.001357373      0.499      1.252
REMARK  6 active torsions:
REMARK  status: ('A' for Active; 'I' for Inactive)
REMARK    1  A    between atoms: C2_3  and  O1_4 
REMARK    2  A    between atoms: C2_3  and  C3_6 
REMARK    3  A    between atoms: C2_3  and  N4_25 
REMARK    4  A    between atoms: C3_6  and  C4_10 
REMARK    5  A    between atoms: C7_13  and  C8_14 
REMARK    6  A    between atoms: C13_19  and  N3_20 
ROOT
HETATM    1  N1  UNL     1      27.232   8.947   1.496  1.00  0.00    -0.191 NA
HETATM    2  C1  UNL     1      27.644   9.399   0.508  1.00  0.00     0.134 C 
HETATM    3  C2  UNL     1      28.151   9.996  -0.758  1.00  0.00     0.328 C 
ENDROOT
BRANCH   3   4
HETATM    4  O1  UNL     1      27.666   9.175  -1.758  1.00  0.00    -0.350 OA
ATOM      5  H1  UNL     1      27.558   9.743  -2.512  1.00  0.00     0.214 HD
ENDBRANCH   3   4
BRANCH   3   6
HETATM    6  C3  UNL     1      27.617  11.388  -0.822  1.00  0.00     0.090 C 
HETATM    7  N2  UNL     1      26.375  11.563  -1.055  1.00  0.00    -0.397 N 
ATOM      8  H22 UNL     1      25.784  10.746  -1.204  1.00  0.00     0.156 HD
ATOM      9  H21 UNL     1      26.011  12.515  -1.099  1.00  0.00     0.156 HD
BRANCH   6  10
HETATM   10  C4  UNL     1      28.464  12.560  -0.609  1.00  0.00    -0.008 A 
HETATM   11  C5  UNL     1      28.883  12.858   0.677  1.00  0.00     0.014 A 
HETATM   12  C6  UNL     1      29.686  13.972   0.933  1.00  0.00     0.013 A 
HETATM   13  C7  UNL     1      30.093  14.815  -0.076  1.00  0.00    -0.024 A 
HETATM   14  C14 UNL     1      29.686  14.534  -1.358  1.00  0.00     0.013 A 
HETATM   15  C15 UNL     1      28.881  13.412  -1.593  1.00  0.00     0.014 A 
BRANCH  13  16
HETATM   16  C8  UNL     1      30.904  15.979   0.285  1.00  0.00     0.007 A 
HETATM   17  C9  UNL     1      30.271  17.159   0.700  1.00  0.00     0.015 A 
HETATM   18  C10 UNL     1      30.912  18.307   1.026  1.00  0.00     0.001 A 
HETATM   19  C11 UNL     1      32.290  18.319   0.945  1.00  0.00     0.002 A 
HETATM   20  C12 UNL     1      32.961  17.196   0.545  1.00  0.00     0.037 A 
HETATM   21  C13 UNL     1      32.277  16.012   0.212  1.00  0.00     0.114 A 
BRANCH  21  22
HETATM   22  N3  UNL     1      33.033  14.881  -0.181  1.00  0.00    -0.115 N 
HETATM   23  O2  UNL     1      33.452  13.973   0.516  1.00  0.00    -0.532 OA
HETATM   24  O3  UNL     1      33.363  14.816  -1.538  1.00  0.00    -0.532 OA
ENDBRANCH  21  22
ENDBRANCH  13  16
ENDBRANCH   6  10
ENDBRANCH   3   6
BRANCH   3  25
HETATM   25  N4  UNL     1      29.592   9.963  -0.608  1.00  0.00    -0.095 N 
HETATM   26  O4  UNL     1      30.176   9.779   0.494  1.00  0.00    -0.533 OA
HETATM   27  O5  UNL     1      30.403  10.118  -1.689  1.00  0.00    -0.533 OA
ENDBRANCH   3  25
TORSDOF 6
ENDMDL
MODEL 4
REMARK VINA RESULT: -8.770969221      4.092      5.778
REMARK  6 active torsions:
REMARK  status: ('A' for Active; 'I' for Inactive)
REMARK    1  A    between atoms: C2_3  and  O1_4 
REMARK    2  A    between atoms: C2_3  and  C3_6 
REMARK    3  A    between atoms: C2_3  and  N4_25 
REMARK    4  A    between atoms: C3_6  and  C4_10 
REMARK    5  A    between atoms: C7_13  and  C8_14 
REMARK    6  A    between atoms: C13_19  and  N3_20 
ROOT
HETATM    1  N1  UNL     1      32.181   8.904   2.548  1.00  0.00    -0.191 NA
HETATM    2  C1  UNL     1      31.264   9.161   3.214  1.00  0.00     0.134 C 
HETATM    3  C2  UNL     1      30.075   9.495   4.044  1.00  0.00     0.328 C 
ENDROOT
BRANCH   3   4
HETATM    4  O1  UNL     1      30.227  10.830   4.366  1.00  0.00    -0.350 OA
ATOM      5  H1  UNL     1      31.157  11.001   4.274  1.00  0.00     0.214 HD
ENDBRANCH   3   4
BRANCH   3   6
HETATM    6  C3  UNL     1      28.872   9.221   3.204  1.00  0.00     0.090 C 
HETATM    7  N2  UNL     1      27.939   8.493   3.681  1.00  0.00    -0.397 N 
ATOM      8  H22 UNL     1      28.048   8.108   4.619  1.00  0.00     0.156 HD
ATOM      9  H21 UNL     1      27.117   8.306   3.107  1.00  0.00     0.156 HD
BRANCH   6  10
HETATM   10  C4  UNL     1      28.716   9.772   1.860  1.00  0.00    -0.008 A 
HETATM   11  C5  UNL     1      28.769  11.145   1.688  1.00  0.00     0.014 A 
HETATM   12  C6  UNL     1      28.616  11.721   0.425  1.00  0.00     0.013 A 
HETATM   13  C7  UNL     1      28.408  10.951  -0.697  1.00  0.00    -0.024 A 
HETATM   14  C14 UNL     1      28.353   9.587  -0.545  1.00  0.00     0.013 A 
HETATM   15  C15 UNL     1      28.508   9.031   0.730  1.00  0.00     0.014 A 
BRANCH  13  16
HETATM   16  C8  UNL     1      28.223  11.637  -1.977  1.00  0.00     0.007 A 
HETATM   17  C9  UNL     1      26.930  11.984  -2.394  1.00  0.00     0.015 A 
HETATM   18  C10 UNL     1      26.633  12.590  -3.568  1.00  0.00     0.001 A 
HETATM   19  C11 UNL     1      27.677  12.887  -4.421  1.00  0.00     0.002 A 
HETATM   20  C12 UNL     1      28.960  12.571  -4.066  1.00  0.00     0.037 A 
HETATM   21  C13 UNL     1      29.249  11.944  -2.841  1.00  0.00     0.114 A 
BRANCH  21  22
HETATM   22  N3  UNL     1      30.600  11.657  -2.530  1.00  0.00    -0.115 N 
HETATM   23  O2  UNL     1      31.238  10.650  -2.790  1.00  0.00    -0.532 OA
HETATM   24  O3  UNL     1      31.279  12.645  -1.811  1.00  0.00    -0.532 OA
ENDBRANCH  21  22
ENDBRANCH  13  16
ENDBRANCH   6  10
ENDBRANCH   3   6
BRANCH   3  25
HETATM   25  N4  UNL     1      30.174   8.594   5.176  1.00  0.00    -0.095 N 
HETATM   26  O4  UNL     1      30.711   7.456   5.117  1.00  0.00    -0.533 OA
HETATM   27  O5  UNL     1      29.690   8.959   6.393  1.00  0.00    -0.533 OA
ENDBRANCH   3  25
TORSDOF 6
ENDMDL
MODEL 5
REMARK VINA RESULT: -8.698677836      1.077      1.252
REMARK  6 active torsions:
REMARK  status: ('A' for Active; 'I' for Inactive)
REMARK    1  A    between atoms: C2_3  and  O1_4 
REMARK    2  A    between atoms: C2_3  and  C3_6 
REMARK    3  A    between atoms: C2_3  and  N4_25 
REMARK    4  A    between atoms: C3_6  and  C4_10 
REMARK    5  A    between atoms: C7_13  and  C8_14 
REMARK    6  A    between atoms: C13_19  and  N3_20 
ROOT
HETATM    1  N1  UNL     1      29.725  10.050   1.198  1.00  0.00    -0.191 NA
HETATM    2  C1  UNL     1      28.989  10.180   0.308  1.00  0.00     0.134 C 
HETATM    3  C2  UNL     1      28.033  10.366  -0.817  1.00  0.00     0.328 C 
ENDROOT
BRANCH   3   4
HETATM    4  O1  UNL     1      27.082   9.378  -0.645  1.00  0.00    -0.350 OA
ATOM      5  H1  UNL     1      26.330   9.670  -1.146  1.00  0.00     0.214 HD
ENDBRANCH   3   4
BRANCH   3   6
HETATM    6  C3  UNL     1      27.482  11.748  -0.692  1.00  0.00     0.090 C 
HETATM    7  N2  UNL     1      26.241  11.940  -0.915  1.00  0.00    -0.397 N 
ATOM      8  H22 UNL     1      25.662  11.145  -1.186  1.00  0.00     0.156 HD
ATOM      9  H21 UNL     1      25.865  12.884  -0.829  1.00  0.00     0.156 HD
BRANCH   6  10
HETATM   10  C4  UNL     1      28.311  12.887  -0.304  1.00  0.00    -0.008 A 
HETATM   11  C5  UNL     1      28.987  13.589  -1.287  1.00  0.00     0.014 A 
HETATM   12  C6  UNL     1      29.799  14.679  -0.966  1.00  0.00     0.013 A 
HETATM   13  C7  UNL     1      29.960  15.100   0.335  1.00  0.00    -0.024 A 
HETATM   14  C14 UNL     1      29.296  14.414   1.323  1.00  0.00     0.013 A 
HETATM   15  C15 UNL     1      28.488  13.324   0.979  1.00  0.00     0.014 A 
BRANCH  13  16
HETATM   16  C8  UNL     1      30.856  16.229   0.587  1.00  0.00     0.007 A 
HETATM   17  C9  UNL     1      30.325  17.522   0.694  1.00  0.00     0.015 A 
HETATM   18  C10 UNL     1      31.056  18.644   0.893  1.00  0.00     0.001 A 
HETATM   19  C11 UNL     1      32.426  18.509   0.998  1.00  0.00     0.002 A 
HETATM   20  C12 UNL     1      32.999  17.271   0.902  1.00  0.00     0.037 A 
HETATM   21  C13 UNL     1      32.222  16.116   0.697  1.00  0.00     0.114 A 
BRANCH  21  22
HETATM   22  N3  UNL     1      32.879  14.864   0.620  1.00  0.00    -0.115 N 
HETATM   23  O2  UNL     1      33.378  14.331  -0.357  1.00  0.00    -0.532 OA
HETATM   24  O3  UNL     1      32.938  14.138   1.813  1.00  0.00    -0.532 OA
ENDBRANCH  21  22
ENDBRANCH  13  16
ENDBRANCH   6  10
ENDBRANCH   3   6
BRANCH   3  25
HETATM   25  N4  UNL     1      28.852  10.203  -2.003  1.00  0.00    -0.095 N 
HETATM   26  O4  UNL     1      28.691  10.870  -3.059  1.00  0.00    -0.533 OA
HETATM   27  O5  UNL     1      29.873   9.305  -2.019  1.00  0.00    -0.533 OA
ENDBRANCH   3  25
TORSDOF 6
ENDMDL
