MODEL 1
REMARK VINA RESULT: -7.939409863      0.000      0.000
REMARK  6 active torsions:
REMARK  status: ('A' for Active; 'I' for Inactive)
REMARK    1  A    between atoms: N1_2  and  N2_4 
REMARK    2  A    between atoms: C6_10  and  C7_11 
REMARK    3  A    between atoms: C7_11  and  C8_12 
REMARK    4  A    between atoms: C8_12  and  O1_13 
REMARK    5  A    between atoms: C12_18  and  N3_19 
REMARK    6  A    between atoms: C14_23  and  N4_24 
ROOT
HETATM    1  N2  UNL     1      28.237  12.594  -4.778  1.00  0.00    -0.309 N 
ATOM      2  H2  UNL     1      29.013  12.778  -5.414  1.00  0.00     0.186 HD
HETATM    3  C2  UNL     1      28.453  12.493  -3.512  1.00  0.00     0.037 C 
HETATM    4  C3  UNL     1      27.291  12.234  -2.712  1.00  0.00     0.071 C 
HETATM    5  C4  UNL     1      27.214  12.927  -1.318  1.00  0.00     0.086 C 
HETATM    6  C5  UNL     1      28.466  13.376  -1.009  1.00  0.00    -0.173 C 
HETATM    7  C6  UNL     1      29.839  13.765  -0.856  1.00  0.00     0.090 C 
HETATM    8  C9  UNL     1      30.523  13.184  -2.079  1.00  0.00     0.002 A 
HETATM    9  C10 UNL     1      29.905  12.672  -3.238  1.00  0.00     0.000 A 
HETATM   10  C11 UNL     1      30.706  12.248  -4.276  1.00  0.00     0.050 A 
HETATM   11  C12 UNL     1      32.087  12.315  -4.203  1.00  0.00     0.106 A 
HETATM   12  C13 UNL     1      32.620  12.817  -3.054  1.00  0.00     0.072 A 
HETATM   13  C14 UNL     1      31.855  13.268  -1.954  1.00  0.00     0.113 A 
ENDROOT
BRANCH   1  14
HETATM   14  N1  UNL     1      26.952  12.454  -5.276  1.00  0.00    -0.341 N 
HETATM   15  C1  UNL     1      26.405  13.271  -6.344  1.00  0.00     0.167 C 
ATOM     16  H1  UNL     1      26.355  11.736  -4.868  1.00  0.00     0.179 HD
ENDBRANCH   1  14
BRANCH   7  17
HETATM   17  C7  UNL     1      29.958  15.299  -0.842  1.00  0.00     0.047 C 
BRANCH  17  18
HETATM   18  C8  UNL     1      29.981  15.665   0.638  1.00  0.00     0.165 C 
BRANCH  18  19
HETATM   19  O1  UNL     1      31.280  15.849   1.040  1.00  0.00    -0.401 OA
ATOM     20  H1  UNL     1      31.838  15.217   0.603  1.00  0.00     0.209 HD
ENDBRANCH  18  19
ENDBRANCH  17  18
ENDBRANCH   7  17
BRANCH  13  21
HETATM   21  N4  UNL     1      32.598  13.749  -0.885  1.00  0.00    -0.115 N 
HETATM   22  O4  UNL     1      32.771  13.219   0.189  1.00  0.00    -0.532 OA
HETATM   23  O5  UNL     1      33.289  14.943  -1.072  1.00  0.00    -0.532 OA
ENDBRANCH  13  21
BRANCH  11  24
HETATM   24  N3  UNL     1      32.882  11.871  -5.290  1.00  0.00    -0.116 N 
HETATM   25  O2  UNL     1      32.432  11.071  -6.131  1.00  0.00    -0.532 OA
HETATM   26  O3  UNL     1      34.173  12.303  -5.459  1.00  0.00    -0.532 OA
ENDBRANCH  11  24
TORSDOF 6
ENDMDL
MODEL 2
REMARK VINA RESULT: -7.934788237      3.032      4.887
REMARK  6 active torsions:
REMARK  status: ('A' for Active; 'I' for Inactive)
REMARK    1  A    between atoms: N1_2  and  N2_4 
REMARK    2  A    between atoms: C6_10  and  C7_11 
REMARK    3  A    between atoms: C7_11  and  C8_12 
REMARK    4  A    between atoms: C8_12  and  O1_13 
REMARK    5  A    between atoms: C12_18  and  N3_19 
REMARK    6  A    between atoms: C14_23  and  N4_24 
ROOT
HETATM    1  N2  UNL     1      31.428  15.526  -0.186  1.00  0.00    -0.309 N 
ATOM      2  H2  UNL     1      32.204  15.147  -0.731  1.00  0.00     0.186 HD
HETATM    3  C2  UNL     1      30.294  14.915  -0.172  1.00  0.00     0.037 C 
HETATM    4  C3  UNL     1      29.276  15.536   0.625  1.00  0.00     0.071 C 
HETATM    5  C4  UNL     1      28.313  14.597   1.411  1.00  0.00     0.086 C 
HETATM    6  C5  UNL     1      28.438  13.343   0.887  1.00  0.00    -0.173 C 
HETATM    7  C6  UNL     1      28.698  12.105   0.208  1.00  0.00     0.090 C 
HETATM    8  C9  UNL     1      29.658  12.491  -0.900  1.00  0.00     0.002 A 
HETATM    9  C10 UNL     1      30.372  13.700  -1.028  1.00  0.00     0.000 A 
HETATM   10  C11 UNL     1      31.253  13.835  -2.078  1.00  0.00     0.050 A 
HETATM   11  C12 UNL     1      31.449  12.819  -2.997  1.00  0.00     0.106 A 
HETATM   12  C13 UNL     1      30.727  11.677  -2.819  1.00  0.00     0.072 A 
HETATM   13  C14 UNL     1      29.807  11.476  -1.764  1.00  0.00     0.113 A 
ENDROOT
BRANCH   1  14
HETATM   14  N1  UNL     1      31.596  16.696   0.536  1.00  0.00    -0.341 N 
HETATM   15  C1  UNL     1      32.890  17.261   0.872  1.00  0.00     0.167 C 
ATOM     16  H1  UNL     1      30.762  17.190   0.851  1.00  0.00     0.179 HD
ENDBRANCH   1  14
BRANCH   7  17
HETATM   17  C7  UNL     1      29.351  11.097   1.170  1.00  0.00     0.047 C 
BRANCH  17  18
HETATM   18  C8  UNL     1      28.176  10.438   1.884  1.00  0.00     0.165 C 
BRANCH  18  19
HETATM   19  O1  UNL     1      27.214  10.105   0.965  1.00  0.00    -0.401 OA
ATOM     20  H1  UNL     1      26.432  10.620   1.126  1.00  0.00     0.209 HD
ENDBRANCH  18  19
ENDBRANCH  17  18
ENDBRANCH   7  17
BRANCH  13  21
HETATM   21  N4  UNL     1      29.183  10.237  -1.763  1.00  0.00    -0.115 N 
HETATM   22  O4  UNL     1      28.013  10.001  -1.966  1.00  0.00    -0.532 OA
HETATM   23  O5  UNL     1      29.987   9.115  -1.580  1.00  0.00    -0.532 OA
ENDBRANCH  13  21
BRANCH  11  24
HETATM   24  N3  UNL     1      32.366  12.990  -4.066  1.00  0.00    -0.116 N 
HETATM   25  O2  UNL     1      32.625  14.120  -4.515  1.00  0.00    -0.532 OA
HETATM   26  O3  UNL     1      33.003  11.921  -4.644  1.00  0.00    -0.532 OA
ENDBRANCH  11  24
TORSDOF 6
ENDMDL
MODEL 3
REMARK VINA RESULT: -7.867920660      2.735      4.862
REMARK  6 active torsions:
REMARK  status: ('A' for Active; 'I' for Inactive)
REMARK    1  A    between atoms: N1_2  and  N2_4 
REMARK    2  A    between atoms: C6_10  and  C7_11 
REMARK    3  A    between atoms: C7_11  and  C8_12 
REMARK    4  A    between atoms: C8_12  and  O1_13 
REMARK    5  A    between atoms: C12_18  and  N3_19 
REMARK    6  A    between atoms: C14_23  and  N4_24 
ROOT
HETATM    1  N2  UNL     1      32.625  15.508  -0.696  1.00  0.00    -0.309 N 
ATOM      2  H2  UNL     1      33.245  14.956  -1.288  1.00  0.00     0.186 HD
HETATM    3  C2  UNL     1      31.363  15.252  -0.670  1.00  0.00     0.037 C 
HETATM    4  C3  UNL     1      30.586  16.090   0.196  1.00  0.00     0.071 C 
HETATM    5  C4  UNL     1      29.408  15.424   0.968  1.00  0.00     0.086 C 
HETATM    6  C5  UNL     1      29.152  14.221   0.374  1.00  0.00    -0.173 C 
HETATM    7  C6  UNL     1      29.027  13.005  -0.379  1.00  0.00     0.090 C 
HETATM    8  C9  UNL     1      30.035  13.165  -1.501  1.00  0.00     0.002 A 
HETATM    9  C10 UNL     1      31.066  14.121  -1.591  1.00  0.00     0.000 A 
HETATM   10  C11 UNL     1      31.927  14.060  -2.666  1.00  0.00     0.050 A 
HETATM   11  C12 UNL     1      31.799  13.089  -3.643  1.00  0.00     0.106 A 
HETATM   12  C13 UNL     1      30.781  12.196  -3.498  1.00  0.00     0.072 A 
HETATM   13  C14 UNL     1      29.864  12.205  -2.422  1.00  0.00     0.113 A 
ENDROOT
BRANCH   1  14
HETATM   14  N1  UNL     1      33.141  16.534   0.081  1.00  0.00    -0.341 N 
HETATM   15  C1  UNL     1      34.389  17.217  -0.207  1.00  0.00     0.167 C 
ATOM     16  H1  UNL     1      32.613  16.825   0.903  1.00  0.00     0.179 HD
ENDBRANCH   1  14
BRANCH   7  17
HETATM   17  C7  UNL     1      29.378  11.795   0.503  1.00  0.00     0.047 C 
BRANCH  17  18
HETATM   18  C8  UNL     1      28.045  11.360   1.101  1.00  0.00     0.165 C 
BRANCH  18  19
HETATM   19  O1  UNL     1      27.263  10.812   0.117  1.00  0.00    -0.401 OA
ATOM     20  H1  UNL     1      27.338  11.334  -0.673  1.00  0.00     0.209 HD
ENDBRANCH  18  19
ENDBRANCH  17  18
ENDBRANCH   7  17
BRANCH  13  21
HETATM   21  N4  UNL     1      28.907  11.202  -2.463  1.00  0.00    -0.115 N 
HETATM   22  O4  UNL     1      27.742  11.307  -2.778  1.00  0.00    -0.532 OA
HETATM   23  O5  UNL     1      29.326   9.904  -2.182  1.00  0.00    -0.532 OA
ENDBRANCH  13  21
BRANCH  11  24
HETATM   24  N3  UNL     1      32.704  13.053  -4.736  1.00  0.00    -0.116 N 
HETATM   25  O2  UNL     1      33.052  14.097  -5.316  1.00  0.00    -0.532 OA
HETATM   26  O3  UNL     1      33.230  11.871  -5.195  1.00  0.00    -0.532 OA
ENDBRANCH  11  24
TORSDOF 6
ENDMDL
MODEL 4
REMARK VINA RESULT: -7.819925030      3.714      5.873
REMARK  6 active torsions:
REMARK  status: ('A' for Active; 'I' for Inactive)
REMARK    1  A    between atoms: N1_2  and  N2_4 
REMARK    2  A    between atoms: C6_10  and  C7_11 
REMARK    3  A    between atoms: C7_11  and  C8_12 
REMARK    4  A    between atoms: C8_12  and  O1_13 
REMARK    5  A    between atoms: C12_18  and  N3_19 
REMARK    6  A    between atoms: C14_23  and  N4_24 
ROOT
HETATM    1  N2  UNL     1      32.566  14.412  -0.554  1.00  0.00    -0.309 N 
ATOM      2  H2  UNL     1      32.690  14.021   0.380  1.00  0.00     0.186 HD
HETATM    3  C2  UNL     1      31.796  13.822  -1.402  1.00  0.00     0.037 C 
HETATM    4  C3  UNL     1      31.695  14.458  -2.683  1.00  0.00     0.071 C 
HETATM    5  C4  UNL     1      30.304  14.438  -3.384  1.00  0.00     0.086 C 
HETATM    6  C5  UNL     1      29.539  13.495  -2.759  1.00  0.00    -0.173 C 
HETATM    7  C6  UNL     1      28.896  12.467  -1.991  1.00  0.00     0.090 C 
HETATM    8  C9  UNL     1      29.983  11.977  -1.054  1.00  0.00     0.002 A 
HETATM    9  C10 UNL     1      31.218  12.598  -0.781  1.00  0.00     0.000 A 
HETATM   10  C11 UNL     1      32.048  12.026   0.158  1.00  0.00     0.050 A 
HETATM   11  C12 UNL     1      31.696  10.869   0.830  1.00  0.00     0.106 A 
HETATM   12  C13 UNL     1      30.489  10.317   0.519  1.00  0.00     0.072 A 
HETATM   13  C14 UNL     1      29.594  10.853  -0.435  1.00  0.00     0.113 A 
ENDROOT
BRANCH   1  14
HETATM   14  N1  UNL     1      33.226  15.578  -0.910  1.00  0.00    -0.341 N 
HETATM   15  C1  UNL     1      33.788  16.514   0.046  1.00  0.00     0.167 C 
ATOM     16  H1  UNL     1      33.323  15.790  -1.903  1.00  0.00     0.179 HD
ENDBRANCH   1  14
BRANCH   7  17
HETATM   17  C7  UNL     1      27.717  13.057  -1.197  1.00  0.00     0.047 C 
BRANCH  17  18
HETATM   18  C8  UNL     1      26.477  12.507  -1.894  1.00  0.00     0.165 C 
BRANCH  18  19
HETATM   19  O1  UNL     1      25.814  11.661  -1.042  1.00  0.00    -0.401 OA
ATOM     20  H1  UNL     1      26.241  10.813  -1.044  1.00  0.00     0.209 HD
ENDBRANCH  18  19
ENDBRANCH  17  18
ENDBRANCH   7  17
BRANCH  13  21
HETATM   21  N4  UNL     1      28.416  10.138  -0.593  1.00  0.00    -0.115 N 
HETATM   22  O4  UNL     1      28.072   9.489  -1.556  1.00  0.00    -0.532 OA
HETATM   23  O5  UNL     1      27.545  10.088   0.492  1.00  0.00    -0.532 OA
ENDBRANCH  13  21
BRANCH  11  24
HETATM   24  N3  UNL     1      32.573  10.307   1.793  1.00  0.00    -0.116 N 
HETATM   25  O2  UNL     1      33.613  10.898   2.137  1.00  0.00    -0.532 OA
HETATM   26  O3  UNL     1      32.313   9.095   2.382  1.00  0.00    -0.532 OA
ENDBRANCH  11  24
TORSDOF 6
ENDMDL
MODEL 5
REMARK VINA RESULT: -7.744869557      3.207      5.140
REMARK  6 active torsions:
REMARK  status: ('A' for Active; 'I' for Inactive)
REMARK    1  A    between atoms: N1_2  and  N2_4 
REMARK    2  A    between atoms: C6_10  and  C7_11 
REMARK    3  A    between atoms: C7_11  and  C8_12 
REMARK    4  A    between atoms: C8_12  and  O1_13 
REMARK    5  A    between atoms: C12_18  and  N3_19 
REMARK    6  A    between atoms: C14_23  and  N4_24 
ROOT
HETATM    1  N2  UNL     1      33.228  14.698  -0.398  1.00  0.00    -0.309 N 
ATOM      2  H2  UNL     1      33.765  14.314  -1.176  1.00  0.00     0.186 HD
HETATM    3  C2  UNL     1      32.046  14.252  -0.150  1.00  0.00     0.037 C 
HETATM    4  C3  UNL     1      31.384  14.864   0.966  1.00  0.00     0.071 C 
HETATM    5  C4  UNL     1      30.500  13.947   1.863  1.00  0.00     0.086 C 
HETATM    6  C5  UNL     1      30.270  12.791   1.174  1.00  0.00    -0.173 C 
HETATM    7  C6  UNL     1      30.132  11.659   0.301  1.00  0.00     0.090 C 
HETATM    8  C9  UNL     1      30.836  12.090  -0.971  1.00  0.00     0.002 A 
HETATM    9  C10 UNL     1      31.694  13.196  -1.138  1.00  0.00     0.000 A 
HETATM   10  C11 UNL     1      32.294  13.383  -2.364  1.00  0.00     0.050 A 
HETATM   11  C12 UNL     1      32.073  12.516  -3.420  1.00  0.00     0.106 A 
HETATM   12  C13 UNL     1      31.232  11.468  -3.194  1.00  0.00     0.072 A 
HETATM   13  C14 UNL     1      30.584  11.222  -1.961  1.00  0.00     0.113 A 
ENDROOT
BRANCH   1  14
HETATM   14  N1  UNL     1      33.773  15.700   0.390  1.00  0.00    -0.341 N 
HETATM   15  C1  UNL     1      34.228  16.978  -0.126  1.00  0.00     0.167 C 
ATOM     16  H1  UNL     1      33.860  15.528   1.391  1.00  0.00     0.179 HD
ENDBRANCH   1  14
BRANCH   7  17
HETATM   17  C7  UNL     1      30.820  10.428   0.916  1.00  0.00     0.047 C 
BRANCH  17  18
HETATM   18  C8  UNL     1      29.708   9.708   1.671  1.00  0.00     0.165 C 
BRANCH  18  19
HETATM   19  O1  UNL     1      29.170   8.734   0.868  1.00  0.00    -0.401 OA
ATOM     20  H1  UNL     1      28.461   9.105   0.355  1.00  0.00     0.209 HD
ENDBRANCH  18  19
ENDBRANCH  17  18
ENDBRANCH   7  17
BRANCH  13  21
HETATM   21  N4  UNL     1      29.775  10.095  -1.943  1.00  0.00    -0.115 N 
HETATM   22  O4  UNL     1      28.569  10.054  -2.035  1.00  0.00    -0.532 OA
HETATM   23  O5  UNL     1      30.405   8.855  -1.883  1.00  0.00    -0.532 OA
ENDBRANCH  13  21
BRANCH  11  24
HETATM   24  N3  UNL     1      32.708  12.737  -4.669  1.00  0.00    -0.116 N 
HETATM   25  O2  UNL     1      33.083  11.784  -5.376  1.00  0.00    -0.532 OA
HETATM   26  O3  UNL     1      32.934  14.003  -5.147  1.00  0.00    -0.532 OA
ENDBRANCH  11  24
TORSDOF 6
ENDMDL
