MODEL 1
REMARK VINA RESULT: -9.130640590      0.000      0.000
REMARK  14 active torsions:
REMARK  status: ('A' for Active; 'I' for Inactive)
REMARK    1  A    between atoms: C2_2  and  C3_3 
REMARK    2  A    between atoms: C3_3  and  C4_4 
REMARK    3  A    between atoms: C4_4  and  C5_5 
REMARK    4  A    between atoms: C5_5  and  C6_6 
REMARK    5  A    between atoms: C6_6  and  C7_7 
REMARK    6  A    between atoms: C11_12  and  C12_13 
REMARK    7  A    between atoms: C12_13  and  O2_16 
REMARK    8  A    between atoms: C15_19  and  O4_20 
REMARK    9  A    between atoms: O4_20  and  C16_21 
REMARK   10  A    between atoms: C17_23  and  C18_24 
REMARK   11  A    between atoms: C18_24  and  O6_25 
REMARK   12  A    between atoms: C19_27  and  O7_28 
REMARK   13  A    between atoms: C20_30  and  O8_31 
REMARK   14  A    between atoms: C21_33  and  O9_34 
ROOT
HETATM    1  C7  UNL     1      31.861  13.031   1.064  1.00  0.00    -0.003 C 
HETATM    2  C8  UNL     1      31.724  13.451  -0.339  1.00  0.00     0.008 C 
HETATM    3  C9  UNL     1      30.373  14.122  -0.526  1.00  0.00     0.033 C 
HETATM    4  C10 UNL     1      29.523  13.563   0.625  1.00  0.00     0.134 C 
HETATM    5  O1  UNL     1      28.626  12.633   0.197  1.00  0.00    -0.352 OA
HETATM    6  C11 UNL     1      28.670  11.385   0.721  1.00  0.00     0.296 C 
HETATM    7  O3  UNL     1      29.845  10.969   1.281  1.00  0.00    -0.328 OA
HETATM    8  C15 UNL     1      30.108  11.843   2.364  1.00  0.00     0.273 C 
HETATM    9  C22 UNL     1      30.485  13.158   1.680  1.00  0.00     0.074 C 
ENDROOT
BRANCH   8  10
HETATM   10  O4  UNL     1      31.146  11.306   3.067  1.00  0.00    -0.328 OA
BRANCH  10  11
HETATM   11  C16 UNL     1      30.934  10.060   3.595  1.00  0.00     0.294 C 
HETATM   12  O5  UNL     1      30.688  10.094   4.988  1.00  0.00    -0.348 OA
HETATM   13  C17 UNL     1      30.425   8.764   5.338  1.00  0.00     0.179 C 
HETATM   14  C19 UNL     1      31.712   7.976   5.461  1.00  0.00     0.180 C 
HETATM   15  C20 UNL     1      32.724   8.658   4.548  1.00  0.00     0.183 C 
HETATM   16  C21 UNL     1      31.970   9.045   3.277  1.00  0.00     0.204 C 
BRANCH  13  17
HETATM   17  C18 UNL     1      29.661   8.666   6.633  1.00  0.00     0.198 C 
BRANCH  17  18
HETATM   18  O6  UNL     1      29.395   7.313   6.851  1.00  0.00    -0.398 OA
ATOM     19  H6  UNL     1      30.202   6.916   7.157  1.00  0.00     0.209 HD
ENDBRANCH  17  18
ENDBRANCH  13  17
BRANCH  14  20
HETATM   20  O7  UNL     1      31.582   6.667   5.056  1.00  0.00    -0.390 OA
ATOM     21  H7  UNL     1      32.029   6.485   4.238  1.00  0.00     0.210 HD
ENDBRANCH  14  20
BRANCH  15  22
HETATM   22  O8  UNL     1      33.794   7.833   4.282  1.00  0.00    -0.390 OA
ATOM     23  H8  UNL     1      34.408   8.245   3.687  1.00  0.00     0.210 HD
ENDBRANCH  15  22
BRANCH  16  24
HETATM   24  O9  UNL     1      31.440   7.848   2.772  1.00  0.00    -0.388 OA
ATOM     25  H9  UNL     1      30.672   7.975   2.227  1.00  0.00     0.210 HD
ENDBRANCH  16  24
ENDBRANCH  10  11
ENDBRANCH   8  10
BRANCH   6  26
HETATM   26  C12 UNL     1      28.174  10.414  -0.345  1.00  0.00     0.100 C 
HETATM   27  C13 UNL     1      27.879   9.086   0.296  1.00  0.00     0.051 C 
HETATM   28  C14 UNL     1      29.167  10.209  -1.444  1.00  0.00     0.051 C 
BRANCH  26  29
HETATM   29  O2  UNL     1      26.998  10.918  -0.946  1.00  0.00    -0.386 OA
ATOM     30  H2  UNL     1      26.258  10.792  -0.364  1.00  0.00     0.210 HD
ENDBRANCH  26  29
ENDBRANCH   6  26
BRANCH   1  31
HETATM   31  C6  UNL     1      32.868  13.767   1.883  1.00  0.00     0.005 C 
BRANCH  31  32
HETATM   32  C5  UNL     1      32.654  15.240   1.979  1.00  0.00     0.000 C 
BRANCH  32  33
HETATM   33  C4  UNL     1      33.685  16.010   1.168  1.00  0.00     0.000 C 
BRANCH  33  34
HETATM   34  C3  UNL     1      33.033  17.314   0.760  1.00  0.00    -0.000 C 
BRANCH  34  35
HETATM   35  C2  UNL     1      31.524  17.224   0.831  1.00  0.00    -0.005 C 
HETATM   36  C1  UNL     1      30.943  17.867  -0.414  1.00  0.00     0.005 C 
ENDBRANCH  34  35
ENDBRANCH  33  34
ENDBRANCH  32  33
ENDBRANCH  31  32
ENDBRANCH   1  31
TORSDOF 14
ENDMDL
MODEL 2
REMARK VINA RESULT: -9.125376550      1.000      1.128
REMARK  14 active torsions:
REMARK  status: ('A' for Active; 'I' for Inactive)
REMARK    1  A    between atoms: C2_2  and  C3_3 
REMARK    2  A    between atoms: C3_3  and  C4_4 
REMARK    3  A    between atoms: C4_4  and  C5_5 
REMARK    4  A    between atoms: C5_5  and  C6_6 
REMARK    5  A    between atoms: C6_6  and  C7_7 
REMARK    6  A    between atoms: C11_12  and  C12_13 
REMARK    7  A    between atoms: C12_13  and  O2_16 
REMARK    8  A    between atoms: C15_19  and  O4_20 
REMARK    9  A    between atoms: O4_20  and  C16_21 
REMARK   10  A    between atoms: C17_23  and  C18_24 
REMARK   11  A    between atoms: C18_24  and  O6_25 
REMARK   12  A    between atoms: C19_27  and  O7_28 
REMARK   13  A    between atoms: C20_30  and  O8_31 
REMARK   14  A    between atoms: C21_33  and  O9_34 
ROOT
HETATM    1  C7  UNL     1      31.755  13.111   0.781  1.00  0.00    -0.003 C 
HETATM    2  C8  UNL     1      31.310  13.899  -0.378  1.00  0.00     0.008 C 
HETATM    3  C9  UNL     1      29.897  14.397  -0.126  1.00  0.00     0.033 C 
HETATM    4  C10 UNL     1      29.340  13.411   0.912  1.00  0.00     0.134 C 
HETATM    5  O1  UNL     1      28.459  12.530   0.365  1.00  0.00    -0.352 OA
HETATM    6  C11 UNL     1      28.711  11.203   0.456  1.00  0.00     0.296 C 
HETATM    7  O3  UNL     1      30.005  10.811   0.661  1.00  0.00    -0.328 OA
HETATM    8  C15 UNL     1      30.400  11.358   1.906  1.00  0.00     0.273 C 
HETATM    9  C22 UNL     1      30.521  12.855   1.618  1.00  0.00     0.074 C 
ENDROOT
BRANCH   8  10
HETATM   10  O4  UNL     1      31.597  10.791   2.229  1.00  0.00    -0.328 OA
BRANCH  10  11
HETATM   11  C16 UNL     1      31.538   9.639   2.968  1.00  0.00     0.294 C 
HETATM   12  O5  UNL     1      30.253   9.411   3.515  1.00  0.00    -0.348 OA
HETATM   13  C17 UNL     1      30.356   8.175   4.165  1.00  0.00     0.179 C 
HETATM   14  C19 UNL     1      31.035   8.328   5.509  1.00  0.00     0.180 C 
HETATM   15  C20 UNL     1      31.936   9.554   5.399  1.00  0.00     0.183 C 
HETATM   16  C21 UNL     1      32.580   9.495   4.015  1.00  0.00     0.204 C 
BRANCH  13  17
HETATM   17  C18 UNL     1      29.007   7.532   4.365  1.00  0.00     0.198 C 
BRANCH  17  18
HETATM   18  O6  UNL     1      29.203   6.410   5.172  1.00  0.00    -0.398 OA
ATOM     19  H6  UNL     1      29.566   5.728   4.618  1.00  0.00     0.209 HD
ENDBRANCH  17  18
ENDBRANCH  13  17
BRANCH  14  20
HETATM   20  O7  UNL     1      31.820   7.248   5.843  1.00  0.00    -0.390 OA
ATOM     21  H7  UNL     1      32.467   7.450   6.509  1.00  0.00     0.210 HD
ENDBRANCH  14  20
BRANCH  15  22
HETATM   22  O8  UNL     1      32.876   9.575   6.405  1.00  0.00    -0.390 OA
ATOM     23  H8  UNL     1      32.903   8.748   6.870  1.00  0.00     0.210 HD
ENDBRANCH  15  22
BRANCH  16  24
HETATM   24  O9  UNL     1      33.255   8.266   3.963  1.00  0.00    -0.388 OA
ATOM     25  H9  UNL     1      34.190   8.342   4.117  1.00  0.00     0.210 HD
ENDBRANCH  16  24
ENDBRANCH  10  11
ENDBRANCH   8  10
BRANCH   6  26
HETATM   26  C12 UNL     1      28.100  10.527  -0.766  1.00  0.00     0.100 C 
HETATM   27  C13 UNL     1      27.901   9.065  -0.475  1.00  0.00     0.051 C 
HETATM   28  C14 UNL     1      28.955  10.662  -1.986  1.00  0.00     0.051 C 
BRANCH  26  29
HETATM   29  O2  UNL     1      26.855  11.120  -1.072  1.00  0.00    -0.386 OA
ATOM     30  H2  UNL     1      26.307  10.499  -1.539  1.00  0.00     0.210 HD
ENDBRANCH  26  29
ENDBRANCH   6  26
BRANCH   1  31
HETATM   31  C6  UNL     1      32.838  13.708   1.617  1.00  0.00     0.005 C 
BRANCH  31  32
HETATM   32  C5  UNL     1      32.699  15.170   1.882  1.00  0.00     0.000 C 
BRANCH  32  33
HETATM   33  C4  UNL     1      33.841  15.962   1.262  1.00  0.00     0.000 C 
BRANCH  33  34
HETATM   34  C3  UNL     1      33.224  17.188   0.623  1.00  0.00    -0.000 C 
BRANCH  34  35
HETATM   35  C2  UNL     1      31.754  17.308   0.963  1.00  0.00    -0.005 C 
HETATM   36  C1  UNL     1      31.051  18.017  -0.180  1.00  0.00     0.005 C 
ENDBRANCH  34  35
ENDBRANCH  33  34
ENDBRANCH  32  33
ENDBRANCH  31  32
ENDBRANCH   1  31
TORSDOF 14
ENDMDL
MODEL 3
REMARK VINA RESULT: -8.804682634      0.974      1.910
REMARK  14 active torsions:
REMARK  status: ('A' for Active; 'I' for Inactive)
REMARK    1  A    between atoms: C2_2  and  C3_3 
REMARK    2  A    between atoms: C3_3  and  C4_4 
REMARK    3  A    between atoms: C4_4  and  C5_5 
REMARK    4  A    between atoms: C5_5  and  C6_6 
REMARK    5  A    between atoms: C6_6  and  C7_7 
REMARK    6  A    between atoms: C11_12  and  C12_13 
REMARK    7  A    between atoms: C12_13  and  O2_16 
REMARK    8  A    between atoms: C15_19  and  O4_20 
REMARK    9  A    between atoms: O4_20  and  C16_21 
REMARK   10  A    between atoms: C17_23  and  C18_24 
REMARK   11  A    between atoms: C18_24  and  O6_25 
REMARK   12  A    between atoms: C19_27  and  O7_28 
REMARK   13  A    between atoms: C20_30  and  O8_31 
REMARK   14  A    between atoms: C21_33  and  O9_34 
ROOT
HETATM    1  C7  UNL     1      31.776  13.129   0.613  1.00  0.00    -0.003 C 
HETATM    2  C8  UNL     1      31.273  13.915  -0.524  1.00  0.00     0.008 C 
HETATM    3  C9  UNL     1      29.867  14.397  -0.210  1.00  0.00     0.033 C 
HETATM    4  C10 UNL     1      29.366  13.403   0.848  1.00  0.00     0.134 C 
HETATM    5  O1  UNL     1      28.471  12.514   0.337  1.00  0.00    -0.352 OA
HETATM    6  C11 UNL     1      28.741  11.190   0.415  1.00  0.00     0.296 C 
HETATM    7  O3  UNL     1      30.047  10.811   0.563  1.00  0.00    -0.328 OA
HETATM    8  C15 UNL     1      30.488  11.360   1.791  1.00  0.00     0.273 C 
HETATM    9  C22 UNL     1      30.582  12.859   1.502  1.00  0.00     0.074 C 
ENDROOT
BRANCH   8  10
HETATM   10  O4  UNL     1      31.705  10.805   2.062  1.00  0.00    -0.328 OA
BRANCH  10  11
HETATM   11  C16 UNL     1      31.812  10.146   3.258  1.00  0.00     0.294 C 
HETATM   12  O5  UNL     1      32.422   8.876   3.125  1.00  0.00    -0.348 OA
HETATM   13  C17 UNL     1      32.515   8.386   4.433  1.00  0.00     0.179 C 
HETATM   14  C19 UNL     1      31.184   7.833   4.896  1.00  0.00     0.180 C 
HETATM   15  C20 UNL     1      30.111   8.578   4.111  1.00  0.00     0.183 C 
HETATM   16  C21 UNL     1      30.558  10.038   4.045  1.00  0.00     0.204 C 
BRANCH  13  17
HETATM   17  C18 UNL     1      33.565   7.311   4.557  1.00  0.00     0.198 C 
BRANCH  17  18
HETATM   18  O6  UNL     1      33.399   6.717   5.808  1.00  0.00    -0.398 OA
ATOM     19  H6  UNL     1      32.495   6.430   5.863  1.00  0.00     0.209 HD
ENDBRANCH  17  18
ENDBRANCH  13  17
BRANCH  14  20
HETATM   20  O7  UNL     1      30.953   8.037   6.238  1.00  0.00    -0.390 OA
ATOM     21  H7  UNL     1      30.375   8.772   6.408  1.00  0.00     0.210 HD
ENDBRANCH  14  20
BRANCH  15  22
HETATM   22  O8  UNL     1      28.874   8.444   4.700  1.00  0.00    -0.390 OA
ATOM     23  H8  UNL     1      28.199   8.871   4.188  1.00  0.00     0.210 HD
ENDBRANCH  15  22
BRANCH  16  24
HETATM   24  O9  UNL     1      30.699  10.452   5.378  1.00  0.00    -0.388 OA
ATOM     25  H9  UNL     1      29.936  10.906   5.716  1.00  0.00     0.210 HD
ENDBRANCH  16  24
ENDBRANCH  10  11
ENDBRANCH   8  10
BRANCH   6  26
HETATM   26  C12 UNL     1      28.086  10.509  -0.782  1.00  0.00     0.100 C 
HETATM   27  C13 UNL     1      27.856   9.058  -0.461  1.00  0.00     0.051 C 
HETATM   28  C14 UNL     1      28.916  10.602  -2.023  1.00  0.00     0.051 C 
BRANCH  26  29
HETATM   29  O2  UNL     1      26.849  11.129  -1.071  1.00  0.00    -0.386 OA
ATOM     30  H2  UNL     1      26.232  10.484  -1.395  1.00  0.00     0.210 HD
ENDBRANCH  26  29
ENDBRANCH   6  26
BRANCH   1  31
HETATM   31  C6  UNL     1      32.887  13.737   1.404  1.00  0.00     0.005 C 
BRANCH  31  32
HETATM   32  C5  UNL     1      32.697  15.172   1.762  1.00  0.00     0.000 C 
BRANCH  32  33
HETATM   33  C4  UNL     1      33.834  16.036   1.234  1.00  0.00     0.000 C 
BRANCH  33  34
HETATM   34  C3  UNL     1      33.200  17.278   0.644  1.00  0.00    -0.000 C 
BRANCH  34  35
HETATM   35  C2  UNL     1      31.715  17.329   0.930  1.00  0.00    -0.005 C 
HETATM   36  C1  UNL     1      31.009  17.903  -0.285  1.00  0.00     0.005 C 
ENDBRANCH  34  35
ENDBRANCH  33  34
ENDBRANCH  32  33
ENDBRANCH  31  32
ENDBRANCH   1  31
TORSDOF 14
ENDMDL
MODEL 4
REMARK VINA RESULT: -8.788044908      1.044      1.119
REMARK  14 active torsions:
REMARK  status: ('A' for Active; 'I' for Inactive)
REMARK    1  A    between atoms: C2_2  and  C3_3 
REMARK    2  A    between atoms: C3_3  and  C4_4 
REMARK    3  A    between atoms: C4_4  and  C5_5 
REMARK    4  A    between atoms: C5_5  and  C6_6 
REMARK    5  A    between atoms: C6_6  and  C7_7 
REMARK    6  A    between atoms: C11_12  and  C12_13 
REMARK    7  A    between atoms: C12_13  and  O2_16 
REMARK    8  A    between atoms: C15_19  and  O4_20 
REMARK    9  A    between atoms: O4_20  and  C16_21 
REMARK   10  A    between atoms: C17_23  and  C18_24 
REMARK   11  A    between atoms: C18_24  and  O6_25 
REMARK   12  A    between atoms: C19_27  and  O7_28 
REMARK   13  A    between atoms: C20_30  and  O8_31 
REMARK   14  A    between atoms: C21_33  and  O9_34 
ROOT
HETATM    1  C7  UNL     1      31.329  13.403   0.686  1.00  0.00    -0.003 C 
HETATM    2  C8  UNL     1      31.325  13.768  -0.738  1.00  0.00     0.008 C 
HETATM    3  C9  UNL     1      29.951  14.299  -1.110  1.00  0.00     0.033 C 
HETATM    4  C10 UNL     1      29.022  13.693  -0.047  1.00  0.00     0.134 C 
HETATM    5  O1  UNL     1      28.273  12.670  -0.540  1.00  0.00    -0.352 OA
HETATM    6  C11 UNL     1      28.369  11.447   0.034  1.00  0.00     0.296 C 
HETATM    7  O3  UNL     1      29.501  11.162   0.745  1.00  0.00    -0.328 OA
HETATM    8  C15 UNL     1      29.548  12.087   1.816  1.00  0.00     0.273 C 
HETATM    9  C22 UNL     1      29.882  13.413   1.130  1.00  0.00     0.074 C 
ENDROOT
BRANCH   8  10
HETATM   10  O4  UNL     1      30.538  11.673   2.658  1.00  0.00    -0.328 OA
BRANCH  10  11
HETATM   11  C16 UNL     1      30.625  10.322   2.866  1.00  0.00     0.294 C 
HETATM   12  O5  UNL     1      29.850   9.891   3.968  1.00  0.00    -0.348 OA
HETATM   13  C17 UNL     1      29.997   8.499   3.987  1.00  0.00     0.179 C 
HETATM   14  C19 UNL     1      31.320   8.106   4.608  1.00  0.00     0.180 C 
HETATM   15  C20 UNL     1      32.270   9.275   4.375  1.00  0.00     0.183 C 
HETATM   16  C21 UNL     1      32.002   9.775   2.956  1.00  0.00     0.204 C 
BRANCH  13  17
HETATM   17  C18 UNL     1      28.879   7.826   4.741  1.00  0.00     0.198 C 
BRANCH  17  18
HETATM   18  O6  UNL     1      29.347   6.572   5.136  1.00  0.00    -0.398 OA
ATOM     19  H6  UNL     1      30.042   6.719   5.766  1.00  0.00     0.209 HD
ENDBRANCH  17  18
ENDBRANCH  13  17
BRANCH  14  20
HETATM   20  O7  UNL     1      31.873   6.983   4.033  1.00  0.00    -0.390 OA
ATOM     21  H7  UNL     1      32.706   7.154   3.609  1.00  0.00     0.210 HD
ENDBRANCH  14  20
BRANCH  15  22
HETATM   22  O8  UNL     1      33.582   8.897   4.549  1.00  0.00    -0.390 OA
ATOM     23  H8  UNL     1      34.131   9.220   3.845  1.00  0.00     0.210 HD
ENDBRANCH  15  22
BRANCH  16  24
HETATM   24  O9  UNL     1      32.219   8.670   2.118  1.00  0.00    -0.388 OA
ATOM     25  H9  UNL     1      31.465   8.096   2.049  1.00  0.00     0.210 HD
ENDBRANCH  16  24
ENDBRANCH  10  11
ENDBRANCH   8  10
BRANCH   6  26
HETATM   26  C12 UNL     1      28.098  10.403  -1.044  1.00  0.00     0.100 C 
HETATM   27  C13 UNL     1      27.933   9.056  -0.397  1.00  0.00     0.051 C 
HETATM   28  C14 UNL     1      29.198  10.320  -2.054  1.00  0.00     0.051 C 
BRANCH  26  29
HETATM   29  O2  UNL     1      26.919  10.734  -1.749  1.00  0.00    -0.386 OA
ATOM     30  H2  UNL     1      26.318   9.999  -1.738  1.00  0.00     0.210 HD
ENDBRANCH  26  29
ENDBRANCH   6  26
BRANCH   1  31
HETATM   31  C6  UNL     1      32.157  14.255   1.590  1.00  0.00     0.005 C 
BRANCH  31  32
HETATM   32  C5  UNL     1      33.044  15.235   0.899  1.00  0.00     0.000 C 
BRANCH  32  33
HETATM   33  C4  UNL     1      32.705  16.667   1.287  1.00  0.00     0.000 C 
BRANCH  33  34
HETATM   34  C3  UNL     1      31.905  17.251   0.141  1.00  0.00    -0.000 C 
BRANCH  34  35
HETATM   35  C2  UNL     1      30.719  18.045   0.644  1.00  0.00    -0.005 C 
HETATM   36  C1  UNL     1      29.718  17.082   1.256  1.00  0.00     0.005 C 
ENDBRANCH  34  35
ENDBRANCH  33  34
ENDBRANCH  32  33
ENDBRANCH  31  32
ENDBRANCH   1  31
TORSDOF 14
ENDMDL
MODEL 5
REMARK VINA RESULT: -8.755413962      1.354      2.011
REMARK  14 active torsions:
REMARK  status: ('A' for Active; 'I' for Inactive)
REMARK    1  A    between atoms: C2_2  and  C3_3 
REMARK    2  A    between atoms: C3_3  and  C4_4 
REMARK    3  A    between atoms: C4_4  and  C5_5 
REMARK    4  A    between atoms: C5_5  and  C6_6 
REMARK    5  A    between atoms: C6_6  and  C7_7 
REMARK    6  A    between atoms: C11_12  and  C12_13 
REMARK    7  A    between atoms: C12_13  and  O2_16 
REMARK    8  A    between atoms: C15_19  and  O4_20 
REMARK    9  A    between atoms: O4_20  and  C16_21 
REMARK   10  A    between atoms: C17_23  and  C18_24 
REMARK   11  A    between atoms: C18_24  and  O6_25 
REMARK   12  A    between atoms: C19_27  and  O7_28 
REMARK   13  A    between atoms: C20_30  and  O8_31 
REMARK   14  A    between atoms: C21_33  and  O9_34 
ROOT
HETATM    1  C7  UNL     1      31.826  12.960   0.842  1.00  0.00    -0.003 C 
HETATM    2  C8  UNL     1      31.364  13.802  -0.271  1.00  0.00     0.008 C 
HETATM    3  C9  UNL     1      29.964  14.307   0.035  1.00  0.00     0.033 C 
HETATM    4  C10 UNL     1      29.419  13.286   1.045  1.00  0.00     0.134 C 
HETATM    5  O1  UNL     1      28.513  12.440   0.482  1.00  0.00    -0.352 OA
HETATM    6  C11 UNL     1      28.749  11.107   0.512  1.00  0.00     0.296 C 
HETATM    7  O3  UNL     1      30.042  10.690   0.668  1.00  0.00    -0.328 OA
HETATM    8  C15 UNL     1      30.473  11.179   1.925  1.00  0.00     0.273 C 
HETATM    9  C22 UNL     1      30.608  12.686   1.698  1.00  0.00     0.074 C 
ENDROOT
BRANCH   8  10
HETATM   10  O4  UNL     1      31.670  10.584   2.196  1.00  0.00    -0.328 OA
BRANCH  10  11
HETATM   11  C16 UNL     1      31.621   9.466   2.985  1.00  0.00     0.294 C 
HETATM   12  O5  UNL     1      30.331   9.233   3.519  1.00  0.00    -0.348 OA
HETATM   13  C17 UNL     1      30.448   8.031   4.227  1.00  0.00     0.179 C 
HETATM   14  C19 UNL     1      31.098   8.262   5.575  1.00  0.00     0.180 C 
HETATM   15  C20 UNL     1      31.973   9.501   5.426  1.00  0.00     0.183 C 
HETATM   16  C21 UNL     1      32.646   9.394   4.058  1.00  0.00     0.204 C 
BRANCH  13  17
HETATM   17  C18 UNL     1      29.111   7.367   4.431  1.00  0.00     0.198 C 
BRANCH  17  18
HETATM   18  O6  UNL     1      29.278   6.406   5.428  1.00  0.00    -0.398 OA
ATOM     19  H6  UNL     1      28.470   5.907   5.473  1.00  0.00     0.209 HD
ENDBRANCH  17  18
ENDBRANCH  13  17
BRANCH  14  20
HETATM   20  O7  UNL     1      31.899   7.216   5.973  1.00  0.00    -0.390 OA
ATOM     21  H7  UNL     1      31.828   7.025   6.901  1.00  0.00     0.210 HD
ENDBRANCH  14  20
BRANCH  15  22
HETATM   22  O8  UNL     1      32.892   9.590   6.447  1.00  0.00    -0.390 OA
ATOM     23  H8  UNL     1      33.736   9.245   6.182  1.00  0.00     0.210 HD
ENDBRANCH  15  22
BRANCH  16  24
HETATM   24  O9  UNL     1      33.349   8.179   4.075  1.00  0.00    -0.388 OA
ATOM     25  H9  UNL     1      34.092   8.165   3.484  1.00  0.00     0.210 HD
ENDBRANCH  16  24
ENDBRANCH  10  11
ENDBRANCH   8  10
BRANCH   6  26
HETATM   26  C12 UNL     1      28.100  10.491  -0.723  1.00  0.00     0.100 C 
HETATM   27  C13 UNL     1      27.850   9.029  -0.473  1.00  0.00     0.051 C 
HETATM   28  C14 UNL     1      28.946  10.631  -1.949  1.00  0.00     0.051 C 
BRANCH  26  29
HETATM   29  O2  UNL     1      26.874  11.138  -0.996  1.00  0.00    -0.386 OA
ATOM     30  H2  UNL     1      26.500  10.797  -1.801  1.00  0.00     0.210 HD
ENDBRANCH  26  29
ENDBRANCH   6  26
BRANCH   1  31
HETATM   31  C6  UNL     1      32.935  13.508   1.677  1.00  0.00     0.005 C 
BRANCH  31  32
HETATM   32  C5  UNL     1      32.833  14.963   1.990  1.00  0.00     0.000 C 
BRANCH  32  33
HETATM   33  C4  UNL     1      33.897  15.769   1.260  1.00  0.00     0.000 C 
BRANCH  33  34
HETATM   34  C3  UNL     1      34.987  14.795   0.864  1.00  0.00    -0.000 C 
BRANCH  34  35
HETATM   35  C2  UNL     1      36.359  15.419   0.990  1.00  0.00    -0.005 C 
HETATM   36  C1  UNL     1      37.210  14.953  -0.177  1.00  0.00     0.005 C 
ENDBRANCH  34  35
ENDBRANCH  33  34
ENDBRANCH  32  33
ENDBRANCH  31  32
ENDBRANCH   1  31
TORSDOF 14
ENDMDL
