MODEL 1
REMARK VINA RESULT: -7.724208987      0.000      0.000
REMARK  3 active torsions:
REMARK  status: ('A' for Active; 'I' for Inactive)
REMARK    1  A    between atoms: C9_9  and  N1_10 
REMARK       I    between atoms: N1_10  and  C10_12 
REMARK    2  A    between atoms: C10_12  and  O2_14 
REMARK    3  A    between atoms: O2_14  and  C11_15 
ROOT
HETATM    1  C1  UNL     1      42.492  20.636  29.660  1.00  0.00     0.045 C 
HETATM    2  C2  UNL     1      41.853  19.300  29.642  1.00  0.00    -0.056 C 
HETATM    3  C3  UNL     1      41.288  18.724  30.696  1.00  0.00    -0.076 C 
HETATM    4  C4  UNL     1      41.313  19.508  31.984  1.00  0.00     0.044 C 
HETATM    5  C5  UNL     1      40.671  17.387  30.616  1.00  0.00     0.103 C 
HETATM    6  C6  UNL     1      40.234  16.951  29.262  1.00  0.00     0.292 C 
HETATM    7  C7  UNL     1      40.938  15.655  28.829  1.00  0.00     0.074 C 
HETATM    8  C8  UNL     1      39.953  15.162  27.778  1.00  0.00     0.059 C 
HETATM    9  C9  UNL     1      38.638  15.398  28.529  1.00  0.00     0.291 C 
HETATM   10  N2  UNL     1      38.809  16.643  29.209  1.00  0.00    -0.019 N 
ATOM     11  H21 UNL     1      38.262  17.396  28.791  1.00  0.00     0.282 HD
ATOM     12  H22 UNL     1      38.373  16.649  30.131  1.00  0.00     0.282 HD
HETATM   13  N3  UNL     1      40.476  17.972  28.298  1.00  0.00    -0.036 N 
ATOM     14  H31 UNL     1      39.775  18.710  28.368  1.00  0.00     0.280 HD
ATOM     15  H32 UNL     1      40.274  17.637  27.357  1.00  0.00     0.280 HD
HETATM   16  C15 UNL     1      41.819  18.528  28.372  1.00  0.00     0.269 C 
ENDROOT
BRANCH   9  17
HETATM   17  N1  UNL     1      38.471  14.269  29.412  1.00  0.00    -0.308 N 
HETATM   18  C10 UNL     1      37.998  14.450  30.731  1.00  0.00     0.362 C 
HETATM   19  O1  UNL     1      37.703  15.606  31.190  1.00  0.00    -0.238 OA
ATOM     20  H1  UNL     1      38.697  13.331  29.081  1.00  0.00     0.166 HD
BRANCH  18  21
HETATM   21  O2  UNL     1      37.826  13.400  31.602  1.00  0.00    -0.294 OA
BRANCH  21  22
HETATM   22  C11 UNL     1      36.584  13.114  32.194  1.00  0.00     0.061 C 
HETATM   23  C12 UNL     1      36.497  13.699  33.608  1.00  0.00     0.046 C 
HETATM   24  C13 UNL     1      35.403  13.497  31.371  1.00  0.00     0.046 C 
HETATM   25  C14 UNL     1      36.536  11.597  32.384  1.00  0.00     0.046 C 
ENDBRANCH  21  22
ENDBRANCH  18  21
ENDBRANCH   9  17
TORSDOF 3
ENDMDL
MODEL 2
REMARK VINA RESULT: -7.704679575      1.112      1.282
REMARK  3 active torsions:
REMARK  status: ('A' for Active; 'I' for Inactive)
REMARK    1  A    between atoms: C9_9  and  N1_10 
REMARK       I    between atoms: N1_10  and  C10_12 
REMARK    2  A    between atoms: C10_12  and  O2_14 
REMARK    3  A    between atoms: O2_14  and  C11_15 
ROOT
HETATM    1  C1  UNL     1      42.388  21.523  30.465  1.00  0.00     0.045 C 
HETATM    2  C2  UNL     1      41.788  20.172  30.543  1.00  0.00    -0.056 C 
HETATM    3  C3  UNL     1      41.098  19.715  31.581  1.00  0.00    -0.076 C 
HETATM    4  C4  UNL     1      40.932  20.659  32.745  1.00  0.00     0.044 C 
HETATM    5  C5  UNL     1      40.528  18.355  31.600  1.00  0.00     0.103 C 
HETATM    6  C6  UNL     1      40.288  17.730  30.271  1.00  0.00     0.292 C 
HETATM    7  C7  UNL     1      41.073  16.418  30.113  1.00  0.00     0.074 C 
HETATM    8  C8  UNL     1      40.251  15.753  29.016  1.00  0.00     0.059 C 
HETATM    9  C9  UNL     1      38.841  16.033  29.551  1.00  0.00     0.291 C 
HETATM   10  N2  UNL     1      38.891  17.361  30.074  1.00  0.00    -0.019 N 
ATOM     11  H21 UNL     1      38.388  18.031  29.491  1.00  0.00     0.282 HD
ATOM     12  H22 UNL     1      38.334  17.469  30.922  1.00  0.00     0.282 HD
HETATM   13  N3  UNL     1      40.635  18.626  29.220  1.00  0.00    -0.036 N 
ATOM     14  H31 UNL     1      39.915  19.338  29.098  1.00  0.00     0.280 HD
ATOM     15  H32 UNL     1      40.570  18.164  28.314  1.00  0.00     0.280 HD
HETATM   16  C15 UNL     1      41.943  19.240  29.394  1.00  0.00     0.269 C 
ENDROOT
BRANCH   9  17
HETATM   17  N1  UNL     1      38.581  15.021  30.548  1.00  0.00    -0.308 N 
HETATM   18  C10 UNL     1      37.906  13.829  30.205  1.00  0.00     0.362 C 
HETATM   19  O1  UNL     1      37.501  13.601  29.014  1.00  0.00    -0.238 OA
ATOM     20  H1  UNL     1      38.889  15.169  31.509  1.00  0.00     0.166 HD
BRANCH  18  21
HETATM   21  O2  UNL     1      37.640  12.842  31.125  1.00  0.00    -0.294 OA
BRANCH  21  22
HETATM   22  C11 UNL     1      36.480  12.850  31.918  1.00  0.00     0.061 C 
HETATM   23  C12 UNL     1      36.761  13.442  33.303  1.00  0.00     0.046 C 
HETATM   24  C13 UNL     1      35.298  13.492  31.278  1.00  0.00     0.046 C 
HETATM   25  C14 UNL     1      36.123  11.384  32.173  1.00  0.00     0.046 C 
ENDBRANCH  21  22
ENDBRANCH  18  21
ENDBRANCH   9  17
TORSDOF 3
ENDMDL
MODEL 3
REMARK VINA RESULT: -7.524786184      2.189      3.976
REMARK  3 active torsions:
REMARK  status: ('A' for Active; 'I' for Inactive)
REMARK    1  A    between atoms: C9_9  and  N1_10 
REMARK       I    between atoms: N1_10  and  C10_12 
REMARK    2  A    between atoms: C10_12  and  O2_14 
REMARK    3  A    between atoms: O2_14  and  C11_15 
ROOT
HETATM    1  C1  UNL     1      41.977  16.591  23.655  1.00  0.00     0.045 C 
HETATM    2  C2  UNL     1      41.105  16.417  24.840  1.00  0.00    -0.056 C 
HETATM    3  C3  UNL     1      40.305  15.376  25.036  1.00  0.00    -0.076 C 
HETATM    4  C4  UNL     1      40.306  14.316  23.964  1.00  0.00     0.044 C 
HETATM    5  C5  UNL     1      39.455  15.262  26.237  1.00  0.00     0.103 C 
HETATM    6  C6  UNL     1      39.901  16.037  27.427  1.00  0.00     0.292 C 
HETATM    7  C7  UNL     1      38.833  17.046  27.877  1.00  0.00     0.074 C 
HETATM    8  C8  UNL     1      39.260  17.249  29.325  1.00  0.00     0.059 C 
HETATM    9  C9  UNL     1      39.508  15.789  29.724  1.00  0.00     0.291 C 
HETATM   10  N2  UNL     1      40.134  15.188  28.589  1.00  0.00    -0.019 N 
ATOM     11  H21 UNL     1      41.124  14.998  28.743  1.00  0.00     0.282 HD
ATOM     12  H22 UNL     1      39.829  14.226  28.438  1.00  0.00     0.282 HD
HETATM   13  N3  UNL     1      41.122  16.720  27.157  1.00  0.00    -0.036 N 
ATOM     14  H31 UNL     1      41.912  16.076  27.189  1.00  0.00     0.280 HD
ATOM     15  H32 UNL     1      41.372  17.333  27.934  1.00  0.00     0.280 HD
HETATM   16  C15 UNL     1      41.107  17.456  25.902  1.00  0.00     0.269 C 
ENDROOT
BRANCH   9  17
HETATM   17  N1  UNL     1      38.214  15.233  30.040  1.00  0.00    -0.308 N 
HETATM   18  C10 UNL     1      38.037  13.836  30.147  1.00  0.00     0.362 C 
HETATM   19  O1  UNL     1      39.003  13.018  29.970  1.00  0.00    -0.238 OA
ATOM     20  H1  UNL     1      37.419  15.856  30.188  1.00  0.00     0.166 HD
BRANCH  18  21
HETATM   21  O2  UNL     1      36.821  13.268  30.447  1.00  0.00    -0.294 OA
BRANCH  21  22
HETATM   22  C11 UNL     1      36.331  13.196  31.763  1.00  0.00     0.061 C 
HETATM   23  C12 UNL     1      36.155  11.740  32.208  1.00  0.00     0.046 C 
HETATM   24  C13 UNL     1      37.114  13.981  32.758  1.00  0.00     0.046 C 
HETATM   25  C14 UNL     1      34.918  13.780  31.729  1.00  0.00     0.046 C 
ENDBRANCH  21  22
ENDBRANCH  18  21
ENDBRANCH   9  17
TORSDOF 3
ENDMDL
MODEL 4
REMARK VINA RESULT: -7.518181877      2.922      7.004
REMARK  3 active torsions:
REMARK  status: ('A' for Active; 'I' for Inactive)
REMARK    1  A    between atoms: C9_9  and  N1_10 
REMARK       I    between atoms: N1_10  and  C10_12 
REMARK    2  A    between atoms: C10_12  and  O2_14 
REMARK    3  A    between atoms: O2_14  and  C11_15 
ROOT
HETATM    1  C1  UNL     1      37.359  14.479  33.355  1.00  0.00     0.045 C 
HETATM    2  C2  UNL     1      37.947  15.315  32.284  1.00  0.00    -0.056 C 
HETATM    3  C3  UNL     1      38.455  16.527  32.472  1.00  0.00    -0.076 C 
HETATM    4  C4  UNL     1      38.419  17.060  33.881  1.00  0.00     0.044 C 
HETATM    5  C5  UNL     1      39.023  17.314  31.361  1.00  0.00     0.103 C 
HETATM    6  C6  UNL     1      39.486  16.536  30.180  1.00  0.00     0.292 C 
HETATM    7  C7  UNL     1      38.747  16.956  28.900  1.00  0.00     0.074 C 
HETATM    8  C8  UNL     1      39.745  16.477  27.854  1.00  0.00     0.059 C 
HETATM    9  C9  UNL     1      41.044  16.988  28.488  1.00  0.00     0.291 C 
HETATM   10  N2  UNL     1      40.899  16.752  29.890  1.00  0.00    -0.019 N 
ATOM     11  H21 UNL     1      41.487  15.987  30.221  1.00  0.00     0.282 HD
ATOM     12  H22 UNL     1      41.305  17.496  30.457  1.00  0.00     0.282 HD
HETATM   13  N3  UNL     1      39.314  15.138  30.396  1.00  0.00    -0.036 N 
ATOM     14  H31 UNL     1      40.040  14.774  31.013  1.00  0.00     0.280 HD
ATOM     15  H32 UNL     1      39.532  14.611  29.550  1.00  0.00     0.280 HD
HETATM   16  C15 UNL     1      37.991  14.790  30.894  1.00  0.00     0.269 C 
ENDROOT
BRANCH   9  17
HETATM   17  N1  UNL     1      41.139  18.386  28.138  1.00  0.00    -0.308 N 
HETATM   18  C10 UNL     1      42.038  19.238  28.817  1.00  0.00     0.362 C 
HETATM   19  O1  UNL     1      42.793  18.812  29.757  1.00  0.00    -0.238 OA
ATOM     20  H1  UNL     1      40.552  18.761  27.394  1.00  0.00     0.166 HD
BRANCH  18  21
HETATM   21  O2  UNL     1      42.159  20.574  28.513  1.00  0.00    -0.294 OA
BRANCH  21  22
HETATM   22  C11 UNL     1      42.523  21.021  27.232  1.00  0.00     0.061 C 
HETATM   23  C12 UNL     1      43.789  20.312  26.737  1.00  0.00     0.046 C 
HETATM   24  C13 UNL     1      41.431  20.957  26.221  1.00  0.00     0.046 C 
HETATM   25  C14 UNL     1      42.919  22.490  27.384  1.00  0.00     0.046 C 
ENDBRANCH  21  22
ENDBRANCH  18  21
ENDBRANCH   9  17
TORSDOF 3
ENDMDL
MODEL 5
REMARK VINA RESULT: -7.464546428      0.951      1.050
REMARK  3 active torsions:
REMARK  status: ('A' for Active; 'I' for Inactive)
REMARK    1  A    between atoms: C9_9  and  N1_10 
REMARK       I    between atoms: N1_10  and  C10_12 
REMARK    2  A    between atoms: C10_12  and  O2_14 
REMARK    3  A    between atoms: O2_14  and  C11_15 
ROOT
HETATM    1  C1  UNL     1      42.756  21.124  28.448  1.00  0.00     0.045 C 
HETATM    2  C2  UNL     1      42.074  19.877  28.864  1.00  0.00    -0.056 C 
HETATM    3  C3  UNL     1      41.643  19.632  30.095  1.00  0.00    -0.076 C 
HETATM    4  C4  UNL     1      41.877  20.715  31.117  1.00  0.00     0.044 C 
HETATM    5  C5  UNL     1      40.975  18.365  30.449  1.00  0.00     0.103 C 
HETATM    6  C6  UNL     1      40.336  17.629  29.324  1.00  0.00     0.292 C 
HETATM    7  C7  UNL     1      40.927  16.219  29.163  1.00  0.00     0.074 C 
HETATM    8  C8  UNL     1      39.787  15.544  28.412  1.00  0.00     0.059 C 
HETATM    9  C9  UNL     1      38.599  16.058  29.235  1.00  0.00     0.291 C 
HETATM   10  N2  UNL     1      38.908  17.420  29.535  1.00  0.00    -0.019 N 
ATOM     11  H21 UNL     1      38.335  18.077  29.006  1.00  0.00     0.282 HD
ATOM     12  H22 UNL     1      38.607  17.693  30.470  1.00  0.00     0.282 HD
HETATM   13  N3  UNL     1      40.477  18.350  28.103  1.00  0.00    -0.036 N 
ATOM     14  H31 UNL     1      39.819  19.128  28.064  1.00  0.00     0.280 HD
ATOM     15  H32 UNL     1      40.133  17.799  27.316  1.00  0.00     0.280 HD
HETATM   16  C15 UNL     1      41.835  18.810  27.857  1.00  0.00     0.269 C 
ENDROOT
BRANCH   9  17
HETATM   17  N1  UNL     1      38.519  15.207  30.398  1.00  0.00    -0.308 N 
HETATM   18  C10 UNL     1      37.852  13.963  30.335  1.00  0.00     0.362 C 
HETATM   19  O1  UNL     1      37.300  13.547  29.260  1.00  0.00    -0.238 OA
ATOM     20  H1  UNL     1      38.948  15.506  31.273  1.00  0.00     0.166 HD
BRANCH  18  21
HETATM   21  O2  UNL     1      37.754  13.124  31.420  1.00  0.00    -0.294 OA
BRANCH  21  22
HETATM   22  C11 UNL     1      36.593  13.051  32.208  1.00  0.00     0.061 C 
HETATM   23  C12 UNL     1      36.824  13.666  33.593  1.00  0.00     0.046 C 
HETATM   24  C13 UNL     1      35.370  13.604  31.561  1.00  0.00     0.046 C 
HETATM   25  C14 UNL     1      36.341  11.564  32.467  1.00  0.00     0.046 C 
ENDBRANCH  21  22
ENDBRANCH  18  21
ENDBRANCH   9  17
TORSDOF 3
ENDMDL
