MODEL 1
REMARK VINA RESULT: -5.972075360      0.000      0.000
REMARK  2 active torsions:
REMARK  status: ('A' for Active; 'I' for Inactive)
REMARK    1  A    between atoms: N1_2  and  C2_5 
REMARK    2  A    between atoms: C2_5  and  C3_6 
ROOT
HETATM    1  C2  UNL     1      -2.509   0.622  24.496  1.00  0.00     0.254 C 
HETATM    2  C4  UNL     1      -3.293  -0.656  24.345  1.00  0.00     0.230 C 
HETATM    3  C5  UNL     1      -3.955  -1.133  25.595  1.00  0.00     0.043 C 
HETATM    4  N2  UNL     1      -4.365  -0.369  23.387  1.00  0.00    -0.063 N 
ATOM      5  H21 UNL     1      -5.256  -0.802  23.629  1.00  0.00     0.278 HD
ATOM      6  H22 UNL     1      -4.246  -0.835  22.487  1.00  0.00     0.278 HD
HETATM    7  C6  UNL     1      -4.427   1.088  23.291  1.00  0.00     0.200 C 
HETATM    8  C7  UNL     1      -5.011   1.549  21.986  1.00  0.00     0.041 C 
HETATM    9  C8  UNL     1      -2.916   1.374  23.260  1.00  0.00     0.137 C 
HETATM   10 BR1  UNL     1      -2.108   0.548  21.719  1.00  0.00    -0.086 Br
ENDROOT
BRANCH   1  11
HETATM   11  N1  UNL     1      -2.971   1.263  25.707  1.00  0.00    -0.057 N 
HETATM   12  C1  UNL     1      -2.420   0.680  26.901  1.00  0.00     0.268 C 
ATOM     13  H12 UNL     1      -3.990   1.274  25.746  1.00  0.00     0.278 HD
ATOM     14  H11 UNL     1      -2.793   2.267  25.678  1.00  0.00     0.278 HD
ENDBRANCH   1  11
BRANCH   1  15
HETATM   15  C3  UNL     1      -1.057   0.335  24.560  1.00  0.00     0.214 C 
HETATM   16  O1  UNL     1      -0.204   1.253  24.603  1.00  0.00    -0.646 OA
HETATM   17  O2  UNL     1      -0.593  -0.963  24.577  1.00  0.00    -0.646 OA
ENDBRANCH   1  15
TORSDOF 2
ENDMDL
MODEL 2
REMARK VINA RESULT: -5.951975240      2.794      3.299
REMARK  2 active torsions:
REMARK  status: ('A' for Active; 'I' for Inactive)
REMARK    1  A    between atoms: N1_2  and  C2_5 
REMARK    2  A    between atoms: C2_5  and  C3_6 
ROOT
HETATM    1  C2  UNL     1      -4.106   1.206  26.816  1.00  0.00     0.254 C 
HETATM    2  C4  UNL     1      -4.691  -0.150  26.515  1.00  0.00     0.230 C 
HETATM    3  C5  UNL     1      -6.108  -0.329  26.954  1.00  0.00     0.043 C 
HETATM    4  N2  UNL     1      -4.685  -0.286  25.056  1.00  0.00    -0.063 N 
ATOM      5  H21 UNL     1      -5.519  -0.739  24.683  1.00  0.00     0.278 HD
ATOM      6  H22 UNL     1      -4.011  -0.970  24.711  1.00  0.00     0.278 HD
HETATM    7  C6  UNL     1      -4.469   1.063  24.536  1.00  0.00     0.200 C 
HETATM    8  C7  UNL     1      -3.858   1.055  23.164  1.00  0.00     0.041 C 
HETATM    9  C8  UNL     1      -3.388   1.515  25.533  1.00  0.00     0.137 C 
HETATM   10 BR1  UNL     1      -1.831   0.392  25.389  1.00  0.00    -0.086 Br
ENDROOT
BRANCH   1  11
HETATM   11  N1  UNL     1      -5.214   2.103  27.057  1.00  0.00    -0.057 N 
HETATM   12  C1  UNL     1      -5.185   2.700  28.365  1.00  0.00     0.268 C 
ATOM     13  H12 UNL     1      -6.104   1.632  26.893  1.00  0.00     0.278 HD
ATOM     14  H11 UNL     1      -5.267   2.818  26.332  1.00  0.00     0.278 HD
ENDBRANCH   1  11
BRANCH   1  15
HETATM   15  C3  UNL     1      -3.208   1.133  27.992  1.00  0.00     0.214 C 
HETATM   16  O1  UNL     1      -3.127   0.100  28.698  1.00  0.00    -0.646 OA
HETATM   17  O2  UNL     1      -2.425   2.209  28.351  1.00  0.00    -0.646 OA
ENDBRANCH   1  15
TORSDOF 2
ENDMDL
MODEL 3
REMARK VINA RESULT: -5.929133044      3.647      5.089
REMARK  2 active torsions:
REMARK  status: ('A' for Active; 'I' for Inactive)
REMARK    1  A    between atoms: N1_2  and  C2_5 
REMARK    2  A    between atoms: C2_5  and  C3_6 
ROOT
HETATM    1  C2  UNL     1      -3.779   1.192  26.948  1.00  0.00     0.254 C 
HETATM    2  C4  UNL     1      -3.484   0.419  28.208  1.00  0.00     0.230 C 
HETATM    3  C5  UNL     1      -2.291  -0.475  28.127  1.00  0.00     0.043 C 
HETATM    4  N2  UNL     1      -3.190   1.417  29.241  1.00  0.00    -0.063 N 
ATOM      5  H21 UNL     1      -2.427   1.149  29.862  1.00  0.00     0.278 HD
ATOM      6  H22 UNL     1      -3.911   1.488  29.959  1.00  0.00     0.278 HD
HETATM    7  C6  UNL     1      -2.950   2.668  28.523  1.00  0.00     0.200 C 
HETATM    8  C7  UNL     1      -3.215   3.875  29.376  1.00  0.00     0.041 C 
HETATM    9  C8  UNL     1      -4.089   2.556  27.495  1.00  0.00     0.137 C 
HETATM   10 BR1  UNL     1      -5.795   2.511  28.386  1.00  0.00    -0.086 Br
ENDROOT
BRANCH   1  11
HETATM   11  N1  UNL     1      -2.573   1.178  26.150  1.00  0.00    -0.057 N 
HETATM   12  C1  UNL     1      -2.828   1.080  24.738  1.00  0.00     0.268 C 
ATOM     13  H12 UNL     1      -1.942   0.438  26.457  1.00  0.00     0.278 HD
ATOM     14  H11 UNL     1      -1.991   1.990  26.358  1.00  0.00     0.278 HD
ENDBRANCH   1  11
BRANCH   1  15
HETATM   15  C3  UNL     1      -4.912   0.578  26.217  1.00  0.00     0.214 C 
HETATM   16  O1  UNL     1      -5.269  -0.606  26.427  1.00  0.00    -0.646 OA
HETATM   17  O2  UNL     1      -5.618   1.295  25.274  1.00  0.00    -0.646 OA
ENDBRANCH   1  15
TORSDOF 2
ENDMDL
MODEL 4
REMARK VINA RESULT: -5.899062015      2.431      3.802
REMARK  2 active torsions:
REMARK  status: ('A' for Active; 'I' for Inactive)
REMARK    1  A    between atoms: N1_2  and  C2_5 
REMARK    2  A    between atoms: C2_5  and  C3_6 
ROOT
HETATM    1  C2  UNL     1      -3.515  -0.144  25.369  1.00  0.00     0.254 C 
HETATM    2  C4  UNL     1      -3.003   1.266  25.222  1.00  0.00     0.230 C 
HETATM    3  C5  UNL     1      -3.264   1.889  23.891  1.00  0.00     0.043 C 
HETATM    4  N2  UNL     1      -3.727   2.071  26.210  1.00  0.00    -0.063 N 
ATOM      5  H21 UNL     1      -3.994   2.994  25.869  1.00  0.00     0.278 HD
ATOM      6  H22 UNL     1      -3.145   2.391  26.984  1.00  0.00     0.278 HD
HETATM    7  C6  UNL     1      -4.861   1.250  26.631  1.00  0.00     0.200 C 
HETATM    8  C7  UNL     1      -5.355   1.618  28.000  1.00  0.00     0.041 C 
HETATM    9  C8  UNL     1      -4.132  -0.100  26.738  1.00  0.00     0.137 C 
HETATM   10 BR1  UNL     1      -2.736  -0.005  28.061  1.00  0.00    -0.086 Br
ENDROOT
BRANCH   1  11
HETATM   11  N1  UNL     1      -4.498  -0.349  24.328  1.00  0.00    -0.057 N 
HETATM   12  C1  UNL     1      -3.920  -0.756  23.075  1.00  0.00     0.268 C 
ATOM     13  H12 UNL     1      -5.077   0.482  24.207  1.00  0.00     0.278 HD
ATOM     14  H11 UNL     1      -5.213  -1.010  24.629  1.00  0.00     0.278 HD
ENDBRANCH   1  11
BRANCH   1  15
HETATM   15  C3  UNL     1      -2.401  -1.114  25.254  1.00  0.00     0.214 C 
HETATM   16  O1  UNL     1      -2.551  -2.327  25.534  1.00  0.00    -0.646 OA
HETATM   17  O2  UNL     1      -1.152  -0.711  24.830  1.00  0.00    -0.646 OA
ENDBRANCH   1  15
TORSDOF 2
ENDMDL
MODEL 5
REMARK VINA RESULT: -5.791027908      3.532      4.227
REMARK  2 active torsions:
REMARK  status: ('A' for Active; 'I' for Inactive)
REMARK    1  A    between atoms: N1_2  and  C2_5 
REMARK    2  A    between atoms: C2_5  and  C3_6 
ROOT
HETATM    1  C2  UNL     1      -3.593   1.561  27.850  1.00  0.00     0.254 C 
HETATM    2  C4  UNL     1      -5.084   1.364  27.752  1.00  0.00     0.230 C 
HETATM    3  C5  UNL     1      -5.897   2.563  28.114  1.00  0.00     0.043 C 
HETATM    4  N2  UNL     1      -5.368   1.076  26.343  1.00  0.00    -0.063 N 
ATOM      5  H21 UNL     1      -6.219   1.520  25.998  1.00  0.00     0.278 HD
ATOM      6  H22 UNL     1      -5.657   0.113  26.171  1.00  0.00     0.278 HD
HETATM    7  C6  UNL     1      -4.164   1.467  25.611  1.00  0.00     0.200 C 
HETATM    8  C7  UNL     1      -4.025   0.734  24.308  1.00  0.00     0.041 C 
HETATM    9  C8  UNL     1      -3.117   0.902  26.586  1.00  0.00     0.137 C 
HETATM   10 BR1  UNL     1      -3.315  -1.006  26.751  1.00  0.00    -0.086 Br
ENDROOT
BRANCH   1  11
HETATM   11  N1  UNL     1      -3.353   2.987  27.852  1.00  0.00    -0.057 N 
HETATM   12  C1  UNL     1      -2.612   3.435  29.001  1.00  0.00     0.268 C 
ATOM     13  H12 UNL     1      -4.229   3.503  27.761  1.00  0.00     0.278 HD
ATOM     14  H11 UNL     1      -2.896   3.280  26.989  1.00  0.00     0.278 HD
ENDBRANCH   1  11
BRANCH   1  15
HETATM   15  C3  UNL     1      -3.067   0.926  29.080  1.00  0.00     0.214 C 
HETATM   16  O1  UNL     1      -3.716   0.926  30.153  1.00  0.00    -0.646 OA
HETATM   17  O2  UNL     1      -1.833   0.309  29.086  1.00  0.00    -0.646 OA
ENDBRANCH   1  15
TORSDOF 2
ENDMDL
