MODEL 1
REMARK VINA RESULT: -10.138543994      0.000      0.000
REMARK  14 active torsions:
REMARK  status: ('A' for Active; 'I' for Inactive)
REMARK    1  A    between atoms: N1_2  and  C2_4 
REMARK    2  A    between atoms: C4_9  and  C5_10 
REMARK    3  A    between atoms: C6_13  and  N5_14 
REMARK    4  A    between atoms: N5_14  and  C7_16 
REMARK    5  A    between atoms: C8_19  and  N7_20 
REMARK    6  A    between atoms: C10_22  and  N8_23 
REMARK    7  A    between atoms: C12_28  and  N9_29 
REMARK    8  A    between atoms: C14_36  and  N11_37 
REMARK    9  A    between atoms: N11_37  and  C15_39 
REMARK   10  A    between atoms: C15_39  and  C16_40 
REMARK   11  A    between atoms: C19_43  and  O2_44 
REMARK   12  A    between atoms: C21_46  and  C22_47 
REMARK   13  A    between atoms: C22_47  and  C23_48 
REMARK   14  A    between atoms: C23_48  and  O3_49 
ROOT
HETATM    1  C7  UNL     1      17.874  38.389  98.285  1.00  0.00     0.713 A 
HETATM    2  N6  UNL     1      17.853  39.062  99.446  1.00  0.00    -0.021 N 
ATOM      3  H6  UNL     1      17.469  38.610 100.276  1.00  0.00     0.203 HD
HETATM    4  C8  UNL     1      18.331  40.335  99.543  1.00  0.00     0.709 A 
HETATM    5  N10 UNL     1      18.816  40.858  98.413  1.00  0.00    -0.021 N 
ATOM      6  H10 UNL     1      19.181  41.809  98.452  1.00  0.00     0.203 HD
HETATM    7  C14 UNL     1      18.858  40.225  97.227  1.00  0.00     0.707 A 
HETATM    8  N13 UNL     1      18.373  38.962  97.177  1.00  0.00    -0.021 N 
ATOM      9  H13 UNL     1      18.388  38.446  96.299  1.00  0.00     0.203 HD
ENDROOT
BRANCH   1  10
HETATM   10  N5  UNL     1      17.365  37.065  98.234  1.00  0.00    -0.174 N 
ATOM     11  H5  UNL     1      16.429  36.888  98.597  1.00  0.00     0.186 HD
BRANCH  10  12
HETATM   12  C6  UNL     1      18.034  36.075  97.748  1.00  0.00     0.155 A 
HETATM   13  C4  UNL     1      18.561  35.120  98.586  1.00  0.00     0.116 A 
HETATM   14  C3  UNL     1      19.268  34.082  97.993  1.00  0.00     0.151 A 
HETATM   15  N2  UNL     1      19.428  34.018  96.652  1.00  0.00    -0.178 N 
HETATM   16  N3  UNL     1      19.805  33.103  98.866  1.00  0.00    -0.081 NA
HETATM   17  C2  UNL     1      18.903  34.964  95.857  1.00  0.00     0.680 A 
ATOM     18  H2  UNL     1      19.951  33.245  96.241  1.00  0.00     0.185 HD
HETATM   19  N14 UNL     1      18.221  35.968  96.422  1.00  0.00    -0.175 N 
ATOM     20  H14 UNL     1      17.823  36.686  95.817  1.00  0.00     0.186 HD
BRANCH  13  21
HETATM   21  C5  UNL     1      18.386  35.196 100.034  1.00  0.00     0.272 C 
HETATM   22  N4  UNL     1      19.161  36.138 100.761  1.00  0.00    -0.057 NA
HETATM   23  O1  UNL     1      17.587  34.476 100.677  1.00  0.00    -0.271 OA
ENDBRANCH  13  21
BRANCH  17  24
HETATM   24  N1  UNL     1      19.073  34.877  94.565  1.00  0.00    -0.230 N 
HETATM   25  C1  UNL     1      19.554  36.041  93.864  1.00  0.00     0.165 C 
ATOM     26  H1  UNL     1      18.872  34.010  94.067  1.00  0.00     0.177 HD
ENDBRANCH  17  24
ENDBRANCH  10  12
ENDBRANCH   1  10
BRANCH   4  27
HETATM   27  N7  UNL     1      18.297  41.028 100.780  1.00  0.00    -0.213 N 
HETATM   28  C9  UNL     1      17.430  42.215 100.847  1.00  0.00     0.174 C 
HETATM   29  C10 UNL     1      18.420  43.358 101.096  1.00  0.00     0.204 C 
HETATM   30  C11 UNL     1      18.915  43.163 102.502  1.00  0.00     0.069 C 
HETATM   31  C12 UNL     1      19.494  41.832 102.782  1.00  0.00     0.204 C 
HETATM   32  C13 UNL     1      19.013  40.698 101.957  1.00  0.00     0.174 C 
BRANCH  29  33
HETATM   33  N8  UNL     1      17.823  44.652 100.960  1.00  0.00    -0.073 N 
ATOM     34  H83 UNL     1      18.257  45.176 100.201  1.00  0.00     0.274 HD
ATOM     35  H82 UNL     1      16.874  44.579 100.592  1.00  0.00     0.274 HD
ATOM     36  H81 UNL     1      17.836  45.189 101.828  1.00  0.00     0.274 HD
ENDBRANCH  29  33
BRANCH  31  37
HETATM   37  N9  UNL     1      20.948  41.950 102.686  1.00  0.00    -0.073 N 
ATOM     38  H93 UNL     1      21.439  41.304 103.304  1.00  0.00     0.274 HD
ATOM     39  H92 UNL     1      21.317  41.598 101.802  1.00  0.00     0.274 HD
ATOM     40  H91 UNL     1      21.193  42.925 102.856  1.00  0.00     0.274 HD
ENDBRANCH  31  37
ENDBRANCH   4  27
BRANCH   7  41
HETATM   41  N11 UNL     1      19.347  40.807  96.182  1.00  0.00    -0.219 N 
ATOM     42  H11 UNL     1      18.766  41.461  95.658  1.00  0.00     0.178 HD
BRANCH  41  43
HETATM   43  C15 UNL     1      20.699  40.550  95.740  1.00  0.00     0.195 C 
BRANCH  43  44
HETATM   44  C16 UNL     1      21.495  41.781  95.617  1.00  0.00     0.028 A 
HETATM   45  C17 UNL     1      22.210  42.090  94.484  1.00  0.00     0.029 A 
HETATM   46  C18 UNL     1      22.960  43.267  94.399  1.00  0.00     0.041 A 
HETATM   47  C19 UNL     1      22.983  44.130  95.470  1.00  0.00     0.090 A 
HETATM   48  C21 UNL     1      22.258  43.792  96.589  1.00  0.00     0.045 A 
HETATM   49  N12 UNL     1      21.542  42.646  96.637  1.00  0.00    -0.359 N 
ATOM     50  H12 UNL     1      21.017  42.433  97.485  1.00  0.00     0.165 HD
BRANCH  47  51
HETATM   51  O2  UNL     1      23.715  45.308  95.434  1.00  0.00    -0.354 OA
HETATM   52  C20 UNL     1      23.390  46.354  94.555  1.00  0.00     0.210 C 
ENDBRANCH  47  51
BRANCH  48  53
HETATM   53  C22 UNL     1      22.256  44.701  97.785  1.00  0.00     0.086 C 
BRANCH  53  54
HETATM   54  C23 UNL     1      20.978  44.483  98.593  1.00  0.00     0.170 C 
BRANCH  54  55
HETATM   55  O3  UNL     1      19.846  44.816  97.858  1.00  0.00    -0.400 OA
ATOM     56  H3  UNL     1      19.122  45.060  98.423  1.00  0.00     0.209 HD
ENDBRANCH  54  55
ENDBRANCH  53  54
ENDBRANCH  48  53
ENDBRANCH  43  44
ENDBRANCH  41  43
ENDBRANCH   7  41
TORSDOF 14
ENDMDL
MODEL 2
REMARK VINA RESULT: -10.039499382      1.822      7.820
REMARK  14 active torsions:
REMARK  status: ('A' for Active; 'I' for Inactive)
REMARK    1  A    between atoms: N1_2  and  C2_4 
REMARK    2  A    between atoms: C4_9  and  C5_10 
REMARK    3  A    between atoms: C6_13  and  N5_14 
REMARK    4  A    between atoms: N5_14  and  C7_16 
REMARK    5  A    between atoms: C8_19  and  N7_20 
REMARK    6  A    between atoms: C10_22  and  N8_23 
REMARK    7  A    between atoms: C12_28  and  N9_29 
REMARK    8  A    between atoms: C14_36  and  N11_37 
REMARK    9  A    between atoms: N11_37  and  C15_39 
REMARK   10  A    between atoms: C15_39  and  C16_40 
REMARK   11  A    between atoms: C19_43  and  O2_44 
REMARK   12  A    between atoms: C21_46  and  C22_47 
REMARK   13  A    between atoms: C22_47  and  C23_48 
REMARK   14  A    between atoms: C23_48  and  O3_49 
ROOT
HETATM    1  C7  UNL     1      19.678  42.392  96.881  1.00  0.00     0.713 A 
HETATM    2  N6  UNL     1      19.355  42.631  98.162  1.00  0.00    -0.021 N 
ATOM      3  H6  UNL     1      19.561  43.547  98.563  1.00  0.00     0.203 HD
HETATM    4  C8  UNL     1      18.760  41.683  98.938  1.00  0.00     0.709 A 
HETATM    5  N10 UNL     1      18.524  40.511  98.341  1.00  0.00    -0.021 N 
ATOM      6  H10 UNL     1      18.080  39.780  98.895  1.00  0.00     0.203 HD
HETATM    7  C14 UNL     1      18.829  40.223  97.063  1.00  0.00     0.707 A 
HETATM    8  N13 UNL     1      19.418  41.195  96.329  1.00  0.00    -0.021 N 
ATOM      9  H13 UNL     1      19.664  41.019  95.355  1.00  0.00     0.203 HD
ENDROOT
BRANCH   1  10
HETATM   10  N5  UNL     1      20.295  43.412  96.112  1.00  0.00    -0.174 N 
ATOM     11  H5  UNL     1      19.757  44.250  95.891  1.00  0.00     0.186 HD
BRANCH  10  12
HETATM   12  C6  UNL     1      21.508  43.327  95.678  1.00  0.00     0.155 A 
HETATM   13  C4  UNL     1      22.496  44.104  96.235  1.00  0.00     0.116 A 
HETATM   14  C3  UNL     1      23.778  43.958  95.720  1.00  0.00     0.151 A 
HETATM   15  N2  UNL     1      24.035  43.090  94.716  1.00  0.00    -0.178 N 
HETATM   16  N3  UNL     1      24.789  44.761  96.302  1.00  0.00    -0.081 NA
HETATM   17  C2  UNL     1      23.051  42.344  94.189  1.00  0.00     0.680 A 
ATOM     18  H2  UNL     1      24.985  43.001  94.354  1.00  0.00     0.185 HD
HETATM   19  N14 UNL     1      21.813  42.480  94.682  1.00  0.00    -0.175 N 
ATOM     20  H14 UNL     1      21.066  41.913  94.281  1.00  0.00     0.186 HD
BRANCH  13  21
HETATM   21  C5  UNL     1      22.210  45.040  97.319  1.00  0.00     0.272 C 
HETATM   22  N4  UNL     1      21.962  44.518  98.616  1.00  0.00    -0.057 NA
HETATM   23  O1  UNL     1      22.172  46.284  97.171  1.00  0.00    -0.271 OA
ENDBRANCH  13  21
BRANCH  17  24
HETATM   24  N1  UNL     1      23.329  41.514  93.221  1.00  0.00    -0.230 N 
HETATM   25  C1  UNL     1      24.696  41.428  92.772  1.00  0.00     0.165 C 
ATOM     26  H1  UNL     1      22.599  40.942  92.794  1.00  0.00     0.177 HD
ENDBRANCH  17  24
ENDBRANCH  10  12
ENDBRANCH   1  10
BRANCH   4  27
HETATM   27  N7  UNL     1      18.429  41.957 100.290  1.00  0.00    -0.213 N 
HETATM   28  C9  UNL     1      17.456  43.035 100.526  1.00  0.00     0.174 C 
HETATM   29  C10 UNL     1      18.268  44.076 101.302  1.00  0.00     0.204 C 
HETATM   30  C11 UNL     1      18.508  43.471 102.658  1.00  0.00     0.069 C 
HETATM   31  C12 UNL     1      19.148  42.140 102.643  1.00  0.00     0.204 C 
HETATM   32  C13 UNL     1      18.940  41.302 101.438  1.00  0.00     0.174 C 
BRANCH  29  33
HETATM   33  N8  UNL     1      17.587  45.329 101.436  1.00  0.00    -0.073 N 
ATOM     34  H83 UNL     1      16.762  45.233 102.028  1.00  0.00     0.274 HD
ATOM     35  H82 UNL     1      18.127  45.978 102.007  1.00  0.00     0.274 HD
ATOM     36  H81 UNL     1      17.344  45.748 100.538  1.00  0.00     0.274 HD
ENDBRANCH  29  33
BRANCH  31  37
HETATM   37  N9  UNL     1      20.576  42.329 102.890  1.00  0.00    -0.073 N 
ATOM     38  H93 UNL     1      21.122  41.483 102.728  1.00  0.00     0.274 HD
ATOM     39  H92 UNL     1      21.025  42.916 102.187  1.00  0.00     0.274 HD
ATOM     40  H91 UNL     1      20.682  42.694 103.837  1.00  0.00     0.274 HD
ENDBRANCH  31  37
ENDBRANCH   4  27
BRANCH   7  41
HETATM   41  N11 UNL     1      18.563  39.061  96.564  1.00  0.00    -0.219 N 
ATOM     42  H11 UNL     1      18.920  38.821  95.639  1.00  0.00     0.178 HD
BRANCH  41  43
HETATM   43  C15 UNL     1      17.770  38.093  97.289  1.00  0.00     0.195 C 
BRANCH  43  44
HETATM   44  C16 UNL     1      18.363  36.747  97.262  1.00  0.00     0.028 A 
HETATM   45  C17 UNL     1      18.805  36.156  96.102  1.00  0.00     0.029 A 
HETATM   46  C18 UNL     1      19.359  34.873  96.108  1.00  0.00     0.041 A 
HETATM   47  C19 UNL     1      19.464  34.190  97.298  1.00  0.00     0.090 A 
HETATM   48  C21 UNL     1      19.012  34.808  98.440  1.00  0.00     0.045 A 
HETATM   49  N12 UNL     1      18.482  36.050  98.399  1.00  0.00    -0.359 N 
ATOM     50  H12 UNL     1      18.159  36.474  99.269  1.00  0.00     0.165 HD
BRANCH  47  51
HETATM   51  O2  UNL     1      20.005  32.914  97.354  1.00  0.00    -0.354 OA
HETATM   52  C20 UNL     1      21.389  32.692  97.262  1.00  0.00     0.210 C 
ENDBRANCH  47  51
BRANCH  48  53
HETATM   53  C22 UNL     1      19.101  34.099  99.762  1.00  0.00     0.086 C 
BRANCH  53  54
HETATM   54  C23 UNL     1      18.536  34.995 100.863  1.00  0.00     0.170 C 
BRANCH  54  55
HETATM   55  O3  UNL     1      19.425  36.007 101.205  1.00  0.00    -0.400 OA
ATOM     56  H3  UNL     1      19.032  36.867 101.105  1.00  0.00     0.209 HD
ENDBRANCH  54  55
ENDBRANCH  53  54
ENDBRANCH  48  53
ENDBRANCH  43  44
ENDBRANCH  41  43
ENDBRANCH   7  41
TORSDOF 14
ENDMDL
MODEL 3
REMARK VINA RESULT: -10.022752964      2.014      8.172
REMARK  14 active torsions:
REMARK  status: ('A' for Active; 'I' for Inactive)
REMARK    1  A    between atoms: N1_2  and  C2_4 
REMARK    2  A    between atoms: C4_9  and  C5_10 
REMARK    3  A    between atoms: C6_13  and  N5_14 
REMARK    4  A    between atoms: N5_14  and  C7_16 
REMARK    5  A    between atoms: C8_19  and  N7_20 
REMARK    6  A    between atoms: C10_22  and  N8_23 
REMARK    7  A    between atoms: C12_28  and  N9_29 
REMARK    8  A    between atoms: C14_36  and  N11_37 
REMARK    9  A    between atoms: N11_37  and  C15_39 
REMARK   10  A    between atoms: C15_39  and  C16_40 
REMARK   11  A    between atoms: C19_43  and  O2_44 
REMARK   12  A    between atoms: C21_46  and  C22_47 
REMARK   13  A    between atoms: C22_47  and  C23_48 
REMARK   14  A    between atoms: C23_48  and  O3_49 
ROOT
HETATM    1  C7  UNL     1      19.920  42.881  96.897  1.00  0.00     0.713 A 
HETATM    2  N6  UNL     1      19.696  43.236  98.172  1.00  0.00    -0.021 N 
ATOM      3  H6  UNL     1      19.984  44.163  98.488  1.00  0.00     0.203 HD
HETATM    4  C8  UNL     1      19.092  42.390  99.054  1.00  0.00     0.709 A 
HETATM    5  N10 UNL     1      18.745  41.196  98.565  1.00  0.00    -0.021 N 
ATOM      6  H10 UNL     1      18.292  40.540  99.201  1.00  0.00     0.203 HD
HETATM    7  C14 UNL     1      18.948  40.794  97.299  1.00  0.00     0.707 A 
HETATM    8  N13 UNL     1      19.549  41.667  96.457  1.00  0.00    -0.021 N 
ATOM      9  H13 UNL     1      19.721  41.403  95.487  1.00  0.00     0.203 HD
ENDROOT
BRANCH   1  10
HETATM   10  N5  UNL     1      20.550  43.797  96.015  1.00  0.00    -0.174 N 
ATOM     11  H5  UNL     1      20.039  44.634  95.735  1.00  0.00     0.186 HD
BRANCH  10  12
HETATM   12  C6  UNL     1      21.740  43.617  95.551  1.00  0.00     0.155 A 
HETATM   13  C4  UNL     1      22.792  44.354  96.045  1.00  0.00     0.116 A 
HETATM   14  C3  UNL     1      24.045  44.106  95.500  1.00  0.00     0.151 A 
HETATM   15  N2  UNL     1      24.217  43.182  94.528  1.00  0.00    -0.178 N 
HETATM   16  N3  UNL     1      25.121  44.869  96.017  1.00  0.00    -0.081 NA
HETATM   17  C2  UNL     1      23.173  42.477  94.064  1.00  0.00     0.680 A 
ATOM     18  H2  UNL     1      25.148  43.018  94.144  1.00  0.00     0.185 HD
HETATM   19  N14 UNL     1      21.962  42.711  94.585  1.00  0.00    -0.175 N 
ATOM     20  H14 UNL     1      21.169  42.175  94.232  1.00  0.00     0.186 HD
BRANCH  13  21
HETATM   21  C5  UNL     1      22.598  45.352  97.094  1.00  0.00     0.272 C 
HETATM   22  N4  UNL     1      22.399  44.903  98.426  1.00  0.00    -0.057 NA
HETATM   23  O1  UNL     1      22.598  46.587  96.887  1.00  0.00    -0.271 OA
ENDBRANCH  13  21
BRANCH  17  24
HETATM   24  N1  UNL     1      23.369  41.591  93.126  1.00  0.00    -0.230 N 
HETATM   25  C1  UNL     1      24.706  41.433  92.610  1.00  0.00     0.165 C 
ATOM     26  H1  UNL     1      22.598  41.026  92.768  1.00  0.00     0.177 HD
ENDBRANCH  17  24
ENDBRANCH  10  12
ENDBRANCH   1  10
BRANCH   4  27
HETATM   27  N7  UNL     1      18.867  42.786 100.398  1.00  0.00    -0.213 N 
HETATM   28  C9  UNL     1      18.328  41.762 101.306  1.00  0.00     0.174 C 
HETATM   29  C10 UNL     1      16.962  42.331 101.703  1.00  0.00     0.204 C 
HETATM   30  C11 UNL     1      17.258  43.511 102.587  1.00  0.00     0.069 C 
HETATM   31  C12 UNL     1      18.152  44.527 101.993  1.00  0.00     0.204 C 
HETATM   32  C13 UNL     1      19.106  44.066 100.956  1.00  0.00     0.174 C 
BRANCH  29  33
HETATM   33  N8  UNL     1      16.146  41.385 102.404  1.00  0.00    -0.073 N 
ATOM     34  H83 UNL     1      16.356  41.391 103.402  1.00  0.00     0.274 HD
ATOM     35  H82 UNL     1      15.175  41.695 102.436  1.00  0.00     0.274 HD
ATOM     36  H81 UNL     1      16.214  40.441 102.022  1.00  0.00     0.274 HD
ENDBRANCH  29  33
BRANCH  31  37
HETATM   37  N9  UNL     1      17.315  45.606 101.471  1.00  0.00    -0.073 N 
ATOM     38  H93 UNL     1      17.377  45.699 100.457  1.00  0.00     0.274 HD
ATOM     39  H92 UNL     1      16.318  45.395 101.526  1.00  0.00     0.274 HD
ATOM     40  H91 UNL     1      17.567  46.462 101.964  1.00  0.00     0.274 HD
ENDBRANCH  31  37
ENDBRANCH   4  27
BRANCH   7  41
HETATM   41  N11 UNL     1      18.578  39.619  96.909  1.00  0.00    -0.219 N 
ATOM     42  H11 UNL     1      18.771  39.327  95.950  1.00  0.00     0.178 HD
BRANCH  41  43
HETATM   43  C15 UNL     1      17.897  38.709  97.802  1.00  0.00     0.195 C 
BRANCH  43  44
HETATM   44  C16 UNL     1      18.307  37.311  97.601  1.00  0.00     0.028 A 
HETATM   45  C17 UNL     1      19.039  36.904  96.510  1.00  0.00     0.029 A 
HETATM   46  C18 UNL     1      19.409  35.566  96.344  1.00  0.00     0.041 A 
HETATM   47  C19 UNL     1      19.034  34.641  97.290  1.00  0.00     0.090 A 
HETATM   48  C21 UNL     1      18.303  35.080  98.370  1.00  0.00     0.045 A 
HETATM   49  N12 UNL     1      17.962  36.381  98.499  1.00  0.00    -0.359 N 
ATOM     50  H12 UNL     1      17.420  36.665  99.315  1.00  0.00     0.165 HD
BRANCH  47  51
HETATM   51  O2  UNL     1      19.377  33.302  97.168  1.00  0.00    -0.354 OA
HETATM   52  C20 UNL     1      20.709  32.891  96.999  1.00  0.00     0.210 C 
ENDBRANCH  47  51
BRANCH  48  53
HETATM   53  C22 UNL     1      17.867  34.105  99.426  1.00  0.00     0.086 C 
BRANCH  53  54
HETATM   54  C23 UNL     1      19.012  33.868 100.409  1.00  0.00     0.170 C 
BRANCH  54  55
HETATM   55  O3  UNL     1      19.550  32.594 100.270  1.00  0.00    -0.400 OA
ATOM     56  H3  UNL     1      18.898  31.970  99.974  1.00  0.00     0.209 HD
ENDBRANCH  54  55
ENDBRANCH  53  54
ENDBRANCH  48  53
ENDBRANCH  43  44
ENDBRANCH  41  43
ENDBRANCH   7  41
TORSDOF 14
ENDMDL
MODEL 4
REMARK VINA RESULT: -10.004741001      1.167      1.500
REMARK  14 active torsions:
REMARK  status: ('A' for Active; 'I' for Inactive)
REMARK    1  A    between atoms: N1_2  and  C2_4 
REMARK    2  A    between atoms: C4_9  and  C5_10 
REMARK    3  A    between atoms: C6_13  and  N5_14 
REMARK    4  A    between atoms: N5_14  and  C7_16 
REMARK    5  A    between atoms: C8_19  and  N7_20 
REMARK    6  A    between atoms: C10_22  and  N8_23 
REMARK    7  A    between atoms: C12_28  and  N9_29 
REMARK    8  A    between atoms: C14_36  and  N11_37 
REMARK    9  A    between atoms: N11_37  and  C15_39 
REMARK   10  A    between atoms: C15_39  and  C16_40 
REMARK   11  A    between atoms: C19_43  and  O2_44 
REMARK   12  A    between atoms: C21_46  and  C22_47 
REMARK   13  A    between atoms: C22_47  and  C23_48 
REMARK   14  A    between atoms: C23_48  and  O3_49 
ROOT
HETATM    1  C7  UNL     1      17.785  38.563  98.844  1.00  0.00     0.713 A 
HETATM    2  N6  UNL     1      17.706  39.362  99.921  1.00  0.00    -0.021 N 
ATOM      3  H6  UNL     1      17.294  38.998 100.780  1.00  0.00     0.203 HD
HETATM    4  C8  UNL     1      18.162  40.646  99.893  1.00  0.00     0.709 A 
HETATM    5  N10 UNL     1      18.686  41.049  98.732  1.00  0.00    -0.021 N 
ATOM      6  H10 UNL     1      19.036  42.005  98.679  1.00  0.00     0.203 HD
HETATM    7  C14 UNL     1      18.787  40.288  97.628  1.00  0.00     0.707 A 
HETATM    8  N13 UNL     1      18.323  39.019  97.700  1.00  0.00    -0.021 N 
ATOM      9  H13 UNL     1      18.381  38.409  96.886  1.00  0.00     0.203 HD
ENDROOT
BRANCH   1  10
HETATM   10  N5  UNL     1      17.297  37.233  98.921  1.00  0.00    -0.174 N 
ATOM     11  H5  UNL     1      16.369  37.076  99.312  1.00  0.00     0.186 HD
BRANCH  10  12
HETATM   12  C6  UNL     1      17.977  36.213  98.520  1.00  0.00     0.155 A 
HETATM   13  C4  UNL     1      18.635  35.419  99.430  1.00  0.00     0.116 A 
HETATM   14  C3  UNL     1      19.345  34.337  98.926  1.00  0.00     0.151 A 
HETATM   15  N2  UNL     1      19.384  34.081  97.599  1.00  0.00    -0.178 N 
HETATM   16  N3  UNL     1      20.017  33.526  99.873  1.00  0.00    -0.081 NA
HETATM   17  C2  UNL     1      18.733  34.872  96.732  1.00  0.00     0.680 A 
ATOM     18  H2  UNL     1      19.913  33.279  97.254  1.00  0.00     0.185 HD
HETATM   19  N14 UNL     1      18.046  35.917  97.211  1.00  0.00    -0.175 N 
ATOM     20  H14 UNL     1      17.553  36.518  96.551  1.00  0.00     0.186 HD
BRANCH  13  21
HETATM   21  C5  UNL     1      18.589  35.704 100.862  1.00  0.00     0.272 C 
HETATM   22  N4  UNL     1      17.539  35.137 101.631  1.00  0.00    -0.057 NA
HETATM   23  O1  UNL     1      19.428  36.421 101.456  1.00  0.00    -0.271 OA
ENDBRANCH  13  21
BRANCH  17  24
HETATM   24  N1  UNL     1      18.788  34.600  95.456  1.00  0.00    -0.230 N 
HETATM   25  C1  UNL     1      19.228  35.640  94.559  1.00  0.00     0.165 C 
ATOM     26  H1  UNL     1      18.527  33.679  95.104  1.00  0.00     0.177 HD
ENDBRANCH  17  24
ENDBRANCH  10  12
ENDBRANCH   1  10
BRANCH   4  27
HETATM   27  N7  UNL     1      18.067  41.472 101.043  1.00  0.00    -0.213 N 
HETATM   28  C9  UNL     1      17.072  41.083 102.054  1.00  0.00     0.174 C 
HETATM   29  C10 UNL     1      16.093  42.262 102.054  1.00  0.00     0.204 C 
HETATM   30  C11 UNL     1      16.843  43.408 102.673  1.00  0.00     0.069 C 
HETATM   31  C12 UNL     1      18.132  43.733 102.027  1.00  0.00     0.204 C 
HETATM   32  C13 UNL     1      18.829  42.634 101.317  1.00  0.00     0.174 C 
BRANCH  29  33
HETATM   33  N8  UNL     1      14.899  41.996 102.799  1.00  0.00    -0.073 N 
ATOM     34  H83 UNL     1      15.106  41.451 103.636  1.00  0.00     0.274 HD
ATOM     35  H82 UNL     1      14.546  42.846 103.237  1.00  0.00     0.274 HD
ATOM     36  H81 UNL     1      14.174  41.545 102.240  1.00  0.00     0.274 HD
ENDBRANCH  29  33
BRANCH  31  37
HETATM   37  N9  UNL     1      17.906  44.860 101.123  1.00  0.00    -0.073 N 
ATOM     38  H93 UNL     1      17.522  45.677 101.598  1.00  0.00     0.274 HD
ATOM     39  H92 UNL     1      18.773  45.287 100.799  1.00  0.00     0.274 HD
ATOM     40  H91 UNL     1      17.316  44.531 100.359  1.00  0.00     0.274 HD
ENDBRANCH  31  37
ENDBRANCH   4  27
BRANCH   7  41
HETATM   41  N11 UNL     1      19.311  40.759  96.545  1.00  0.00    -0.219 N 
ATOM     42  H11 UNL     1      18.732  41.305  95.906  1.00  0.00     0.178 HD
BRANCH  41  43
HETATM   43  C15 UNL     1      20.701  40.529  96.218  1.00  0.00     0.195 C 
BRANCH  43  44
HETATM   44  C16 UNL     1      21.450  41.782  96.034  1.00  0.00     0.028 A 
HETATM   45  C17 UNL     1      22.278  41.998  94.957  1.00  0.00     0.029 A 
HETATM   46  C18 UNL     1      22.981  43.198  94.812  1.00  0.00     0.041 A 
HETATM   47  C19 UNL     1      22.841  44.179  95.766  1.00  0.00     0.090 A 
HETATM   48  C21 UNL     1      22.006  43.932  96.831  1.00  0.00     0.045 A 
HETATM   49  N12 UNL     1      21.341  42.761  96.940  1.00  0.00    -0.359 N 
ATOM     50  H12 UNL     1      20.732  42.618  97.745  1.00  0.00     0.165 HD
BRANCH  47  51
HETATM   51  O2  UNL     1      23.519  45.385  95.667  1.00  0.00    -0.354 OA
HETATM   52  C20 UNL     1      23.321  46.259  94.586  1.00  0.00     0.210 C 
ENDBRANCH  47  51
BRANCH  48  53
HETATM   53  C22 UNL     1      21.827  44.973  97.900  1.00  0.00     0.086 C 
BRANCH  53  54
HETATM   54  C23 UNL     1      20.886  44.441  98.980  1.00  0.00     0.170 C 
BRANCH  54  55
HETATM   55  O3  UNL     1      19.589  44.295  98.501  1.00  0.00    -0.400 OA
ATOM     56  H3  UNL     1      18.959  44.739  99.058  1.00  0.00     0.209 HD
ENDBRANCH  54  55
ENDBRANCH  53  54
ENDBRANCH  48  53
ENDBRANCH  43  44
ENDBRANCH  41  43
ENDBRANCH   7  41
TORSDOF 14
ENDMDL
MODEL 5
REMARK VINA RESULT: -9.976411655      1.337      1.873
REMARK  14 active torsions:
REMARK  status: ('A' for Active; 'I' for Inactive)
REMARK    1  A    between atoms: N1_2  and  C2_4 
REMARK    2  A    between atoms: C4_9  and  C5_10 
REMARK    3  A    between atoms: C6_13  and  N5_14 
REMARK    4  A    between atoms: N5_14  and  C7_16 
REMARK    5  A    between atoms: C8_19  and  N7_20 
REMARK    6  A    between atoms: C10_22  and  N8_23 
REMARK    7  A    between atoms: C12_28  and  N9_29 
REMARK    8  A    between atoms: C14_36  and  N11_37 
REMARK    9  A    between atoms: N11_37  and  C15_39 
REMARK   10  A    between atoms: C15_39  and  C16_40 
REMARK   11  A    between atoms: C19_43  and  O2_44 
REMARK   12  A    between atoms: C21_46  and  C22_47 
REMARK   13  A    between atoms: C22_47  and  C23_48 
REMARK   14  A    between atoms: C23_48  and  O3_49 
ROOT
HETATM    1  C7  UNL     1      17.987  38.780  97.771  1.00  0.00     0.713 A 
HETATM    2  N6  UNL     1      17.914  39.340  98.989  1.00  0.00    -0.021 N 
ATOM      3  H6  UNL     1      17.464  38.826  99.747  1.00  0.00     0.203 HD
HETATM    4  C8  UNL     1      18.427  40.578  99.238  1.00  0.00     0.709 A 
HETATM    5  N10 UNL     1      18.999  41.187  98.195  1.00  0.00    -0.021 N 
ATOM      6  H10 UNL     1      19.392  42.116  98.349  1.00  0.00     0.203 HD
HETATM    7  C14 UNL     1      19.096  40.669  96.959  1.00  0.00     0.707 A 
HETATM    8  N13 UNL     1      18.575  39.436  96.757  1.00  0.00    -0.021 N 
ATOM      9  H13 UNL     1      18.628  39.005  95.835  1.00  0.00     0.203 HD
ENDROOT
BRANCH   1  10
HETATM   10  N5  UNL     1      17.440  37.488  97.561  1.00  0.00    -0.174 N 
ATOM     11  H5  UNL     1      16.443  37.348  97.725  1.00  0.00     0.186 HD
BRANCH  10  12
HETATM   12  C6  UNL     1      18.147  36.481  97.173  1.00  0.00     0.155 A 
HETATM   13  C4  UNL     1      18.683  35.616  98.098  1.00  0.00     0.116 A 
HETATM   14  C3  UNL     1      19.432  34.553  97.608  1.00  0.00     0.151 A 
HETATM   15  N2  UNL     1      19.622  34.383  96.280  1.00  0.00    -0.178 N 
HETATM   16  N3  UNL     1      19.977  33.668  98.569  1.00  0.00    -0.081 NA
HETATM   17  C2  UNL     1      19.087  35.244  95.398  1.00  0.00     0.680 A 
ATOM     18  H2  UNL     1      20.176  33.595  95.945  1.00  0.00     0.185 HD
HETATM   19  N14 UNL     1      18.365  36.270  95.864  1.00  0.00    -0.175 N 
ATOM     20  H14 UNL     1      17.960  36.923  95.194  1.00  0.00     0.186 HD
BRANCH  13  21
HETATM   21  C5  UNL     1      18.475  35.807  99.531  1.00  0.00     0.272 C 
HETATM   22  N4  UNL     1      17.374  35.155 100.147  1.00  0.00    -0.057 NA
HETATM   23  O1  UNL     1      19.215  36.515 100.253  1.00  0.00    -0.271 OA
ENDBRANCH  13  21
BRANCH  17  24
HETATM   24  N1  UNL     1      19.287  35.054  94.122  1.00  0.00    -0.230 N 
HETATM   25  C1  UNL     1      19.704  36.182  93.326  1.00  0.00     0.165 C 
ATOM     26  H1  UNL     1      19.152  34.135  93.700  1.00  0.00     0.177 HD
ENDBRANCH  17  24
ENDBRANCH  10  12
ENDBRANCH   1  10
BRANCH   4  27
HETATM   27  N7  UNL     1      18.337  41.152 100.532  1.00  0.00    -0.213 N 
HETATM   28  C9  UNL     1      17.470  42.333 100.672  1.00  0.00     0.174 C 
HETATM   29  C10 UNL     1      18.450  43.440 101.073  1.00  0.00     0.204 C 
HETATM   30  C11 UNL     1      18.879  43.110 102.476  1.00  0.00     0.069 C 
HETATM   31  C12 UNL     1      19.441  41.755 102.654  1.00  0.00     0.204 C 
HETATM   32  C13 UNL     1      18.996  40.707 101.705  1.00  0.00     0.174 C 
BRANCH  29  33
HETATM   33  N8  UNL     1      17.863  44.746 101.033  1.00  0.00    -0.073 N 
ATOM     34  H83 UNL     1      17.338  44.883 100.169  1.00  0.00     0.274 HD
ATOM     35  H82 UNL     1      17.100  44.823 101.706  1.00  0.00     0.274 HD
ATOM     36  H81 UNL     1      18.544  45.493 101.168  1.00  0.00     0.274 HD
ENDBRANCH  29  33
BRANCH  31  37
HETATM   37  N9  UNL     1      20.898  41.872 102.637  1.00  0.00    -0.073 N 
ATOM     38  H93 UNL     1      21.230  42.597 102.001  1.00  0.00     0.274 HD
ATOM     39  H92 UNL     1      21.274  42.266 103.500  1.00  0.00     0.274 HD
ATOM     40  H91 UNL     1      21.281  40.951 102.423  1.00  0.00     0.274 HD
ENDBRANCH  31  37
ENDBRANCH   4  27
BRANCH   7  41
HETATM   41  N11 UNL     1      19.669  41.328  96.007  1.00  0.00    -0.219 N 
ATOM     42  H11 UNL     1      19.520  41.040  95.039  1.00  0.00     0.178 HD
BRANCH  41  43
HETATM   43  C15 UNL     1      20.518  42.466  96.283  1.00  0.00     0.195 C 
BRANCH  43  44
HETATM   44  C16 UNL     1      21.691  42.521  95.397  1.00  0.00     0.028 A 
HETATM   45  C17 UNL     1      22.099  41.446  94.642  1.00  0.00     0.029 A 
HETATM   46  C18 UNL     1      23.222  41.528  93.812  1.00  0.00     0.041 A 
HETATM   47  C19 UNL     1      23.930  42.706  93.752  1.00  0.00     0.090 A 
HETATM   48  C21 UNL     1      23.496  43.762  94.520  1.00  0.00     0.045 A 
HETATM   49  N12 UNL     1      22.406  43.649  95.310  1.00  0.00    -0.359 N 
ATOM     50  H12 UNL     1      22.117  44.455  95.863  1.00  0.00     0.165 HD
BRANCH  47  51
HETATM   51  O2  UNL     1      25.052  42.835  92.946  1.00  0.00    -0.354 OA
HETATM   52  C20 UNL     1      26.237  42.130  93.209  1.00  0.00     0.210 C 
ENDBRANCH  47  51
BRANCH  48  53
HETATM   53  C22 UNL     1      24.241  45.066  94.490  1.00  0.00     0.086 C 
BRANCH  53  54
HETATM   54  C23 UNL     1      23.249  46.225  94.579  1.00  0.00     0.170 C 
BRANCH  54  55
HETATM   55  O3  UNL     1      22.975  46.563  95.899  1.00  0.00    -0.400 OA
ATOM     56  H3  UNL     1      22.040  46.587  96.067  1.00  0.00     0.209 HD
ENDBRANCH  54  55
ENDBRANCH  53  54
ENDBRANCH  48  53
ENDBRANCH  43  44
ENDBRANCH  41  43
ENDBRANCH   7  41
TORSDOF 14
ENDMDL
