MODEL 1
REMARK VINA RESULT: -5.012464620      0.000      0.000
REMARK  4 active torsions:
REMARK  status: ('A' for Active; 'I' for Inactive)
REMARK    1  A    between atoms: C5_7  and  C6_8 
REMARK    2  A    between atoms: C6_8  and  C7_9 
REMARK    3  A    between atoms: C7_9  and  C8_10 
REMARK    4  A    between atoms: C8_10  and  N2_11 
ROOT
HETATM    1  C1  UNL     1      36.130   0.917  39.745  1.00  0.00     0.044 C 
HETATM    2  C2  UNL     1      36.344  -0.366  40.057  1.00  0.00     0.032 A 
HETATM    3  N1  UNL     1      37.279  -0.816  40.907  1.00  0.00    -0.366 N 
ATOM      4  H1  UNL     1      37.934  -0.221  41.414  1.00  0.00     0.165 HD
HETATM    5  C3  UNL     1      37.236  -2.147  41.002  1.00  0.00     0.089 A 
HETATM    6  C4  UNL     1      36.208  -2.551  40.157  1.00  0.00     0.030 A 
HETATM    7  C5  UNL     1      35.663  -1.451  39.577  1.00  0.00    -0.013 A 
ENDROOT
BRANCH   7   8
HETATM    8  C6  UNL     1      34.671  -1.399  38.718  1.00  0.00    -0.011 C 
BRANCH   8   9
HETATM    9  C7  UNL     1      34.462  -2.511  37.737  1.00  0.00     0.055 C 
BRANCH   9  10
HETATM   10  C8  UNL     1      33.040  -3.020  37.972  1.00  0.00     0.233 C 
BRANCH  10  11
HETATM   11  N2  UNL     1      32.410  -2.291  39.057  1.00  0.00    -0.079 N 
ATOM     12  H23 UNL     1      33.077  -1.699  39.553  1.00  0.00     0.274 HD
ATOM     13  H22 UNL     1      31.787  -1.561  38.712  1.00  0.00     0.274 HD
ATOM     14  H21 UNL     1      31.930  -2.932  39.689  1.00  0.00     0.274 HD
ENDBRANCH  10  11
ENDBRANCH   9  10
ENDBRANCH   8   9
ENDBRANCH   7   8
TORSDOF 4
ENDMDL
MODEL 2
REMARK VINA RESULT: -4.959425533      0.786      1.931
REMARK  4 active torsions:
REMARK  status: ('A' for Active; 'I' for Inactive)
REMARK    1  A    between atoms: C5_7  and  C6_8 
REMARK    2  A    between atoms: C6_8  and  C7_9 
REMARK    3  A    between atoms: C7_9  and  C8_10 
REMARK    4  A    between atoms: C8_10  and  N2_11 
ROOT
HETATM    1  C1  UNL     1      36.968  -2.214  40.968  1.00  0.00     0.044 C 
HETATM    2  C2  UNL     1      36.446  -1.192  40.281  1.00  0.00     0.032 A 
HETATM    3  N1  UNL     1      36.640   0.108  40.550  1.00  0.00    -0.366 N 
ATOM      4  H1  UNL     1      37.214   0.461  41.315  1.00  0.00     0.165 HD
HETATM    5  C3  UNL     1      35.981   0.878  39.680  1.00  0.00     0.089 A 
HETATM    6  C4  UNL     1      35.337   0.001  38.815  1.00  0.00     0.030 A 
HETATM    7  C5  UNL     1      35.626  -1.271  39.189  1.00  0.00    -0.013 A 
ENDROOT
BRANCH   7   8
HETATM    8  C6  UNL     1      35.216  -2.390  38.634  1.00  0.00    -0.011 C 
BRANCH   8   9
HETATM    9  C7  UNL     1      34.252  -2.355  37.488  1.00  0.00     0.055 C 
BRANCH   9  10
HETATM   10  C8  UNL     1      32.981  -3.043  37.986  1.00  0.00     0.233 C 
BRANCH  10  11
HETATM   11  N2  UNL     1      32.365  -2.270  39.049  1.00  0.00    -0.079 N 
ATOM     12  H23 UNL     1      32.858  -2.385  39.935  1.00  0.00     0.274 HD
ATOM     13  H22 UNL     1      32.511  -1.268  38.922  1.00  0.00     0.274 HD
ATOM     14  H21 UNL     1      31.375  -2.502  39.133  1.00  0.00     0.274 HD
ENDBRANCH  10  11
ENDBRANCH   9  10
ENDBRANCH   8   9
ENDBRANCH   7   8
TORSDOF 4
ENDMDL
MODEL 3
REMARK VINA RESULT: -4.724232814      1.164      1.338
REMARK  4 active torsions:
REMARK  status: ('A' for Active; 'I' for Inactive)
REMARK    1  A    between atoms: C5_7  and  C6_8 
REMARK    2  A    between atoms: C6_8  and  C7_9 
REMARK    3  A    between atoms: C7_9  and  C8_10 
REMARK    4  A    between atoms: C8_10  and  N2_11 
ROOT
HETATM    1  C1  UNL     1      37.668  -1.458  37.968  1.00  0.00     0.044 C 
HETATM    2  C2  UNL     1      37.115  -1.736  39.153  1.00  0.00     0.032 A 
HETATM    3  N1  UNL     1      37.787  -2.033  40.276  1.00  0.00    -0.366 N 
ATOM      4  H1  UNL     1      38.803  -2.080  40.347  1.00  0.00     0.165 HD
HETATM    5  C3  UNL     1      36.946  -2.259  41.289  1.00  0.00     0.089 A 
HETATM    6  C4  UNL     1      35.670  -2.092  40.762  1.00  0.00     0.030 A 
HETATM    7  C5  UNL     1      35.780  -1.770  39.448  1.00  0.00    -0.013 A 
ENDROOT
BRANCH   7   8
HETATM    8  C6  UNL     1      34.813  -1.529  38.592  1.00  0.00    -0.011 C 
BRANCH   8   9
HETATM    9  C7  UNL     1      34.369  -2.591  37.634  1.00  0.00     0.055 C 
BRANCH   9  10
HETATM   10  C8  UNL     1      32.929  -2.929  38.017  1.00  0.00     0.233 C 
BRANCH  10  11
HETATM   11  N2  UNL     1      32.488  -2.104  39.127  1.00  0.00    -0.079 N 
ATOM     12  H23 UNL     1      31.646  -1.577  38.896  1.00  0.00     0.274 HD
ATOM     13  H22 UNL     1      32.112  -2.666  39.891  1.00  0.00     0.274 HD
ATOM     14  H21 UNL     1      33.243  -1.493  39.441  1.00  0.00     0.274 HD
ENDBRANCH  10  11
ENDBRANCH   9  10
ENDBRANCH   8   9
ENDBRANCH   7   8
TORSDOF 4
ENDMDL
MODEL 4
REMARK VINA RESULT: -4.614430255      0.959      1.025
REMARK  4 active torsions:
REMARK  status: ('A' for Active; 'I' for Inactive)
REMARK    1  A    between atoms: C5_7  and  C6_8 
REMARK    2  A    between atoms: C6_8  and  C7_9 
REMARK    3  A    between atoms: C7_9  and  C8_10 
REMARK    4  A    between atoms: C8_10  and  N2_11 
ROOT
HETATM    1  C1  UNL     1      36.144   0.919  39.685  1.00  0.00     0.044 C 
HETATM    2  C2  UNL     1      36.303  -0.362  40.033  1.00  0.00     0.032 A 
HETATM    3  N1  UNL     1      37.211  -0.826  40.904  1.00  0.00    -0.366 N 
ATOM      4  H1  UNL     1      37.886  -0.245  41.401  1.00  0.00     0.165 HD
HETATM    5  C3  UNL     1      37.113  -2.152  41.035  1.00  0.00     0.089 A 
HETATM    6  C4  UNL     1      36.077  -2.536  40.191  1.00  0.00     0.030 A 
HETATM    7  C5  UNL     1      35.582  -1.432  39.577  1.00  0.00    -0.013 A 
ENDROOT
BRANCH   7   8
HETATM    8  C6  UNL     1      34.600  -1.363  38.707  1.00  0.00    -0.011 C 
BRANCH   8   9
HETATM    9  C7  UNL     1      33.234  -1.860  39.069  1.00  0.00     0.055 C 
BRANCH   9  10
HETATM   10  C8  UNL     1      32.908  -2.966  38.066  1.00  0.00     0.233 C 
BRANCH  10  11
HETATM   11  N2  UNL     1      33.646  -2.769  36.832  1.00  0.00    -0.079 N 
ATOM     12  H23 UNL     1      34.636  -2.594  37.006  1.00  0.00     0.274 HD
ATOM     13  H22 UNL     1      33.737  -3.636  36.302  1.00  0.00     0.274 HD
ATOM     14  H21 UNL     1      33.222  -2.027  36.275  1.00  0.00     0.274 HD
ENDBRANCH  10  11
ENDBRANCH   9  10
ENDBRANCH   8   9
ENDBRANCH   7   8
TORSDOF 4
ENDMDL
MODEL 5
REMARK VINA RESULT: -4.200928483      1.181      2.189
REMARK  4 active torsions:
REMARK  status: ('A' for Active; 'I' for Inactive)
REMARK    1  A    between atoms: C5_7  and  C6_8 
REMARK    2  A    between atoms: C6_8  and  C7_9 
REMARK    3  A    between atoms: C7_9  and  C8_10 
REMARK    4  A    between atoms: C8_10  and  N2_11 
ROOT
HETATM    1  C1  UNL     1      36.556  -2.386  40.843  1.00  0.00     0.044 C 
HETATM    2  C2  UNL     1      36.218  -1.214  40.294  1.00  0.00     0.032 A 
HETATM    3  N1  UNL     1      36.708  -0.017  40.650  1.00  0.00    -0.366 N 
ATOM      4  H1  UNL     1      37.398   0.130  41.386  1.00  0.00     0.165 HD
HETATM    5  C3  UNL     1      36.169   0.957  39.911  1.00  0.00     0.089 A 
HETATM    6  C4  UNL     1      35.290   0.324  39.040  1.00  0.00     0.030 A 
HETATM    7  C5  UNL     1      35.323  -1.011  39.280  1.00  0.00    -0.013 A 
ENDROOT
BRANCH   7   8
HETATM    8  C6  UNL     1      34.643  -1.958  38.674  1.00  0.00    -0.011 C 
BRANCH   8   9
HETATM    9  C7  UNL     1      33.182  -2.133  38.951  1.00  0.00     0.055 C 
BRANCH   9  10
HETATM   10  C8  UNL     1      32.642  -3.018  37.828  1.00  0.00     0.233 C 
BRANCH  10  11
HETATM   11  N2  UNL     1      33.490  -2.925  36.653  1.00  0.00    -0.079 N 
ATOM     12  H23 UNL     1      34.438  -2.636  36.893  1.00  0.00     0.274 HD
ATOM     13  H22 UNL     1      33.704  -3.845  36.267  1.00  0.00     0.274 HD
ATOM     14  H21 UNL     1      33.071  -2.309  35.956  1.00  0.00     0.274 HD
ENDBRANCH  10  11
ENDBRANCH   9  10
ENDBRANCH   8   9
ENDBRANCH   7   8
TORSDOF 4
ENDMDL
