MODEL 1
REMARK VINA RESULT: -4.098848647      0.000      0.000
REMARK  4 active torsions:
REMARK  status: ('A' for Active; 'I' for Inactive)
REMARK    1  A    between atoms: C2_2  and  O1_3 
REMARK    2  A    between atoms: C2_2  and  C3_5 
REMARK    3  A    between atoms: C3_5  and  C4_6 
REMARK    4  A    between atoms: C3_5  and  N1_8 
ROOT
HETATM    1  C3  UNL     1      22.231  13.354  58.065  1.00  0.00     0.244 C 
ENDROOT
BRANCH   1   2
HETATM    2  C2  UNL     1      21.447  12.559  59.081  1.00  0.00     0.065 C 
HETATM    3  C1  UNL     1      22.079  11.858  59.992  1.00  0.00     0.048 C 
BRANCH   2   4
HETATM    4  O1  UNL     1      20.064  12.554  59.074  1.00  0.00    -0.364 OA
ATOM      5  H1  UNL     1      19.609  11.765  58.802  1.00  0.00     0.217 HD
ENDBRANCH   2   4
ENDBRANCH   1   2
BRANCH   1   6
HETATM    6  C4  UNL     1      23.283  12.439  57.530  1.00  0.00     0.036 C 
HETATM    7  C5  UNL     1      22.778  11.491  56.475  1.00  0.00     0.007 C 
ENDBRANCH   1   6
BRANCH   1   8
HETATM    8  N1  UNL     1      22.750  14.505  58.742  1.00  0.00    -0.058 N 
HETATM    9  C6  UNL     1      24.154  14.468  59.101  1.00  0.00     0.273 C 
HETATM   10  C7  UNL     1      22.215  15.796  58.347  1.00  0.00     0.266 A 
HETATM   11  C8  UNL     1      21.935  15.197  59.711  1.00  0.00     0.266 A 
ENDBRANCH   1   8
TORSDOF 4
ENDMDL
MODEL 2
REMARK VINA RESULT: -4.034725351      1.799      2.609
REMARK  4 active torsions:
REMARK  status: ('A' for Active; 'I' for Inactive)
REMARK    1  A    between atoms: C2_2  and  O1_3 
REMARK    2  A    between atoms: C2_2  and  C3_5 
REMARK    3  A    between atoms: C3_5  and  C4_6 
REMARK    4  A    between atoms: C3_5  and  N1_8 
ROOT
HETATM    1  C3  UNL     1      23.352  14.090  59.162  1.00  0.00     0.244 C 
ENDROOT
BRANCH   1   2
HETATM    2  C2  UNL     1      24.061  13.272  58.110  1.00  0.00     0.065 C 
HETATM    3  C1  UNL     1      25.294  12.875  58.310  1.00  0.00     0.048 C 
BRANCH   2   4
HETATM    4  O1  UNL     1      23.432  12.927  56.927  1.00  0.00    -0.364 OA
ATOM      5  H1  UNL     1      22.855  12.172  56.916  1.00  0.00     0.217 HD
ENDBRANCH   2   4
ENDBRANCH   1   2
BRANCH   1   6
HETATM    6  C4  UNL     1      22.028  13.435  59.388  1.00  0.00     0.036 C 
HETATM    7  C5  UNL     1      22.129  12.087  60.052  1.00  0.00     0.007 C 
ENDBRANCH   1   6
BRANCH   1   8
HETATM    8  N1  UNL     1      23.260  15.429  58.661  1.00  0.00    -0.058 N 
HETATM    9  C6  UNL     1      24.400  15.922  57.914  1.00  0.00     0.273 C 
HETATM   10  C7  UNL     1      21.952  15.875  58.217  1.00  0.00     0.266 A 
HETATM   11  C8  UNL     1      22.616  16.449  59.453  1.00  0.00     0.266 A 
ENDBRANCH   1   8
TORSDOF 4
ENDMDL
MODEL 3
REMARK VINA RESULT: -4.009442012      0.442      1.397
REMARK  4 active torsions:
REMARK  status: ('A' for Active; 'I' for Inactive)
REMARK    1  A    between atoms: C2_2  and  O1_3 
REMARK    2  A    between atoms: C2_2  and  C3_5 
REMARK    3  A    between atoms: C3_5  and  C4_6 
REMARK    4  A    between atoms: C3_5  and  N1_8 
ROOT
HETATM    1  C3  UNL     1      22.316  13.339  58.031  1.00  0.00     0.244 C 
ENDROOT
BRANCH   1   2
HETATM    2  C2  UNL     1      21.482  12.613  59.059  1.00  0.00     0.065 C 
HETATM    3  C1  UNL     1      22.068  11.915  60.001  1.00  0.00     0.048 C 
BRANCH   2   4
HETATM    4  O1  UNL     1      20.101  12.670  59.029  1.00  0.00    -0.364 OA
ATOM      5  H1  UNL     1      19.611  11.862  58.928  1.00  0.00     0.217 HD
ENDBRANCH   2   4
ENDBRANCH   1   2
BRANCH   1   6
HETATM    6  C4  UNL     1      23.290  12.343  57.493  1.00  0.00     0.036 C 
HETATM    7  C5  UNL     1      22.708  11.439  56.438  1.00  0.00     0.007 C 
ENDBRANCH   1   6
BRANCH   1   8
HETATM    8  N1  UNL     1      22.929  14.451  58.696  1.00  0.00    -0.058 N 
HETATM    9  C6  UNL     1      22.066  15.266  59.527  1.00  0.00     0.273 C 
HETATM   10  C7  UNL     1      24.292  14.266  59.162  1.00  0.00     0.266 A 
HETATM   11  C8  UNL     1      23.956  15.212  58.026  1.00  0.00     0.266 A 
ENDBRANCH   1   8
TORSDOF 4
ENDMDL
MODEL 4
REMARK VINA RESULT: -3.902491177      2.352      3.531
REMARK  4 active torsions:
REMARK  status: ('A' for Active; 'I' for Inactive)
REMARK    1  A    between atoms: C2_2  and  O1_3 
REMARK    2  A    between atoms: C2_2  and  C3_5 
REMARK    3  A    between atoms: C3_5  and  C4_6 
REMARK    4  A    between atoms: C3_5  and  N1_8 
ROOT
HETATM    1  C3  UNL     1      23.951  14.428  57.946  1.00  0.00     0.244 C 
ENDROOT
BRANCH   1   2
HETATM    2  C2  UNL     1      24.966  13.378  58.331  1.00  0.00     0.065 C 
HETATM    3  C1  UNL     1      25.077  13.003  59.583  1.00  0.00     0.048 C 
BRANCH   2   4
HETATM    4  O1  UNL     1      25.789  12.797  57.383  1.00  0.00    -0.364 OA
ATOM      5  H1  UNL     1      26.098  13.327  56.657  1.00  0.00     0.217 HD
ENDBRANCH   2   4
ENDBRANCH   1   2
BRANCH   1   6
HETATM    6  C4  UNL     1      24.395  15.702  58.586  1.00  0.00     0.036 C 
HETATM    7  C5  UNL     1      24.646  16.815  57.602  1.00  0.00     0.007 C 
ENDBRANCH   1   6
BRANCH   1   8
HETATM    8  N1  UNL     1      22.674  13.963  58.402  1.00  0.00    -0.058 N 
HETATM    9  C6  UNL     1      22.213  12.700  57.861  1.00  0.00     0.273 C 
HETATM   10  C7  UNL     1      22.330  14.241  59.785  1.00  0.00     0.266 A 
HETATM   11  C8  UNL     1      21.606  14.907  58.630  1.00  0.00     0.266 A 
ENDBRANCH   1   8
TORSDOF 4
ENDMDL
MODEL 5
REMARK VINA RESULT: -3.765000527      1.538      2.699
REMARK  4 active torsions:
REMARK  status: ('A' for Active; 'I' for Inactive)
REMARK    1  A    between atoms: C2_2  and  O1_3 
REMARK    2  A    between atoms: C2_2  and  C3_5 
REMARK    3  A    between atoms: C3_5  and  C4_6 
REMARK    4  A    between atoms: C3_5  and  N1_8 
ROOT
HETATM    1  C3  UNL     1      22.233  13.598  58.414  1.00  0.00     0.244 C 
ENDROOT
BRANCH   1   2
HETATM    2  C2  UNL     1      21.817  14.879  59.097  1.00  0.00     0.065 C 
HETATM    3  C1  UNL     1      21.736  15.992  58.407  1.00  0.00     0.048 C 
BRANCH   2   4
HETATM    4  O1  UNL     1      21.516  14.905  60.447  1.00  0.00    -0.364 OA
ATOM      5  H1  UNL     1      22.143  14.546  61.064  1.00  0.00     0.217 HD
ENDBRANCH   2   4
ENDBRANCH   1   2
BRANCH   1   6
HETATM    6  C4  UNL     1      21.237  12.561  58.815  1.00  0.00     0.036 C 
HETATM    7  C5  UNL     1      20.843  11.638  57.691  1.00  0.00     0.007 C 
ENDBRANCH   1   6
BRANCH   1   8
HETATM    8  N1  UNL     1      23.572  13.313  58.837  1.00  0.00    -0.058 N 
HETATM    9  C6  UNL     1      23.738  12.215  59.768  1.00  0.00     0.273 C 
HETATM   10  C7  UNL     1      24.624  13.492  57.852  1.00  0.00     0.266 A 
HETATM   11  C8  UNL     1      24.500  14.395  59.064  1.00  0.00     0.266 A 
ENDBRANCH   1   8
TORSDOF 4
ENDMDL
