MODEL 1
REMARK VINA RESULT: -4.379728416      0.000      0.000
REMARK  4 active torsions:
REMARK  status: ('A' for Active; 'I' for Inactive)
REMARK    1  A    between atoms: C3_3  and  C4_4 
REMARK    2  A    between atoms: C5_5  and  C6_6 
REMARK    3  A    between atoms: C7_7  and  N1_8 
REMARK    4  A    between atoms: N1_8  and  C8_10 
ROOT
HETATM    1  C1  UNL     1      24.731  17.165  57.028  1.00  0.00     0.013 C 
HETATM    2  C2  UNL     1      23.914  16.845  57.854  1.00  0.00    -0.105 C 
HETATM    3  C3  UNL     1      22.903  16.438  58.845  1.00  0.00     0.187 C 
ENDROOT
BRANCH   3   4
HETATM    4  C4  UNL     1      22.500  15.040  58.634  1.00  0.00    -0.090 C 
HETATM    5  C5  UNL     1      22.160  13.898  58.444  1.00  0.00    -0.076 C 
BRANCH   5   6
HETATM    6  C6  UNL     1      21.739  12.526  58.191  1.00  0.00     0.081 C 
HETATM    7  C7  UNL     1      20.670  12.055  58.799  1.00  0.00     0.092 C 
BRANCH   7   8
HETATM    8  N1  UNL     1      20.275  10.721  58.542  1.00  0.00    -0.394 N 
ATOM      9  H1  UNL     1      20.153  10.091  59.335  1.00  0.00     0.159 HD
BRANCH   8  10
HETATM   10  C8  UNL     1      20.036  10.207  57.210  1.00  0.00     0.081 A 
HETATM   11  C9  UNL     1      18.833  10.739  56.528  1.00  0.00     0.027 A 
HETATM   12  C10 UNL     1      18.851   9.344  56.967  1.00  0.00     0.027 A 
ENDBRANCH   8  10
ENDBRANCH   7   8
ENDBRANCH   5   6
ENDBRANCH   3   4
TORSDOF 4
ENDMDL
MODEL 2
REMARK VINA RESULT: -4.224876608      2.144      6.465
REMARK  4 active torsions:
REMARK  status: ('A' for Active; 'I' for Inactive)
REMARK    1  A    between atoms: C3_3  and  C4_4 
REMARK    2  A    between atoms: C5_5  and  C6_6 
REMARK    3  A    between atoms: C7_7  and  N1_8 
REMARK    4  A    between atoms: N1_8  and  C8_10 
ROOT
HETATM    1  C1  UNL     1      19.167  10.491  56.871  1.00  0.00     0.013 C 
HETATM    2  C2  UNL     1      19.723  10.511  57.939  1.00  0.00    -0.105 C 
HETATM    3  C3  UNL     1      20.427  10.541  59.233  1.00  0.00     0.187 C 
ENDROOT
BRANCH   3   4
HETATM    4  C4  UNL     1      21.485  11.562  59.227  1.00  0.00    -0.090 C 
HETATM    5  C5  UNL     1      22.350  12.403  59.202  1.00  0.00    -0.076 C 
BRANCH   5   6
HETATM    6  C6  UNL     1      23.388  13.424  59.147  1.00  0.00     0.081 C 
HETATM    7  C7  UNL     1      23.768  13.899  57.979  1.00  0.00     0.092 C 
BRANCH   7   8
HETATM    8  N1  UNL     1      24.777  14.889  57.944  1.00  0.00    -0.394 N 
ATOM      9  H1  UNL     1      25.713  14.616  57.643  1.00  0.00     0.159 HD
BRANCH   8  10
HETATM   10  C8  UNL     1      24.548  16.269  58.315  1.00  0.00     0.081 A 
HETATM   11  C9  UNL     1      23.273  16.853  57.838  1.00  0.00     0.027 A 
HETATM   12  C10 UNL     1      24.535  17.313  57.258  1.00  0.00     0.027 A 
ENDBRANCH   8  10
ENDBRANCH   7   8
ENDBRANCH   5   6
ENDBRANCH   3   4
TORSDOF 4
ENDMDL
MODEL 3
REMARK VINA RESULT: -4.209026151      2.926      6.669
REMARK  4 active torsions:
REMARK  status: ('A' for Active; 'I' for Inactive)
REMARK    1  A    between atoms: C3_3  and  C4_4 
REMARK    2  A    between atoms: C5_5  and  C6_6 
REMARK    3  A    between atoms: C7_7  and  N1_8 
REMARK    4  A    between atoms: N1_8  and  C8_10 
ROOT
HETATM    1  C1  UNL     1      20.390  10.590  63.063  1.00  0.00     0.013 C 
HETATM    2  C2  UNL     1      20.487  10.630  61.863  1.00  0.00    -0.105 C 
HETATM    3  C3  UNL     1      20.610  10.706  60.397  1.00  0.00     0.187 C 
ENDROOT
BRANCH   3   4
HETATM    4  C4  UNL     1      21.586  11.734  60.008  1.00  0.00    -0.090 C 
HETATM    5  C5  UNL     1      22.399  12.573  59.705  1.00  0.00    -0.076 C 
BRANCH   5   6
HETATM    6  C6  UNL     1      23.396  13.578  59.359  1.00  0.00     0.081 C 
HETATM    7  C7  UNL     1      23.650  13.829  58.091  1.00  0.00     0.092 C 
BRANCH   7   8
HETATM    8  N1  UNL     1      24.620  14.807  57.774  1.00  0.00    -0.394 N 
ATOM      9  H1  UNL     1      25.419  14.530  57.202  1.00  0.00     0.159 HD
BRANCH   8  10
HETATM   10  C8  UNL     1      24.536  16.182  58.219  1.00  0.00     0.081 A 
HETATM   11  C9  UNL     1      23.313  16.911  57.809  1.00  0.00     0.027 A 
HETATM   12  C10 UNL     1      24.599  17.276  57.215  1.00  0.00     0.027 A 
ENDBRANCH   8  10
ENDBRANCH   7   8
ENDBRANCH   5   6
ENDBRANCH   3   4
TORSDOF 4
ENDMDL
MODEL 4
REMARK VINA RESULT: -4.188755223      3.127      5.971
REMARK  4 active torsions:
REMARK  status: ('A' for Active; 'I' for Inactive)
REMARK    1  A    between atoms: C3_3  and  C4_4 
REMARK    2  A    between atoms: C5_5  and  C6_6 
REMARK    3  A    between atoms: C7_7  and  N1_8 
REMARK    4  A    between atoms: N1_8  and  C8_10 
ROOT
HETATM    1  C1  UNL     1      23.755  10.589  52.447  1.00  0.00     0.013 C 
HETATM    2  C2  UNL     1      23.076  10.294  53.398  1.00  0.00    -0.105 C 
HETATM    3  C3  UNL     1      22.266   9.941  54.577  1.00  0.00     0.187 C 
ENDROOT
BRANCH   3   4
HETATM    4  C4  UNL     1      22.561  10.842  55.701  1.00  0.00    -0.090 C 
HETATM    5  C5  UNL     1      22.818  11.590  56.612  1.00  0.00    -0.076 C 
BRANCH   5   6
HETATM    6  C6  UNL     1      23.147  12.504  57.698  1.00  0.00     0.081 C 
HETATM    7  C7  UNL     1      22.178  13.024  58.423  1.00  0.00     0.092 C 
BRANCH   7   8
HETATM    8  N1  UNL     1      22.515  13.909  59.473  1.00  0.00    -0.394 N 
ATOM      9  H1  UNL     1      23.161  13.584  60.192  1.00  0.00     0.159 HD
BRANCH   8  10
HETATM   10  C8  UNL     1      21.988  15.253  59.577  1.00  0.00     0.081 A 
HETATM   11  C9  UNL     1      21.839  15.981  58.295  1.00  0.00     0.027 A 
HETATM   12  C10 UNL     1      22.866  16.406  59.246  1.00  0.00     0.027 A 
ENDBRANCH   8  10
ENDBRANCH   7   8
ENDBRANCH   5   6
ENDBRANCH   3   4
TORSDOF 4
ENDMDL
MODEL 5
REMARK VINA RESULT: -4.028286080      3.996      6.355
REMARK  4 active torsions:
REMARK  status: ('A' for Active; 'I' for Inactive)
REMARK    1  A    between atoms: C3_3  and  C4_4 
REMARK    2  A    between atoms: C5_5  and  C6_6 
REMARK    3  A    between atoms: C7_7  and  N1_8 
REMARK    4  A    between atoms: N1_8  and  C8_10 
ROOT
HETATM    1  C1  UNL     1      21.513  10.263  50.518  1.00  0.00     0.013 C 
HETATM    2  C2  UNL     1      22.450  10.272  51.276  1.00  0.00    -0.105 C 
HETATM    3  C3  UNL     1      23.582  10.300  52.217  1.00  0.00     0.187 C 
ENDROOT
BRANCH   3   4
HETATM    4  C4  UNL     1      23.110  10.501  53.595  1.00  0.00    -0.090 C 
HETATM    5  C5  UNL     1      22.712  10.648  54.724  1.00  0.00    -0.076 C 
BRANCH   5   6
HETATM    6  C6  UNL     1      22.217  10.803  56.086  1.00  0.00     0.081 C 
HETATM    7  C7  UNL     1      22.729  11.740  56.858  1.00  0.00     0.092 C 
BRANCH   7   8
HETATM    8  N1  UNL     1      22.238  11.876  58.177  1.00  0.00    -0.394 N 
ATOM      9  H1  UNL     1      22.339  11.087  58.816  1.00  0.00     0.159 HD
BRANCH   8  10
HETATM   10  C8  UNL     1      21.600  13.080  58.666  1.00  0.00     0.081 A 
HETATM   11  C9  UNL     1      22.310  14.345  58.364  1.00  0.00     0.027 A 
HETATM   12  C10 UNL     1      22.256  13.864  59.744  1.00  0.00     0.027 A 
ENDBRANCH   8  10
ENDBRANCH   7   8
ENDBRANCH   5   6
ENDBRANCH   3   4
TORSDOF 4
ENDMDL
