MODEL 1
REMARK VINA RESULT: -3.996460224      0.000      0.000
REMARK  2 active torsions:
REMARK  status: ('A' for Active; 'I' for Inactive)
REMARK    1  A    between atoms: C2_2  and  N1_4 
REMARK    2  A    between atoms: C2_2  and  N2_8 
ROOT
HETATM    1  C1  UNL     1      27.206  12.909  17.878  1.00  0.00     0.078 C 
HETATM    2  C2  UNL     1      27.994  14.161  18.290  1.00  0.00     0.281 C 
HETATM    3  C3  UNL     1      28.966  13.707  19.350  1.00  0.00     0.078 C 
ENDROOT
BRANCH   2   4
HETATM    4  N1  UNL     1      27.033  15.069  18.871  1.00  0.00    -0.045 N 
ATOM      5  H13 UNL     1      27.296  15.400  19.798  1.00  0.00     0.277 HD
ATOM      6  H12 UNL     1      27.009  15.981  18.414  1.00  0.00     0.277 HD
ATOM      7  H11 UNL     1      26.136  14.582  18.853  1.00  0.00     0.277 HD
ENDBRANCH   2   4
BRANCH   2   8
HETATM    8  N2  UNL     1      28.628  14.661  17.111  1.00  0.00    -0.034 N 
HETATM    9  C4  UNL     1      28.271  16.013  16.751  1.00  0.00     0.275 C 
HETATM   10  C5  UNL     1      28.780  13.665  16.053  1.00  0.00     0.268 A 
HETATM   11  C6  UNL     1      29.940  14.252  16.722  1.00  0.00     0.268 A 
ENDBRANCH   2   8
TORSDOF 2
ENDMDL
MODEL 2
REMARK VINA RESULT: -3.959269760      0.587      1.659
REMARK  2 active torsions:
REMARK  status: ('A' for Active; 'I' for Inactive)
REMARK    1  A    between atoms: C2_2  and  N1_4 
REMARK    2  A    between atoms: C2_2  and  N2_8 
ROOT
HETATM    1  C1  UNL     1      27.253  12.932  17.671  1.00  0.00     0.078 C 
HETATM    2  C2  UNL     1      27.873  14.200  18.276  1.00  0.00     0.281 C 
HETATM    3  C3  UNL     1      28.973  13.725  19.193  1.00  0.00     0.078 C 
ENDROOT
BRANCH   2   4
HETATM    4  N1  UNL     1      26.830  14.826  19.054  1.00  0.00    -0.045 N 
ATOM      5  H13 UNL     1      27.175  15.297  19.890  1.00  0.00     0.277 HD
ATOM      6  H12 UNL     1      26.426  15.648  18.605  1.00  0.00     0.277 HD
ATOM      7  H11 UNL     1      26.146  14.095  19.253  1.00  0.00     0.277 HD
ENDBRANCH   2   4
BRANCH   2   8
HETATM    8  N2  UNL     1      28.342  14.996  17.186  1.00  0.00    -0.034 N 
HETATM    9  C4  UNL     1      28.836  14.250  16.053  1.00  0.00     0.275 C 
HETATM   10  C5  UNL     1      29.050  16.205  17.599  1.00  0.00     0.268 A 
HETATM   11  C6  UNL     1      27.779  16.273  16.879  1.00  0.00     0.268 A 
ENDBRANCH   2   8
TORSDOF 2
ENDMDL
MODEL 3
REMARK VINA RESULT: -3.803283858      1.388      2.690
REMARK  2 active torsions:
REMARK  status: ('A' for Active; 'I' for Inactive)
REMARK    1  A    between atoms: C2_2  and  N1_4 
REMARK    2  A    between atoms: C2_2  and  N2_8 
ROOT
HETATM    1  C1  UNL     1      29.163  13.962  18.501  1.00  0.00     0.078 C 
HETATM    2  C2  UNL     1      28.976  14.025  16.979  1.00  0.00     0.281 C 
HETATM    3  C3  UNL     1      27.878  13.041  16.657  1.00  0.00     0.078 C 
ENDROOT
BRANCH   2   4
HETATM    4  N1  UNL     1      30.219  13.570  16.401  1.00  0.00    -0.045 N 
ATOM      5  H13 UNL     1      30.104  12.793  15.750  1.00  0.00     0.277 HD
ATOM      6  H12 UNL     1      30.623  14.231  15.737  1.00  0.00     0.277 HD
ATOM      7  H11 UNL     1      30.835  13.355  17.186  1.00  0.00     0.277 HD
ENDBRANCH   2   4
BRANCH   2   8
HETATM    8  N2  UNL     1      28.644  15.376  16.655  1.00  0.00    -0.034 N 
HETATM    9  C4  UNL     1      28.897  15.756  15.285  1.00  0.00     0.275 C 
HETATM   10  C5  UNL     1      28.943  16.330  17.720  1.00  0.00     0.268 A 
HETATM   11  C6  UNL     1      27.569  16.069  17.293  1.00  0.00     0.268 A 
ENDBRANCH   2   8
TORSDOF 2
ENDMDL
MODEL 4
REMARK VINA RESULT: -3.780503325      1.125      2.072
REMARK  2 active torsions:
REMARK  status: ('A' for Active; 'I' for Inactive)
REMARK    1  A    between atoms: C2_2  and  N1_4 
REMARK    2  A    between atoms: C2_2  and  N2_8 
ROOT
HETATM    1  C1  UNL     1      29.030  14.063  19.207  1.00  0.00     0.078 C 
HETATM    2  C2  UNL     1      27.892  14.178  18.184  1.00  0.00     0.281 C 
HETATM    3  C3  UNL     1      27.482  15.630  18.183  1.00  0.00     0.078 C 
ENDROOT
BRANCH   2   4
HETATM    4  N1  UNL     1      26.810  13.369  18.693  1.00  0.00    -0.045 N 
ATOM      5  H13 UNL     1      27.081  12.774  19.475  1.00  0.00     0.277 HD
ATOM      6  H12 UNL     1      26.098  13.908  19.187  1.00  0.00     0.277 HD
ATOM      7  H11 UNL     1      26.444  12.849  17.895  1.00  0.00     0.277 HD
ENDBRANCH   2   4
BRANCH   2   8
HETATM    8  N2  UNL     1      28.412  13.732  16.930  1.00  0.00    -0.034 N 
HETATM    9  C4  UNL     1      27.907  12.457  16.478  1.00  0.00     0.275 C 
HETATM   10  C5  UNL     1      29.825  14.043  16.731  1.00  0.00     0.268 A 
HETATM   11  C6  UNL     1      28.786  14.643  15.895  1.00  0.00     0.268 A 
ENDBRANCH   2   8
TORSDOF 2
ENDMDL
MODEL 5
REMARK VINA RESULT: -3.728627970      1.308      2.156
REMARK  2 active torsions:
REMARK  status: ('A' for Active; 'I' for Inactive)
REMARK    1  A    between atoms: C2_2  and  N1_4 
REMARK    2  A    between atoms: C2_2  and  N2_8 
ROOT
HETATM    1  C1  UNL     1      27.520  15.225  18.104  1.00  0.00     0.078 C 
HETATM    2  C2  UNL     1      28.178  13.865  17.834  1.00  0.00     0.281 C 
HETATM    3  C3  UNL     1      27.069  12.846  17.915  1.00  0.00     0.078 C 
ENDROOT
BRANCH   2   4
HETATM    4  N1  UNL     1      29.114  13.650  18.912  1.00  0.00    -0.045 N 
ATOM      5  H13 UNL     1      29.072  14.368  19.636  1.00  0.00     0.277 HD
ATOM      6  H12 UNL     1      28.872  12.858  19.508  1.00  0.00     0.277 HD
ATOM      7  H11 UNL     1      30.034  13.565  18.478  1.00  0.00     0.277 HD
ENDBRANCH   2   4
BRANCH   2   8
HETATM    8  N2  UNL     1      28.786  13.945  16.544  1.00  0.00    -0.034 N 
HETATM    9  C4  UNL     1      28.708  12.738  15.755  1.00  0.00     0.275 C 
HETATM   10  C5  UNL     1      30.020  14.727  16.518  1.00  0.00     0.268 A 
HETATM   11  C6  UNL     1      28.825  15.161  15.796  1.00  0.00     0.268 A 
ENDBRANCH   2   8
TORSDOF 2
ENDMDL
