MODEL 1
REMARK VINA RESULT: -5.995529039      0.000      0.000
REMARK  4 active torsions:
REMARK  status: ('A' for Active; 'I' for Inactive)
REMARK    1  A    between atoms: C1_2  and  C2_4 
REMARK    2  A    between atoms: C3_5  and  C7_9 
REMARK    3  A    between atoms: C4_6  and  C9_11 
REMARK    4  A    between atoms: C5_7  and  C6_8 
ROOT
HETATM    1  C2  UNL     1      82.365  68.525 -10.315  1.00  0.00     0.084 C 
HETATM    2  C3  UNL     1      83.496  69.495 -10.564  1.00  0.00     0.008 C 
HETATM    3  C4  UNL     1      83.517  69.741  -9.059  1.00  0.00     0.001 C 
HETATM    4  C5  UNL     1      83.136  68.259  -9.049  1.00  0.00     0.008 C 
ENDROOT
BRANCH   1   5
HETATM    5  C1  UNL     1      81.011  68.969 -10.263  1.00  0.00     0.236 C 
HETATM    6  N1  UNL     1      80.278  69.414  -9.135  1.00  0.00    -0.062 NA
HETATM    7  O1  UNL     1      80.304  68.999 -11.337  1.00  0.00    -0.276 OA
ENDBRANCH   1   5
BRANCH   2   8
HETATM    8  C7  UNL     1      84.776  68.663 -10.650  1.00  0.00     0.001 A 
HETATM    9  C6  UNL     1      85.793  69.817 -10.611  1.00  0.00     0.001 A 
HETATM   10  C10 UNL     1      86.007  69.641 -12.039  1.00  0.00     0.000 A 
HETATM   11  C8  UNL     1      85.062  68.514 -12.080  1.00  0.00     0.000 A 
HETATM   12  C9  UNL     1      84.685  69.812 -12.668  1.00  0.00     0.000 A 
ENDBRANCH   2   8
TORSDOF 4
ENDMDL
MODEL 2
REMARK VINA RESULT: -5.642404839      2.708      4.836
REMARK  4 active torsions:
REMARK  status: ('A' for Active; 'I' for Inactive)
REMARK    1  A    between atoms: C1_2  and  C2_4 
REMARK    2  A    between atoms: C3_5  and  C7_9 
REMARK    3  A    between atoms: C4_6  and  C9_11 
REMARK    4  A    between atoms: C5_7  and  C6_8 
ROOT
HETATM    1  C2  UNL     1      82.651  68.494  -9.820  1.00  0.00     0.084 C 
HETATM    2  C3  UNL     1      81.629  69.508  -9.358  1.00  0.00     0.008 C 
HETATM    3  C4  UNL     1      80.889  69.245 -10.665  1.00  0.00     0.001 C 
HETATM    4  C5  UNL     1      81.436  67.838 -10.419  1.00  0.00     0.008 C 
ENDROOT
BRANCH   1   5
HETATM    5  C1  UNL     1      83.751  68.879 -10.641  1.00  0.00     0.236 C 
HETATM    6  N1  UNL     1      83.996  68.536 -11.994  1.00  0.00    -0.062 NA
HETATM    7  O1  UNL     1      84.676  69.633 -10.163  1.00  0.00    -0.276 OA
ENDBRANCH   1   5
BRANCH   2   8
HETATM    8  C7  UNL     1      80.666  68.767  -8.430  1.00  0.00     0.001 A 
HETATM    9  C6  UNL     1      79.577  69.850  -8.331  1.00  0.00     0.001 A 
HETATM   10  C10 UNL     1      80.055  70.170  -6.995  1.00  0.00     0.000 A 
HETATM   11  C8  UNL     1      81.077  69.115  -7.066  1.00  0.00     0.000 A 
HETATM   12  C9  UNL     1      81.476  70.532  -7.152  1.00  0.00     0.000 A 
ENDBRANCH   2   8
TORSDOF 4
ENDMDL
MODEL 3
REMARK VINA RESULT: -5.562150705      1.848      2.471
REMARK  4 active torsions:
REMARK  status: ('A' for Active; 'I' for Inactive)
REMARK    1  A    between atoms: C1_2  and  C2_4 
REMARK    2  A    between atoms: C3_5  and  C7_9 
REMARK    3  A    between atoms: C4_6  and  C9_11 
REMARK    4  A    between atoms: C5_7  and  C6_8 
ROOT
HETATM    1  C2  UNL     1      82.816  69.978  -9.248  1.00  0.00     0.084 C 
HETATM    2  C3  UNL     1      84.040  69.138  -9.531  1.00  0.00     0.008 C 
HETATM    3  C4  UNL     1      83.093  68.078 -10.083  1.00  0.00     0.001 C 
HETATM    4  C5  UNL     1      82.322  69.328 -10.513  1.00  0.00     0.008 C 
ENDROOT
BRANCH   1   5
HETATM    5  C1  UNL     1      82.094  69.839  -8.027  1.00  0.00     0.236 C 
HETATM    6  N1  UNL     1      81.097  68.885  -7.703  1.00  0.00    -0.062 NA
HETATM    7  O1  UNL     1      82.322  70.643  -7.050  1.00  0.00    -0.276 OA
ENDBRANCH   1   5
BRANCH   2   8
HETATM    8  C7  UNL     1      84.603  69.621 -10.869  1.00  0.00     0.001 A 
HETATM    9  C6  UNL     1      85.388  68.354 -11.249  1.00  0.00     0.001 A 
HETATM   10  C10 UNL     1      86.618  69.041 -10.889  1.00  0.00     0.000 A 
HETATM   11  C8  UNL     1      85.880  70.269 -10.557  1.00  0.00     0.000 A 
HETATM   12  C9  UNL     1      86.458  69.443  -9.480  1.00  0.00     0.000 A 
ENDBRANCH   2   8
TORSDOF 4
ENDMDL
MODEL 4
REMARK VINA RESULT: -5.449102087      3.065      4.579
REMARK  4 active torsions:
REMARK  status: ('A' for Active; 'I' for Inactive)
REMARK    1  A    between atoms: C1_2  and  C2_4 
REMARK    2  A    between atoms: C3_5  and  C7_9 
REMARK    3  A    between atoms: C4_6  and  C9_11 
REMARK    4  A    between atoms: C5_7  and  C6_8 
ROOT
HETATM    1  C2  UNL     1      85.226  68.548 -10.833  1.00  0.00     0.084 C 
HETATM    2  C3  UNL     1      83.948  69.349 -10.746  1.00  0.00     0.008 C 
HETATM    3  C4  UNL     1      84.097  69.609 -12.241  1.00  0.00     0.001 C 
HETATM    4  C5  UNL     1      84.678  68.195 -12.191  1.00  0.00     0.008 C 
ENDROOT
BRANCH   1   5
HETATM    5  C1  UNL     1      86.499  69.176 -10.704  1.00  0.00     0.236 C 
HETATM    6  N1  UNL     1      87.435  69.478 -11.724  1.00  0.00    -0.062 NA
HETATM    7  O1  UNL     1      86.918  69.545  -9.545  1.00  0.00    -0.276 OA
ENDBRANCH   1   5
BRANCH   2   8
HETATM    8  C7  UNL     1      82.796  68.346 -10.830  1.00  0.00     0.001 A 
HETATM    9  C6  UNL     1      81.640  69.350 -10.987  1.00  0.00     0.001 A 
HETATM   10  C10 UNL     1      81.278  69.108  -9.599  1.00  0.00     0.000 A 
HETATM   11  C8  UNL     1      82.358  68.121  -9.449  1.00  0.00     0.000 A 
HETATM   12  C9  UNL     1      82.475  69.443  -8.806  1.00  0.00     0.000 A 
ENDBRANCH   2   8
TORSDOF 4
ENDMDL
MODEL 5
REMARK VINA RESULT: -5.281473975      1.478      2.635
REMARK  4 active torsions:
REMARK  status: ('A' for Active; 'I' for Inactive)
REMARK    1  A    between atoms: C1_2  and  C2_4 
REMARK    2  A    between atoms: C3_5  and  C7_9 
REMARK    3  A    between atoms: C4_6  and  C9_11 
REMARK    4  A    between atoms: C5_7  and  C6_8 
ROOT
HETATM    1  C2  UNL     1      83.544  69.271 -11.062  1.00  0.00     0.084 C 
HETATM    2  C3  UNL     1      84.851  68.514 -11.116  1.00  0.00     0.008 C 
HETATM    3  C4  UNL     1      84.398  67.977 -12.469  1.00  0.00     0.001 C 
HETATM    4  C5  UNL     1      83.769  69.369 -12.548  1.00  0.00     0.008 C 
ENDROOT
BRANCH   1   5
HETATM    5  C1  UNL     1      82.363  68.664 -10.543  1.00  0.00     0.236 C 
HETATM    6  N1  UNL     1      81.039  68.755 -11.042  1.00  0.00    -0.062 NA
HETATM    7  O1  UNL     1      82.429  67.924  -9.493  1.00  0.00    -0.276 OA
ENDBRANCH   1   5
BRANCH   2   8
HETATM    8  C7  UNL     1      85.904  69.496 -11.632  1.00  0.00     0.001 A 
HETATM    9  C6  UNL     1      87.160  68.696 -11.246  1.00  0.00     0.001 A 
HETATM   10  C10 UNL     1      87.368  69.609 -10.134  1.00  0.00     0.000 A 
HETATM   11  C8  UNL     1      86.189  70.402 -10.515  1.00  0.00     0.000 A 
HETATM   12  C9  UNL     1      86.141  69.539  -9.320  1.00  0.00     0.000 A 
ENDBRANCH   2   8
TORSDOF 4
ENDMDL
