MODEL 1
REMARK VINA RESULT: -6.386749455      0.000      0.000
REMARK  6 active torsions:
REMARK  status: ('A' for Active; 'I' for Inactive)
REMARK    1  A    between atoms: N1_1  and  N2_4 
REMARK       I    between atoms: C1_6  and  N3_7 
REMARK       I    between atoms: C1_6  and  N5_12 
REMARK    2  A    between atoms: N3_7  and  N4_9 
REMARK    3  A    between atoms: N5_12  and  O1_14 
REMARK    4  A    between atoms: O1_14  and  C2_15 
REMARK    5  A    between atoms: C2_15  and  C3_16 
REMARK    6  A    between atoms: C8_21  and  N6_22 
ROOT
HETATM    1  N2  UNL     1       5.164  14.570  39.794  1.00  0.00    -0.136 N 
ATOM      2  H2  UNL     1       5.982  15.131  40.034  1.00  0.00     0.205 HD
HETATM    3  C1  UNL     1       5.080  14.112  38.636  1.00  0.00     0.730 C 
HETATM    4  N3  UNL     1       3.873  13.329  38.388  1.00  0.00    -0.136 N 
ATOM      5  H3  UNL     1       3.867  12.314  38.481  1.00  0.00     0.205 HD
HETATM    6  N5  UNL     1       5.948  14.259  37.576  1.00  0.00    -0.093 N 
ATOM      7  H5  UNL     1       5.831  13.556  36.847  1.00  0.00     0.213 HD
ENDROOT
BRANCH   6   8
HETATM    8  O1  UNL     1       6.890  15.124  37.329  1.00  0.00    -0.262 OA
BRANCH   8   9
HETATM    9  C2  UNL     1       7.304  15.285  36.039  1.00  0.00     0.243 C 
BRANCH   9  10
HETATM   10  C3  UNL     1       8.647  14.567  35.828  1.00  0.00     0.001 A 
HETATM   11  C4  UNL     1       9.699  14.889  36.624  1.00  0.00     0.012 A 
HETATM   12  C5  UNL     1      10.967  14.322  36.443  1.00  0.00     0.001 A 
HETATM   13  C6  UNL     1      11.086  13.414  35.392  1.00  0.00     0.002 A 
HETATM   14  C7  UNL     1       9.997  13.120  34.618  1.00  0.00     0.037 A 
HETATM   15  C8  UNL     1       8.743  13.686  34.812  1.00  0.00     0.111 A 
BRANCH  15  16
HETATM   16  N6  UNL     1       7.697  13.322  33.926  1.00  0.00    -0.115 N 
HETATM   17  O2  UNL     1       7.157  12.199  33.996  1.00  0.00    -0.532 OA
HETATM   18  O3  UNL     1       7.295  14.168  32.934  1.00  0.00    -0.532 OA
ENDBRANCH  15  16
ENDBRANCH   9  10
ENDBRANCH   8   9
ENDBRANCH   6   8
BRANCH   1  19
HETATM   19  N1  UNL     1       4.185  14.354  40.794  1.00  0.00    -0.331 N 
ATOM     20  H12 UNL     1       3.974  15.135  41.416  1.00  0.00     0.177 HD
ATOM     21  H11 UNL     1       3.690  13.470  40.917  1.00  0.00     0.177 HD
ENDBRANCH   1  19
BRANCH   4  22
HETATM   22  N4  UNL     1       2.743  14.028  38.020  1.00  0.00    -0.331 N 
ATOM     23  H42 UNL     1       2.697  14.510  37.123  1.00  0.00     0.177 HD
ATOM     24  H41 UNL     1       1.969  14.034  38.685  1.00  0.00     0.177 HD
ENDBRANCH   4  22
TORSDOF 6
ENDMDL
MODEL 2
REMARK VINA RESULT: -6.270212273      0.691      1.434
REMARK  6 active torsions:
REMARK  status: ('A' for Active; 'I' for Inactive)
REMARK    1  A    between atoms: N1_1  and  N2_4 
REMARK       I    between atoms: C1_6  and  N3_7 
REMARK       I    between atoms: C1_6  and  N5_12 
REMARK    2  A    between atoms: N3_7  and  N4_9 
REMARK    3  A    between atoms: N5_12  and  O1_14 
REMARK    4  A    between atoms: O1_14  and  C2_15 
REMARK    5  A    between atoms: C2_15  and  C3_16 
REMARK    6  A    between atoms: C8_21  and  N6_22 
ROOT
HETATM    1  N2  UNL     1       3.781  13.450  38.236  1.00  0.00    -0.136 N 
ATOM      2  H2  UNL     1       3.679  13.382  37.223  1.00  0.00     0.205 HD
HETATM    3  C1  UNL     1       4.848  13.912  38.692  1.00  0.00     0.730 C 
HETATM    4  N3  UNL     1       4.902  13.965  40.150  1.00  0.00    -0.136 N 
ATOM      5  H3  UNL     1       4.651  14.809  40.663  1.00  0.00     0.205 HD
HETATM    6  N5  UNL     1       5.965  14.352  38.018  1.00  0.00    -0.093 N 
ATOM      7  H5  UNL     1       6.569  14.959  38.573  1.00  0.00     0.213 HD
ENDROOT
BRANCH   6   8
HETATM    8  O1  UNL     1       6.397  14.140  36.807  1.00  0.00    -0.262 OA
BRANCH   8   9
HETATM    9  C2  UNL     1       7.206  15.077  36.233  1.00  0.00     0.243 C 
BRANCH   9  10
HETATM   10  C3  UNL     1       8.590  14.469  35.948  1.00  0.00     0.001 A 
HETATM   11  C4  UNL     1       9.626  14.772  36.772  1.00  0.00     0.012 A 
HETATM   12  C5  UNL     1      10.925  14.307  36.533  1.00  0.00     0.001 A 
HETATM   13  C6  UNL     1      11.092  13.520  35.395  1.00  0.00     0.002 A 
HETATM   14  C7  UNL     1      10.018  13.240  34.595  1.00  0.00     0.037 A 
HETATM   15  C8  UNL     1       8.733  13.704  34.848  1.00  0.00     0.111 A 
BRANCH  15  16
HETATM   16  N6  UNL     1       7.705  13.368  33.930  1.00  0.00    -0.115 N 
HETATM   17  O2  UNL     1       7.155  12.249  33.962  1.00  0.00    -0.532 OA
HETATM   18  O3  UNL     1       7.332  14.239  32.948  1.00  0.00    -0.532 OA
ENDBRANCH  15  16
ENDBRANCH   9  10
ENDBRANCH   8   9
ENDBRANCH   6   8
BRANCH   1  19
HETATM   19  N1  UNL     1       2.706  13.016  39.048  1.00  0.00    -0.331 N 
ATOM     20  H12 UNL     1       2.583  13.483  39.947  1.00  0.00     0.177 HD
ATOM     21  H11 UNL     1       2.061  12.272  38.780  1.00  0.00     0.177 HD
ENDBRANCH   1  19
BRANCH   4  22
HETATM   22  N4  UNL     1       5.307  12.818  40.800  1.00  0.00    -0.331 N 
ATOM     23  H42 UNL     1       5.101  12.680  41.790  1.00  0.00     0.177 HD
ATOM     24  H41 UNL     1       5.814  12.129  40.245  1.00  0.00     0.177 HD
ENDBRANCH   4  22
TORSDOF 6
ENDMDL
MODEL 3
REMARK VINA RESULT: -6.118757349      1.052      1.147
REMARK  6 active torsions:
REMARK  status: ('A' for Active; 'I' for Inactive)
REMARK    1  A    between atoms: N1_1  and  N2_4 
REMARK       I    between atoms: C1_6  and  N3_7 
REMARK       I    between atoms: C1_6  and  N5_12 
REMARK    2  A    between atoms: N3_7  and  N4_9 
REMARK    3  A    between atoms: N5_12  and  O1_14 
REMARK    4  A    between atoms: O1_14  and  C2_15 
REMARK    5  A    between atoms: C2_15  and  C3_16 
REMARK    6  A    between atoms: C8_21  and  N6_22 
ROOT
HETATM    1  N2  UNL     1       4.309  16.219  38.639  1.00  0.00    -0.136 N 
ATOM      2  H2  UNL     1       5.156  16.735  38.880  1.00  0.00     0.205 HD
HETATM    3  C1  UNL     1       4.432  15.124  38.052  1.00  0.00     0.730 C 
HETATM    4  N3  UNL     1       3.166  14.464  37.746  1.00  0.00    -0.136 N 
ATOM      5  H3  UNL     1       2.767  13.761  38.366  1.00  0.00     0.205 HD
HETATM    6  N5  UNL     1       5.578  14.476  37.647  1.00  0.00    -0.093 N 
ATOM      7  H5  UNL     1       5.450  13.479  37.476  1.00  0.00     0.213 HD
ENDROOT
BRANCH   6   8
HETATM    8  O1  UNL     1       6.795  14.895  37.443  1.00  0.00    -0.262 OA
BRANCH   8   9
HETATM    9  C2  UNL     1       7.195  15.126  36.159  1.00  0.00     0.243 C 
BRANCH   9  10
HETATM   10  C3  UNL     1       8.576  14.494  35.920  1.00  0.00     0.001 A 
HETATM   11  C4  UNL     1       9.608  14.836  36.734  1.00  0.00     0.012 A 
HETATM   12  C5  UNL     1      10.905  14.348  36.533  1.00  0.00     0.001 A 
HETATM   13  C6  UNL     1      11.076  13.497  35.442  1.00  0.00     0.002 A 
HETATM   14  C7  UNL     1      10.006  13.180  34.650  1.00  0.00     0.037 A 
HETATM   15  C8  UNL     1       8.722  13.667  34.866  1.00  0.00     0.111 A 
BRANCH  15  16
HETATM   16  N6  UNL     1       7.699  13.287  33.960  1.00  0.00    -0.115 N 
HETATM   17  O2  UNL     1       7.193  12.147  34.003  1.00  0.00    -0.532 OA
HETATM   18  O3  UNL     1       7.283  14.138  32.978  1.00  0.00    -0.532 OA
ENDBRANCH  15  16
ENDBRANCH   9  10
ENDBRANCH   8   9
ENDBRANCH   6   8
BRANCH   1  19
HETATM   19  N1  UNL     1       3.059  16.784  38.989  1.00  0.00    -0.331 N 
ATOM     20  H12 UNL     1       3.050  17.459  39.754  1.00  0.00     0.177 HD
ATOM     21  H11 UNL     1       2.184  16.551  38.519  1.00  0.00     0.177 HD
ENDBRANCH   1  19
BRANCH   4  22
HETATM   22  N4  UNL     1       2.537  14.838  36.577  1.00  0.00    -0.331 N 
ATOM     23  H42 UNL     1       2.947  15.548  35.969  1.00  0.00     0.177 HD
ATOM     24  H41 UNL     1       1.656  14.372  36.359  1.00  0.00     0.177 HD
ENDBRANCH   4  22
TORSDOF 6
ENDMDL
MODEL 4
REMARK VINA RESULT: -6.054533920      3.378      4.848
REMARK  6 active torsions:
REMARK  status: ('A' for Active; 'I' for Inactive)
REMARK    1  A    between atoms: N1_1  and  N2_4 
REMARK       I    between atoms: C1_6  and  N3_7 
REMARK       I    between atoms: C1_6  and  N5_12 
REMARK    2  A    between atoms: N3_7  and  N4_9 
REMARK    3  A    between atoms: N5_12  and  O1_14 
REMARK    4  A    between atoms: O1_14  and  C2_15 
REMARK    5  A    between atoms: C2_15  and  C3_16 
REMARK    6  A    between atoms: C8_21  and  N6_22 
ROOT
HETATM    1  N2  UNL     1       7.105  13.654  34.736  1.00  0.00    -0.136 N 
ATOM      2  H2  UNL     1       6.349  13.992  35.331  1.00  0.00     0.205 HD
HETATM    3  C1  UNL     1       7.819  12.722  35.162  1.00  0.00     0.730 C 
HETATM    4  N3  UNL     1       8.877  12.312  34.243  1.00  0.00    -0.136 N 
ATOM      5  H3  UNL     1       8.750  11.535  33.594  1.00  0.00     0.205 HD
HETATM    6  N5  UNL     1       7.755  12.055  36.365  1.00  0.00    -0.093 N 
ATOM      7  H5  UNL     1       8.224  11.149  36.360  1.00  0.00     0.213 HD
ENDROOT
BRANCH   6   8
HETATM    8  O1  UNL     1       7.207  12.360  37.507  1.00  0.00    -0.262 OA
BRANCH   8   9
HETATM    9  C2  UNL     1       6.981  13.675  37.789  1.00  0.00     0.243 C 
BRANCH   9  10
HETATM   10  C3  UNL     1       8.204  14.275  38.502  1.00  0.00     0.001 A 
HETATM   11  C4  UNL     1       8.546  13.809  39.730  1.00  0.00     0.012 A 
HETATM   12  C5  UNL     1       9.607  14.355  40.463  1.00  0.00     0.001 A 
HETATM   13  C6  UNL     1      10.287  15.412  39.859  1.00  0.00     0.002 A 
HETATM   14  C7  UNL     1       9.906  15.847  38.619  1.00  0.00     0.037 A 
HETATM   15  C8  UNL     1       8.854  15.291  37.900  1.00  0.00     0.111 A 
BRANCH  15  16
HETATM   16  N6  UNL     1       8.537  15.847  36.634  1.00  0.00    -0.115 N 
HETATM   17  O2  UNL     1       7.462  16.452  36.449  1.00  0.00    -0.532 OA
HETATM   18  O3  UNL     1       9.374  15.682  35.570  1.00  0.00    -0.532 OA
ENDBRANCH  15  16
ENDBRANCH   9  10
ENDBRANCH   8   9
ENDBRANCH   6   8
BRANCH   1  19
HETATM   19  N1  UNL     1       7.290  14.267  33.474  1.00  0.00    -0.331 N 
ATOM     20  H12 UNL     1       7.498  13.655  32.684  1.00  0.00     0.177 HD
ATOM     21  H11 UNL     1       7.224  15.274  33.320  1.00  0.00     0.177 HD
ENDBRANCH   1  19
BRANCH   4  22
HETATM   22  N4  UNL     1      10.057  13.024  34.295  1.00  0.00    -0.331 N 
ATOM     23  H42 UNL     1      10.074  13.977  34.659  1.00  0.00     0.177 HD
ATOM     24  H41 UNL     1      10.895  12.552  33.954  1.00  0.00     0.177 HD
ENDBRANCH   4  22
TORSDOF 6
ENDMDL
MODEL 5
REMARK VINA RESULT: -5.991413577      2.359      3.164
REMARK  6 active torsions:
REMARK  status: ('A' for Active; 'I' for Inactive)
REMARK    1  A    between atoms: N1_1  and  N2_4 
REMARK       I    between atoms: C1_6  and  N3_7 
REMARK       I    between atoms: C1_6  and  N5_12 
REMARK    2  A    between atoms: N3_7  and  N4_9 
REMARK    3  A    between atoms: N5_12  and  O1_14 
REMARK    4  A    between atoms: O1_14  and  C2_15 
REMARK    5  A    between atoms: C2_15  and  C3_16 
REMARK    6  A    between atoms: C8_21  and  N6_22 
ROOT
HETATM    1  N2  UNL     1       5.226  14.483  38.002  1.00  0.00    -0.136 N 
ATOM      2  H2  UNL     1       4.921  15.424  37.752  1.00  0.00     0.205 HD
HETATM    3  C1  UNL     1       6.451  14.274  38.132  1.00  0.00     0.730 C 
HETATM    4  N3  UNL     1       6.789  12.898  38.484  1.00  0.00    -0.136 N 
ATOM      5  H3  UNL     1       6.930  12.614  39.453  1.00  0.00     0.205 HD
HETATM    6  N5  UNL     1       7.505  15.145  37.972  1.00  0.00    -0.093 N 
ATOM      7  H5  UNL     1       8.366  14.839  38.423  1.00  0.00     0.213 HD
ENDROOT
BRANCH   6   8
HETATM    8  O1  UNL     1       7.610  16.288  37.354  1.00  0.00    -0.262 OA
BRANCH   8   9
HETATM    9  C2  UNL     1       8.452  16.372  36.283  1.00  0.00     0.243 C 
BRANCH   9  10
HETATM   10  C3  UNL     1       8.231  15.172  35.348  1.00  0.00     0.001 A 
HETATM   11  C4  UNL     1       7.090  15.108  34.615  1.00  0.00     0.012 A 
HETATM   12  C5  UNL     1       6.795  14.013  33.794  1.00  0.00     0.001 A 
HETATM   13  C6  UNL     1       7.740  12.988  33.780  1.00  0.00     0.002 A 
HETATM   14  C7  UNL     1       8.876  13.098  34.534  1.00  0.00     0.037 A 
HETATM   15  C8  UNL     1       9.159  14.194  35.340  1.00  0.00     0.111 A 
BRANCH  15  16
HETATM   16  N6  UNL     1      10.358  14.180  36.096  1.00  0.00    -0.115 N 
HETATM   17  O2  UNL     1      11.471  14.118  35.535  1.00  0.00    -0.532 OA
HETATM   18  O3  UNL     1      10.324  14.174  37.460  1.00  0.00    -0.532 OA
ENDBRANCH  15  16
ENDBRANCH   9  10
ENDBRANCH   8   9
ENDBRANCH   6   8
BRANCH   1  19
HETATM   19  N1  UNL     1       4.239  13.484  38.183  1.00  0.00    -0.331 N 
ATOM     20  H12 UNL     1       3.558  13.361  37.433  1.00  0.00     0.177 HD
ATOM     21  H11 UNL     1       4.178  12.895  39.014  1.00  0.00     0.177 HD
ENDBRANCH   1  19
BRANCH   4  22
HETATM   22  N4  UNL     1       6.909  12.001  37.444  1.00  0.00    -0.331 N 
ATOM     23  H42 UNL     1       7.805  11.861  36.978  1.00  0.00     0.177 HD
ATOM     24  H41 UNL     1       6.066  11.494  37.174  1.00  0.00     0.177 HD
ENDBRANCH   4  22
TORSDOF 6
ENDMDL
