MODEL 1
REMARK VINA RESULT: -5.718300731      0.000      0.000
REMARK  6 active torsions:
REMARK  status: ('A' for Active; 'I' for Inactive)
REMARK    1  A    between atoms: C4_7  and  C5_8 
REMARK    2  A    between atoms: C5_8  and  N3_9 
REMARK    3  A    between atoms: N3_9  and  C6_12 
REMARK    4  A    between atoms: C6_12  and  C7_13 
REMARK    5  A    between atoms: C6_12  and  C8_15 
REMARK    6  A    between atoms: C9_20  and  N5_21 
ROOT
HETATM    1  N1  UNL     1      12.658  16.691  41.782  1.00  0.00    -0.191 NA
HETATM    2  C1  UNL     1      11.880  16.372  41.001  1.00  0.00     0.104 C 
HETATM    3  C2  UNL     1      10.924  15.970  40.010  1.00  0.00     0.103 A 
HETATM    4  C3  UNL     1       9.886  15.123  40.343  1.00  0.00     0.116 A 
HETATM    5  N2  UNL     1       8.987  14.744  39.414  1.00  0.00    -0.353 N 
ATOM      6  H2  UNL     1       8.216  14.118  39.648  1.00  0.00     0.166 HD
HETATM    7  C4  UNL     1       9.142  15.220  38.171  1.00  0.00     0.108 A 
HETATM    8  N4  UNL     1      10.143  16.043  37.829  1.00  0.00    -0.330 N 
ATOM      9  H4  UNL     1      10.207  16.370  36.866  1.00  0.00     0.168 HD
HETATM   10  C9  UNL     1      11.068  16.450  38.724  1.00  0.00     0.122 A 
ENDROOT
BRANCH  10  11
HETATM   11  N5  UNL     1      12.034  17.248  38.381  1.00  0.00    -0.384 N 
ATOM     12  H52 UNL     1      12.729  17.562  39.059  1.00  0.00     0.157 HD
ATOM     13  H51 UNL     1      12.144  17.597  37.429  1.00  0.00     0.157 HD
ENDBRANCH  10  11
BRANCH   7  14
HETATM   14  C5  UNL     1       8.147  14.813  37.132  1.00  0.00     0.309 C 
BRANCH  14  15
HETATM   15  N3  UNL     1       8.502  13.604  36.479  1.00  0.00    -0.048 N 
ATOM     16  H32 UNL     1       9.100  13.028  37.072  1.00  0.00     0.279 HD
ATOM     17  H31 UNL     1       7.699  12.980  36.401  1.00  0.00     0.279 HD
BRANCH  15  18
HETATM   18  C6  UNL     1       9.102  13.828  35.214  1.00  0.00     0.346 C 
BRANCH  18  19
HETATM   19  C7  UNL     1      10.481  13.313  35.052  1.00  0.00     0.275 C 
HETATM   20  O1  UNL     1      11.425  13.985  34.708  1.00  0.00    -0.304 OA
ENDBRANCH  18  19
BRANCH  18  21
HETATM   21  C8  UNL     1       8.247  13.172  34.159  1.00  0.00     0.211 C 
HETATM   22  O2  UNL     1       8.067  11.944  34.232  1.00  0.00    -0.646 OA
HETATM   23  O3  UNL     1       7.690  13.935  33.153  1.00  0.00    -0.646 OA
ENDBRANCH  18  21
ENDBRANCH  15  18
ENDBRANCH  14  15
ENDBRANCH   7  14
TORSDOF 6
ENDMDL
MODEL 2
REMARK VINA RESULT: -5.678757551      3.365      5.258
REMARK  6 active torsions:
REMARK  status: ('A' for Active; 'I' for Inactive)
REMARK    1  A    between atoms: C4_7  and  C5_8 
REMARK    2  A    between atoms: C5_8  and  N3_9 
REMARK    3  A    between atoms: N3_9  and  C6_12 
REMARK    4  A    between atoms: C6_12  and  C7_13 
REMARK    5  A    between atoms: C6_12  and  C8_15 
REMARK    6  A    between atoms: C9_20  and  N5_21 
ROOT
HETATM    1  N1  UNL     1       1.955  16.505  38.179  1.00  0.00    -0.191 NA
HETATM    2  C1  UNL     1       3.018  16.084  38.079  1.00  0.00     0.104 C 
HETATM    3  C2  UNL     1       4.338  15.539  37.942  1.00  0.00     0.103 A 
HETATM    4  C3  UNL     1       5.396  16.352  37.588  1.00  0.00     0.116 A 
HETATM    5  N2  UNL     1       6.637  15.843  37.460  1.00  0.00    -0.353 N 
ATOM      6  H2  UNL     1       7.427  16.433  37.198  1.00  0.00     0.166 HD
HETATM    7  C4  UNL     1       6.796  14.532  37.689  1.00  0.00     0.108 A 
HETATM    8  N4  UNL     1       5.782  13.728  38.033  1.00  0.00    -0.330 N 
ATOM      9  H4  UNL     1       5.967  12.738  38.193  1.00  0.00     0.168 HD
HETATM   10  C9  UNL     1       4.521  14.191  38.174  1.00  0.00     0.122 A 
ENDROOT
BRANCH  10  11
HETATM   11  N5  UNL     1       3.545  13.402  38.508  1.00  0.00    -0.384 N 
ATOM     12  H52 UNL     1       2.809  13.158  37.845  1.00  0.00     0.157 HD
ATOM     13  H51 UNL     1       3.466  12.992  39.438  1.00  0.00     0.157 HD
ENDBRANCH  10  11
BRANCH   7  14
HETATM   14  C5  UNL     1       8.169  13.956  37.556  1.00  0.00     0.309 C 
BRANCH  14  15
HETATM   15  N3  UNL     1       8.275  13.037  36.480  1.00  0.00    -0.048 N 
ATOM     16  H32 UNL     1       8.773  12.193  36.765  1.00  0.00     0.279 HD
ATOM     17  H31 UNL     1       7.368  12.624  36.260  1.00  0.00     0.279 HD
BRANCH  15  18
HETATM   18  C6  UNL     1       8.867  13.615  35.329  1.00  0.00     0.346 C 
BRANCH  18  19
HETATM   19  C7  UNL     1      10.286  13.267  35.088  1.00  0.00     0.275 C 
HETATM   20  O1  UNL     1      11.083  13.990  34.538  1.00  0.00    -0.304 OA
ENDBRANCH  18  19
BRANCH  18  21
HETATM   21  C8  UNL     1       8.081  13.179  34.119  1.00  0.00     0.211 C 
HETATM   22  O2  UNL     1       7.877  11.963  33.962  1.00  0.00    -0.646 OA
HETATM   23  O3  UNL     1       7.612  14.122  33.227  1.00  0.00    -0.646 OA
ENDBRANCH  18  21
ENDBRANCH  15  18
ENDBRANCH  14  15
ENDBRANCH   7  14
TORSDOF 6
ENDMDL
MODEL 3
REMARK VINA RESULT: -5.579628310      3.053      4.679
REMARK  6 active torsions:
REMARK  status: ('A' for Active; 'I' for Inactive)
REMARK    1  A    between atoms: C4_7  and  C5_8 
REMARK    2  A    between atoms: C5_8  and  N3_9 
REMARK    3  A    between atoms: N3_9  and  C6_12 
REMARK    4  A    between atoms: C6_12  and  C7_13 
REMARK    5  A    between atoms: C6_12  and  C8_15 
REMARK    6  A    between atoms: C9_20  and  N5_21 
ROOT
HETATM    1  N1  UNL     1       3.462  13.167  41.848  1.00  0.00    -0.191 NA
HETATM    2  C1  UNL     1       4.270  13.401  41.068  1.00  0.00     0.104 C 
HETATM    3  C2  UNL     1       5.266  13.709  40.083  1.00  0.00     0.103 A 
HETATM    4  C3  UNL     1       6.575  13.937  40.460  1.00  0.00     0.116 A 
HETATM    5  N2  UNL     1       7.512  14.226  39.535  1.00  0.00    -0.353 N 
ATOM      6  H2  UNL     1       8.482  14.398  39.802  1.00  0.00     0.166 HD
HETATM    7  C4  UNL     1       7.123  14.281  38.255  1.00  0.00     0.108 A 
HETATM    8  N4  UNL     1       5.859  14.063  37.870  1.00  0.00    -0.330 N 
ATOM      9  H4  UNL     1       5.626  14.120  36.879  1.00  0.00     0.168 HD
HETATM   10  C9  UNL     1       4.884  13.770  38.758  1.00  0.00     0.122 A 
ENDROOT
BRANCH  10  11
HETATM   11  N5  UNL     1       3.661  13.561  38.374  1.00  0.00    -0.384 N 
ATOM     12  H52 UNL     1       3.092  14.311  37.983  1.00  0.00     0.157 HD
ATOM     13  H51 UNL     1       3.214  12.647  38.443  1.00  0.00     0.157 HD
ENDBRANCH  10  11
BRANCH   7  14
HETATM   14  C5  UNL     1       8.155  14.595  37.219  1.00  0.00     0.309 C 
BRANCH  14  15
HETATM   15  N3  UNL     1       8.589  13.443  36.513  1.00  0.00    -0.048 N 
ATOM     16  H32 UNL     1       9.240  12.892  37.073  1.00  0.00     0.279 HD
ATOM     17  H31 UNL     1       7.835  12.763  36.421  1.00  0.00     0.279 HD
BRANCH  15  18
HETATM   18  C6  UNL     1       9.147  13.762  35.248  1.00  0.00     0.346 C 
BRANCH  18  19
HETATM   19  C7  UNL     1      10.524  13.273  35.008  1.00  0.00     0.275 C 
HETATM   20  O1  UNL     1      11.450  13.974  34.674  1.00  0.00    -0.304 OA
ENDBRANCH  18  19
BRANCH  18  21
HETATM   21  C8  UNL     1       8.263  13.174  34.177  1.00  0.00     0.211 C 
HETATM   22  O2  UNL     1       8.068  11.947  34.188  1.00  0.00    -0.646 OA
HETATM   23  O3  UNL     1       7.699  13.998  33.223  1.00  0.00    -0.646 OA
ENDBRANCH  18  21
ENDBRANCH  15  18
ENDBRANCH  14  15
ENDBRANCH   7  14
TORSDOF 6
ENDMDL
MODEL 4
REMARK VINA RESULT: -5.487411020      0.623      1.595
REMARK  6 active torsions:
REMARK  status: ('A' for Active; 'I' for Inactive)
REMARK    1  A    between atoms: C4_7  and  C5_8 
REMARK    2  A    between atoms: C5_8  and  N3_9 
REMARK    3  A    between atoms: N3_9  and  C6_12 
REMARK    4  A    between atoms: C6_12  and  C7_13 
REMARK    5  A    between atoms: C6_12  and  C8_15 
REMARK    6  A    between atoms: C9_20  and  N5_21 
ROOT
HETATM    1  N1  UNL     1      12.828  16.811  41.470  1.00  0.00    -0.191 NA
HETATM    2  C1  UNL     1      12.030  16.452  40.727  1.00  0.00     0.104 C 
HETATM    3  C2  UNL     1      11.018  16.010  39.813  1.00  0.00     0.103 A 
HETATM    4  C3  UNL     1      11.088  16.345  38.476  1.00  0.00     0.116 A 
HETATM    5  N2  UNL     1      10.138  15.930  37.615  1.00  0.00    -0.353 N 
ATOM      6  H2  UNL     1      10.179  16.172  36.625  1.00  0.00     0.166 HD
HETATM    7  C4  UNL     1       9.137  15.188  38.108  1.00  0.00     0.108 A 
HETATM    8  N4  UNL     1       9.052  14.853  39.402  1.00  0.00    -0.330 N 
ATOM      9  H4  UNL     1       8.264  14.286  39.715  1.00  0.00     0.168 HD
HETATM   10  C9  UNL     1       9.979  15.244  40.302  1.00  0.00     0.122 A 
ENDROOT
BRANCH  10  11
HETATM   11  N5  UNL     1       9.885  14.913  41.555  1.00  0.00    -0.384 N 
ATOM     12  H52 UNL     1       9.756  15.617  42.282  1.00  0.00     0.157 HD
ATOM     13  H51 UNL     1       9.937  13.945  41.871  1.00  0.00     0.157 HD
ENDBRANCH  10  11
BRANCH   7  14
HETATM   14  C5  UNL     1       8.080  14.716  37.162  1.00  0.00     0.309 C 
BRANCH  14  15
HETATM   15  N3  UNL     1       8.457  13.542  36.461  1.00  0.00    -0.048 N 
ATOM     16  H32 UNL     1       9.081  12.963  37.023  1.00  0.00     0.279 HD
ATOM     17  H31 UNL     1       7.671  12.898  36.374  1.00  0.00     0.279 HD
BRANCH  15  18
HETATM   18  C6  UNL     1       9.027  13.827  35.194  1.00  0.00     0.346 C 
BRANCH  18  19
HETATM   19  C7  UNL     1      10.423  13.374  34.997  1.00  0.00     0.275 C 
HETATM   20  O1  UNL     1      11.392  14.091  35.078  1.00  0.00    -0.304 OA
ENDBRANCH  18  19
BRANCH  18  21
HETATM   21  C8  UNL     1       8.182  13.168  34.133  1.00  0.00     0.211 C 
HETATM   22  O2  UNL     1       8.000  11.941  34.209  1.00  0.00    -0.646 OA
HETATM   23  O3  UNL     1       7.637  13.929  33.118  1.00  0.00    -0.646 OA
ENDBRANCH  18  21
ENDBRANCH  15  18
ENDBRANCH  14  15
ENDBRANCH   7  14
TORSDOF 6
ENDMDL
MODEL 5
REMARK VINA RESULT: -5.484733584      2.947      4.816
REMARK  6 active torsions:
REMARK  status: ('A' for Active; 'I' for Inactive)
REMARK    1  A    between atoms: C4_7  and  C5_8 
REMARK    2  A    between atoms: C5_8  and  N3_9 
REMARK    3  A    between atoms: N3_9  and  C6_12 
REMARK    4  A    between atoms: C6_12  and  C7_13 
REMARK    5  A    between atoms: C6_12  and  C8_15 
REMARK    6  A    between atoms: C9_20  and  N5_21 
ROOT
HETATM    1  N1  UNL     1       2.506  16.346  39.031  1.00  0.00    -0.191 NA
HETATM    2  C1  UNL     1       3.591  16.222  38.678  1.00  0.00     0.104 C 
HETATM    3  C2  UNL     1       4.940  16.051  38.222  1.00  0.00     0.103 A 
HETATM    4  C3  UNL     1       5.732  17.149  37.955  1.00  0.00     0.116 A 
HETATM    5  N2  UNL     1       7.000  16.990  37.526  1.00  0.00    -0.353 N 
ATOM      6  H2  UNL     1       7.595  17.794  37.325  1.00  0.00     0.166 HD
HETATM    7  C4  UNL     1       7.450  15.738  37.376  1.00  0.00     0.108 A 
HETATM    8  N4  UNL     1       6.697  14.660  37.630  1.00  0.00    -0.330 N 
ATOM      9  H4  UNL     1       7.098  13.732  37.495  1.00  0.00     0.168 HD
HETATM   10  C9  UNL     1       5.421  14.767  38.060  1.00  0.00     0.122 A 
ENDROOT
BRANCH  10  11
HETATM   11  N5  UNL     1       4.700  13.715  38.304  1.00  0.00    -0.384 N 
ATOM     12  H52 UNL     1       4.036  13.695  39.079  1.00  0.00     0.157 HD
ATOM     13  H51 UNL     1       4.760  12.867  37.741  1.00  0.00     0.157 HD
ENDBRANCH  10  11
BRANCH   7  14
HETATM   14  C5  UNL     1       8.857  15.548  36.907  1.00  0.00     0.309 C 
BRANCH  14  15
HETATM   15  N3  UNL     1       9.219  14.180  36.800  1.00  0.00    -0.048 N 
ATOM     16  H32 UNL     1      10.080  13.986  37.311  1.00  0.00     0.279 HD
ATOM     17  H31 UNL     1       8.578  13.589  37.330  1.00  0.00     0.279 HD
BRANCH  15  18
HETATM   18  C6  UNL     1       9.317  13.749  35.453  1.00  0.00     0.346 C 
BRANCH  18  19
HETATM   19  C7  UNL     1      10.649  13.262  35.025  1.00  0.00     0.275 C 
HETATM   20  O1  UNL     1      11.514  13.963  34.557  1.00  0.00    -0.304 OA
ENDBRANCH  18  19
BRANCH  18  21
HETATM   21  C8  UNL     1       8.333  12.627  35.239  1.00  0.00     0.211 C 
HETATM   22  O2  UNL     1       7.770  12.145  36.236  1.00  0.00    -0.646 OA
HETATM   23  O3  UNL     1       8.082  12.167  33.962  1.00  0.00    -0.646 OA
ENDBRANCH  18  21
ENDBRANCH  15  18
ENDBRANCH  14  15
ENDBRANCH   7  14
TORSDOF 6
ENDMDL
