MODEL 1
REMARK VINA RESULT: -6.385847322      0.000      0.000
REMARK  2 active torsions:
REMARK  status: ('A' for Active; 'I' for Inactive)
REMARK    1  A    between atoms: C3_9  and  C4_10 
REMARK       I    between atoms: C4_10  and  N4_12 
REMARK    2  A    between atoms: N4_12  and  N5_13 
ROOT
HETATM    1  N1  UNL     1     118.572  39.817  66.116  1.00  0.00    -0.234 N 
ATOM      2  H11 UNL     1     118.658  40.151  65.156  1.00  0.00     0.174 HD
ATOM      3  H12 UNL     1     118.667  38.812  66.259  1.00  0.00     0.174 HD
HETATM    4  C1  UNL     1     118.253  40.706  66.923  1.00  0.00     0.680 A 
HETATM    5  N2  UNL     1     118.137  40.253  68.225  1.00  0.00    -0.178 N 
ATOM      6  H2  UNL     1     118.219  39.260  68.447  1.00  0.00     0.185 HD
HETATM    7  C2  UNL     1     117.912  41.170  69.194  1.00  0.00     0.154 A 
HETATM    8  N3  UNL     1     117.811  40.694  70.555  1.00  0.00    -0.081 NA
HETATM    9  C3  UNL     1     117.796  42.506  68.942  1.00  0.00     0.158 A 
HETATM   10  C5  UNL     1     117.906  42.950  67.671  1.00  0.00     0.280 A 
HETATM   11  O2  UNL     1     117.811  44.183  67.306  1.00  0.00    -0.266 OA
HETATM   12  N6  UNL     1     118.128  42.037  66.734  1.00  0.00    -0.155 N 
ATOM     13  H6  UNL     1     118.212  42.374  65.776  1.00  0.00     0.187 HD
ENDROOT
BRANCH   9  14
HETATM   14  C4  UNL     1     117.493  43.417  70.111  1.00  0.00     0.354 C 
HETATM   15  O1  UNL     1     116.490  44.048  70.142  1.00  0.00    -0.249 OA
HETATM   16  N4  UNL     1     118.574  43.405  71.155  1.00  0.00    -0.288 NA
BRANCH  16  17
HETATM   17  N5  UNL     1     119.400  43.396  71.953  1.00  0.00    -0.276 N 
ATOM     18  H52 UNL     1     118.672  43.420  71.239  1.00  0.00     0.191 HD
ATOM     19  H51 UNL     1     120.133  43.387  72.662  1.00  0.00     0.191 HD
ENDBRANCH  16  17
ENDBRANCH   9  14
TORSDOF 2
ENDMDL
MODEL 2
REMARK VINA RESULT: -6.368355356      1.401      1.508
REMARK  2 active torsions:
REMARK  status: ('A' for Active; 'I' for Inactive)
REMARK    1  A    between atoms: C3_9  and  C4_10 
REMARK       I    between atoms: C4_10  and  N4_12 
REMARK    2  A    between atoms: N4_12  and  N5_13 
ROOT
HETATM    1  N1  UNL     1     118.009  40.170  65.573  1.00  0.00    -0.234 N 
ATOM      2  H11 UNL     1     117.931  40.735  64.727  1.00  0.00     0.174 HD
ATOM      3  H12 UNL     1     117.945  39.160  65.454  1.00  0.00     0.174 HD
HETATM    4  C1  UNL     1     118.057  40.844  66.615  1.00  0.00     0.680 A 
HETATM    5  N2  UNL     1     118.164  40.078  67.763  1.00  0.00    -0.178 N 
ATOM      6  H2  UNL     1     118.108  39.060  67.724  1.00  0.00     0.185 HD
HETATM    7  C2  UNL     1     118.344  40.724  68.938  1.00  0.00     0.154 A 
HETATM    8  N3  UNL     1     118.475  39.919  70.131  1.00  0.00    -0.081 NA
HETATM    9  C3  UNL     1     118.424  42.083  69.035  1.00  0.00     0.158 A 
HETATM   10  C5  UNL     1     118.318  42.833  67.918  1.00  0.00     0.280 A 
HETATM   11  O2  UNL     1     118.373  44.120  67.880  1.00  0.00    -0.266 OA
HETATM   12  N6  UNL     1     118.142  42.182  66.774  1.00  0.00    -0.155 N 
ATOM     13  H6  UNL     1     118.063  42.750  65.931  1.00  0.00     0.187 HD
ENDROOT
BRANCH   9  14
HETATM   14  C4  UNL     1     118.576  42.679  70.418  1.00  0.00     0.354 C 
HETATM   15  O1  UNL     1     119.625  43.086  70.789  1.00  0.00    -0.249 OA
HETATM   16  N4  UNL     1     117.290  42.681  71.196  1.00  0.00    -0.288 NA
BRANCH  16  17
HETATM   17  N5  UNL     1     116.308  42.682  71.791  1.00  0.00    -0.276 N 
ATOM     18  H52 UNL     1     117.186  42.667  71.272  1.00  0.00     0.191 HD
ATOM     19  H51 UNL     1     115.436  42.684  72.319  1.00  0.00     0.191 HD
ENDBRANCH  16  17
ENDBRANCH   9  14
TORSDOF 2
ENDMDL
MODEL 3
REMARK VINA RESULT: -6.197245811      1.968      2.451
REMARK  2 active torsions:
REMARK  status: ('A' for Active; 'I' for Inactive)
REMARK    1  A    between atoms: C3_9  and  C4_10 
REMARK       I    between atoms: C4_10  and  N4_12 
REMARK    2  A    between atoms: N4_12  and  N5_13 
ROOT
HETATM    1  N1  UNL     1     117.634  40.438  65.917  1.00  0.00    -0.234 N 
ATOM      2  H11 UNL     1     118.242  39.634  65.761  1.00  0.00     0.174 HD
ATOM      3  H12 UNL     1     117.218  40.863  65.088  1.00  0.00     0.174 HD
HETATM    4  C1  UNL     1     117.607  40.816  67.099  1.00  0.00     0.680 A 
HETATM    5  N2  UNL     1     116.781  41.906  67.311  1.00  0.00    -0.178 N 
ATOM      6  H2  UNL     1     116.330  42.385  66.532  1.00  0.00     0.185 HD
HETATM    7  C2  UNL     1     116.591  42.315  68.587  1.00  0.00     0.154 A 
HETATM    8  N3  UNL     1     115.712  43.442  68.805  1.00  0.00    -0.081 NA
HETATM    9  C3  UNL     1     117.174  41.704  69.659  1.00  0.00     0.158 A 
HETATM   10  C5  UNL     1     117.982  40.641  69.455  1.00  0.00     0.280 A 
HETATM   11  O2  UNL     1     118.592  39.985  70.381  1.00  0.00    -0.266 OA
HETATM   12  N6  UNL     1     118.157  40.254  68.197  1.00  0.00    -0.155 N 
ATOM     13  H6  UNL     1     118.766  39.451  68.045  1.00  0.00     0.187 HD
ENDROOT
BRANCH   9  14
HETATM   14  C4  UNL     1     116.919  42.295  71.028  1.00  0.00     0.354 C 
HETATM   15  O1  UNL     1     115.889  42.109  71.584  1.00  0.00    -0.249 OA
HETATM   16  N4  UNL     1     118.082  43.094  71.544  1.00  0.00    -0.288 NA
BRANCH  16  17
HETATM   17  N5  UNL     1     118.970  43.706  71.938  1.00  0.00    -0.276 N 
ATOM     18  H52 UNL     1     118.182  43.171  71.572  1.00  0.00     0.191 HD
ATOM     19  H51 UNL     1     119.759  44.249  72.289  1.00  0.00     0.191 HD
ENDBRANCH  16  17
ENDBRANCH   9  14
TORSDOF 2
ENDMDL
MODEL 4
REMARK VINA RESULT: -6.180086352      1.980      2.713
REMARK  2 active torsions:
REMARK  status: ('A' for Active; 'I' for Inactive)
REMARK    1  A    between atoms: C3_9  and  C4_10 
REMARK       I    between atoms: C4_10  and  N4_12 
REMARK    2  A    between atoms: N4_12  and  N5_13 
ROOT
HETATM    1  N1  UNL     1     117.881  40.415  65.919  1.00  0.00    -0.234 N 
ATOM      2  H11 UNL     1     117.757  39.402  65.919  1.00  0.00     0.174 HD
ATOM      3  H12 UNL     1     117.861  40.876  65.009  1.00  0.00     0.174 HD
HETATM    4  C1  UNL     1     118.148  40.881  67.038  1.00  0.00     0.680 A 
HETATM    5  N2  UNL     1     118.316  42.255  67.038  1.00  0.00    -0.178 N 
ATOM      6  H2  UNL     1     118.309  42.787  66.167  1.00  0.00     0.185 HD
HETATM    7  C2  UNL     1     118.490  42.869  68.231  1.00  0.00     0.154 A 
HETATM    8  N3  UNL     1     118.645  44.306  68.227  1.00  0.00    -0.081 NA
HETATM    9  C3  UNL     1     118.506  42.197  69.418  1.00  0.00     0.158 A 
HETATM   10  C5  UNL     1     118.345  40.857  69.421  1.00  0.00     0.280 A 
HETATM   11  O2  UNL     1     118.346  40.112  70.473  1.00  0.00    -0.266 OA
HETATM   12  N6  UNL     1     118.175  40.271  68.242  1.00  0.00    -0.155 N 
ATOM     13  H6  UNL     1     118.053  39.259  68.246  1.00  0.00     0.187 HD
ENDROOT
BRANCH   9  14
HETATM   14  C4  UNL     1     118.760  43.000  70.676  1.00  0.00     0.354 C 
HETATM   15  O1  UNL     1     119.845  43.054  71.149  1.00  0.00    -0.249 OA
HETATM   16  N4  UNL     1     117.522  43.673  71.199  1.00  0.00    -0.288 NA
BRANCH  16  17
HETATM   17  N5  UNL     1     116.576  44.186  71.598  1.00  0.00    -0.276 N 
ATOM     18  H52 UNL     1     117.408  43.714  71.245  1.00  0.00     0.191 HD
ATOM     19  H51 UNL     1     115.736  44.643  71.954  1.00  0.00     0.191 HD
ENDBRANCH  16  17
ENDBRANCH   9  14
TORSDOF 2
ENDMDL
MODEL 5
REMARK VINA RESULT: -6.131945306      4.783      6.178
REMARK  2 active torsions:
REMARK  status: ('A' for Active; 'I' for Inactive)
REMARK    1  A    between atoms: C3_9  and  C4_10 
REMARK       I    between atoms: C4_10  and  N4_12 
REMARK    2  A    between atoms: N4_12  and  N5_13 
ROOT
HETATM    1  N1  UNL     1     116.077  43.205  62.381  1.00  0.00    -0.234 N 
ATOM      2  H11 UNL     1     115.763  44.041  62.874  1.00  0.00     0.174 HD
ATOM      3  H12 UNL     1     115.718  43.072  61.435  1.00  0.00     0.174 HD
HETATM    4  C1  UNL     1     116.759  42.443  63.085  1.00  0.00     0.680 A 
HETATM    5  N2  UNL     1     117.185  41.309  62.416  1.00  0.00    -0.178 N 
ATOM      6  H2  UNL     1     116.869  41.106  61.467  1.00  0.00     0.185 HD
HETATM    7  C2  UNL     1     118.035  40.477  63.062  1.00  0.00     0.154 A 
HETATM    8  N3  UNL     1     118.493  39.304  62.352  1.00  0.00    -0.081 NA
HETATM    9  C3  UNL     1     118.483  40.710  64.330  1.00  0.00     0.158 A 
HETATM   10  C5  UNL     1     118.067  41.814  64.986  1.00  0.00     0.280 A 
HETATM   11  O2  UNL     1     118.413  42.140  66.184  1.00  0.00    -0.266 OA
HETATM   12  N6  UNL     1     117.234  42.618  64.337  1.00  0.00    -0.155 N 
ATOM     13  H6  UNL     1     116.921  43.452  64.833  1.00  0.00     0.187 HD
ENDROOT
BRANCH   9  14
HETATM   14  C4  UNL     1     119.390  39.672  64.955  1.00  0.00     0.354 C 
HETATM   15  O1  UNL     1     119.098  39.152  65.978  1.00  0.00    -0.249 OA
HETATM   16  N4  UNL     1     120.629  39.417  64.143  1.00  0.00    -0.288 NA
BRANCH  16  17
HETATM   17  N5  UNL     1     121.576  39.222  63.523  1.00  0.00    -0.276 N 
ATOM     18  H52 UNL     1     120.725  39.391  64.059  1.00  0.00     0.191 HD
ATOM     19  H51 UNL     1     122.417  39.049  62.973  1.00  0.00     0.191 HD
ENDBRANCH  16  17
ENDBRANCH   9  14
TORSDOF 2
ENDMDL
