MODEL 1
REMARK VINA RESULT: -6.643965953      0.000      0.000
REMARK  4 active torsions:
REMARK  status: ('A' for Active; 'I' for Inactive)
REMARK    1  A    between atoms: N1_1  and  C1_4 
REMARK    2  A    between atoms: C2_7  and  N3_8 
REMARK    3  A    between atoms: N4_11  and  N5_12 
REMARK    4  A    between atoms: C6_18  and  N7_19 
ROOT
HETATM    1  C1  UNL     1     118.052  40.624  67.311  1.00  0.00     0.705 A 
HETATM    2  N2  UNL     1     118.594  39.760  66.427  1.00  0.00    -0.021 N 
ATOM      3  H2  UNL     1     118.988  38.882  66.763  1.00  0.00     0.203 HD
HETATM    4  C2  UNL     1     118.625  40.039  65.097  1.00  0.00     0.710 A 
HETATM    5  N6  UNL     1     118.094  41.204  64.717  1.00  0.00    -0.021 N 
ATOM      6  H6  UNL     1     118.104  41.441  63.726  1.00  0.00     0.203 HD
HETATM    7  C6  UNL     1     117.544  42.087  65.587  1.00  0.00     0.705 A 
HETATM    8  N8  UNL     1     117.523  41.791  66.904  1.00  0.00    -0.022 N 
ATOM      9  H8  UNL     1     117.114  42.439  67.576  1.00  0.00     0.203 HD
ENDROOT
BRANCH   4  10
HETATM   10  N3  UNL     1     119.209  39.156  64.171  1.00  0.00    -0.202 N 
HETATM   11  C3  UNL     1     120.234  39.398  63.206  1.00  0.00     0.159 C 
HETATM   12  C4  UNL     1     120.504  38.036  62.599  1.00  0.00     0.135 C 
HETATM   13  N4  UNL     1     119.355  37.235  62.878  1.00  0.00    -0.218 NA
HETATM   14  C5  UNL     1     118.819  37.773  64.074  1.00  0.00     0.255 C 
BRANCH  13  15
HETATM   15  N5  UNL     1     118.476  37.068  61.835  1.00  0.00    -0.362 NA
ATOM     16  H52 UNL     1     118.750  37.476  60.941  1.00  0.00     0.171 HD
ATOM     17  H51 UNL     1     118.225  36.104  61.617  1.00  0.00     0.171 HD
ENDBRANCH  13  15
ENDBRANCH   4  10
BRANCH   1  18
HETATM   18  N1  UNL     1     118.018  40.364  68.572  1.00  0.00    -0.234 N 
ATOM     19  H12 UNL     1     118.414  39.476  68.881  1.00  0.00     0.174 HD
ATOM     20  H11 UNL     1     117.613  41.019  69.241  1.00  0.00     0.174 HD
ENDBRANCH   1  18
BRANCH   7  21
HETATM   21  N7  UNL     1     117.068  43.168  65.108  1.00  0.00    -0.234 N 
ATOM     22  H72 UNL     1     117.108  43.405  64.116  1.00  0.00     0.174 HD
ATOM     23  H71 UNL     1     116.627  43.818  65.758  1.00  0.00     0.174 HD
ENDBRANCH   7  21
TORSDOF 4
ENDMDL
MODEL 2
REMARK VINA RESULT: -6.643582541      0.087      2.118
REMARK  4 active torsions:
REMARK  status: ('A' for Active; 'I' for Inactive)
REMARK    1  A    between atoms: N1_1  and  C1_4 
REMARK    2  A    between atoms: C2_7  and  N3_8 
REMARK    3  A    between atoms: N4_11  and  N5_12 
REMARK    4  A    between atoms: C6_18  and  N7_19 
ROOT
HETATM    1  C1  UNL     1     117.541  42.069  65.659  1.00  0.00     0.705 A 
HETATM    2  N2  UNL     1     118.093  41.232  64.757  1.00  0.00    -0.021 N 
ATOM      3  H2  UNL     1     118.089  41.487  63.769  1.00  0.00     0.203 HD
HETATM    4  C2  UNL     1     118.654  40.053  65.139  1.00  0.00     0.710 A 
HETATM    5  N6  UNL     1     118.628  39.775  66.444  1.00  0.00    -0.021 N 
ATOM      6  H6  UNL     1     119.040  38.898  66.761  1.00  0.00     0.203 HD
HETATM    7  C6  UNL     1     118.080  40.601  67.369  1.00  0.00     0.705 A 
HETATM    8  N8  UNL     1     117.528  41.766  66.969  1.00  0.00    -0.022 N 
ATOM      9  H8  UNL     1     117.111  42.404  67.646  1.00  0.00     0.203 HD
ENDROOT
BRANCH   4  10
HETATM   10  N3  UNL     1     119.211  39.163  64.203  1.00  0.00    -0.202 N 
HETATM   11  C3  UNL     1     120.222  39.392  63.222  1.00  0.00     0.159 C 
HETATM   12  C4  UNL     1     120.465  38.027  62.610  1.00  0.00     0.135 C 
HETATM   13  N4  UNL     1     119.311  37.241  62.909  1.00  0.00    -0.218 NA
HETATM   14  C5  UNL     1     118.802  37.784  64.114  1.00  0.00     0.255 C 
BRANCH  13  15
HETATM   15  N5  UNL     1     118.412  37.084  61.881  1.00  0.00    -0.362 NA
ATOM     16  H52 UNL     1     117.956  36.175  61.812  1.00  0.00     0.171 HD
ATOM     17  H51 UNL     1     117.651  37.763  61.851  1.00  0.00     0.171 HD
ENDBRANCH  13  15
ENDBRANCH   4  10
BRANCH   1  18
HETATM   18  N1  UNL     1     117.011  43.188  65.303  1.00  0.00    -0.234 N 
ATOM     19  H12 UNL     1     116.100  43.153  64.843  1.00  0.00     0.174 HD
ATOM     20  H11 UNL     1     117.478  44.078  65.475  1.00  0.00     0.174 HD
ENDBRANCH   1  18
BRANCH   7  21
HETATM   21  N7  UNL     1     118.114  40.228  68.588  1.00  0.00    -0.234 N 
ATOM     22  H72 UNL     1     117.789  39.314  68.901  1.00  0.00     0.174 HD
ATOM     23  H71 UNL     1     118.488  40.885  69.272  1.00  0.00     0.174 HD
ENDBRANCH   7  21
TORSDOF 4
ENDMDL
MODEL 3
REMARK VINA RESULT: -6.596940759      1.335      2.443
REMARK  4 active torsions:
REMARK  status: ('A' for Active; 'I' for Inactive)
REMARK    1  A    between atoms: N1_1  and  C1_4 
REMARK    2  A    between atoms: C2_7  and  N3_8 
REMARK    3  A    between atoms: N4_11  and  N5_12 
REMARK    4  A    between atoms: C6_18  and  N7_19 
ROOT
HETATM    1  C1  UNL     1     116.368  41.249  65.612  1.00  0.00     0.705 A 
HETATM    2  N2  UNL     1     117.345  40.900  64.749  1.00  0.00    -0.021 N 
ATOM      3  H2  UNL     1     117.216  41.067  63.752  1.00  0.00     0.203 HD
HETATM    4  C2  UNL     1     118.500  40.329  65.186  1.00  0.00     0.710 A 
HETATM    5  N6  UNL     1     118.612  40.136  66.502  1.00  0.00    -0.021 N 
ATOM      6  H6  UNL     1     119.466  39.709  66.859  1.00  0.00     0.203 HD
HETATM    7  C6  UNL     1     117.644  40.480  67.387  1.00  0.00     0.705 A 
HETATM    8  N8  UNL     1     116.505  41.045  66.934  1.00  0.00    -0.022 N 
ATOM      9  H8  UNL     1     115.763  41.311  67.581  1.00  0.00     0.203 HD
ENDROOT
BRANCH   4  10
HETATM   10  N3  UNL     1     119.515  39.940  64.292  1.00  0.00    -0.202 N 
HETATM   11  C3  UNL     1     120.684  40.649  63.881  1.00  0.00     0.159 C 
HETATM   12  C4  UNL     1     121.430  39.664  63.004  1.00  0.00     0.135 C 
HETATM   13  N4  UNL     1     120.472  38.689  62.589  1.00  0.00    -0.218 NA
HETATM   14  C5  UNL     1     119.506  38.663  63.626  1.00  0.00     0.255 C 
BRANCH  13  15
HETATM   15  N5  UNL     1     119.991  38.831  61.310  1.00  0.00    -0.362 NA
ATOM     16  H52 UNL     1     120.222  39.703  60.833  1.00  0.00     0.171 HD
ATOM     17  H51 UNL     1     120.254  38.096  60.653  1.00  0.00     0.171 HD
ENDBRANCH  13  15
ENDBRANCH   4  10
BRANCH   1  18
HETATM   18  N1  UNL     1     115.273  41.793  65.205  1.00  0.00    -0.234 N 
ATOM     19  H12 UNL     1     115.054  42.726  65.553  1.00  0.00     0.174 HD
ATOM     20  H11 UNL     1     114.648  41.313  64.557  1.00  0.00     0.174 HD
ENDBRANCH   1  18
BRANCH   7  21
HETATM   21  N7  UNL     1     117.863  40.245  68.621  1.00  0.00    -0.234 N 
ATOM     22  H72 UNL     1     117.286  39.619  69.182  1.00  0.00     0.174 HD
ATOM     23  H71 UNL     1     118.659  40.713  69.056  1.00  0.00     0.174 HD
ENDBRANCH   7  21
TORSDOF 4
ENDMDL
MODEL 4
REMARK VINA RESULT: -6.590222707      1.324      1.390
REMARK  4 active torsions:
REMARK  status: ('A' for Active; 'I' for Inactive)
REMARK    1  A    between atoms: N1_1  and  C1_4 
REMARK    2  A    between atoms: C2_7  and  N3_8 
REMARK    3  A    between atoms: N4_11  and  N5_12 
REMARK    4  A    between atoms: C6_18  and  N7_19 
ROOT
HETATM    1  C1  UNL     1     117.688  40.469  67.360  1.00  0.00     0.705 A 
HETATM    2  N2  UNL     1     118.661  40.095  66.503  1.00  0.00    -0.021 N 
ATOM      3  H2  UNL     1     119.511  39.667  66.867  1.00  0.00     0.203 HD
HETATM    4  C2  UNL     1     118.527  40.278  65.162  1.00  0.00     0.710 A 
HETATM    5  N6  UNL     1     117.392  40.843  64.745  1.00  0.00    -0.021 N 
ATOM      6  H6  UNL     1     117.263  40.994  63.745  1.00  0.00     0.203 HD
HETATM    7  C6  UNL     1     116.401  41.226  65.588  1.00  0.00     0.705 A 
HETATM    8  N8  UNL     1     116.553  41.036  66.916  1.00  0.00    -0.022 N 
ATOM      9  H8  UNL     1     115.821  41.316  67.569  1.00  0.00     0.203 HD
ENDROOT
BRANCH   4  10
HETATM   10  N3  UNL     1     119.545  39.913  64.262  1.00  0.00    -0.202 N 
HETATM   11  C3  UNL     1     120.700  40.645  63.851  1.00  0.00     0.159 C 
HETATM   12  C4  UNL     1     121.460  39.678  62.966  1.00  0.00     0.135 C 
HETATM   13  N4  UNL     1     120.518  38.689  62.549  1.00  0.00    -0.218 NA
HETATM   14  C5  UNL     1     119.557  38.639  63.589  1.00  0.00     0.255 C 
BRANCH  13  15
HETATM   15  N5  UNL     1     120.030  38.829  61.272  1.00  0.00    -0.362 NA
ATOM     16  H52 UNL     1     120.304  38.112  60.601  1.00  0.00     0.171 HD
ATOM     17  H51 UNL     1     119.015  38.893  61.190  1.00  0.00     0.171 HD
ENDBRANCH  13  15
ENDBRANCH   4  10
BRANCH   1  18
HETATM   18  N1  UNL     1     117.808  40.296  68.631  1.00  0.00    -0.234 N 
ATOM     19  H12 UNL     1     118.746  40.354  69.028  1.00  0.00     0.174 HD
ATOM     20  H11 UNL     1     116.997  40.111  69.223  1.00  0.00     0.174 HD
ENDBRANCH   1  18
BRANCH   7  21
HETATM   21  N7  UNL     1     115.361  41.756  65.074  1.00  0.00    -0.234 N 
ATOM     22  H72 UNL     1     115.300  42.027  64.093  1.00  0.00     0.174 HD
ATOM     23  H71 UNL     1     114.559  41.909  65.684  1.00  0.00     0.174 HD
ENDBRANCH   7  21
TORSDOF 4
ENDMDL
MODEL 5
REMARK VINA RESULT: -6.576526998      1.047      2.494
REMARK  4 active torsions:
REMARK  status: ('A' for Active; 'I' for Inactive)
REMARK    1  A    between atoms: N1_1  and  C1_4 
REMARK    2  A    between atoms: C2_7  and  N3_8 
REMARK    3  A    between atoms: N4_11  and  N5_12 
REMARK    4  A    between atoms: C6_18  and  N7_19 
ROOT
HETATM    1  C1  UNL     1     117.450  42.281  65.885  1.00  0.00     0.705 A 
HETATM    2  N2  UNL     1     117.758  41.428  64.886  1.00  0.00    -0.021 N 
ATOM      3  H2  UNL     1     117.632  41.725  63.919  1.00  0.00     0.203 HD
HETATM    4  C2  UNL     1     118.233  40.181  65.145  1.00  0.00     0.710 A 
HETATM    5  N6  UNL     1     118.377  39.850  66.430  1.00  0.00    -0.021 N 
ATOM      6  H6  UNL     1     118.730  38.921  66.656  1.00  0.00     0.203 HD
HETATM    7  C6  UNL     1     118.075  40.691  67.451  1.00  0.00     0.705 A 
HETATM    8  N8  UNL     1     117.605  41.925  67.173  1.00  0.00    -0.022 N 
ATOM      9  H8  UNL     1     117.371  42.574  67.924  1.00  0.00     0.203 HD
ENDROOT
BRANCH   4  10
HETATM   10  N3  UNL     1     118.534  39.276  64.111  1.00  0.00    -0.202 N 
HETATM   11  C3  UNL     1     118.886  37.894  64.186  1.00  0.00     0.159 C 
HETATM   12  C4  UNL     1     118.974  37.452  62.739  1.00  0.00     0.135 C 
HETATM   13  N4  UNL     1     119.143  38.640  61.965  1.00  0.00    -0.218 NA
HETATM   14  C5  UNL     1     118.517  39.660  62.723  1.00  0.00     0.255 C 
BRANCH  13  15
HETATM   15  N5  UNL     1     120.422  38.895  61.534  1.00  0.00    -0.362 NA
ATOM     16  H52 UNL     1     121.034  39.378  62.191  1.00  0.00     0.171 HD
ATOM     17  H51 UNL     1     120.957  38.082  61.227  1.00  0.00     0.171 HD
ENDBRANCH  13  15
ENDBRANCH   4  10
BRANCH   1  18
HETATM   18  N1  UNL     1     117.003  43.465  65.647  1.00  0.00    -0.234 N 
ATOM     19  H12 UNL     1     117.605  44.099  65.121  1.00  0.00     0.174 HD
ATOM     20  H11 UNL     1     116.081  43.762  65.967  1.00  0.00     0.174 HD
ENDBRANCH   1  18
BRANCH   7  21
HETATM   21  N7  UNL     1     118.253  40.263  68.639  1.00  0.00    -0.234 N 
ATOM     22  H72 UNL     1     118.895  40.702  69.300  1.00  0.00     0.174 HD
ATOM     23  H71 UNL     1     117.721  39.444  68.930  1.00  0.00     0.174 HD
ENDBRANCH   7  21
TORSDOF 4
ENDMDL
