MODEL 1
REMARK VINA RESULT: -5.808197131      0.000      0.000
REMARK  3 active torsions:
REMARK  status: ('A' for Active; 'I' for Inactive)
REMARK    1  A    between atoms: C2_3  and  N2_4 
REMARK    2  A    between atoms: C2_3  and  C4_9 
REMARK       I    between atoms: N2_4  and  C3_6 
REMARK       I    between atoms: C4_9  and  N4_11 
REMARK    3  A    between atoms: N4_11  and  N5_13 
ROOT
HETATM    1  N1  UNL     1      -3.615  10.097   8.690  1.00  0.00    -0.195 NA
HETATM    2  C1  UNL     1      -2.513   9.756   8.797  1.00  0.00     0.094 C 
HETATM    3  C2  UNL     1      -1.107   9.314   8.953  1.00  0.00     0.287 C 
ENDROOT
BRANCH   3   4
HETATM    4  N2  UNL     1      -0.974   8.429  10.092  1.00  0.00    -0.320 N 
HETATM    5  C3  UNL     1      -0.032   7.372  10.077  1.00  0.00     0.330 C 
HETATM    6  N3  UNL     1       0.088   6.522  11.186  1.00  0.00    -0.040 NA
HETATM    7  O1  UNL     1       0.678   7.237   9.037  1.00  0.00    -0.251 OA
ATOM      8  H2  UNL     1      -1.564   8.569  10.913  1.00  0.00     0.165 HD
ENDBRANCH   3   4
BRANCH   3   9
HETATM    9  C4  UNL     1      -0.324  10.553   9.222  1.00  0.00     0.272 C 
HETATM   10  O2  UNL     1       0.262  11.096   8.253  1.00  0.00    -0.268 OA
HETATM   11  N4  UNL     1      -0.214  11.134  10.493  1.00  0.00    -0.274 N 
ATOM     12  H4  UNL     1      -0.681  10.714  11.296  1.00  0.00     0.189 HD
BRANCH  11  13
HETATM   13  N5  UNL     1       0.543  12.296  10.644  1.00  0.00    -0.343 N 
ATOM     14  H52 UNL     1       1.468  12.240  11.069  1.00  0.00     0.176 HD
ATOM     15  H51 UNL     1       0.157  13.184  10.324  1.00  0.00     0.176 HD
ENDBRANCH  11  13
ENDBRANCH   3   9
TORSDOF 3
ENDMDL
MODEL 2
REMARK VINA RESULT: -5.717200848      1.394      3.613
REMARK  3 active torsions:
REMARK  status: ('A' for Active; 'I' for Inactive)
REMARK    1  A    between atoms: C2_3  and  N2_4 
REMARK    2  A    between atoms: C2_3  and  C4_9 
REMARK       I    between atoms: N2_4  and  C3_6 
REMARK       I    between atoms: C4_9  and  N4_11 
REMARK    3  A    between atoms: N4_11  and  N5_13 
ROOT
HETATM    1  N1  UNL     1      -3.153  10.167   8.723  1.00  0.00    -0.195 NA
HETATM    2  C1  UNL     1      -2.423   9.991   9.605  1.00  0.00     0.094 C 
HETATM    3  C2  UNL     1      -1.477   9.778  10.726  1.00  0.00     0.287 C 
ENDROOT
BRANCH   3   4
HETATM    4  N2  UNL     1      -0.605  10.924  10.882  1.00  0.00    -0.320 N 
HETATM    5  C3  UNL     1       0.270  11.310   9.839  1.00  0.00     0.330 C 
HETATM    6  N3  UNL     1       1.110  12.421  10.001  1.00  0.00    -0.040 NA
HETATM    7  O1  UNL     1       0.258  10.617   8.779  1.00  0.00    -0.251 OA
ATOM      8  H2  UNL     1      -0.622  11.458  11.752  1.00  0.00     0.165 HD
ENDBRANCH   3   4
BRANCH   3   9
HETATM    9  C4  UNL     1      -0.649   8.603  10.337  1.00  0.00     0.272 C 
HETATM   10  O2  UNL     1       0.187   8.174  11.171  1.00  0.00    -0.268 OA
HETATM   11  N4  UNL     1      -0.759   7.959   9.096  1.00  0.00    -0.274 N 
ATOM     12  H4  UNL     1      -1.430   8.287   8.401  1.00  0.00     0.189 HD
BRANCH  11  13
HETATM   13  N5  UNL     1       0.061   6.865   8.824  1.00  0.00    -0.343 N 
ATOM     14  H52 UNL     1       0.461   6.333   9.597  1.00  0.00     0.176 HD
ATOM     15  H51 UNL     1       0.248   6.613   7.854  1.00  0.00     0.176 HD
ENDBRANCH  11  13
ENDBRANCH   3   9
TORSDOF 3
ENDMDL
MODEL 3
REMARK VINA RESULT: -5.661954479      2.301      2.301
REMARK  3 active torsions:
REMARK  status: ('A' for Active; 'I' for Inactive)
REMARK    1  A    between atoms: C2_3  and  N2_4 
REMARK    2  A    between atoms: C2_3  and  C4_9 
REMARK       I    between atoms: N2_4  and  C3_6 
REMARK       I    between atoms: C4_9  and  N4_11 
REMARK    3  A    between atoms: N4_11  and  N5_13 
ROOT
HETATM    1  N1  UNL     1      -3.434   9.103   9.480  1.00  0.00    -0.195 NA
HETATM    2  C1  UNL     1      -2.393   9.098   9.988  1.00  0.00     0.094 C 
HETATM    3  C2  UNL     1      -1.068   9.101  10.652  1.00  0.00     0.287 C 
ENDROOT
BRANCH   3   4
HETATM    4  N2  UNL     1      -1.210   9.371  12.069  1.00  0.00    -0.320 N 
HETATM    5  C3  UNL     1      -1.320   8.308  12.997  1.00  0.00     0.330 C 
HETATM    6  N3  UNL     1      -1.456   8.581  14.366  1.00  0.00    -0.040 NA
HETATM    7  O1  UNL     1      -1.292   7.127  12.539  1.00  0.00    -0.251 OA
ATOM      8  H2  UNL     1      -1.229  10.336  12.400  1.00  0.00     0.165 HD
ENDBRANCH   3   4
BRANCH   3   9
HETATM    9  C4  UNL     1      -0.309  10.222  10.031  1.00  0.00     0.272 C 
HETATM   10  O2  UNL     1       0.227  10.016   8.914  1.00  0.00    -0.268 OA
HETATM   11  N4  UNL     1      -0.169  11.483  10.627  1.00  0.00    -0.274 N 
ATOM     12  H4  UNL     1      -0.596  11.676  11.533  1.00  0.00     0.189 HD
BRANCH  11  13
HETATM   13  N5  UNL     1       0.561  12.469   9.965  1.00  0.00    -0.343 N 
ATOM     14  H52 UNL     1       1.579  12.473  10.037  1.00  0.00     0.176 HD
ATOM     15  H51 UNL     1       0.065  13.172   9.418  1.00  0.00     0.176 HD
ENDBRANCH  11  13
ENDBRANCH   3   9
TORSDOF 3
ENDMDL
MODEL 4
REMARK VINA RESULT: -5.605654531      1.695      4.121
REMARK  3 active torsions:
REMARK  status: ('A' for Active; 'I' for Inactive)
REMARK    1  A    between atoms: C2_3  and  N2_4 
REMARK    2  A    between atoms: C2_3  and  C4_9 
REMARK       I    between atoms: N2_4  and  C3_6 
REMARK       I    between atoms: C4_9  and  N4_11 
REMARK    3  A    between atoms: N4_11  and  N5_13 
ROOT
HETATM    1  N1  UNL     1      -0.310   7.414  12.353  1.00  0.00    -0.195 NA
HETATM    2  C1  UNL     1      -0.308   8.121  11.436  1.00  0.00     0.094 C 
HETATM    3  C2  UNL     1      -0.306   9.040  10.273  1.00  0.00     0.287 C 
ENDROOT
BRANCH   3   4
HETATM    4  N2  UNL     1       0.113  10.368  10.674  1.00  0.00    -0.320 N 
HETATM    5  C3  UNL     1       0.556  11.305   9.711  1.00  0.00     0.330 C 
HETATM    6  N3  UNL     1       0.959  12.587  10.111  1.00  0.00    -0.040 NA
HETATM    7  O1  UNL     1       0.569  10.935   8.499  1.00  0.00    -0.251 OA
ATOM      8  H2  UNL     1       0.089  10.629  11.660  1.00  0.00     0.165 HD
ENDBRANCH   3   4
BRANCH   3   9
HETATM    9  C4  UNL     1      -1.721   9.110   9.813  1.00  0.00     0.272 C 
HETATM   10  O2  UNL     1      -2.624   8.936  10.669  1.00  0.00    -0.268 OA
HETATM   11  N4  UNL     1      -2.088   9.359   8.483  1.00  0.00    -0.274 N 
ATOM     12  H4  UNL     1      -1.375   9.505   7.769  1.00  0.00     0.189 HD
BRANCH  11  13
HETATM   13  N5  UNL     1      -3.441   9.405   8.150  1.00  0.00    -0.343 N 
ATOM     14  H52 UNL     1      -3.744   9.970   7.356  1.00  0.00     0.176 HD
ATOM     15  H51 UNL     1      -4.108   8.872   8.707  1.00  0.00     0.176 HD
ENDBRANCH  11  13
ENDBRANCH   3   9
TORSDOF 3
ENDMDL
MODEL 5
REMARK VINA RESULT: -5.584882541      1.776      3.204
REMARK  3 active torsions:
REMARK  status: ('A' for Active; 'I' for Inactive)
REMARK    1  A    between atoms: C2_3  and  N2_4 
REMARK    2  A    between atoms: C2_3  and  C4_9 
REMARK       I    between atoms: N2_4  and  C3_6 
REMARK       I    between atoms: C4_9  and  N4_11 
REMARK    3  A    between atoms: N4_11  and  N5_13 
ROOT
HETATM    1  N1  UNL     1       1.178  12.285   9.656  1.00  0.00    -0.195 NA
HETATM    2  C1  UNL     1       0.392  11.509  10.001  1.00  0.00     0.094 C 
HETATM    3  C2  UNL     1      -0.603  10.501  10.441  1.00  0.00     0.287 C 
ENDROOT
BRANCH   3   4
HETATM    4  N2  UNL     1       0.060   9.294  10.891  1.00  0.00    -0.320 N 
HETATM    5  C3  UNL     1      -0.618   8.364  11.714  1.00  0.00     0.330 C 
HETATM    6  N3  UNL     1       0.033   7.198  12.144  1.00  0.00    -0.040 NA
HETATM    7  O1  UNL     1      -1.814   8.632  12.037  1.00  0.00    -0.251 OA
ATOM      8  H2  UNL     1       1.024   9.112  10.611  1.00  0.00     0.165 HD
ENDBRANCH   3   4
BRANCH   3   9
HETATM    9  C4  UNL     1      -1.409  10.176   9.231  1.00  0.00     0.272 C 
HETATM   10  O2  UNL     1      -0.795  10.013   8.147  1.00  0.00    -0.268 OA
HETATM   11  N4  UNL     1      -2.804  10.045   9.247  1.00  0.00    -0.274 N 
ATOM     12  H4  UNL     1      -3.326  10.171  10.114  1.00  0.00     0.189 HD
BRANCH  11  13
HETATM   13  N5  UNL     1      -3.470   9.738   8.060  1.00  0.00    -0.343 N 
ATOM     14  H52 UNL     1      -4.255   9.087   8.079  1.00  0.00     0.176 HD
ATOM     15  H51 UNL     1      -3.160  10.172   7.191  1.00  0.00     0.176 HD
ENDBRANCH  11  13
ENDBRANCH   3   9
TORSDOF 3
ENDMDL
