MODEL 1
REMARK VINA RESULT: -6.470758949      0.000      0.000
REMARK  4 active torsions:
REMARK  status: ('A' for Active; 'I' for Inactive)
REMARK    1  A    between atoms: C2_2  and  N2_6 
REMARK       I    between atoms: N2_6  and  C3_8 
REMARK    2  A    between atoms: C3_8  and  C4_10 
REMARK    3  A    between atoms: C4_10  and  N3_12 
REMARK    4  A    between atoms: C4_10  and  C6_16 
ROOT
HETATM    1  N2  UNL     1      74.652   9.773  31.867  1.00  0.00    -0.315 N 
ATOM      2  H2  UNL     1      73.633   9.720  31.884  1.00  0.00     0.170 HD
HETATM    3  C3  UNL     1      75.253  11.030  32.010  1.00  0.00     0.268 C 
HETATM    4  O1  UNL     1      76.508  11.113  31.991  1.00  0.00    -0.270 OA
ENDROOT
BRANCH   3   5
HETATM    5  C4  UNL     1      74.519  12.299  32.186  1.00  0.00     0.276 C 
HETATM    6  C5  UNL     1      75.405  13.452  32.559  1.00  0.00     0.067 C 
BRANCH   5   7
HETATM    7  N3  UNL     1      73.840  12.629  30.963  1.00  0.00    -0.053 N 
ATOM      8  H33 UNL     1      74.255  13.437  30.497  1.00  0.00     0.276 HD
ATOM      9  H32 UNL     1      74.007  11.939  30.231  1.00  0.00     0.276 HD
ATOM     10  H31 UNL     1      72.847  12.760  31.153  1.00  0.00     0.276 HD
ENDBRANCH   5   7
BRANCH   5  11
HETATM   11  C6  UNL     1      73.532  12.109  33.264  1.00  0.00     0.276 C 
HETATM   12  N4  UNL     1      72.410  12.961  33.344  1.00  0.00    -0.059 NA
HETATM   13  O2  UNL     1      73.665  11.192  34.134  1.00  0.00    -0.274 OA
ENDBRANCH   5  11
ENDBRANCH   3   5
BRANCH   1  14
HETATM   14  C2  UNL     1      75.382   8.573  31.701  1.00  0.00     0.073 C 
HETATM   15  C1  UNL     1      75.303   7.455  32.684  1.00  0.00     0.088 C 
HETATM   16  N1  UNL     1      76.158   8.426  30.654  1.00  0.00    -0.389 N 
ATOM     17  H12 UNL     1      76.685   7.561  30.533  1.00  0.00     0.157 HD
ATOM     18  H11 UNL     1      76.212   9.191  29.980  1.00  0.00     0.157 HD
ENDBRANCH   1  14
TORSDOF 4
ENDMDL
MODEL 2
REMARK VINA RESULT: -6.405551936      1.995      2.177
REMARK  4 active torsions:
REMARK  status: ('A' for Active; 'I' for Inactive)
REMARK    1  A    between atoms: C2_2  and  N2_6 
REMARK       I    between atoms: N2_6  and  C3_8 
REMARK    2  A    between atoms: C3_8  and  C4_10 
REMARK    3  A    between atoms: C4_10  and  N3_12 
REMARK    4  A    between atoms: C4_10  and  C6_16 
ROOT
HETATM    1  N2  UNL     1      73.771  10.208  33.793  1.00  0.00    -0.315 N 
ATOM      2  H2  UNL     1      72.798  10.512  33.835  1.00  0.00     0.170 HD
HETATM    3  C3  UNL     1      74.696  11.035  33.144  1.00  0.00     0.268 C 
HETATM    4  O1  UNL     1      75.900  10.675  33.082  1.00  0.00    -0.270 OA
ENDROOT
BRANCH   3   5
HETATM    5  C4  UNL     1      74.370  12.328  32.509  1.00  0.00     0.276 C 
HETATM    6  C5  UNL     1      75.166  13.478  33.056  1.00  0.00     0.067 C 
BRANCH   5   7
HETATM    7  N3  UNL     1      74.618  12.240  31.096  1.00  0.00    -0.053 N 
ATOM      8  H33 UNL     1      74.801  11.282  30.795  1.00  0.00     0.276 HD
ATOM      9  H32 UNL     1      73.776  12.406  30.545  1.00  0.00     0.276 HD
ATOM     10  H31 UNL     1      75.376  12.876  30.846  1.00  0.00     0.276 HD
ENDBRANCH   5   7
BRANCH   5  11
HETATM   11  C6  UNL     1      72.942  12.604  32.745  1.00  0.00     0.276 C 
HETATM   12  N4  UNL     1      72.541  13.253  33.933  1.00  0.00    -0.059 NA
HETATM   13  O2  UNL     1      72.051  12.271  31.902  1.00  0.00    -0.274 OA
ENDBRANCH   5  11
ENDBRANCH   3   5
BRANCH   1  14
HETATM   14  C2  UNL     1      74.114   8.974  34.393  1.00  0.00     0.073 C 
HETATM   15  C1  UNL     1      73.466   7.692  33.993  1.00  0.00     0.088 C 
HETATM   16  N1  UNL     1      75.029   8.942  35.333  1.00  0.00    -0.389 N 
ATOM     17  H12 UNL     1      75.276   8.052  35.766  1.00  0.00     0.157 HD
ATOM     18  H11 UNL     1      75.472   9.819  35.606  1.00  0.00     0.157 HD
ENDBRANCH   1  14
TORSDOF 4
ENDMDL
MODEL 3
REMARK VINA RESULT: -6.320398184      2.006      2.173
REMARK  4 active torsions:
REMARK  status: ('A' for Active; 'I' for Inactive)
REMARK    1  A    between atoms: C2_2  and  N2_6 
REMARK       I    between atoms: N2_6  and  C3_8 
REMARK    2  A    between atoms: C3_8  and  C4_10 
REMARK    3  A    between atoms: C4_10  and  N3_12 
REMARK    4  A    between atoms: C4_10  and  C6_16 
ROOT
HETATM    1  N2  UNL     1      73.294  10.164  33.147  1.00  0.00    -0.315 N 
ATOM      2  H2  UNL     1      72.440  10.512  32.712  1.00  0.00     0.170 HD
HETATM    3  C3  UNL     1      74.428  10.987  33.134  1.00  0.00     0.268 C 
HETATM    4  O1  UNL     1      75.490  10.573  33.665  1.00  0.00    -0.270 OA
ENDROOT
BRANCH   3   5
HETATM    5  C4  UNL     1      74.483  12.335  32.532  1.00  0.00     0.276 C 
HETATM    6  C5  UNL     1      75.413  13.270  33.251  1.00  0.00     0.067 C 
BRANCH   5   7
HETATM    7  N3  UNL     1      74.916  12.229  31.167  1.00  0.00    -0.053 N 
ATOM      8  H33 UNL     1      75.881  11.905  31.092  1.00  0.00     0.276 HD
ATOM      9  H32 UNL     1      74.466  11.455  30.677  1.00  0.00     0.276 HD
ATOM     10  H31 UNL     1      74.769  13.122  30.696  1.00  0.00     0.276 HD
ENDBRANCH   5   7
BRANCH   5  11
HETATM   11  C6  UNL     1      73.127  12.910  32.579  1.00  0.00     0.276 C 
HETATM   12  N4  UNL     1      72.502  13.328  31.384  1.00  0.00    -0.059 NA
HETATM   13  O2  UNL     1      72.497  13.043  33.675  1.00  0.00    -0.274 OA
ENDBRANCH   5  11
ENDBRANCH   3   5
BRANCH   1  14
HETATM   14  C2  UNL     1      73.272   8.877  33.732  1.00  0.00     0.073 C 
HETATM   15  C1  UNL     1      72.334   8.525  34.836  1.00  0.00     0.088 C 
HETATM   16  N1  UNL     1      74.097   7.954  33.299  1.00  0.00    -0.389 N 
ATOM     17  H12 UNL     1      74.081   7.025  33.721  1.00  0.00     0.157 HD
ATOM     18  H11 UNL     1      74.739   8.194  32.543  1.00  0.00     0.157 HD
ENDBRANCH   1  14
TORSDOF 4
ENDMDL
MODEL 4
REMARK VINA RESULT: -6.215953738      0.868      1.098
REMARK  4 active torsions:
REMARK  status: ('A' for Active; 'I' for Inactive)
REMARK    1  A    between atoms: C2_2  and  N2_6 
REMARK       I    between atoms: N2_6  and  C3_8 
REMARK    2  A    between atoms: C3_8  and  C4_10 
REMARK    3  A    between atoms: C4_10  and  N3_12 
REMARK    4  A    between atoms: C4_10  and  C6_16 
ROOT
HETATM    1  N2  UNL     1      75.117   9.893  31.593  1.00  0.00    -0.315 N 
ATOM      2  H2  UNL     1      74.140   9.742  31.342  1.00  0.00     0.170 HD
HETATM    3  C3  UNL     1      75.499  11.166  32.037  1.00  0.00     0.268 C 
HETATM    4  O1  UNL     1      76.700  11.369  32.349  1.00  0.00    -0.270 OA
ENDROOT
BRANCH   3   5
HETATM    5  C4  UNL     1      74.586  12.319  32.173  1.00  0.00     0.276 C 
HETATM    6  C5  UNL     1      75.285  13.586  32.573  1.00  0.00     0.067 C 
BRANCH   5   7
HETATM    7  N3  UNL     1      73.920  12.548  30.920  1.00  0.00    -0.053 N 
ATOM      8  H33 UNL     1      74.264  13.385  30.447  1.00  0.00     0.276 HD
ATOM      9  H32 UNL     1      74.184  11.863  30.212  1.00  0.00     0.276 HD
ATOM     10  H31 UNL     1      72.912  12.577  31.074  1.00  0.00     0.276 HD
ENDBRANCH   5   7
BRANCH   5  11
HETATM   11  C6  UNL     1      73.592  11.994  33.210  1.00  0.00     0.276 C 
HETATM   12  N4  UNL     1      72.490  12.851  33.418  1.00  0.00    -0.059 NA
HETATM   13  O2  UNL     1      73.699  10.953  33.932  1.00  0.00    -0.274 OA
ENDBRANCH   5  11
ENDBRANCH   3   5
BRANCH   1  14
HETATM   14  C2  UNL     1      76.014   8.807  31.474  1.00  0.00     0.073 C 
HETATM   15  C1  UNL     1      77.005   8.716  30.364  1.00  0.00     0.088 C 
HETATM   16  N1  UNL     1      75.984   7.841  32.361  1.00  0.00    -0.389 N 
ATOM     17  H12 UNL     1      76.631   7.057  32.275  1.00  0.00     0.157 HD
ATOM     18  H11 UNL     1      75.306   7.903  33.121  1.00  0.00     0.157 HD
ENDBRANCH   1  14
TORSDOF 4
ENDMDL
MODEL 5
REMARK VINA RESULT: -6.031883592      2.129      3.202
REMARK  4 active torsions:
REMARK  status: ('A' for Active; 'I' for Inactive)
REMARK    1  A    between atoms: C2_2  and  N2_6 
REMARK       I    between atoms: N2_6  and  C3_8 
REMARK    2  A    between atoms: C3_8  and  C4_10 
REMARK    3  A    between atoms: C4_10  and  N3_12 
REMARK    4  A    between atoms: C4_10  and  C6_16 
ROOT
HETATM    1  N2  UNL     1      74.213   9.977  33.741  1.00  0.00    -0.315 N 
ATOM      2  H2  UNL     1      75.229   9.937  33.818  1.00  0.00     0.170 HD
HETATM    3  C3  UNL     1      73.621  11.194  33.380  1.00  0.00     0.268 C 
HETATM    4  O1  UNL     1      72.369  11.259  33.282  1.00  0.00    -0.270 OA
ENDROOT
BRANCH   3   5
HETATM    5  C4  UNL     1      74.363  12.440  33.098  1.00  0.00     0.276 C 
HETATM    6  C5  UNL     1      73.731  13.278  32.024  1.00  0.00     0.067 C 
BRANCH   5   7
HETATM    7  N3  UNL     1      74.441  13.227  34.297  1.00  0.00    -0.053 N 
ATOM      8  H33 UNL     1      73.669  13.889  34.376  1.00  0.00     0.276 HD
ATOM      9  H32 UNL     1      74.247  12.678  35.134  1.00  0.00     0.276 HD
ATOM     10  H31 UNL     1      75.351  13.687  34.340  1.00  0.00     0.276 HD
ENDBRANCH   5   7
BRANCH   5  11
HETATM   11  C6  UNL     1      75.720  12.072  32.656  1.00  0.00     0.276 C 
HETATM   12  N4  UNL     1      76.804  12.194  33.551  1.00  0.00    -0.059 NA
HETATM   13  O2  UNL     1      75.944  11.644  31.480  1.00  0.00    -0.274 OA
ENDBRANCH   5  11
ENDBRANCH   3   5
BRANCH   1  14
HETATM   14  C2  UNL     1      73.476   8.799  34.004  1.00  0.00     0.073 C 
HETATM   15  C1  UNL     1      73.912   7.463  33.505  1.00  0.00     0.088 C 
HETATM   16  N1  UNL     1      72.371   8.869  34.708  1.00  0.00    -0.389 N 
ATOM     17  H12 UNL     1      71.839   8.019  34.898  1.00  0.00     0.157 HD
ATOM     18  H11 UNL     1      72.073   9.783  35.050  1.00  0.00     0.157 HD
ENDBRANCH   1  14
TORSDOF 4
ENDMDL
