MODEL 1
REMARK VINA RESULT: -7.547027210      0.000      0.000
REMARK  13 active torsions:
REMARK  status: ('A' for Active; 'I' for Inactive)
REMARK    1  A    between atoms: N5_15  and  C6_16 
REMARK    2  A    between atoms: C7_18  and  O1_19 
REMARK    3  A    between atoms: O1_19  and  N6_20 
REMARK    4  A    between atoms: N6_20  and  S2_22 
REMARK    5  A    between atoms: S2_22  and  C8_25 
REMARK    6  A    between atoms: C8_25  and  C9_26 
REMARK    7  A    between atoms: C9_26  and  O4_27 
REMARK    8  A    between atoms: C9_26  and  C10_29 
REMARK       I    between atoms: C10_29  and  N7_31 
REMARK    9  A    between atoms: N7_31  and  N8_33 
REMARK       I    between atoms: N8_33  and  C11_35 
REMARK   10  A    between atoms: C11_35  and  C12_37 
REMARK   11  A    between atoms: N10_40  and  O8_41 
REMARK   12  A    between atoms: C13_43  and  O9_44 
REMARK   13  A    between atoms: C14_46  and  O10_47 
ROOT
HETATM    1  C6  UNL     1      -1.774  20.436  18.428  1.00  0.00     0.188 C 
HETATM    2  S1  UNL     1      -3.301  21.285  17.861  1.00  0.00    -0.103 SA
HETATM    3  C7  UNL     1      -3.470  20.315  16.342  1.00  0.00     0.247 C 
HETATM    4  C13 UNL     1      -2.979  18.972  16.851  1.00  0.00     0.191 C 
HETATM    5  C14 UNL     1      -1.832  19.117  17.744  1.00  0.00     0.183 C 
ENDROOT
BRANCH   3   6
HETATM    6  O1  UNL     1      -2.603  20.828  15.378  1.00  0.00    -0.252 OA
BRANCH   6   7
HETATM    7  N6  UNL     1      -1.960  19.879  14.716  1.00  0.00    -0.191 N 
ATOM      8  H6  UNL     1      -2.221  18.897  14.807  1.00  0.00     0.207 HD
BRANCH   7   9
HETATM    9  S2  UNL     1      -0.685  20.363  13.710  1.00  0.00     0.251 S 
HETATM   10  O2  UNL     1      -0.495  19.497  12.508  1.00  0.00    -0.204 OA
HETATM   11  O3  UNL     1      -0.890  21.774  13.173  1.00  0.00    -0.204 OA
BRANCH   9  12
HETATM   12  C8  UNL     1       0.831  20.429  14.631  1.00  0.00     0.206 C 
BRANCH  12  13
HETATM   13  C9  UNL     1       1.333  19.014  14.910  1.00  0.00     0.227 C 
BRANCH  13  14
HETATM   14  O4  UNL     1       0.302  18.116  14.880  1.00  0.00    -0.385 OA
ATOM     15  H4  UNL     1       0.166  17.787  13.999  1.00  0.00     0.210 HD
ENDBRANCH  13  14
BRANCH  13  16
HETATM   16  C10 UNL     1       2.105  18.937  16.156  1.00  0.00     0.265 C 
HETATM   17  O5  UNL     1       1.416  18.901  17.249  1.00  0.00    -0.269 OA
HETATM   18  N7  UNL     1       3.515  18.900  16.268  1.00  0.00    -0.265 N 
ATOM     19  H7  UNL     1       4.111  18.915  15.440  1.00  0.00     0.190 HD
BRANCH  18  20
HETATM   20  N8  UNL     1       4.076  18.841  17.577  1.00  0.00    -0.260 N 
HETATM   21  C11 UNL     1       4.469  20.030  18.220  1.00  0.00     0.316 C 
HETATM   22  O6  UNL     1       4.317  21.145  17.613  1.00  0.00    -0.262 OA
ATOM     23  H8  UNL     1       4.192  17.943  18.045  1.00  0.00     0.190 HD
BRANCH  21  24
HETATM   24  C12 UNL     1       5.036  20.022  19.542  1.00  0.00     0.279 A 
HETATM   25  O7  UNL     1       5.670  20.888  20.308  1.00  0.00    -0.194 OA
HETATM   26  N9  UNL     1       5.817  20.091  21.306  1.00  0.00     0.060 NA
HETATM   27  N10 UNL     1       5.183  19.164  20.591  1.00  0.00    -0.109 N 
BRANCH  27  28
HETATM   28  O8  UNL     1       4.789  17.858  20.752  1.00  0.00    -0.267 OA
ATOM     29  H8  UNL     1       5.194  17.045  20.472  1.00  0.00     0.246 HD
ENDBRANCH  27  28
ENDBRANCH  21  24
ENDBRANCH  18  20
ENDBRANCH  13  16
ENDBRANCH  12  13
ENDBRANCH   9  12
ENDBRANCH   7   9
ENDBRANCH   6   7
ENDBRANCH   3   6
BRANCH   4  30
HETATM   30  O9  UNL     1      -4.088  18.303  17.366  1.00  0.00    -0.389 OA
ATOM     31  H9  UNL     1      -4.588  18.939  17.862  1.00  0.00     0.210 HD
ENDBRANCH   4  30
BRANCH   1  32
HETATM   32  N5  UNL     1      -1.589  20.449  19.828  1.00  0.00    -0.310 N 
HETATM   33  C3  UNL     1      -0.484  20.087  20.524  1.00  0.00     0.141 A 
HETATM   34  N3  UNL     1       0.722  19.622  20.132  1.00  0.00    -0.336 N 
HETATM   35  C4  UNL     1      -0.748  20.270  21.856  1.00  0.00     0.122 A 
HETATM   36  C2  UNL     1       1.641  19.346  21.059  1.00  0.00     0.183 A 
ATOM     37  H3  UNL     1       0.927  19.484  19.143  1.00  0.00     0.168 HD
HETATM   38  N2  UNL     1       1.415  19.514  22.379  1.00  0.00    -0.337 N 
HETATM   39  C1  UNL     1       0.237  19.972  22.801  1.00  0.00     0.131 A 
ATOM     40  H2  UNL     1       2.147  19.291  23.054  1.00  0.00     0.168 HD
HETATM   41  N1  UNL     1      -0.023  20.163  24.065  1.00  0.00    -0.383 N 
ATOM     42  H12 UNL     1       0.696  19.946  24.754  1.00  0.00     0.157 HD
ATOM     43  H11 UNL     1      -0.925  20.514  24.388  1.00  0.00     0.157 HD
HETATM   44  N4  UNL     1      -1.996  20.736  21.961  1.00  0.00    -0.346 N 
HETATM   45  C5  UNL     1      -2.497  20.841  20.730  1.00  0.00     0.186 A 
ATOM     46  H4  UNL     1      -2.479  20.969  22.827  1.00  0.00     0.167 HD
ENDBRANCH   1  32
BRANCH   5  47
HETATM   47  O10 UNL     1      -1.842  18.023  18.644  1.00  0.00    -0.390 OA
ATOM     48  H10 UNL     1      -1.963  17.185  18.212  1.00  0.00     0.210 HD
ENDBRANCH   5  47
TORSDOF 13
ENDMDL
MODEL 2
REMARK VINA RESULT: -7.486872858      3.586      7.973
REMARK  13 active torsions:
REMARK  status: ('A' for Active; 'I' for Inactive)
REMARK    1  A    between atoms: N5_15  and  C6_16 
REMARK    2  A    between atoms: C7_18  and  O1_19 
REMARK    3  A    between atoms: O1_19  and  N6_20 
REMARK    4  A    between atoms: N6_20  and  S2_22 
REMARK    5  A    between atoms: S2_22  and  C8_25 
REMARK    6  A    between atoms: C8_25  and  C9_26 
REMARK    7  A    between atoms: C9_26  and  O4_27 
REMARK    8  A    between atoms: C9_26  and  C10_29 
REMARK       I    between atoms: C10_29  and  N7_31 
REMARK    9  A    between atoms: N7_31  and  N8_33 
REMARK       I    between atoms: N8_33  and  C11_35 
REMARK   10  A    between atoms: C11_35  and  C12_37 
REMARK   11  A    between atoms: N10_40  and  O8_41 
REMARK   12  A    between atoms: C13_43  and  O9_44 
REMARK   13  A    between atoms: C14_46  and  O10_47 
ROOT
HETATM    1  C6  UNL     1       1.830  19.891  20.740  1.00  0.00     0.188 C 
HETATM    2  S1  UNL     1       2.672  20.277  22.326  1.00  0.00    -0.103 SA
HETATM    3  C7  UNL     1       1.190  20.082  23.347  1.00  0.00     0.247 C 
HETATM    4  C13 UNL     1       0.528  18.936  22.604  1.00  0.00     0.191 C 
HETATM    5  C14 UNL     1       0.652  19.086  21.157  1.00  0.00     0.183 C 
ENDROOT
BRANCH   3   6
HETATM    6  O1  UNL     1       0.423  21.242  23.257  1.00  0.00    -0.252 OA
BRANCH   6   7
HETATM    7  N6  UNL     1      -0.680  21.180  23.987  1.00  0.00    -0.191 N 
ATOM      8  H6  UNL     1      -1.049  20.288  24.317  1.00  0.00     0.207 HD
BRANCH   7   9
HETATM    9  S2  UNL     1      -1.455  22.644  24.348  1.00  0.00     0.251 S 
HETATM   10  O2  UNL     1      -2.133  22.661  25.678  1.00  0.00    -0.204 OA
HETATM   11  O3  UNL     1      -0.477  23.812  24.368  1.00  0.00    -0.204 OA
BRANCH   9  12
HETATM   12  C8  UNL     1      -2.635  23.041  23.083  1.00  0.00     0.206 C 
BRANCH  12  13
HETATM   13  C9  UNL     1      -3.800  22.055  23.129  1.00  0.00     0.227 C 
BRANCH  13  14
HETATM   14  O4  UNL     1      -3.871  21.441  24.349  1.00  0.00    -0.385 OA
ATOM     15  H4  UNL     1      -3.528  20.556  24.303  1.00  0.00     0.210 HD
ENDBRANCH  13  14
BRANCH  13  16
HETATM   16  C10 UNL     1      -3.755  21.094  22.021  1.00  0.00     0.265 C 
HETATM   17  O5  UNL     1      -4.576  20.100  22.098  1.00  0.00    -0.269 OA
HETATM   18  N7  UNL     1      -2.904  21.157  20.891  1.00  0.00    -0.265 N 
ATOM     19  H7  UNL     1      -2.243  21.924  20.771  1.00  0.00     0.190 HD
BRANCH  18  20
HETATM   20  N8  UNL     1      -3.002  20.112  19.927  1.00  0.00    -0.260 N 
HETATM   21  C11 UNL     1      -2.082  20.056  18.865  1.00  0.00     0.316 C 
HETATM   22  O6  UNL     1      -1.172  20.951  18.782  1.00  0.00    -0.262 OA
ATOM     23  H8  UNL     1      -3.736  19.408  20.007  1.00  0.00     0.190 HD
BRANCH  21  24
HETATM   24  C12 UNL     1      -2.139  19.019  17.869  1.00  0.00     0.279 A 
HETATM   25  O7  UNL     1      -2.264  17.706  17.873  1.00  0.00    -0.194 OA
HETATM   26  N9  UNL     1      -2.226  17.571  16.595  1.00  0.00     0.060 NA
HETATM   27  N10 UNL     1      -2.096  18.894  16.513  1.00  0.00    -0.109 N 
BRANCH  27  28
HETATM   28  O8  UNL     1      -1.968  19.837  15.523  1.00  0.00    -0.267 OA
ATOM     29  H8  UNL     1      -1.308  19.949  14.849  1.00  0.00     0.246 HD
ENDBRANCH  27  28
ENDBRANCH  21  24
ENDBRANCH  18  20
ENDBRANCH  13  16
ENDBRANCH  12  13
ENDBRANCH   9  12
ENDBRANCH   7   9
ENDBRANCH   6   7
ENDBRANCH   3   6
BRANCH   4  30
HETATM   30  O9  UNL     1       1.025  17.756  23.153  1.00  0.00    -0.389 OA
ATOM     31  H9  UNL     1       0.291  17.306  23.551  1.00  0.00     0.210 HD
ENDBRANCH   4  30
BRANCH   1  32
HETATM   32  N5  UNL     1       2.681  19.358  19.746  1.00  0.00    -0.310 N 
HETATM   33  C3  UNL     1       2.467  19.308  18.409  1.00  0.00     0.141 A 
HETATM   34  N3  UNL     1       1.437  19.721  17.639  1.00  0.00    -0.336 N 
HETATM   35  C4  UNL     1       3.559  18.715  17.831  1.00  0.00     0.122 A 
HETATM   36  C2  UNL     1       1.503  19.541  16.320  1.00  0.00     0.183 A 
ATOM     37  H3  UNL     1       0.620  20.164  18.061  1.00  0.00     0.168 HD
HETATM   38  N2  UNL     1       2.563  18.961  15.717  1.00  0.00    -0.337 N 
HETATM   39  C1  UNL     1       3.597  18.542  16.445  1.00  0.00     0.131 A 
ATOM     40  H2  UNL     1       2.572  18.844  14.703  1.00  0.00     0.168 HD
HETATM   41  N1  UNL     1       4.648  17.988  15.908  1.00  0.00    -0.383 N 
ATOM     42  H12 UNL     1       4.675  17.862  14.896  1.00  0.00     0.157 HD
ATOM     43  H11 UNL     1       5.440  17.668  16.465  1.00  0.00     0.157 HD
HETATM   44  N4  UNL     1       4.418  18.411  18.809  1.00  0.00    -0.346 N 
HETATM   45  C5  UNL     1       3.880  18.803  19.963  1.00  0.00     0.186 A 
ATOM     46  H4  UNL     1       5.325  17.960  18.692  1.00  0.00     0.167 HD
ENDBRANCH   1  32
BRANCH   5  47
HETATM   47  O10 UNL     1       0.633  17.789  20.584  1.00  0.00    -0.390 OA
ATOM     48  H10 UNL     1       1.462  17.333  20.662  1.00  0.00     0.210 HD
ENDBRANCH   5  47
TORSDOF 13
ENDMDL
MODEL 3
REMARK VINA RESULT: -7.435881460      2.811      6.197
REMARK  13 active torsions:
REMARK  status: ('A' for Active; 'I' for Inactive)
REMARK    1  A    between atoms: N5_15  and  C6_16 
REMARK    2  A    between atoms: C7_18  and  O1_19 
REMARK    3  A    between atoms: O1_19  and  N6_20 
REMARK    4  A    between atoms: N6_20  and  S2_22 
REMARK    5  A    between atoms: S2_22  and  C8_25 
REMARK    6  A    between atoms: C8_25  and  C9_26 
REMARK    7  A    between atoms: C9_26  and  O4_27 
REMARK    8  A    between atoms: C9_26  and  C10_29 
REMARK       I    between atoms: C10_29  and  N7_31 
REMARK    9  A    between atoms: N7_31  and  N8_33 
REMARK       I    between atoms: N8_33  and  C11_35 
REMARK   10  A    between atoms: C11_35  and  C12_37 
REMARK   11  A    between atoms: N10_40  and  O8_41 
REMARK   12  A    between atoms: C13_43  and  O9_44 
REMARK   13  A    between atoms: C14_46  and  O10_47 
ROOT
HETATM    1  C6  UNL     1      -1.703  20.656  18.307  1.00  0.00     0.188 C 
HETATM    2  S1  UNL     1      -1.809  19.508  19.737  1.00  0.00    -0.103 SA
HETATM    3  C7  UNL     1      -3.052  20.475  20.629  1.00  0.00     0.247 C 
HETATM    4  C13 UNL     1      -3.864  20.979  19.450  1.00  0.00     0.191 C 
HETATM    5  C14 UNL     1      -3.011  21.362  18.328  1.00  0.00     0.183 C 
ENDROOT
BRANCH   3   6
HETATM    6  O1  UNL     1      -2.420  21.530  21.284  1.00  0.00    -0.252 OA
BRANCH   6   7
HETATM    7  N6  UNL     1      -2.024  21.207  22.505  1.00  0.00    -0.191 N 
ATOM      8  H6  UNL     1      -2.657  20.759  23.167  1.00  0.00     0.207 HD
BRANCH   7   9
HETATM    9  S2  UNL     1      -0.422  21.568  22.922  1.00  0.00     0.251 S 
HETATM   10  O2  UNL     1       0.425  21.999  21.770  1.00  0.00    -0.204 OA
HETATM   11  O3  UNL     1      -0.342  22.701  23.939  1.00  0.00    -0.204 OA
BRANCH   9  12
HETATM   12  C8  UNL     1       0.334  20.172  23.716  1.00  0.00     0.206 C 
BRANCH  12  13
HETATM   13  C9  UNL     1       1.855  20.271  23.610  1.00  0.00     0.227 C 
BRANCH  13  14
HETATM   14  O4  UNL     1       2.265  21.572  23.702  1.00  0.00    -0.385 OA
ATOM     15  H4  UNL     1       2.666  21.742  24.547  1.00  0.00     0.210 HD
ENDBRANCH  13  14
BRANCH  13  16
HETATM   16  C10 UNL     1       2.368  19.607  22.407  1.00  0.00     0.265 C 
HETATM   17  O5  UNL     1       3.640  19.380  22.383  1.00  0.00    -0.269 OA
HETATM   18  N7  UNL     1       1.607  19.198  21.285  1.00  0.00    -0.265 N 
ATOM     19  H7  UNL     1       0.598  19.341  21.252  1.00  0.00     0.190 HD
BRANCH  18  20
HETATM   20  N8  UNL     1       2.299  18.579  20.204  1.00  0.00    -0.260 N 
HETATM   21  C11 UNL     1       2.393  19.243  18.967  1.00  0.00     0.316 C 
HETATM   22  O6  UNL     1       1.850  20.394  18.836  1.00  0.00    -0.262 OA
ATOM     23  H8  UNL     1       2.724  17.660  20.325  1.00  0.00     0.190 HD
BRANCH  21  24
HETATM   24  C12 UNL     1       3.083  18.661  17.847  1.00  0.00     0.279 A 
HETATM   25  O7  UNL     1       3.164  18.902  16.553  1.00  0.00    -0.194 OA
HETATM   26  N9  UNL     1       3.978  17.940  16.296  1.00  0.00     0.060 NA
HETATM   27  N10 UNL     1       3.945  17.637  17.592  1.00  0.00    -0.109 N 
BRANCH  27  28
HETATM   28  O8  UNL     1       4.510  16.703  18.427  1.00  0.00    -0.267 OA
ATOM     29  H8  UNL     1       5.419  16.519  18.633  1.00  0.00     0.246 HD
ENDBRANCH  27  28
ENDBRANCH  21  24
ENDBRANCH  18  20
ENDBRANCH  13  16
ENDBRANCH  12  13
ENDBRANCH   9  12
ENDBRANCH   7   9
ENDBRANCH   6   7
ENDBRANCH   3   6
BRANCH   4  30
HETATM   30  O9  UNL     1      -4.841  20.020  19.190  1.00  0.00    -0.389 OA
ATOM     31  H9  UNL     1      -5.474  20.421  18.607  1.00  0.00     0.210 HD
ENDBRANCH   4  30
BRANCH   1  32
HETATM   32  N5  UNL     1      -1.299  20.044  17.100  1.00  0.00    -0.310 N 
HETATM   33  C3  UNL     1      -0.304  20.429  16.265  1.00  0.00     0.141 A 
HETATM   34  N3  UNL     1       0.568  21.459  16.308  1.00  0.00    -0.336 N 
HETATM   35  C4  UNL     1      -0.261  19.539  15.223  1.00  0.00     0.122 A 
HETATM   36  C2  UNL     1       1.462  21.592  15.327  1.00  0.00     0.183 A 
ATOM     37  H3  UNL     1       0.544  22.126  17.080  1.00  0.00     0.168 HD
HETATM   38  N2  UNL     1       1.533  20.735  14.287  1.00  0.00    -0.337 N 
HETATM   39  C1  UNL     1       0.688  19.706  14.212  1.00  0.00     0.131 A 
ATOM     40  H2  UNL     1       2.233  20.874  13.558  1.00  0.00     0.168 HD
HETATM   41  N1  UNL     1       0.726  18.845  13.234  1.00  0.00    -0.383 N 
ATOM     42  H12 UNL     1       1.420  18.967  12.496  1.00  0.00     0.157 HD
ATOM     43  H11 UNL     1       0.080  18.057  13.177  1.00  0.00     0.157 HD
HETATM   44  N4  UNL     1      -1.219  18.630  15.429  1.00  0.00    -0.346 N 
HETATM   45  C5  UNL     1      -1.842  18.943  16.565  1.00  0.00     0.186 A 
ATOM     46  H4  UNL     1      -1.435  17.838  14.825  1.00  0.00     0.167 HD
ENDBRANCH   1  32
BRANCH   5  47
HETATM   47  O10 UNL     1      -3.758  21.188  17.136  1.00  0.00    -0.390 OA
ATOM     48  H10 UNL     1      -4.340  20.437  17.165  1.00  0.00     0.210 HD
ENDBRANCH   5  47
TORSDOF 13
ENDMDL
MODEL 4
REMARK VINA RESULT: -7.368167280      2.907      6.696
REMARK  13 active torsions:
REMARK  status: ('A' for Active; 'I' for Inactive)
REMARK    1  A    between atoms: N5_15  and  C6_16 
REMARK    2  A    between atoms: C7_18  and  O1_19 
REMARK    3  A    between atoms: O1_19  and  N6_20 
REMARK    4  A    between atoms: N6_20  and  S2_22 
REMARK    5  A    between atoms: S2_22  and  C8_25 
REMARK    6  A    between atoms: C8_25  and  C9_26 
REMARK    7  A    between atoms: C9_26  and  O4_27 
REMARK    8  A    between atoms: C9_26  and  C10_29 
REMARK       I    between atoms: C10_29  and  N7_31 
REMARK    9  A    between atoms: N7_31  and  N8_33 
REMARK       I    between atoms: N8_33  and  C11_35 
REMARK   10  A    between atoms: C11_35  and  C12_37 
REMARK   11  A    between atoms: N10_40  and  O8_41 
REMARK   12  A    between atoms: C13_43  and  O9_44 
REMARK   13  A    between atoms: C14_46  and  O10_47 
ROOT
HETATM    1  C6  UNL     1      -0.351  20.223  17.562  1.00  0.00     0.188 C 
HETATM    2  S1  UNL     1       0.667  19.693  18.995  1.00  0.00    -0.103 SA
HETATM    3  C7  UNL     1      -0.724  19.577  20.147  1.00  0.00     0.247 C 
HETATM    4  C13 UNL     1      -1.790  19.066  19.196  1.00  0.00     0.191 C 
HETATM    5  C14 UNL     1      -1.710  19.717  17.891  1.00  0.00     0.183 C 
ENDROOT
BRANCH   3   6
HETATM    6  O1  UNL     1      -1.039  20.856  20.606  1.00  0.00    -0.252 OA
BRANCH   6   7
HETATM    7  N6  UNL     1      -1.559  20.845  21.823  1.00  0.00    -0.191 N 
ATOM      8  H6  UNL     1      -2.505  20.505  21.994  1.00  0.00     0.207 HD
BRANCH   7   9
HETATM    9  S2  UNL     1      -0.587  21.422  23.086  1.00  0.00     0.251 S 
HETATM   10  O2  UNL     1      -1.061  22.707  23.681  1.00  0.00    -0.204 OA
HETATM   11  O3  UNL     1      -0.515  20.433  24.243  1.00  0.00    -0.204 OA
BRANCH   9  12
HETATM   12  C8  UNL     1       1.088  21.615  22.531  1.00  0.00     0.206 C 
BRANCH  12  13
HETATM   13  C9  UNL     1       1.985  20.583  23.211  1.00  0.00     0.227 C 
BRANCH  13  14
HETATM   14  O4  UNL     1       3.008  21.195  23.881  1.00  0.00    -0.385 OA
ATOM     15  H4  UNL     1       3.350  21.927  23.382  1.00  0.00     0.210 HD
ENDBRANCH  13  14
BRANCH  13  16
HETATM   16  C10 UNL     1       2.463  19.563  22.271  1.00  0.00     0.265 C 
HETATM   17  O5  UNL     1       1.795  18.457  22.246  1.00  0.00    -0.269 OA
HETATM   18  N7  UNL     1       3.575  19.678  21.402  1.00  0.00    -0.265 N 
ATOM     19  H7  UNL     1       4.133  20.531  21.370  1.00  0.00     0.190 HD
BRANCH  18  20
HETATM   20  N8  UNL     1       3.887  18.562  20.573  1.00  0.00    -0.260 N 
HETATM   21  C11 UNL     1       4.187  18.768  19.214  1.00  0.00     0.316 C 
HETATM   22  O6  UNL     1       4.171  19.958  18.746  1.00  0.00    -0.262 OA
ATOM     23  H8  UNL     1       3.893  17.620  20.962  1.00  0.00     0.190 HD
BRANCH  21  24
HETATM   24  C12 UNL     1       4.513  17.674  18.338  1.00  0.00     0.279 A 
HETATM   25  O7  UNL     1       4.830  16.402  18.485  1.00  0.00    -0.194 OA
HETATM   26  N9  UNL     1       4.955  16.156  17.229  1.00  0.00     0.060 NA
HETATM   27  N10 UNL     1       4.641  17.430  17.003  1.00  0.00    -0.109 N 
BRANCH  27  28
HETATM   28  O8  UNL     1       4.482  18.254  15.915  1.00  0.00    -0.267 OA
ATOM     29  H8  UNL     1       4.210  18.067  15.025  1.00  0.00     0.246 HD
ENDBRANCH  27  28
ENDBRANCH  21  24
ENDBRANCH  18  20
ENDBRANCH  13  16
ENDBRANCH  12  13
ENDBRANCH   9  12
ENDBRANCH   7   9
ENDBRANCH   6   7
ENDBRANCH   3   6
BRANCH   4  30
HETATM   30  O9  UNL     1      -1.707  17.675  19.204  1.00  0.00    -0.389 OA
ATOM     31  H9  UNL     1      -1.762  17.390  18.300  1.00  0.00     0.210 HD
ENDBRANCH   4  30
BRANCH   1  32
HETATM   32  N5  UNL     1       0.196  19.884  16.304  1.00  0.00    -0.310 N 
HETATM   33  C3  UNL     1      -0.307  20.162  15.077  1.00  0.00     0.141 A 
HETATM   34  N3  UNL     1      -1.424  20.809  14.680  1.00  0.00    -0.336 N 
HETATM   35  C4  UNL     1       0.558  19.652  14.143  1.00  0.00     0.122 A 
HETATM   36  C2  UNL     1      -1.667  20.938  13.375  1.00  0.00     0.183 A 
ATOM     37  H3  UNL     1      -2.073  21.192  15.367  1.00  0.00     0.168 HD
HETATM   38  N2  UNL     1      -0.838  20.449  12.428  1.00  0.00    -0.337 N 
HETATM   39  C1  UNL     1       0.274  19.807  12.784  1.00  0.00     0.131 A 
ATOM     40  H2  UNL     1      -1.062  20.572  11.441  1.00  0.00     0.168 HD
HETATM   41  N1  UNL     1       1.112  19.327  11.907  1.00  0.00    -0.383 N 
ATOM     42  H12 UNL     1       0.905  19.441  10.915  1.00  0.00     0.157 HD
ATOM     43  H11 UNL     1       1.963  18.836  12.179  1.00  0.00     0.157 HD
HETATM   44  N4  UNL     1       1.567  19.074  14.801  1.00  0.00    -0.346 N 
HETATM   45  C5  UNL     1       1.341  19.219  16.106  1.00  0.00     0.186 A 
ATOM     46  H4  UNL     1       2.369  18.606  14.380  1.00  0.00     0.167 HD
ENDBRANCH   1  32
BRANCH   5  47
HETATM   47  O10 UNL     1      -2.218  18.814  16.924  1.00  0.00    -0.390 OA
ATOM     48  H10 UNL     1      -3.167  18.784  16.902  1.00  0.00     0.210 HD
ENDBRANCH   5  47
TORSDOF 13
ENDMDL
MODEL 5
REMARK VINA RESULT: -7.299039379      2.193      3.413
REMARK  13 active torsions:
REMARK  status: ('A' for Active; 'I' for Inactive)
REMARK    1  A    between atoms: N5_15  and  C6_16 
REMARK    2  A    between atoms: C7_18  and  O1_19 
REMARK    3  A    between atoms: O1_19  and  N6_20 
REMARK    4  A    between atoms: N6_20  and  S2_22 
REMARK    5  A    between atoms: S2_22  and  C8_25 
REMARK    6  A    between atoms: C8_25  and  C9_26 
REMARK    7  A    between atoms: C9_26  and  O4_27 
REMARK    8  A    between atoms: C9_26  and  C10_29 
REMARK       I    between atoms: C10_29  and  N7_31 
REMARK    9  A    between atoms: N7_31  and  N8_33 
REMARK       I    between atoms: N8_33  and  C11_35 
REMARK   10  A    between atoms: C11_35  and  C12_37 
REMARK   11  A    between atoms: N10_40  and  O8_41 
REMARK   12  A    between atoms: C13_43  and  O9_44 
REMARK   13  A    between atoms: C14_46  and  O10_47 
ROOT
HETATM    1  C6  UNL     1       0.125  20.453  20.406  1.00  0.00     0.188 C 
HETATM    2  S1  UNL     1      -1.668  20.798  20.598  1.00  0.00    -0.103 SA
HETATM    3  C7  UNL     1      -2.100  20.355  18.897  1.00  0.00     0.247 C 
HETATM    4  C13 UNL     1      -1.129  19.208  18.687  1.00  0.00     0.191 C 
HETATM    5  C14 UNL     1       0.178  19.489  19.275  1.00  0.00     0.183 C 
ENDROOT
BRANCH   3   6
HETATM    6  O1  UNL     1      -1.794  21.425  18.058  1.00  0.00    -0.252 OA
BRANCH   6   7
HETATM    7  N6  UNL     1      -2.484  21.401  16.929  1.00  0.00    -0.191 N 
ATOM      8  H6  UNL     1      -2.991  20.567  16.635  1.00  0.00     0.207 HD
BRANCH   7   9
HETATM    9  S2  UNL     1      -2.490  22.814  15.993  1.00  0.00     0.251 S 
HETATM   10  O2  UNL     1      -3.690  22.959  15.117  1.00  0.00    -0.204 OA
HETATM   11  O3  UNL     1      -2.456  24.068  16.858  1.00  0.00    -0.204 OA
BRANCH   9  12
HETATM   12  C8  UNL     1      -1.023  22.894  14.996  1.00  0.00     0.206 C 
BRANCH  12  13
HETATM   13  C9  UNL     1      -0.929  21.657  14.106  1.00  0.00     0.227 C 
BRANCH  13  14
HETATM   14  O4  UNL     1      -2.172  21.153  13.840  1.00  0.00    -0.385 OA
ATOM     15  H4  UNL     1      -2.801  21.441  14.493  1.00  0.00     0.210 HD
ENDBRANCH  13  14
BRANCH  13  16
HETATM   16  C10 UNL     1      -0.022  20.645  14.660  1.00  0.00     0.265 C 
HETATM   17  O5  UNL     1      -0.583  19.648  15.259  1.00  0.00    -0.269 OA
HETATM   18  N7  UNL     1       1.392  20.663  14.598  1.00  0.00    -0.265 N 
ATOM     19  H7  UNL     1       1.890  21.419  14.129  1.00  0.00     0.190 HD
BRANCH  18  20
HETATM   20  N8  UNL     1       2.096  19.588  15.214  1.00  0.00    -0.260 N 
HETATM   21  C11 UNL     1       2.676  19.773  16.483  1.00  0.00     0.316 C 
HETATM   22  O6  UNL     1       2.561  20.908  17.061  1.00  0.00    -0.262 OA
ATOM     23  H8  UNL     1       2.180  18.690  14.739  1.00  0.00     0.190 HD
BRANCH  21  24
HETATM   24  C12 UNL     1       3.393  18.717  17.147  1.00  0.00     0.279 A 
HETATM   25  O7  UNL     1       3.309  18.097  18.308  1.00  0.00    -0.194 OA
HETATM   26  N9  UNL     1       4.303  17.307  18.102  1.00  0.00     0.060 NA
HETATM   27  N10 UNL     1       4.448  17.888  16.912  1.00  0.00    -0.109 N 
BRANCH  27  28
HETATM   28  O8  UNL     1       5.281  17.771  15.826  1.00  0.00    -0.267 OA
ATOM     29  H8  UNL     1       5.120  17.448  14.947  1.00  0.00     0.246 HD
ENDBRANCH  27  28
ENDBRANCH  21  24
ENDBRANCH  18  20
ENDBRANCH  13  16
ENDBRANCH  12  13
ENDBRANCH   9  12
ENDBRANCH   7   9
ENDBRANCH   6   7
ENDBRANCH   3   6
BRANCH   4  30
HETATM   30  O9  UNL     1      -1.770  18.049  19.119  1.00  0.00    -0.389 OA
ATOM     31  H9  UNL     1      -1.264  17.709  19.847  1.00  0.00     0.210 HD
ENDBRANCH   4  30
BRANCH   1  32
HETATM   32  N5  UNL     1       0.780  20.102  21.607  1.00  0.00    -0.310 N 
HETATM   33  C3  UNL     1       2.101  19.861  21.794  1.00  0.00     0.141 A 
HETATM   34  N3  UNL     1       3.154  19.873  20.948  1.00  0.00    -0.336 N 
HETATM   35  C4  UNL     1       2.290  19.565  23.120  1.00  0.00     0.122 A 
HETATM   36  C2  UNL     1       4.368  19.592  21.423  1.00  0.00     0.183 A 
ATOM     37  H3  UNL     1       3.022  20.092  19.961  1.00  0.00     0.168 HD
HETATM   38  N2  UNL     1       4.591  19.297  22.721  1.00  0.00    -0.337 N 
HETATM   39  C1  UNL     1       3.576  19.277  23.585  1.00  0.00     0.131 A 
ATOM     40  H2  UNL     1       5.537  19.090  23.042  1.00  0.00     0.168 HD
HETATM   41  N1  UNL     1       3.743  19.010  24.850  1.00  0.00    -0.383 N 
ATOM     42  H12 UNL     1       4.682  18.801  25.189  1.00  0.00     0.157 HD
ATOM     43  H11 UNL     1       2.966  18.996  25.511  1.00  0.00     0.157 HD
HETATM   44  N4  UNL     1       1.099  19.627  23.721  1.00  0.00    -0.346 N 
HETATM   45  C5  UNL     1       0.192  19.952  22.801  1.00  0.00     0.186 A 
ATOM     46  H4  UNL     1       0.916  19.457  24.710  1.00  0.00     0.167 HD
ENDBRANCH   1  32
BRANCH   5  47
HETATM   47  O10 UNL     1       0.772  18.251  19.625  1.00  0.00    -0.390 OA
ATOM     48  H10 UNL     1       1.546  18.049  19.112  1.00  0.00     0.210 HD
ENDBRANCH   5  47
TORSDOF 13
ENDMDL
