MODEL 1
REMARK VINA RESULT: -4.002775580      0.000      0.000
REMARK  1 active torsions:
REMARK  status: ('A' for Active; 'I' for Inactive)
REMARK    1  A    between atoms: C2_2  and  N1_4 
ROOT
HETATM    1  N1  UNL     1      -2.646   7.578  19.574  1.00  0.00     0.024 N 
HETATM    2  C4  UNL     1      -3.979   7.082  19.797  1.00  0.00     0.298 A 
HETATM    3  C5  UNL     1      -2.984   7.223  20.892  1.00  0.00     0.256 A 
HETATM    4  C6  UNL     1      -1.805   6.296  20.821  1.00  0.00     0.179 C 
HETATM    5  N2  UNL     1      -1.637   6.648  19.416  1.00  0.00    -0.044 NA
ENDROOT
BRANCH   1   6
HETATM    6  C2  UNL     1      -2.436   8.917  19.131  1.00  0.00     0.204 C 
HETATM    7  C1  UNL     1      -1.024   9.274  19.631  1.00  0.00     0.042 C 
HETATM    8  C3  UNL     1      -3.367   9.926  19.751  1.00  0.00     0.042 C 
ENDBRANCH   1   6
TORSDOF 1
ENDMDL
MODEL 2
REMARK VINA RESULT: -3.921496320      1.169      3.074
REMARK  1 active torsions:
REMARK  status: ('A' for Active; 'I' for Inactive)
REMARK    1  A    between atoms: C2_2  and  N1_4 
ROOT
HETATM    1  N1  UNL     1      -2.678   8.482  19.644  1.00  0.00     0.024 N 
HETATM    2  C4  UNL     1      -1.665   8.684  18.641  1.00  0.00     0.298 A 
HETATM    3  C5  UNL     1      -1.930   9.671  19.721  1.00  0.00     0.256 A 
HETATM    4  C6  UNL     1      -3.256  10.372  19.647  1.00  0.00     0.179 C 
HETATM    5  N2  UNL     1      -3.905   9.082  19.441  1.00  0.00    -0.044 NA
ENDROOT
BRANCH   1   6
HETATM    6  C2  UNL     1      -2.574   7.406  20.574  1.00  0.00     0.204 C 
HETATM    7  C1  UNL     1      -2.092   6.211  19.731  1.00  0.00     0.042 C 
HETATM    8  C3  UNL     1      -3.886   6.987  21.182  1.00  0.00     0.042 C 
ENDBRANCH   1   6
TORSDOF 1
ENDMDL
MODEL 3
REMARK VINA RESULT: -3.844166380      1.034      1.800
REMARK  1 active torsions:
REMARK  status: ('A' for Active; 'I' for Inactive)
REMARK    1  A    between atoms: C2_2  and  N1_4 
ROOT
HETATM    1  N1  UNL     1      -2.850   8.200  20.086  1.00  0.00     0.024 N 
HETATM    2  C4  UNL     1      -1.895   7.179  20.432  1.00  0.00     0.298 A 
HETATM    3  C5  UNL     1      -3.093   6.904  19.596  1.00  0.00     0.256 A 
HETATM    4  C6  UNL     1      -4.414   7.011  20.301  1.00  0.00     0.179 C 
HETATM    5  N2  UNL     1      -3.992   8.293  20.856  1.00  0.00    -0.044 NA
ENDROOT
BRANCH   1   6
HETATM    6  C2  UNL     1      -2.465   9.307  19.274  1.00  0.00     0.204 C 
HETATM    7  C1  UNL     1      -0.970   9.514  19.582  1.00  0.00     0.042 C 
HETATM    8  C3  UNL     1      -3.148  10.601  19.632  1.00  0.00     0.042 C 
ENDBRANCH   1   6
TORSDOF 1
ENDMDL
MODEL 4
REMARK VINA RESULT: -3.784514635      1.304      3.106
REMARK  1 active torsions:
REMARK  status: ('A' for Active; 'I' for Inactive)
REMARK    1  A    between atoms: C2_2  and  N1_4 
ROOT
HETATM    1  N1  UNL     1      -2.313   6.992  20.206  1.00  0.00     0.024 N 
HETATM    2  C4  UNL     1      -1.342   7.516  19.280  1.00  0.00     0.298 A 
HETATM    3  C5  UNL     1      -2.348   8.376  19.957  1.00  0.00     0.256 A 
HETATM    4  C6  UNL     1      -3.775   8.148  19.550  1.00  0.00     0.179 C 
HETATM    5  N2  UNL     1      -3.574   6.713  19.717  1.00  0.00    -0.044 NA
ENDROOT
BRANCH   1   6
HETATM    6  C2  UNL     1      -1.898   6.407  21.438  1.00  0.00     0.204 C 
HETATM    7  C1  UNL     1      -1.371   5.013  21.048  1.00  0.00     0.042 C 
HETATM    8  C3  UNL     1      -3.017   6.171  22.418  1.00  0.00     0.042 C 
ENDBRANCH   1   6
TORSDOF 1
ENDMDL
MODEL 5
REMARK VINA RESULT: -3.767596549      1.036      1.585
REMARK  1 active torsions:
REMARK  status: ('A' for Active; 'I' for Inactive)
REMARK    1  A    between atoms: C2_2  and  N1_4 
ROOT
HETATM    1  N1  UNL     1      -2.799   7.181  20.347  1.00  0.00     0.024 N 
HETATM    2  C4  UNL     1      -3.860   6.873  21.270  1.00  0.00     0.298 A 
HETATM    3  C5  UNL     1      -2.432   6.583  21.566  1.00  0.00     0.256 A 
HETATM    4  C6  UNL     1      -1.798   5.517  20.720  1.00  0.00     0.179 C 
HETATM    5  N2  UNL     1      -2.347   6.161  19.531  1.00  0.00    -0.044 NA
ENDROOT
BRANCH   1   6
HETATM    6  C2  UNL     1      -2.512   8.533  19.996  1.00  0.00     0.204 C 
HETATM    7  C1  UNL     1      -3.879   9.135  19.623  1.00  0.00     0.042 C 
HETATM    8  C3  UNL     1      -1.641   8.682  18.776  1.00  0.00     0.042 C 
ENDBRANCH   1   6
TORSDOF 1
ENDMDL
