MODEL 1
REMARK VINA RESULT: -6.090291390      0.000      0.000
REMARK  9 active torsions:
REMARK  status: ('A' for Active; 'I' for Inactive)
REMARK    1  A    between atoms: C2_2  and  C3_3 
REMARK    2  A    between atoms: C3_3  and  N1_4 
REMARK    3  A    between atoms: N1_4  and  C4_5 
REMARK       I    between atoms: N1_4  and  C7_8 
REMARK    4  A    between atoms: C4_5  and  C5_6 
REMARK    5  A    between atoms: C7_8  and  C8_10 
REMARK    6  A    between atoms: C10_12  and  N2_13 
REMARK       I    between atoms: N2_13  and  C11_15 
REMARK    7  A    between atoms: C11_15  and  C12_17 
REMARK    8  A    between atoms: C13_20  and  C14_21 
REMARK    9  A    between atoms: C14_21  and  N5_22 
ROOT
HETATM    1  N2  UNL     1       3.239  20.852  18.020  1.00  0.00    -0.353 N 
ATOM      2  H2  UNL     1       4.008  20.196  18.153  1.00  0.00     0.163 HD
HETATM    3  C11 UNL     1       3.441  22.062  17.309  1.00  0.00     0.258 C 
HETATM    4  O2  UNL     1       2.499  22.852  17.154  1.00  0.00    -0.270 OA
ENDROOT
BRANCH   1   5
HETATM    5  C10 UNL     1       1.935  20.563  18.552  1.00  0.00     0.085 C 
HETATM    6  C9  UNL     1       1.620  19.060  18.450  1.00  0.00     0.039 C 
HETATM    7  C8  UNL     1       0.805  18.855  19.677  1.00  0.00     0.083 C 
HETATM    8  C20 UNL     1       1.650  19.562  20.733  1.00  0.00    -0.004 C 
HETATM    9  C19 UNL     1       1.870  20.894  20.027  1.00  0.00     0.030 C 
HETATM   10  C21 UNL     1       2.979  18.930  20.958  1.00  0.00     0.011 C 
BRANCH   7  11
HETATM   11  C7  UNL     1       0.437  17.508  20.033  1.00  0.00     0.224 C 
HETATM   12  N1  UNL     1      -0.464  16.719  19.303  1.00  0.00    -0.352 N 
HETATM   13  O1  UNL     1       0.961  16.992  21.079  1.00  0.00    -0.273 OA
BRANCH  12  14
HETATM   14  C3  UNL     1      -0.700  15.340  19.743  1.00  0.00     0.125 C 
BRANCH  14  15
HETATM   15  C2  UNL     1      -0.164  14.412  18.674  1.00  0.00     0.015 C 
HETATM   16  C1  UNL     1      -1.252  13.617  18.016  1.00  0.00     0.006 C 
ENDBRANCH  14  15
ENDBRANCH  12  14
BRANCH  12  17
HETATM   17  C4  UNL     1      -1.180  17.249  18.161  1.00  0.00     0.125 C 
BRANCH  17  18
HETATM   18  C5  UNL     1      -2.681  17.112  18.288  1.00  0.00     0.015 C 
HETATM   19  C6  UNL     1      -3.164  18.201  19.204  1.00  0.00     0.006 C 
ENDBRANCH  17  18
ENDBRANCH  12  17
ENDBRANCH   7  11
ENDBRANCH   1   5
BRANCH   3  20
HETATM   20  C12 UNL     1       4.815  22.329  16.768  1.00  0.00     0.287 C 
HETATM   21  N3  UNL     1       4.675  23.003  15.479  1.00  0.00    -0.112 NA
HETATM   22  N4  UNL     1       5.927  23.100  14.864  1.00  0.00    -0.130 NA
HETATM   23  C13 UNL     1       6.226  21.808  14.277  1.00  0.00     0.213 C 
HETATM   24  C18 UNL     1       6.259  20.832  15.395  1.00  0.00     0.241 C 
HETATM   25  O3  UNL     1       6.912  19.764  15.281  1.00  0.00    -0.272 OA
HETATM   26  N6  UNL     1       5.554  21.094  16.604  1.00  0.00    -0.332 N 
ATOM     27  H6  UNL     1       5.569  20.408  17.359  1.00  0.00     0.164 HD
BRANCH  23  28
HETATM   28  C14 UNL     1       7.549  21.824  13.541  1.00  0.00     0.268 C 
BRANCH  28  29
HETATM   29  N5  UNL     1       7.373  21.571  12.125  1.00  0.00    -0.076 N 
HETATM   30  C15 UNL     1       5.973  21.492  11.748  1.00  0.00     0.271 C 
HETATM   31  C16 UNL     1       7.962  22.668  11.385  1.00  0.00     0.271 C 
HETATM   32  C17 UNL     1       8.090  20.367  11.722  1.00  0.00     0.271 C 
ENDBRANCH  28  29
ENDBRANCH  23  28
ENDBRANCH   3  20
TORSDOF 9
ENDMDL
MODEL 2
REMARK VINA RESULT: -5.957286795      3.823      6.329
REMARK  9 active torsions:
REMARK  status: ('A' for Active; 'I' for Inactive)
REMARK    1  A    between atoms: C2_2  and  C3_3 
REMARK    2  A    between atoms: C3_3  and  N1_4 
REMARK    3  A    between atoms: N1_4  and  C4_5 
REMARK       I    between atoms: N1_4  and  C7_8 
REMARK    4  A    between atoms: C4_5  and  C5_6 
REMARK    5  A    between atoms: C7_8  and  C8_10 
REMARK    6  A    between atoms: C10_12  and  N2_13 
REMARK       I    between atoms: N2_13  and  C11_15 
REMARK    7  A    between atoms: C11_15  and  C12_17 
REMARK    8  A    between atoms: C13_20  and  C14_21 
REMARK    9  A    between atoms: C14_21  and  N5_22 
ROOT
HETATM    1  N2  UNL     1       5.375  21.785  15.314  1.00  0.00    -0.353 N 
ATOM      2  H2  UNL     1       4.830  22.633  15.159  1.00  0.00     0.163 HD
HETATM    3  C11 UNL     1       6.164  21.238  14.270  1.00  0.00     0.258 C 
HETATM    4  O2  UNL     1       6.822  20.207  14.467  1.00  0.00    -0.270 OA
ENDROOT
BRANCH   1   5
HETATM    5  C10 UNL     1       5.354  21.127  16.592  1.00  0.00     0.085 C 
HETATM    6  C9  UNL     1       5.885  22.056  17.698  1.00  0.00     0.039 C 
HETATM    7  C8  UNL     1       5.052  21.631  18.853  1.00  0.00     0.083 C 
HETATM    8  C20 UNL     1       3.654  21.614  18.239  1.00  0.00    -0.004 C 
HETATM    9  C19 UNL     1       3.937  20.781  16.995  1.00  0.00     0.030 C 
HETATM   10  C21 UNL     1       3.177  22.955  17.801  1.00  0.00     0.011 C 
BRANCH   7  11
HETATM   11  C7  UNL     1       5.141  22.391  20.074  1.00  0.00     0.224 C 
HETATM   12  N1  UNL     1       5.004  21.839  21.357  1.00  0.00    -0.352 N 
HETATM   13  O1  UNL     1       5.359  23.648  19.993  1.00  0.00    -0.273 OA
BRANCH  12  14
HETATM   14  C3  UNL     1       5.181  22.717  22.517  1.00  0.00     0.125 C 
BRANCH  14  15
HETATM   15  C2  UNL     1       6.515  22.387  23.153  1.00  0.00     0.015 C 
HETATM   16  C1  UNL     1       6.377  22.012  24.598  1.00  0.00     0.006 C 
ENDBRANCH  14  15
ENDBRANCH  12  14
BRANCH  12  17
HETATM   17  C4  UNL     1       4.660  20.445  21.547  1.00  0.00     0.125 C 
BRANCH  17  18
HETATM   18  C5  UNL     1       3.169  20.209  21.629  1.00  0.00     0.015 C 
HETATM   19  C6  UNL     1       2.853  18.985  20.816  1.00  0.00     0.006 C 
ENDBRANCH  17  18
ENDBRANCH  12  17
ENDBRANCH   7  11
ENDBRANCH   1   5
BRANCH   3  20
HETATM   20  C12 UNL     1       6.161  21.953  12.950  1.00  0.00     0.287 C 
HETATM   21  N3  UNL     1       4.832  22.528  12.747  1.00  0.00    -0.112 NA
HETATM   22  N4  UNL     1       4.739  23.041  11.449  1.00  0.00    -0.130 NA
HETATM   23  C13 UNL     1       4.510  21.924  10.553  1.00  0.00     0.213 C 
HETATM   24  C18 UNL     1       5.686  21.027  10.685  1.00  0.00     0.241 C 
HETATM   25  O3  UNL     1       5.990  20.245   9.749  1.00  0.00    -0.272 OA
HETATM   26  N6  UNL     1       6.477  21.043  11.868  1.00  0.00    -0.332 N 
ATOM     27  H6  UNL     1       7.272  20.409  11.956  1.00  0.00     0.164 HD
BRANCH  23  28
HETATM   28  C14 UNL     1       4.346  22.385   9.120  1.00  0.00     0.268 C 
BRANCH  28  29
HETATM   29  N5  UNL     1       3.068  21.975   8.574  1.00  0.00    -0.076 N 
HETATM   30  C15 UNL     1       2.195  21.399   9.581  1.00  0.00     0.271 C 
HETATM   31  C16 UNL     1       2.402  23.145   8.038  1.00  0.00     0.271 C 
HETATM   32  C17 UNL     1       3.253  21.056   7.457  1.00  0.00     0.271 C 
ENDBRANCH  28  29
ENDBRANCH  23  28
ENDBRANCH   3  20
TORSDOF 9
ENDMDL
MODEL 3
REMARK VINA RESULT: -5.894345913      4.910      7.553
REMARK  9 active torsions:
REMARK  status: ('A' for Active; 'I' for Inactive)
REMARK    1  A    between atoms: C2_2  and  C3_3 
REMARK    2  A    between atoms: C3_3  and  N1_4 
REMARK    3  A    between atoms: N1_4  and  C4_5 
REMARK       I    between atoms: N1_4  and  C7_8 
REMARK    4  A    between atoms: C4_5  and  C5_6 
REMARK    5  A    between atoms: C7_8  and  C8_10 
REMARK    6  A    between atoms: C10_12  and  N2_13 
REMARK       I    between atoms: N2_13  and  C11_15 
REMARK    7  A    between atoms: C11_15  and  C12_17 
REMARK    8  A    between atoms: C13_20  and  C14_21 
REMARK    9  A    between atoms: C14_21  and  N5_22 
ROOT
HETATM    1  N2  UNL     1      -1.001  18.360  18.990  1.00  0.00    -0.353 N 
ATOM      2  H2  UNL     1      -0.665  19.045  18.313  1.00  0.00     0.163 HD
HETATM    3  C11 UNL     1      -0.093  17.707  19.861  1.00  0.00     0.258 C 
HETATM    4  O2  UNL     1      -0.511  16.876  20.680  1.00  0.00    -0.270 OA
ENDROOT
BRANCH   1   5
HETATM    5  C10 UNL     1      -2.401  18.044  19.073  1.00  0.00     0.085 C 
HETATM    6  C9  UNL     1      -3.162  19.116  19.873  1.00  0.00     0.039 C 
HETATM    7  C8  UNL     1      -4.472  19.121  19.171  1.00  0.00     0.083 C 
HETATM    8  C20 UNL     1      -4.040  19.178  17.707  1.00  0.00    -0.004 C 
HETATM    9  C19 UNL     1      -3.033  18.035  17.698  1.00  0.00     0.030 C 
HETATM   10  C21 UNL     1      -3.323  20.431  17.343  1.00  0.00     0.011 C 
BRANCH   7  11
HETATM   11  C7  UNL     1      -5.435  20.129  19.532  1.00  0.00     0.224 C 
HETATM   12  N1  UNL     1      -6.823  19.973  19.407  1.00  0.00    -0.352 N 
HETATM   13  O1  UNL     1      -5.006  21.240  19.999  1.00  0.00    -0.273 OA
BRANCH  12  14
HETATM   14  C3  UNL     1      -7.693  21.058  19.872  1.00  0.00     0.125 C 
BRANCH  14  15
HETATM   15  C2  UNL     1      -8.512  20.532  21.032  1.00  0.00     0.015 C 
HETATM   16  C1  UNL     1      -7.787  20.653  22.339  1.00  0.00     0.006 C 
ENDBRANCH  14  15
ENDBRANCH  12  14
BRANCH  12  17
HETATM   17  C4  UNL     1      -7.399  18.791  18.798  1.00  0.00     0.125 C 
BRANCH  17  18
HETATM   18  C5  UNL     1      -8.336  19.110  17.655  1.00  0.00     0.015 C 
HETATM   19  C6  UNL     1      -7.510  19.227  16.405  1.00  0.00     0.006 C 
ENDBRANCH  17  18
ENDBRANCH  12  17
ENDBRANCH   7  11
ENDBRANCH   1   5
BRANCH   3  20
HETATM   20  C12 UNL     1       1.360  18.064  19.744  1.00  0.00     0.287 C 
HETATM   21  N3  UNL     1       1.882  18.296  21.090  1.00  0.00    -0.112 NA
HETATM   22  N4  UNL     1       3.181  18.809  21.005  1.00  0.00    -0.130 NA
HETATM   23  C13 UNL     1       3.072  20.219  20.688  1.00  0.00     0.213 C 
HETATM   24  C18 UNL     1       2.381  20.308  19.378  1.00  0.00     0.241 C 
HETATM   25  O3  UNL     1       2.538  21.321  18.649  1.00  0.00    -0.272 OA
HETATM   26  N6  UNL     1       1.537  19.252  18.933  1.00  0.00    -0.332 N 
ATOM     27  H6  UNL     1       1.053  19.331  18.039  1.00  0.00     0.164 HD
BRANCH  23  28
HETATM   28  C14 UNL     1       4.433  20.881  20.623  1.00  0.00     0.268 C 
BRANCH  28  29
HETATM   29  N5  UNL     1       4.558  21.938  21.606  1.00  0.00    -0.076 N 
HETATM   30  C15 UNL     1       3.326  22.157  22.343  1.00  0.00     0.271 C 
HETATM   31  C16 UNL     1       5.577  21.557  22.563  1.00  0.00     0.271 C 
HETATM   32  C17 UNL     1       5.018  23.173  20.981  1.00  0.00     0.271 C 
ENDBRANCH  28  29
ENDBRANCH  23  28
ENDBRANCH   3  20
TORSDOF 9
ENDMDL
MODEL 4
REMARK VINA RESULT: -5.845691043      3.645      5.216
REMARK  9 active torsions:
REMARK  status: ('A' for Active; 'I' for Inactive)
REMARK    1  A    between atoms: C2_2  and  C3_3 
REMARK    2  A    between atoms: C3_3  and  N1_4 
REMARK    3  A    between atoms: N1_4  and  C4_5 
REMARK       I    between atoms: N1_4  and  C7_8 
REMARK    4  A    between atoms: C4_5  and  C5_6 
REMARK    5  A    between atoms: C7_8  and  C8_10 
REMARK    6  A    between atoms: C10_12  and  N2_13 
REMARK       I    between atoms: N2_13  and  C11_15 
REMARK    7  A    between atoms: C11_15  and  C12_17 
REMARK    8  A    between atoms: C13_20  and  C14_21 
REMARK    9  A    between atoms: C14_21  and  N5_22 
ROOT
HETATM    1  N2  UNL     1       3.588  21.118  19.506  1.00  0.00    -0.353 N 
ATOM      2  H2  UNL     1       3.513  21.253  20.514  1.00  0.00     0.163 HD
HETATM    3  C11 UNL     1       4.635  21.733  18.774  1.00  0.00     0.258 C 
HETATM    4  O2  UNL     1       4.717  21.563  17.550  1.00  0.00    -0.270 OA
ENDROOT
BRANCH   1   5
HETATM    5  C10 UNL     1       2.632  20.300  18.808  1.00  0.00     0.085 C 
HETATM    6  C9  UNL     1       2.483  18.927  19.485  1.00  0.00     0.039 C 
HETATM    7  C8  UNL     1       1.044  18.644  19.243  1.00  0.00     0.083 C 
HETATM    8  C20 UNL     1       0.395  19.963  19.654  1.00  0.00    -0.004 C 
HETATM    9  C19 UNL     1       1.256  20.928  18.849  1.00  0.00     0.030 C 
HETATM   10  C21 UNL     1       0.560  20.288  21.098  1.00  0.00     0.011 C 
BRANCH   7  11
HETATM   11  C7  UNL     1       0.461  17.488  19.876  1.00  0.00     0.224 C 
HETATM   12  N1  UNL     1      -0.611  16.756  19.344  1.00  0.00    -0.352 N 
HETATM   13  O1  UNL     1       0.947  17.096  20.992  1.00  0.00    -0.273 OA
BRANCH  12  14
HETATM   14  C3  UNL     1      -1.064  15.561  20.061  1.00  0.00     0.125 C 
BRANCH  14  15
HETATM   15  C2  UNL     1      -0.404  14.357  19.424  1.00  0.00     0.015 C 
HETATM   16  C1  UNL     1      -1.355  13.576  18.567  1.00  0.00     0.006 C 
ENDBRANCH  14  15
ENDBRANCH  12  14
BRANCH  12  17
HETATM   17  C4  UNL     1      -1.289  17.179  18.136  1.00  0.00     0.125 C 
BRANCH  17  18
HETATM   18  C5  UNL     1      -2.791  17.249  18.294  1.00  0.00     0.015 C 
HETATM   19  C6  UNL     1      -3.108  18.456  19.130  1.00  0.00     0.006 C 
ENDBRANCH  17  18
ENDBRANCH  12  17
ENDBRANCH   7  11
ENDBRANCH   1   5
BRANCH   3  20
HETATM   20  C12 UNL     1       5.612  22.578  19.538  1.00  0.00     0.287 C 
HETATM   21  N3  UNL     1       4.861  23.399  20.487  1.00  0.00    -0.112 NA
HETATM   22  N4  UNL     1       5.720  24.327  21.083  1.00  0.00    -0.130 NA
HETATM   23  C13 UNL     1       5.917  25.409  20.138  1.00  0.00     0.213 C 
HETATM   24  C18 UNL     1       6.540  24.810  18.931  1.00  0.00     0.241 C 
HETATM   25  O3  UNL     1       7.222  25.524  18.153  1.00  0.00    -0.272 OA
HETATM   26  N6  UNL     1       6.373  23.426  18.643  1.00  0.00    -0.332 N 
ATOM     27  H6  UNL     1       6.791  23.028  17.802  1.00  0.00     0.164 HD
BRANCH  23  28
HETATM   28  C14 UNL     1       6.800  26.497  20.713  1.00  0.00     0.268 C 
BRANCH  28  29
HETATM   29  N5  UNL     1       6.142  27.788  20.680  1.00  0.00    -0.076 N 
HETATM   30  C15 UNL     1       4.774  27.700  20.201  1.00  0.00     0.271 C 
HETATM   31  C16 UNL     1       6.098  28.314  22.029  1.00  0.00     0.271 C 
HETATM   32  C17 UNL     1       6.912  28.740  19.888  1.00  0.00     0.271 C 
ENDBRANCH  28  29
ENDBRANCH  23  28
ENDBRANCH   3  20
TORSDOF 9
ENDMDL
MODEL 5
REMARK VINA RESULT: -5.830743072      1.978      9.363
REMARK  9 active torsions:
REMARK  status: ('A' for Active; 'I' for Inactive)
REMARK    1  A    between atoms: C2_2  and  C3_3 
REMARK    2  A    between atoms: C3_3  and  N1_4 
REMARK    3  A    between atoms: N1_4  and  C4_5 
REMARK       I    between atoms: N1_4  and  C7_8 
REMARK    4  A    between atoms: C4_5  and  C5_6 
REMARK    5  A    between atoms: C7_8  and  C8_10 
REMARK    6  A    between atoms: C10_12  and  N2_13 
REMARK       I    between atoms: N2_13  and  C11_15 
REMARK    7  A    between atoms: C11_15  and  C12_17 
REMARK    8  A    between atoms: C13_20  and  C14_21 
REMARK    9  A    between atoms: C14_21  and  N5_22 
ROOT
HETATM    1  N2  UNL     1       3.559  21.295  18.450  1.00  0.00    -0.353 N 
ATOM      2  H2  UNL     1       2.706  20.913  18.041  1.00  0.00     0.163 HD
HETATM    3  C11 UNL     1       3.848  21.096  19.824  1.00  0.00     0.258 C 
HETATM    4  O2  UNL     1       4.887  21.564  20.311  1.00  0.00    -0.270 OA
ENDROOT
BRANCH   1   5
HETATM    5  C10 UNL     1       4.484  22.042  17.641  1.00  0.00     0.085 C 
HETATM    6  C9  UNL     1       5.451  21.102  16.900  1.00  0.00     0.039 C 
HETATM    7  C8  UNL     1       5.657  21.847  15.630  1.00  0.00     0.083 C 
HETATM    8  C20 UNL     1       4.224  22.207  15.244  1.00  0.00    -0.004 C 
HETATM    9  C19 UNL     1       3.754  22.811  16.561  1.00  0.00     0.030 C 
HETATM   10  C21 UNL     1       3.370  21.024  14.945  1.00  0.00     0.011 C 
BRANCH   7  11
HETATM   11  C7  UNL     1       6.399  21.205  14.575  1.00  0.00     0.224 C 
HETATM   12  N1  UNL     1       6.839  21.855  13.414  1.00  0.00    -0.352 N 
HETATM   13  O1  UNL     1       6.680  19.963  14.699  1.00  0.00    -0.273 OA
BRANCH  12  14
HETATM   14  C3  UNL     1       7.641  21.096  12.449  1.00  0.00     0.125 C 
BRANCH  14  15
HETATM   15  C2  UNL     1       6.823  20.940  11.184  1.00  0.00     0.015 C 
HETATM   16  C1  UNL     1       7.519  21.510   9.985  1.00  0.00     0.006 C 
ENDBRANCH  14  15
ENDBRANCH  12  14
BRANCH  12  17
HETATM   17  C4  UNL     1       6.487  23.233  13.139  1.00  0.00     0.125 C 
BRANCH  17  18
HETATM   18  C5  UNL     1       7.578  24.210  13.515  1.00  0.00     0.015 C 
HETATM   19  C6  UNL     1       7.013  25.158  14.534  1.00  0.00     0.006 C 
ENDBRANCH  17  18
ENDBRANCH  12  17
ENDBRANCH   7  11
ENDBRANCH   1   5
BRANCH   3  20
HETATM   20  C12 UNL     1       2.859  20.311  20.635  1.00  0.00     0.287 C 
HETATM   21  N3  UNL     1       2.903  18.920  20.186  1.00  0.00    -0.112 NA
HETATM   22  N4  UNL     1       1.867  18.201  20.791  1.00  0.00    -0.130 NA
HETATM   23  C13 UNL     1       0.646  18.507  20.072  1.00  0.00     0.213 C 
HETATM   24  C18 UNL     1       0.427  19.969  20.209  1.00  0.00     0.241 C 
HETATM   25  O3  UNL     1      -0.730  20.447  20.094  1.00  0.00    -0.272 OA
HETATM   26  N6  UNL     1       1.521  20.841  20.473  1.00  0.00    -0.332 N 
ATOM     27  H6  UNL     1       1.362  21.846  20.548  1.00  0.00     0.164 HD
BRANCH  23  28
HETATM   28  C14 UNL     1      -0.533  17.735  20.623  1.00  0.00     0.268 C 
BRANCH  28  29
HETATM   29  N5  UNL     1      -1.239  17.023  19.577  1.00  0.00    -0.076 N 
HETATM   30  C15 UNL     1      -0.551  17.092  18.300  1.00  0.00     0.271 C 
HETATM   31  C16 UNL     1      -1.325  15.625  19.950  1.00  0.00     0.271 C 
HETATM   32  C17 UNL     1      -2.610  17.505  19.457  1.00  0.00     0.271 C 
ENDBRANCH  28  29
ENDBRANCH  23  28
ENDBRANCH   3  20
TORSDOF 9
ENDMDL
