MODEL 1
REMARK VINA RESULT: -4.362845773      0.000      0.000
REMARK  1 active torsions:
REMARK  status: ('A' for Active; 'I' for Inactive)
REMARK    1  A    between atoms: C3_3  and  N1_4 
ROOT
HETATM    1  C1  UNL     1      51.933  70.758 -29.126  1.00  0.00     0.013 C 
HETATM    2  C2  UNL     1      51.969  69.736 -29.779  1.00  0.00    -0.089 C 
HETATM    3  C3  UNL     1      51.990  68.498 -30.562  1.00  0.00     0.332 C 
ENDROOT
BRANCH   3   4
HETATM    4  N1  UNL     1      52.572  67.403 -29.865  1.00  0.00    -0.021 N 
HETATM    5  C4  UNL     1      53.290  67.654 -28.631  1.00  0.00     0.268 C 
HETATM    6  C5  UNL     1      53.496  66.267 -28.039  1.00  0.00     0.262 C 
HETATM    7  N2  UNL     1      52.342  65.547 -28.481  1.00  0.00    -0.042 N 
HETATM    8  C6  UNL     1      51.966  66.123 -29.777  1.00  0.00     0.414 A 
ATOM      9  H22 UNL     1      52.483  64.537 -28.512  1.00  0.00     0.279 HD
ATOM     10  H21 UNL     1      51.581  65.548 -27.801  1.00  0.00     0.279 HD
HETATM   11  C7  UNL     1      53.088  66.337 -30.704  1.00  0.00     0.304 A 
ENDBRANCH   3   4
TORSDOF 1
ENDMDL
MODEL 2
REMARK VINA RESULT: -4.334694832      1.645      3.775
REMARK  1 active torsions:
REMARK  status: ('A' for Active; 'I' for Inactive)
REMARK    1  A    between atoms: C3_3  and  N1_4 
ROOT
HETATM    1  C1  UNL     1      53.137  65.914 -27.960  1.00  0.00     0.013 C 
HETATM    2  C2  UNL     1      53.425  67.008 -28.399  1.00  0.00    -0.089 C 
HETATM    3  C3  UNL     1      53.763  68.339 -28.907  1.00  0.00     0.332 C 
ENDROOT
BRANCH   3   4
HETATM    4  N1  UNL     1      52.784  68.867 -29.795  1.00  0.00    -0.021 N 
HETATM    5  C4  UNL     1      52.008  70.020 -29.383  1.00  0.00     0.268 C 
HETATM    6  C5  UNL     1      51.310  70.467 -30.659  1.00  0.00     0.262 C 
HETATM    7  N2  UNL     1      52.243  70.111 -31.684  1.00  0.00    -0.042 N 
HETATM    8  C6  UNL     1      52.956  68.922 -31.202  1.00  0.00     0.414 A 
ATOM      9  H22 UNL     1      51.809  69.980 -32.598  1.00  0.00     0.279 HD
ATOM     10  H21 UNL     1      52.864  70.877 -31.948  1.00  0.00     0.279 HD
HETATM   11  C7  UNL     1      52.094  67.886 -30.612  1.00  0.00     0.304 A 
ENDBRANCH   3   4
TORSDOF 1
ENDMDL
MODEL 3
REMARK VINA RESULT: -4.334093385      1.566      3.743
REMARK  1 active torsions:
REMARK  status: ('A' for Active; 'I' for Inactive)
REMARK    1  A    between atoms: C3_3  and  N1_4 
ROOT
HETATM    1  C1  UNL     1      53.158  65.852 -27.635  1.00  0.00     0.013 C 
HETATM    2  C2  UNL     1      53.100  66.426 -28.703  1.00  0.00    -0.089 C 
HETATM    3  C3  UNL     1      53.055  67.119 -29.992  1.00  0.00     0.332 C 
ENDROOT
BRANCH   3   4
HETATM    4  N1  UNL     1      52.877  68.525 -29.868  1.00  0.00    -0.021 N 
HETATM    5  C4  UNL     1      51.852  69.178 -30.657  1.00  0.00     0.268 C 
HETATM    6  C5  UNL     1      51.757  70.572 -30.055  1.00  0.00     0.262 C 
HETATM    7  N2  UNL     1      52.074  70.355 -28.677  1.00  0.00    -0.042 N 
HETATM    8  C6  UNL     1      53.008  69.223 -28.640  1.00  0.00     0.414 A 
ATOM      9  H22 UNL     1      52.430  71.188 -28.208  1.00  0.00     0.279 HD
ATOM     10  H21 UNL     1      51.251  70.220 -28.089  1.00  0.00     0.279 HD
HETATM   11  C7  UNL     1      54.091  69.286 -29.634  1.00  0.00     0.304 A 
ENDBRANCH   3   4
TORSDOF 1
ENDMDL
MODEL 4
REMARK VINA RESULT: -4.275993183      1.474      2.063
REMARK  1 active torsions:
REMARK  status: ('A' for Active; 'I' for Inactive)
REMARK    1  A    between atoms: C3_3  and  N1_4 
ROOT
HETATM    1  C1  UNL     1      52.815  70.769 -31.367  1.00  0.00     0.013 C 
HETATM    2  C2  UNL     1      52.840  69.564 -31.226  1.00  0.00    -0.089 C 
HETATM    3  C3  UNL     1      52.845  68.110 -31.057  1.00  0.00     0.332 C 
ENDROOT
BRANCH   3   4
HETATM    4  N1  UNL     1      53.004  67.702 -29.702  1.00  0.00    -0.021 N 
HETATM    5  C4  UNL     1      52.593  66.367 -29.316  1.00  0.00     0.268 C 
HETATM    6  C5  UNL     1      53.176  66.194 -27.921  1.00  0.00     0.262 C 
HETATM    7  N2  UNL     1      54.372  66.977 -27.967  1.00  0.00    -0.042 N 
HETATM    8  C6  UNL     1      54.110  68.080 -28.899  1.00  0.00     0.414 A 
ATOM      9  H22 UNL     1      54.686  67.290 -27.048  1.00  0.00     0.279 HD
ATOM     10  H21 UNL     1      55.202  66.434 -28.206  1.00  0.00     0.279 HD
HETATM   11  C7  UNL     1      52.812  68.747 -28.714  1.00  0.00     0.304 A 
ENDBRANCH   3   4
TORSDOF 1
ENDMDL
MODEL 5
REMARK VINA RESULT: -4.142366926      1.843      3.953
REMARK  1 active torsions:
REMARK  status: ('A' for Active; 'I' for Inactive)
REMARK    1  A    between atoms: C3_3  and  N1_4 
ROOT
HETATM    1  C1  UNL     1      52.986  66.214 -28.936  1.00  0.00     0.013 C 
HETATM    2  C2  UNL     1      52.629  67.016 -29.774  1.00  0.00    -0.089 C 
HETATM    3  C3  UNL     1      52.221  67.984 -30.795  1.00  0.00     0.332 C 
ENDROOT
BRANCH   3   4
HETATM    4  N1  UNL     1      52.250  69.331 -30.336  1.00  0.00    -0.021 N 
HETATM    5  C4  UNL     1      51.258  70.264 -30.828  1.00  0.00     0.268 C 
HETATM    6  C5  UNL     1      51.411  71.475 -29.920  1.00  0.00     0.262 C 
HETATM    7  N2  UNL     1      51.819  70.901 -28.675  1.00  0.00    -0.042 N 
HETATM    8  C6  UNL     1      52.587  69.695 -29.007  1.00  0.00     0.414 A 
ATOM      9  H22 UNL     1      52.328  71.552 -28.077  1.00  0.00     0.279 HD
ATOM     10  H21 UNL     1      51.042  70.723 -28.038  1.00  0.00     0.279 HD
HETATM   11  C7  UNL     1      53.574  69.871 -30.084  1.00  0.00     0.304 A 
ENDBRANCH   3   4
TORSDOF 1
ENDMDL
