MODEL 1
REMARK VINA RESULT: -7.146225745      0.000      0.000
REMARK  13 active torsions:
REMARK  status: ('A' for Active; 'I' for Inactive)
REMARK    1  A    between atoms: C2_2  and  N1_3 
REMARK    2  A    between atoms: N1_3  and  C3_5 
REMARK    3  A    between atoms: C4_8  and  N3_9 
REMARK    4  A    between atoms: C6_14  and  N5_15 
REMARK    5  A    between atoms: N5_15  and  C7_17 
REMARK    6  A    between atoms: N6_21  and  C11_22 
REMARK    7  A    between atoms: C11_22  and  C12_23 
REMARK    8  A    between atoms: C12_23  and  O1_24 
REMARK    9  A    between atoms: O1_24  and  C13_25 
REMARK   10  A    between atoms: C13_25  and  C14_26 
REMARK   11  A    between atoms: C14_26  and  O2_27 
REMARK   12  A    between atoms: C14_26  and  C15_29 
REMARK   13  A    between atoms: C15_29  and  N7_30 
ROOT
HETATM    1  C7  UNL     1       0.625  16.325  20.216  1.00  0.00     0.138 C 
HETATM    2  C8  UNL     1      -0.502  17.077  20.939  1.00  0.00     0.036 C 
HETATM    3  C9  UNL     1       0.110  17.994  21.942  1.00  0.00     0.047 C 
HETATM    4  C10 UNL     1       0.955  19.030  21.240  1.00  0.00     0.063 C 
HETATM    5  N6  UNL     1       1.707  18.574  20.170  1.00  0.00    -0.370 N 
HETATM    6  C21 UNL     1       1.521  17.320  19.578  1.00  0.00     0.088 C 
ENDROOT
BRANCH   1   7
HETATM    7  N5  UNL     1       0.102  15.386  19.353  1.00  0.00    -0.216 N 
ATOM      8  H5  UNL     1       0.525  14.491  19.601  1.00  0.00     0.178 HD
BRANCH   7   9
HETATM    9  C6  UNL     1      -0.655  15.169  18.414  1.00  0.00     0.707 A 
HETATM   10  N4  UNL     1      -0.972  13.864  18.092  1.00  0.00    -0.022 N 
HETATM   11  C4  UNL     1      -1.769  13.518  17.105  1.00  0.00     0.706 A 
ATOM     12  H4  UNL     1      -0.561  13.120  18.656  1.00  0.00     0.203 HD
HETATM   13  N2  UNL     1      -2.324  14.476  16.344  1.00  0.00    -0.022 N 
HETATM   14  C3  UNL     1      -2.067  15.769  16.591  1.00  0.00     0.707 A 
ATOM     15  H2  UNL     1      -2.944  14.219  15.576  1.00  0.00     0.203 HD
HETATM   16  N8  UNL     1      -1.235  16.080  17.624  1.00  0.00    -0.022 N 
ATOM     17  H8  UNL     1      -1.044  17.065  17.805  1.00  0.00     0.203 HD
BRANCH  11  18
HETATM   18  N3  UNL     1      -2.042  12.269  16.837  1.00  0.00    -0.229 N 
HETATM   19  C5  UNL     1      -1.716  11.781  15.499  1.00  0.00     0.165 C 
ATOM     20  H3  UNL     1      -2.465  11.658  17.535  1.00  0.00     0.177 HD
ENDBRANCH  11  18
BRANCH  14  21
HETATM   21  N1  UNL     1      -2.612  16.681  15.847  1.00  0.00    -0.225 N 
ATOM     22  H1  UNL     1      -2.687  16.497  14.846  1.00  0.00     0.177 HD
BRANCH  21  23
HETATM   23  C2  UNL     1      -3.115  17.930  16.339  1.00  0.00     0.133 C 
HETATM   24  C1  UNL     1      -4.602  17.771  16.679  1.00  0.00     0.027 C 
ENDBRANCH  21  23
ENDBRANCH  14  21
ENDBRANCH   7   9
ENDBRANCH   1   7
BRANCH   5  25
HETATM   25  C11 UNL     1       2.940  19.232  19.880  1.00  0.00     0.153 C 
BRANCH  25  26
HETATM   26  C12 UNL     1       2.765  20.571  19.211  1.00  0.00     0.187 C 
BRANCH  26  27
HETATM   27  O1  UNL     1       3.649  20.798  18.191  1.00  0.00    -0.387 OA
BRANCH  27  28
HETATM   28  C13 UNL     1       4.980  20.828  18.506  1.00  0.00     0.201 C 
BRANCH  28  29
HETATM   29  C14 UNL     1       5.793  21.134  17.287  1.00  0.00     0.168 C 
BRANCH  29  30
HETATM   30  O2  UNL     1       6.557  22.299  17.378  1.00  0.00    -0.392 OA
ATOM     31  H2  UNL     1       7.407  22.182  17.784  1.00  0.00     0.210 HD
ENDBRANCH  29  30
BRANCH  29  32
HETATM   32  C15 UNL     1       5.024  21.053  16.017  1.00  0.00     0.270 C 
BRANCH  32  33
HETATM   33  N7  UNL     1       5.241  19.997  15.123  1.00  0.00    -0.068 N 
HETATM   34  C16 UNL     1       4.167  18.975  15.275  1.00  0.00     0.272 C 
HETATM   35  C17 UNL     1       6.449  19.251  15.171  1.00  0.00     0.237 C 
HETATM   36  C18 UNL     1       6.461  18.539  13.824  1.00  0.00     0.029 C 
HETATM   37  C19 UNL     1       5.571  19.293  12.895  1.00  0.00     0.029 C 
HETATM   38  C20 UNL     1       5.086  20.448  13.752  1.00  0.00     0.237 C 
ENDBRANCH  32  33
ENDBRANCH  29  32
ENDBRANCH  28  29
ENDBRANCH  27  28
ENDBRANCH  26  27
ENDBRANCH  25  26
ENDBRANCH   5  25
TORSDOF 13
ENDMDL
MODEL 2
REMARK VINA RESULT: -7.023863883      1.075      1.789
REMARK  13 active torsions:
REMARK  status: ('A' for Active; 'I' for Inactive)
REMARK    1  A    between atoms: C2_2  and  N1_3 
REMARK    2  A    between atoms: N1_3  and  C3_5 
REMARK    3  A    between atoms: C4_8  and  N3_9 
REMARK    4  A    between atoms: C6_14  and  N5_15 
REMARK    5  A    between atoms: N5_15  and  C7_17 
REMARK    6  A    between atoms: N6_21  and  C11_22 
REMARK    7  A    between atoms: C11_22  and  C12_23 
REMARK    8  A    between atoms: C12_23  and  O1_24 
REMARK    9  A    between atoms: O1_24  and  C13_25 
REMARK   10  A    between atoms: C13_25  and  C14_26 
REMARK   11  A    between atoms: C14_26  and  O2_27 
REMARK   12  A    between atoms: C14_26  and  C15_29 
REMARK   13  A    between atoms: C15_29  and  N7_30 
ROOT
HETATM    1  C7  UNL     1       0.612  16.307  20.203  1.00  0.00     0.138 C 
HETATM    2  C8  UNL     1      -0.492  17.157  20.847  1.00  0.00     0.036 C 
HETATM    3  C9  UNL     1       0.137  18.079  21.834  1.00  0.00     0.047 C 
HETATM    4  C10 UNL     1       1.070  19.031  21.122  1.00  0.00     0.063 C 
HETATM    5  N6  UNL     1       1.831  18.482  20.104  1.00  0.00    -0.370 N 
HETATM    6  C21 UNL     1       1.591  17.217  19.559  1.00  0.00     0.088 C 
ENDROOT
BRANCH   1   7
HETATM    7  N5  UNL     1       0.064  15.362  19.360  1.00  0.00    -0.216 N 
ATOM      8  H5  UNL     1       0.441  14.459  19.647  1.00  0.00     0.178 HD
BRANCH   7   9
HETATM    9  C6  UNL     1      -0.683  15.148  18.413  1.00  0.00     0.707 A 
HETATM   10  N4  UNL     1      -0.991  13.843  18.081  1.00  0.00    -0.022 N 
HETATM   11  C4  UNL     1      -1.778  13.499  17.085  1.00  0.00     0.706 A 
ATOM     12  H4  UNL     1      -0.582  13.098  18.644  1.00  0.00     0.203 HD
HETATM   13  N2  UNL     1      -2.330  14.459  16.324  1.00  0.00    -0.022 N 
HETATM   14  C3  UNL     1      -2.081  15.752  16.580  1.00  0.00     0.707 A 
ATOM     15  H2  UNL     1      -2.942  14.204  15.548  1.00  0.00     0.203 HD
HETATM   16  N8  UNL     1      -1.260  16.061  17.623  1.00  0.00    -0.022 N 
ATOM     17  H8  UNL     1      -1.075  17.046  17.812  1.00  0.00     0.203 HD
BRANCH  11  18
HETATM   18  N3  UNL     1      -2.042  12.251  16.807  1.00  0.00    -0.229 N 
HETATM   19  C5  UNL     1      -1.701  11.771  15.469  1.00  0.00     0.165 C 
ATOM     20  H3  UNL     1      -2.470  11.634  17.497  1.00  0.00     0.177 HD
ENDBRANCH  11  18
BRANCH  14  21
HETATM   21  N1  UNL     1      -2.623  16.665  15.837  1.00  0.00    -0.225 N 
ATOM     22  H1  UNL     1      -2.702  16.480  14.836  1.00  0.00     0.177 HD
BRANCH  21  23
HETATM   23  C2  UNL     1      -3.118  17.918  16.328  1.00  0.00     0.133 C 
HETATM   24  C1  UNL     1      -4.561  17.730  16.813  1.00  0.00     0.027 C 
ENDBRANCH  21  23
ENDBRANCH  14  21
ENDBRANCH   7   9
ENDBRANCH   1   7
BRANCH   5  25
HETATM   25  C11 UNL     1       3.112  19.051  19.835  1.00  0.00     0.153 C 
BRANCH  25  26
HETATM   26  C12 UNL     1       3.063  20.233  18.899  1.00  0.00     0.187 C 
BRANCH  26  27
HETATM   27  O1  UNL     1       3.348  19.918  17.598  1.00  0.00    -0.387 OA
BRANCH  27  28
HETATM   28  C13 UNL     1       2.364  20.123  16.671  1.00  0.00     0.201 C 
BRANCH  28  29
HETATM   29  C14 UNL     1       2.832  19.691  15.316  1.00  0.00     0.168 C 
BRANCH  29  30
HETATM   30  O2  UNL     1       1.866  19.035  14.551  1.00  0.00    -0.392 OA
ATOM     31  H2  UNL     1       1.251  19.612  14.114  1.00  0.00     0.210 HD
ENDBRANCH  29  30
BRANCH  29  32
HETATM   32  C15 UNL     1       4.133  18.971  15.333  1.00  0.00     0.270 C 
BRANCH  32  33
HETATM   33  N7  UNL     1       5.133  19.292  14.406  1.00  0.00    -0.068 N 
HETATM   34  C16 UNL     1       5.753  20.599  14.761  1.00  0.00     0.272 C 
HETATM   35  C17 UNL     1       4.822  19.412  13.025  1.00  0.00     0.237 C 
HETATM   36  C18 UNL     1       6.190  19.333  12.362  1.00  0.00     0.029 C 
HETATM   37  C19 UNL     1       7.126  18.663  13.311  1.00  0.00     0.029 C 
HETATM   38  C20 UNL     1       6.238  18.356  14.502  1.00  0.00     0.237 C 
ENDBRANCH  32  33
ENDBRANCH  29  32
ENDBRANCH  28  29
ENDBRANCH  27  28
ENDBRANCH  26  27
ENDBRANCH  25  26
ENDBRANCH   5  25
TORSDOF 13
ENDMDL
MODEL 3
REMARK VINA RESULT: -6.867972537      1.189      1.478
REMARK  13 active torsions:
REMARK  status: ('A' for Active; 'I' for Inactive)
REMARK    1  A    between atoms: C2_2  and  N1_3 
REMARK    2  A    between atoms: N1_3  and  C3_5 
REMARK    3  A    between atoms: C4_8  and  N3_9 
REMARK    4  A    between atoms: C6_14  and  N5_15 
REMARK    5  A    between atoms: N5_15  and  C7_17 
REMARK    6  A    between atoms: N6_21  and  C11_22 
REMARK    7  A    between atoms: C11_22  and  C12_23 
REMARK    8  A    between atoms: C12_23  and  O1_24 
REMARK    9  A    between atoms: O1_24  and  C13_25 
REMARK   10  A    between atoms: C13_25  and  C14_26 
REMARK   11  A    between atoms: C14_26  and  O2_27 
REMARK   12  A    between atoms: C14_26  and  C15_29 
REMARK   13  A    between atoms: C15_29  and  N7_30 
ROOT
HETATM    1  C7  UNL     1       0.607  16.318  20.293  1.00  0.00     0.138 C 
HETATM    2  C8  UNL     1      -0.575  17.150  20.810  1.00  0.00     0.036 C 
HETATM    3  C9  UNL     1      -0.096  18.002  21.935  1.00  0.00     0.047 C 
HETATM    4  C10 UNL     1       0.945  18.975  21.433  1.00  0.00     0.063 C 
HETATM    5  N6  UNL     1       1.848  18.472  20.512  1.00  0.00    -0.370 N 
HETATM    6  C21 UNL     1       1.683  17.245  19.862  1.00  0.00     0.088 C 
ENDROOT
BRANCH   1   7
HETATM    7  N5  UNL     1       0.186  15.434  19.321  1.00  0.00    -0.216 N 
ATOM      8  H5  UNL     1       0.774  14.605  19.405  1.00  0.00     0.178 HD
BRANCH   7   9
HETATM    9  C6  UNL     1      -0.593  15.222  18.401  1.00  0.00     0.707 A 
HETATM   10  N4  UNL     1      -0.944  13.920  18.102  1.00  0.00    -0.022 N 
HETATM   11  C4  UNL     1      -1.768  13.579  17.135  1.00  0.00     0.706 A 
ATOM     12  H4  UNL     1      -0.538  13.175  18.667  1.00  0.00     0.203 HD
HETATM   13  N2  UNL     1      -2.317  14.539  16.373  1.00  0.00    -0.022 N 
HETATM   14  C3  UNL     1      -2.027  15.829  16.597  1.00  0.00     0.707 A 
ATOM     15  H2  UNL     1      -2.957  14.286  15.620  1.00  0.00     0.203 HD
HETATM   16  N8  UNL     1      -1.169  16.136  17.610  1.00  0.00    -0.022 N 
ATOM     17  H8  UNL     1      -0.953  17.118  17.774  1.00  0.00     0.203 HD
BRANCH  11  18
HETATM   18  N3  UNL     1      -2.072  12.333  16.889  1.00  0.00    -0.229 N 
HETATM   19  C5  UNL     1      -1.742  11.807  15.566  1.00  0.00     0.165 C 
ATOM     20  H3  UNL     1      -2.523  11.749  17.593  1.00  0.00     0.177 HD
ENDBRANCH  11  18
BRANCH  14  21
HETATM   21  N1  UNL     1      -2.567  16.743  15.852  1.00  0.00    -0.225 N 
ATOM     22  H1  UNL     1      -2.602  16.578  14.846  1.00  0.00     0.177 HD
BRANCH  21  23
HETATM   23  C2  UNL     1      -3.118  17.970  16.350  1.00  0.00     0.133 C 
HETATM   24  C1  UNL     1      -4.552  17.717  16.829  1.00  0.00     0.027 C 
ENDBRANCH  21  23
ENDBRANCH  14  21
ENDBRANCH   7   9
ENDBRANCH   1   7
BRANCH   5  25
HETATM   25  C11 UNL     1       3.161  19.031  20.478  1.00  0.00     0.153 C 
BRANCH  25  26
HETATM   26  C12 UNL     1       3.190  20.519  20.724  1.00  0.00     0.187 C 
BRANCH  26  27
HETATM   27  O1  UNL     1       3.770  21.235  19.712  1.00  0.00    -0.387 OA
BRANCH  27  28
HETATM   28  C13 UNL     1       5.090  20.996  19.449  1.00  0.00     0.201 C 
BRANCH  28  29
HETATM   29  C14 UNL     1       5.325  20.967  17.971  1.00  0.00     0.168 C 
BRANCH  29  30
HETATM   30  O2  UNL     1       6.574  21.450  17.574  1.00  0.00    -0.392 OA
ATOM     31  H2  UNL     1       6.827  22.270  17.980  1.00  0.00     0.210 HD
ENDBRANCH  29  30
BRANCH  29  32
HETATM   32  C15 UNL     1       4.210  21.545  17.175  1.00  0.00     0.270 C 
BRANCH  32  33
HETATM   33  N7  UNL     1       3.454  20.733  16.320  1.00  0.00    -0.068 N 
HETATM   34  C16 UNL     1       2.223  21.456  15.892  1.00  0.00     0.272 C 
HETATM   35  C17 UNL     1       2.985  19.466  16.759  1.00  0.00     0.237 C 
HETATM   36  C18 UNL     1       2.616  18.771  15.456  1.00  0.00     0.029 C 
HETATM   37  C19 UNL     1       3.359  19.441  14.349  1.00  0.00     0.029 C 
HETATM   38  C20 UNL     1       4.161  20.504  15.074  1.00  0.00     0.237 C 
ENDBRANCH  32  33
ENDBRANCH  29  32
ENDBRANCH  28  29
ENDBRANCH  27  28
ENDBRANCH  26  27
ENDBRANCH  25  26
ENDBRANCH   5  25
TORSDOF 13
ENDMDL
MODEL 4
REMARK VINA RESULT: -6.792425842      2.235      4.087
REMARK  13 active torsions:
REMARK  status: ('A' for Active; 'I' for Inactive)
REMARK    1  A    between atoms: C2_2  and  N1_3 
REMARK    2  A    between atoms: N1_3  and  C3_5 
REMARK    3  A    between atoms: C4_8  and  N3_9 
REMARK    4  A    between atoms: C6_14  and  N5_15 
REMARK    5  A    between atoms: N5_15  and  C7_17 
REMARK    6  A    between atoms: N6_21  and  C11_22 
REMARK    7  A    between atoms: C11_22  and  C12_23 
REMARK    8  A    between atoms: C12_23  and  O1_24 
REMARK    9  A    between atoms: O1_24  and  C13_25 
REMARK   10  A    between atoms: C13_25  and  C14_26 
REMARK   11  A    between atoms: C14_26  and  O2_27 
REMARK   12  A    between atoms: C14_26  and  C15_29 
REMARK   13  A    between atoms: C15_29  and  N7_30 
ROOT
HETATM    1  C7  UNL     1       2.502  17.860  19.655  1.00  0.00     0.138 C 
HETATM    2  C8  UNL     1       2.827  18.889  20.747  1.00  0.00     0.036 C 
HETATM    3  C9  UNL     1       4.055  19.632  20.345  1.00  0.00     0.047 C 
HETATM    4  C10 UNL     1       3.793  20.404  19.072  1.00  0.00     0.063 C 
HETATM    5  N6  UNL     1       3.034  19.752  18.116  1.00  0.00    -0.370 N 
HETATM    6  C21 UNL     1       2.314  18.579  18.371  1.00  0.00     0.088 C 
ENDROOT
BRANCH   1   7
HETATM    7  N5  UNL     1       1.434  17.075  20.036  1.00  0.00    -0.216 N 
ATOM      8  H5  UNL     1       1.470  17.003  21.053  1.00  0.00     0.178 HD
BRANCH   7   9
HETATM    9  C6  UNL     1       0.461  16.426  19.672  1.00  0.00     0.707 A 
HETATM   10  N4  UNL     1      -0.769  17.049  19.585  1.00  0.00    -0.022 N 
HETATM   11  C4  UNL     1      -1.877  16.449  19.209  1.00  0.00     0.706 A 
ATOM     12  H4  UNL     1      -0.820  18.038  19.827  1.00  0.00     0.203 HD
HETATM   13  N2  UNL     1      -1.840  15.146  18.885  1.00  0.00    -0.022 N 
HETATM   14  C3  UNL     1      -0.685  14.467  18.945  1.00  0.00     0.707 A 
ATOM     15  H2  UNL     1      -2.694  14.670  18.593  1.00  0.00     0.203 HD
HETATM   16  N8  UNL     1       0.438  15.130  19.338  1.00  0.00    -0.022 N 
ATOM     17  H8  UNL     1       1.313  14.608  19.381  1.00  0.00     0.203 HD
BRANCH  11  18
HETATM   18  N3  UNL     1      -3.019  17.079  19.141  1.00  0.00    -0.229 N 
HETATM   19  C5  UNL     1      -3.922  16.722  18.048  1.00  0.00     0.165 C 
ATOM     20  H3  UNL     1      -3.271  17.794  19.823  1.00  0.00     0.177 HD
ENDBRANCH  11  18
BRANCH  14  21
HETATM   21  N1  UNL     1      -0.666  13.210  18.628  1.00  0.00    -0.225 N 
ATOM     22  H1  UNL     1       0.202  12.695  18.773  1.00  0.00     0.177 HD
BRANCH  21  23
HETATM   23  C2  UNL     1      -1.786  12.497  18.086  1.00  0.00     0.133 C 
HETATM   24  C1  UNL     1      -1.603  12.355  16.570  1.00  0.00     0.027 C 
ENDBRANCH  21  23
ENDBRANCH  14  21
ENDBRANCH   7   9
ENDBRANCH   1   7
BRANCH   5  25
HETATM   25  C11 UNL     1       3.263  20.063  16.742  1.00  0.00     0.153 C 
BRANCH  25  26
HETATM   26  C12 UNL     1       3.109  18.878  15.822  1.00  0.00     0.187 C 
BRANCH  26  27
HETATM   27  O1  UNL     1       3.905  18.935  14.710  1.00  0.00    -0.387 OA
BRANCH  27  28
HETATM   28  C13 UNL     1       5.250  19.084  14.906  1.00  0.00     0.201 C 
BRANCH  28  29
HETATM   29  C14 UNL     1       5.997  18.737  13.656  1.00  0.00     0.168 C 
BRANCH  29  30
HETATM   30  O2  UNL     1       7.192  18.047  13.867  1.00  0.00    -0.392 OA
ATOM     31  H2  UNL     1       7.962  18.476  13.514  1.00  0.00     0.210 HD
ENDBRANCH  29  30
BRANCH  29  32
HETATM   32  C15 UNL     1       6.155  19.879  12.716  1.00  0.00     0.270 C 
BRANCH  32  33
HETATM   33  N7  UNL     1       5.608  19.818  11.429  1.00  0.00    -0.068 N 
HETATM   34  C16 UNL     1       5.820  21.115  10.726  1.00  0.00     0.272 C 
HETATM   35  C17 UNL     1       4.227  19.539  11.246  1.00  0.00     0.237 C 
HETATM   36  C18 UNL     1       4.152  19.148   9.776  1.00  0.00     0.029 C 
HETATM   37  C19 UNL     1       5.513  18.723   9.341  1.00  0.00     0.029 C 
HETATM   38  C20 UNL     1       6.335  18.866  10.608  1.00  0.00     0.237 C 
ENDBRANCH  32  33
ENDBRANCH  29  32
ENDBRANCH  28  29
ENDBRANCH  27  28
ENDBRANCH  26  27
ENDBRANCH  25  26
ENDBRANCH   5  25
TORSDOF 13
ENDMDL
MODEL 5
REMARK VINA RESULT: -6.759738602      5.607      9.608
REMARK  13 active torsions:
REMARK  status: ('A' for Active; 'I' for Inactive)
REMARK    1  A    between atoms: C2_2  and  N1_3 
REMARK    2  A    between atoms: N1_3  and  C3_5 
REMARK    3  A    between atoms: C4_8  and  N3_9 
REMARK    4  A    between atoms: C6_14  and  N5_15 
REMARK    5  A    between atoms: N5_15  and  C7_17 
REMARK    6  A    between atoms: N6_21  and  C11_22 
REMARK    7  A    between atoms: C11_22  and  C12_23 
REMARK    8  A    between atoms: C12_23  and  O1_24 
REMARK    9  A    between atoms: O1_24  and  C13_25 
REMARK   10  A    between atoms: C13_25  and  C14_26 
REMARK   11  A    between atoms: C14_26  and  O2_27 
REMARK   12  A    between atoms: C14_26  and  C15_29 
REMARK   13  A    between atoms: C15_29  and  N7_30 
ROOT
HETATM    1  C7  UNL     1      -3.587  17.741  16.134  1.00  0.00     0.138 C 
HETATM    2  C8  UNL     1      -2.870  19.099  16.112  1.00  0.00     0.036 C 
HETATM    3  C9  UNL     1      -3.898  20.174  16.013  1.00  0.00     0.047 C 
HETATM    4  C10 UNL     1      -4.776  20.156  17.242  1.00  0.00     0.063 C 
HETATM    5  N6  UNL     1      -5.128  18.904  17.716  1.00  0.00    -0.370 N 
HETATM    6  C21 UNL     1      -4.519  17.720  17.288  1.00  0.00     0.088 C 
ENDROOT
BRANCH   1   7
HETATM    7  N5  UNL     1      -2.669  16.711  16.117  1.00  0.00    -0.216 N 
ATOM      8  H5  UNL     1      -2.306  16.659  15.165  1.00  0.00     0.178 HD
BRANCH   7   9
HETATM    9  C6  UNL     1      -2.106  15.833  16.758  1.00  0.00     0.707 A 
HETATM   10  N4  UNL     1      -2.343  14.510  16.440  1.00  0.00    -0.022 N 
HETATM   11  C4  UNL     1      -1.795  13.490  17.063  1.00  0.00     0.706 A 
ATOM     12  H4  UNL     1      -2.983  14.312  15.672  1.00  0.00     0.203 HD
HETATM   13  N2  UNL     1      -0.948  13.721  18.081  1.00  0.00    -0.022 N 
HETATM   14  C3  UNL     1      -0.666  14.978  18.453  1.00  0.00     0.707 A 
ATOM     15  H2  UNL     1      -0.518  12.937  18.571  1.00  0.00     0.203 HD
HETATM   16  N8  UNL     1      -1.256  16.003  17.778  1.00  0.00    -0.022 N 
ATOM     17  H8  UNL     1      -1.037  16.956  18.067  1.00  0.00     0.203 HD
BRANCH  11  18
HETATM   18  N3  UNL     1      -2.048  12.253  16.727  1.00  0.00    -0.229 N 
HETATM   19  C5  UNL     1      -1.724  11.846  15.362  1.00  0.00     0.165 C 
ATOM     20  H3  UNL     1      -2.456  11.597  17.393  1.00  0.00     0.177 HD
ENDBRANCH  11  18
BRANCH  14  21
HETATM   21  N1  UNL     1       0.154  15.183  19.436  1.00  0.00    -0.225 N 
ATOM     22  H1  UNL     1       0.386  14.391  20.036  1.00  0.00     0.177 HD
BRANCH  21  23
HETATM   23  C2  UNL     1       0.757  16.449  19.735  1.00  0.00     0.133 C 
HETATM   24  C1  UNL     1       0.060  17.058  20.957  1.00  0.00     0.027 C 
ENDBRANCH  21  23
ENDBRANCH  14  21
ENDBRANCH   7   9
ENDBRANCH   1   7
BRANCH   5  25
HETATM   25  C11 UNL     1      -6.380  18.762  18.388  1.00  0.00     0.153 C 
BRANCH  25  26
HETATM   26  C12 UNL     1      -7.279  19.963  18.246  1.00  0.00     0.187 C 
BRANCH  26  27
HETATM   27  O1  UNL     1      -8.575  19.649  17.937  1.00  0.00    -0.387 OA
BRANCH  27  28
HETATM   28  C13 UNL     1      -8.882  18.326  17.783  1.00  0.00     0.201 C 
BRANCH  28  29
HETATM   29  C14 UNL     1      -9.575  18.105  16.475  1.00  0.00     0.168 C 
BRANCH  29  30
HETATM   30  O2  UNL     1     -10.556  17.112  16.499  1.00  0.00    -0.392 OA
ATOM     31  H2  UNL     1     -11.417  17.402  16.220  1.00  0.00     0.210 HD
ENDBRANCH  29  30
BRANCH  29  32
HETATM   32  C15 UNL     1      -8.647  17.963  15.322  1.00  0.00     0.270 C 
BRANCH  32  33
HETATM   33  N7  UNL     1      -8.552  18.975  14.359  1.00  0.00    -0.068 N 
HETATM   34  C16 UNL     1      -9.666  19.950  14.536  1.00  0.00     0.272 C 
HETATM   35  C17 UNL     1      -8.579  18.657  12.975  1.00  0.00     0.237 C 
HETATM   36  C18 UNL     1      -8.033  19.921  12.325  1.00  0.00     0.029 C 
HETATM   37  C19 UNL     1      -7.254  20.670  13.354  1.00  0.00     0.029 C 
HETATM   38  C20 UNL     1      -7.363  19.779  14.577  1.00  0.00     0.237 C 
ENDBRANCH  32  33
ENDBRANCH  29  32
ENDBRANCH  28  29
ENDBRANCH  27  28
ENDBRANCH  26  27
ENDBRANCH  25  26
ENDBRANCH   5  25
TORSDOF 13
ENDMDL
