MODEL 1
REMARK VINA RESULT: -7.168100043      0.000      0.000
REMARK  8 active torsions:
REMARK  status: ('A' for Active; 'I' for Inactive)
REMARK    1  A    between atoms: C2_2  and  C3_3 
REMARK    2  A    between atoms: C3_3  and  C4_4 
REMARK    3  A    between atoms: C4_4  and  C5_5 
REMARK    4  A    between atoms: C4_4  and  C11_15 
REMARK       I    between atoms: N2_9  and  C8_10 
REMARK       I    between atoms: C11_15  and  N4_17 
REMARK    5  A    between atoms: C16_22  and  C17_23 
REMARK       I    between atoms: C17_23  and  N5_25 
REMARK    6  A    between atoms: N5_25  and  C18_27 
REMARK    7  A    between atoms: C18_27  and  C19_28 
REMARK    8  A    between atoms: C19_28  and  N6_29 
ROOT
HETATM    1  C11 UNL     1       0.778  17.895  19.333  1.00  0.00     0.230 C 
HETATM    2  O2  UNL     1       1.240  16.788  19.682  1.00  0.00    -0.273 OA
HETATM    3  N4  UNL     1      -0.567  18.065  19.043  1.00  0.00    -0.338 N 
HETATM    4  C12 UNL     1      -1.218  19.352  18.725  1.00  0.00     0.127 C 
HETATM    5  C13 UNL     1      -2.492  19.342  19.564  1.00  0.00     0.020 C 
HETATM    6  C14 UNL     1      -2.385  18.460  20.788  1.00  0.00     0.004 C 
HETATM    7  C15 UNL     1      -2.084  17.003  20.458  1.00  0.00     0.035 C 
HETATM    8  C16 UNL     1      -1.506  16.985  19.051  1.00  0.00     0.179 C 
ENDROOT
BRANCH   1   9
HETATM    9  C4  UNL     1       1.823  19.003  19.260  1.00  0.00     0.119 C 
BRANCH   9  10
HETATM   10  C3  UNL     1       2.470  19.170  20.577  1.00  0.00     0.045 C 
BRANCH  10  11
HETATM   11  C2  UNL     1       3.936  19.179  20.658  1.00  0.00    -0.036 C 
HETATM   12  C1  UNL     1       4.689  20.217  21.037  1.00  0.00     0.007 C 
ENDBRANCH  10  11
ENDBRANCH   9  10
BRANCH   9  13
HETATM   13  C5  UNL     1       2.589  18.746  18.037  1.00  0.00     0.072 C 
HETATM   14  N1  UNL     1       2.818  19.676  17.065  1.00  0.00    -0.389 N 
HETATM   15  C6  UNL     1       3.852  20.636  17.151  1.00  0.00     0.141 C 
HETATM   16  C10 UNL     1       2.281  19.458  15.757  1.00  0.00     0.141 C 
HETATM   17  C7  UNL     1       4.965  20.401  16.137  1.00  0.00     0.147 C 
HETATM   18  N2  UNL     1       4.504  19.945  14.865  1.00  0.00    -0.333 N 
HETATM   19  C8  UNL     1       5.255  20.286  13.710  1.00  0.00     0.330 C 
HETATM   20  C9  UNL     1       3.316  19.160  14.719  1.00  0.00     0.147 C 
HETATM   21  N3  UNL     1       4.825  19.844  12.427  1.00  0.00    -0.040 NA
HETATM   22  O1  UNL     1       6.321  20.988  13.803  1.00  0.00    -0.251 OA
ENDBRANCH   9  13
ENDBRANCH   1   9
BRANCH   8  23
HETATM   23  C17 UNL     1      -1.085  15.709  18.529  1.00  0.00     0.240 C 
HETATM   24  O3  UNL     1      -0.862  15.611  17.273  1.00  0.00    -0.271 OA
HETATM   25  N5  UNL     1      -0.897  14.549  19.314  1.00  0.00    -0.358 N 
ATOM     26  H5  UNL     1      -1.067  14.627  20.317  1.00  0.00     0.162 HD
BRANCH  25  27
HETATM   27  C18 UNL     1      -0.492  13.289  18.819  1.00  0.00     0.142 C 
BRANCH  27  28
HETATM   28  C19 UNL     1      -1.677  12.423  18.478  1.00  0.00     0.141 C 
BRANCH  28  29
HETATM   29  N6  UNL     1      -2.225  12.816  17.166  1.00  0.00    -0.365 N 
HETATM   30  C20 UNL     1      -1.846  12.222  16.079  1.00  0.00     0.197 C 
HETATM   31  N7  UNL     1      -0.886  11.184  16.185  1.00  0.00    -0.067 NA
HETATM   32  N8  UNL     1      -2.342  12.562  14.811  1.00  0.00    -0.067 NA
ATOM     33  H6  UNL     1      -2.914  13.566  17.115  1.00  0.00     0.161 HD
ENDBRANCH  28  29
ENDBRANCH  27  28
ENDBRANCH  25  27
ENDBRANCH   8  23
TORSDOF 8
ENDMDL
MODEL 2
REMARK VINA RESULT: -7.167311658      3.311      6.769
REMARK  8 active torsions:
REMARK  status: ('A' for Active; 'I' for Inactive)
REMARK    1  A    between atoms: C2_2  and  C3_3 
REMARK    2  A    between atoms: C3_3  and  C4_4 
REMARK    3  A    between atoms: C4_4  and  C5_5 
REMARK    4  A    between atoms: C4_4  and  C11_15 
REMARK       I    between atoms: N2_9  and  C8_10 
REMARK       I    between atoms: C11_15  and  N4_17 
REMARK    5  A    between atoms: C16_22  and  C17_23 
REMARK       I    between atoms: C17_23  and  N5_25 
REMARK    6  A    between atoms: N5_25  and  C18_27 
REMARK    7  A    between atoms: C18_27  and  C19_28 
REMARK    8  A    between atoms: C19_28  and  N6_29 
ROOT
HETATM    1  C11 UNL     1      -0.673  17.982  20.098  1.00  0.00     0.230 C 
HETATM    2  O2  UNL     1      -1.556  18.861  19.988  1.00  0.00    -0.273 OA
HETATM    3  N4  UNL     1       0.609  18.171  19.607  1.00  0.00    -0.338 N 
HETATM    4  C12 UNL     1       1.739  17.237  19.783  1.00  0.00     0.127 C 
HETATM    5  C13 UNL     1       2.906  18.134  20.184  1.00  0.00     0.020 C 
HETATM    6  C14 UNL     1       2.459  19.424  20.837  1.00  0.00     0.004 C 
HETATM    7  C15 UNL     1       1.559  20.272  19.948  1.00  0.00     0.035 C 
HETATM    8  C16 UNL     1       0.998  19.342  18.882  1.00  0.00     0.179 C 
ENDROOT
BRANCH   1   9
HETATM    9  C4  UNL     1      -1.149  16.719  20.807  1.00  0.00     0.119 C 
BRANCH   9  10
HETATM   10  C3  UNL     1      -1.822  17.076  22.072  1.00  0.00     0.045 C 
BRANCH  10  11
HETATM   11  C2  UNL     1      -1.071  16.991  23.330  1.00  0.00    -0.036 C 
HETATM   12  C1  UNL     1      -1.495  16.404  24.454  1.00  0.00     0.007 C 
ENDBRANCH  10  11
ENDBRANCH   9  10
BRANCH   9  13
HETATM   13  C5  UNL     1      -1.800  15.906  19.775  1.00  0.00     0.072 C 
HETATM   14  N1  UNL     1      -1.138  15.294  18.750  1.00  0.00    -0.389 N 
HETATM   15  C6  UNL     1      -0.486  14.047  18.894  1.00  0.00     0.141 C 
HETATM   16  C10 UNL     1      -1.420  15.695  17.406  1.00  0.00     0.141 C 
HETATM   17  C7  UNL     1      -1.173  12.927  18.123  1.00  0.00     0.147 C 
HETATM   18  N2  UNL     1      -1.695  13.329  16.857  1.00  0.00    -0.333 N 
HETATM   19  C8  UNL     1      -1.762  12.367  15.816  1.00  0.00     0.330 C 
HETATM   20  C9  UNL     1      -2.150  14.662  16.606  1.00  0.00     0.147 C 
HETATM   21  N3  UNL     1      -2.280  12.734  14.542  1.00  0.00    -0.040 NA
HETATM   22  O1  UNL     1      -1.363  11.166  16.004  1.00  0.00    -0.251 OA
ENDBRANCH   9  13
ENDBRANCH   1   9
BRANCH   8  23
HETATM   23  C17 UNL     1       0.062  19.907  17.942  1.00  0.00     0.240 C 
HETATM   24  O3  UNL     1      -0.100  21.176  17.935  1.00  0.00    -0.271 OA
HETATM   25  N5  UNL     1      -0.693  19.151  17.017  1.00  0.00    -0.358 N 
ATOM     26  H5  UNL     1      -0.559  18.140  17.016  1.00  0.00     0.162 HD
BRANCH  25  27
HETATM   27  C18 UNL     1      -1.619  19.686  16.094  1.00  0.00     0.142 C 
BRANCH  27  28
HETATM   28  C19 UNL     1      -2.989  19.828  16.705  1.00  0.00     0.141 C 
BRANCH  28  29
HETATM   29  N6  UNL     1      -3.295  18.647  17.533  1.00  0.00    -0.365 N 
HETATM   30  C20 UNL     1      -4.402  17.992  17.377  1.00  0.00     0.197 C 
HETATM   31  N7  UNL     1      -5.313  18.444  16.389  1.00  0.00    -0.067 NA
HETATM   32  N8  UNL     1      -4.735  16.863  18.141  1.00  0.00    -0.067 NA
ATOM     33  H6  UNL     1      -2.625  18.341  18.238  1.00  0.00     0.161 HD
ENDBRANCH  28  29
ENDBRANCH  27  28
ENDBRANCH  25  27
ENDBRANCH   8  23
TORSDOF 8
ENDMDL
MODEL 3
REMARK VINA RESULT: -6.934469005      2.528      6.857
REMARK  8 active torsions:
REMARK  status: ('A' for Active; 'I' for Inactive)
REMARK    1  A    between atoms: C2_2  and  C3_3 
REMARK    2  A    between atoms: C3_3  and  C4_4 
REMARK    3  A    between atoms: C4_4  and  C5_5 
REMARK    4  A    between atoms: C4_4  and  C11_15 
REMARK       I    between atoms: N2_9  and  C8_10 
REMARK       I    between atoms: C11_15  and  N4_17 
REMARK    5  A    between atoms: C16_22  and  C17_23 
REMARK       I    between atoms: C17_23  and  N5_25 
REMARK    6  A    between atoms: N5_25  and  C18_27 
REMARK    7  A    between atoms: C18_27  and  C19_28 
REMARK    8  A    between atoms: C19_28  and  N6_29 
ROOT
HETATM    1  C11 UNL     1       0.192  18.839  19.032  1.00  0.00     0.230 C 
HETATM    2  O2  UNL     1      -0.332  19.572  18.166  1.00  0.00    -0.273 OA
HETATM    3  N4  UNL     1       1.555  18.582  19.041  1.00  0.00    -0.338 N 
HETATM    4  C12 UNL     1       2.275  17.818  20.080  1.00  0.00     0.127 C 
HETATM    5  C13 UNL     1       3.509  18.663  20.376  1.00  0.00     0.020 C 
HETATM    6  C14 UNL     1       3.311  20.128  20.057  1.00  0.00     0.004 C 
HETATM    7  C15 UNL     1       2.961  20.387  18.596  1.00  0.00     0.035 C 
HETATM    8  C16 UNL     1       2.444  19.072  18.032  1.00  0.00     0.179 C 
ENDROOT
BRANCH   1   9
HETATM    9  C4  UNL     1      -0.800  18.273  20.042  1.00  0.00     0.119 C 
BRANCH   9  10
HETATM   10  C3  UNL     1      -1.495  19.377  20.735  1.00  0.00     0.045 C 
BRANCH  10  11
HETATM   11  C2  UNL     1      -0.734  20.239  21.648  1.00  0.00    -0.036 C 
HETATM   12  C1  UNL     1       0.202  19.828  22.509  1.00  0.00     0.007 C 
ENDBRANCH  10  11
ENDBRANCH   9  10
BRANCH   9  13
HETATM   13  C5  UNL     1      -1.523  17.211  19.337  1.00  0.00     0.072 C 
HETATM   14  N1  UNL     1      -0.932  16.300  18.510  1.00  0.00    -0.389 N 
HETATM   15  C6  UNL     1      -0.294  15.132  18.987  1.00  0.00     0.141 C 
HETATM   16  C10 UNL     1      -1.287  16.290  17.124  1.00  0.00     0.141 C 
HETATM   17  C7  UNL     1      -1.042  13.856  18.624  1.00  0.00     0.147 C 
HETATM   18  N2  UNL     1      -1.632  13.878  17.325  1.00  0.00    -0.333 N 
HETATM   19  C8  UNL     1      -1.776  12.652  16.625  1.00  0.00     0.330 C 
HETATM   20  C9  UNL     1      -2.080  15.091  16.710  1.00  0.00     0.147 C 
HETATM   21  N3  UNL     1      -2.363  12.639  15.328  1.00  0.00    -0.040 NA
HETATM   22  O1  UNL     1      -1.386  11.550  17.144  1.00  0.00    -0.251 OA
ENDBRANCH   9  13
ENDBRANCH   1   9
BRANCH   8  23
HETATM   23  C17 UNL     1       1.991  19.075  16.664  1.00  0.00     0.240 C 
HETATM   24  O3  UNL     1       1.725  17.954  16.110  1.00  0.00    -0.271 OA
HETATM   25  N5  UNL     1       1.815  20.242  15.886  1.00  0.00    -0.358 N 
ATOM     26  H5  UNL     1       2.020  21.138  16.329  1.00  0.00     0.162 HD
BRANCH  25  27
HETATM   27  C18 UNL     1       1.379  20.265  14.542  1.00  0.00     0.142 C 
BRANCH  27  28
HETATM   28  C19 UNL     1      -0.053  20.722  14.433  1.00  0.00     0.141 C 
BRANCH  28  29
HETATM   29  N6  UNL     1      -0.932  19.806  15.183  1.00  0.00    -0.365 N 
HETATM   30  C20 UNL     1      -2.165  19.624  14.830  1.00  0.00     0.197 C 
HETATM   31  N7  UNL     1      -2.646  20.334  13.700  1.00  0.00    -0.067 NA
HETATM   32  N8  UNL     1      -3.036  18.762  15.512  1.00  0.00    -0.067 NA
ATOM     33  H6  UNL     1      -0.563  19.307  15.993  1.00  0.00     0.161 HD
ENDBRANCH  28  29
ENDBRANCH  27  28
ENDBRANCH  25  27
ENDBRANCH   8  23
TORSDOF 8
ENDMDL
MODEL 4
REMARK VINA RESULT: -6.933271852      1.551      1.755
REMARK  8 active torsions:
REMARK  status: ('A' for Active; 'I' for Inactive)
REMARK    1  A    between atoms: C2_2  and  C3_3 
REMARK    2  A    between atoms: C3_3  and  C4_4 
REMARK    3  A    between atoms: C4_4  and  C5_5 
REMARK    4  A    between atoms: C4_4  and  C11_15 
REMARK       I    between atoms: N2_9  and  C8_10 
REMARK       I    between atoms: C11_15  and  N4_17 
REMARK    5  A    between atoms: C16_22  and  C17_23 
REMARK       I    between atoms: C17_23  and  N5_25 
REMARK    6  A    between atoms: N5_25  and  C18_27 
REMARK    7  A    between atoms: C18_27  and  C19_28 
REMARK    8  A    between atoms: C19_28  and  N6_29 
ROOT
HETATM    1  C11 UNL     1       0.324  17.237  19.825  1.00  0.00     0.230 C 
HETATM    2  O2  UNL     1       0.652  16.031  19.799  1.00  0.00    -0.273 OA
HETATM    3  N4  UNL     1      -0.937  17.640  20.233  1.00  0.00    -0.338 N 
HETATM    4  C12 UNL     1      -1.377  19.041  20.395  1.00  0.00     0.127 C 
HETATM    5  C13 UNL     1      -2.103  19.051  21.737  1.00  0.00     0.020 C 
HETATM    6  C14 UNL     1      -1.640  17.951  22.666  1.00  0.00     0.004 C 
HETATM    7  C15 UNL     1      -1.832  16.552  22.091  1.00  0.00     0.035 C 
HETATM    8  C16 UNL     1      -1.972  16.716  20.585  1.00  0.00     0.179 C 
ENDROOT
BRANCH   1   9
HETATM    9  C4  UNL     1       1.429  18.184  19.369  1.00  0.00     0.119 C 
BRANCH   9  10
HETATM   10  C3  UNL     1       2.720  17.770  19.955  1.00  0.00     0.045 C 
BRANCH  10  11
HETATM   11  C2  UNL     1       3.656  18.800  20.420  1.00  0.00    -0.036 C 
HETATM   12  C1  UNL     1       3.371  19.780  21.284  1.00  0.00     0.007 C 
ENDBRANCH  10  11
ENDBRANCH   9  10
BRANCH   9  13
HETATM   13  C5  UNL     1       1.240  18.348  17.925  1.00  0.00     0.072 C 
HETATM   14  N1  UNL     1       1.837  19.322  17.179  1.00  0.00    -0.389 N 
HETATM   15  C6  UNL     1       3.159  19.210  16.688  1.00  0.00     0.141 C 
HETATM   16  C10 UNL     1       1.018  20.302  16.535  1.00  0.00     0.141 C 
HETATM   17  C7  UNL     1       3.218  19.061  15.173  1.00  0.00     0.147 C 
HETATM   18  N2  UNL     1       2.251  19.844  14.474  1.00  0.00    -0.333 N 
HETATM   19  C8  UNL     1       2.566  20.305  13.170  1.00  0.00     0.330 C 
HETATM   20  C9  UNL     1       0.981  20.177  15.044  1.00  0.00     0.147 C 
HETATM   21  N3  UNL     1       1.622  21.086  12.444  1.00  0.00    -0.040 NA
HETATM   22  O1  UNL     1       3.693  20.028  12.630  1.00  0.00    -0.251 OA
ENDBRANCH   9  13
ENDBRANCH   1   9
BRANCH   8  23
HETATM   23  C17 UNL     1      -2.110  15.514  19.802  1.00  0.00     0.240 C 
HETATM   24  O3  UNL     1      -2.818  15.560  18.738  1.00  0.00    -0.271 OA
HETATM   25  N5  UNL     1      -1.510  14.277  20.129  1.00  0.00    -0.358 N 
ATOM     26  H5  UNL     1      -0.939  14.240  20.974  1.00  0.00     0.162 HD
BRANCH  25  27
HETATM   27  C18 UNL     1      -1.640  13.086  19.379  1.00  0.00     0.142 C 
BRANCH  27  28
HETATM   28  C19 UNL     1      -0.765  13.109  18.152  1.00  0.00     0.141 C 
BRANCH  28  29
HETATM   29  N6  UNL     1      -1.586  13.362  16.953  1.00  0.00    -0.365 N 
HETATM   30  C20 UNL     1      -1.702  12.468  16.023  1.00  0.00     0.197 C 
HETATM   31  N7  UNL     1      -1.015  11.238  16.189  1.00  0.00    -0.067 NA
HETATM   32  N8  UNL     1      -2.472  12.664  14.867  1.00  0.00    -0.067 NA
ATOM     33  H6  UNL     1      -2.069  14.255  16.856  1.00  0.00     0.161 HD
ENDBRANCH  28  29
ENDBRANCH  27  28
ENDBRANCH  25  27
ENDBRANCH   8  23
TORSDOF 8
ENDMDL
MODEL 5
REMARK VINA RESULT: -6.849062573      3.789      7.420
REMARK  8 active torsions:
REMARK  status: ('A' for Active; 'I' for Inactive)
REMARK    1  A    between atoms: C2_2  and  C3_3 
REMARK    2  A    between atoms: C3_3  and  C4_4 
REMARK    3  A    between atoms: C4_4  and  C5_5 
REMARK    4  A    between atoms: C4_4  and  C11_15 
REMARK       I    between atoms: N2_9  and  C8_10 
REMARK       I    between atoms: C11_15  and  N4_17 
REMARK    5  A    between atoms: C16_22  and  C17_23 
REMARK       I    between atoms: C17_23  and  N5_25 
REMARK    6  A    between atoms: N5_25  and  C18_27 
REMARK    7  A    between atoms: C18_27  and  C19_28 
REMARK    8  A    between atoms: C19_28  and  N6_29 
ROOT
HETATM    1  C11 UNL     1      -1.446  18.021  18.009  1.00  0.00     0.230 C 
HETATM    2  O2  UNL     1      -1.520  16.869  17.529  1.00  0.00    -0.273 OA
HETATM    3  N4  UNL     1      -0.524  18.341  18.993  1.00  0.00    -0.338 N 
HETATM    4  C12 UNL     1      -0.293  19.694  19.542  1.00  0.00     0.127 C 
HETATM    5  C13 UNL     1       1.226  19.832  19.565  1.00  0.00     0.020 C 
HETATM    6  C14 UNL     1       1.914  18.948  18.549  1.00  0.00     0.004 C 
HETATM    7  C15 UNL     1       1.622  17.465  18.740  1.00  0.00     0.035 C 
HETATM    8  C16 UNL     1       0.355  17.375  19.579  1.00  0.00     0.179 C 
ENDROOT
BRANCH   1   9
HETATM    9  C4  UNL     1      -2.451  19.002  17.415  1.00  0.00     0.119 C 
BRANCH   9  10
HETATM   10  C3  UNL     1      -2.071  19.331  16.026  1.00  0.00     0.045 C 
BRANCH  10  11
HETATM   11  C2  UNL     1      -0.768  19.957  15.771  1.00  0.00    -0.036 C 
HETATM   12  C1  UNL     1      -0.405  21.185  16.157  1.00  0.00     0.007 C 
ENDBRANCH  10  11
ENDBRANCH   9  10
BRANCH   9  13
HETATM   13  C5  UNL     1      -3.774  18.473  17.762  1.00  0.00     0.072 C 
HETATM   14  N1  UNL     1      -4.951  19.095  17.462  1.00  0.00    -0.389 N 
HETATM   15  C6  UNL     1      -5.574  18.989  16.197  1.00  0.00     0.141 C 
HETATM   16  C10 UNL     1      -5.790  19.542  18.530  1.00  0.00     0.141 C 
HETATM   17  C7  UNL     1      -6.872  18.194  16.240  1.00  0.00     0.147 C 
HETATM   18  N2  UNL     1      -7.652  18.419  17.414  1.00  0.00    -0.333 N 
HETATM   19  C8  UNL     1      -9.063  18.295  17.324  1.00  0.00     0.330 C 
HETATM   20  C9  UNL     1      -7.060  18.763  18.671  1.00  0.00     0.147 C 
HETATM   21  N3  UNL     1      -9.870  18.510  18.477  1.00  0.00    -0.040 NA
HETATM   22  O1  UNL     1      -9.626  17.991  16.216  1.00  0.00    -0.251 OA
ENDBRANCH   9  13
ENDBRANCH   1   9
BRANCH   8  23
HETATM   23  C17 UNL     1      -0.162  16.058  19.851  1.00  0.00     0.240 C 
HETATM   24  O3  UNL     1      -0.956  15.910  20.843  1.00  0.00    -0.271 OA
HETATM   25  N5  UNL     1       0.148  14.907  19.091  1.00  0.00    -0.358 N 
ATOM     26  H5  UNL     1       0.776  15.024  18.296  1.00  0.00     0.162 HD
BRANCH  25  27
HETATM   27  C18 UNL     1      -0.343  13.607  19.347  1.00  0.00     0.142 C 
BRANCH  27  28
HETATM   28  C19 UNL     1      -1.683  13.384  18.696  1.00  0.00     0.141 C 
BRANCH  28  29
HETATM   29  N6  UNL     1      -1.606  12.245  17.763  1.00  0.00    -0.365 N 
HETATM   30  C20 UNL     1      -1.759  12.414  16.488  1.00  0.00     0.197 C 
HETATM   31  N7  UNL     1      -2.004  13.729  16.014  1.00  0.00    -0.067 NA
HETATM   32  N8  UNL     1      -1.693  11.361  15.564  1.00  0.00    -0.067 NA
ATOM     33  H6  UNL     1      -1.430  11.309  18.128  1.00  0.00     0.161 HD
ENDBRANCH  28  29
ENDBRANCH  27  28
ENDBRANCH  25  27
ENDBRANCH   8  23
TORSDOF 8
ENDMDL
