MODEL 1
REMARK VINA RESULT: -9.004692489      0.000      0.000
REMARK  15 active torsions:
REMARK  status: ('A' for Active; 'I' for Inactive)
REMARK    1  A    between atoms: O1_2  and  C2_3 
REMARK    2  A    between atoms: C5_6  and  C6_7 
REMARK    3  A    between atoms: C7_12  and  S1_13 
REMARK    4  A    between atoms: S1_13  and  C8_14 
REMARK    5  A    between atoms: C8_14  and  C9_15 
REMARK    6  A    between atoms: C9_15  and  N5_21 
REMARK    7  A    between atoms: N3_16  and  N4_18 
REMARK    8  A    between atoms: N5_21  and  N6_23 
REMARK    9  A    between atoms: C10_25  and  C11_26 
REMARK   10  A    between atoms: C14_29  and  O2_30 
REMARK   11  A    between atoms: C15_32  and  C16_33 
REMARK   12  A    between atoms: C16_33  and  N8_37 
REMARK   13  A    between atoms: N8_37  and  N9_39 
REMARK   14  A    between atoms: N11_44  and  N12_45 
REMARK   15  A    between atoms: C18_49  and  O3_50 
ROOT
HETATM    1  C9  UNL     1     -39.136  71.552 102.005  1.00  0.00     0.119 C 
HETATM    2  N3  UNL     1     -38.374  70.580 101.716  1.00  0.00    -0.294 N 
ATOM      3  H3  UNL     1     -37.410  70.812 101.478  1.00  0.00     0.187 HD
ENDROOT
BRANCH   1   4
HETATM    4  C8  UNL     1     -40.569  71.457 102.380  1.00  0.00     0.161 C 
BRANCH   4   5
HETATM    5  S1  UNL     1     -41.537  71.568 100.849  1.00  0.00    -0.083 SA
BRANCH   5   6
HETATM    6  C7  UNL     1     -42.256  73.194 100.740  1.00  0.00     0.182 A 
HETATM    7  N2  UNL     1     -41.927  74.179  99.930  1.00  0.00    -0.277 N 
HETATM    8  N1  UNL     1     -42.703  75.202 100.176  1.00  0.00    -0.281 N 
ATOM      9  H2  UNL     1     -41.189  74.149  99.228  1.00  0.00     0.189 HD
HETATM   10  C6  UNL     1     -43.584  74.910 101.176  1.00  0.00     0.154 A 
ATOM     11  H1  UNL     1     -42.657  76.097  99.688  1.00  0.00     0.188 HD
HETATM   12  N11 UNL     1     -43.288  73.649 101.517  1.00  0.00    -0.221 N 
BRANCH  10  13
HETATM   13  C5  UNL     1     -44.586  75.805 101.704  1.00  0.00     0.014 A 
HETATM   14  C4  UNL     1     -44.177  77.002 102.281  1.00  0.00     0.018 A 
HETATM   15  C3  UNL     1     -45.120  77.891 102.801  1.00  0.00     0.040 A 
HETATM   16  C2  UNL     1     -46.465  77.613 102.761  1.00  0.00     0.101 A 
HETATM   17  C18 UNL     1     -46.840  76.421 102.184  1.00  0.00     0.102 A 
HETATM   18  C17 UNL     1     -45.912  75.526 101.662  1.00  0.00     0.055 A 
BRANCH  16  19
HETATM   19  O1  UNL     1     -47.360  78.506 103.280  1.00  0.00    -0.353 OA
HETATM   20  C1  UNL     1     -47.244  79.195 104.477  1.00  0.00     0.210 C 
ENDBRANCH  16  19
BRANCH  17  21
HETATM   21  O3  UNL     1     -48.173  76.099 102.121  1.00  0.00    -0.353 OA
HETATM   22  C19 UNL     1     -48.631  74.797 101.806  1.00  0.00     0.210 C 
ENDBRANCH  17  21
ENDBRANCH  10  13
BRANCH  12  23
HETATM   23  N12 UNL     1     -43.869  72.833 102.486  1.00  0.00    -0.335 N 
ATOM     24 2H12 UNL     1     -44.756  72.359 102.311  1.00  0.00     0.177 HD
ATOM     25 1H12 UNL     1     -43.539  72.604 103.424  1.00  0.00     0.177 HD
ENDBRANCH  12  23
ENDBRANCH   5   6
ENDBRANCH   4   5
ENDBRANCH   1   4
BRANCH   1  26
HETATM   26  N5  UNL     1     -38.582  72.870 101.971  1.00  0.00    -0.288 N 
ATOM     27  H5  UNL     1     -38.454  73.421 102.819  1.00  0.00     0.188 HD
BRANCH  26  28
HETATM   28  N6  UNL     1     -38.226  73.364 100.710  1.00  0.00    -0.308 N 
HETATM   29  C10 UNL     1     -37.975  74.628 100.618  1.00  0.00     0.136 C 
ATOM     30  H6  UNL     1     -38.166  72.750  99.898  1.00  0.00     0.186 HD
BRANCH  29  31
HETATM   31  C11 UNL     1     -37.603  75.145  99.301  1.00  0.00     0.049 A 
HETATM   32  C12 UNL     1     -38.558  75.827  98.562  1.00  0.00     0.034 A 
HETATM   33  C13 UNL     1     -38.213  76.315  97.323  1.00  0.00     0.041 A 
HETATM   34  C14 UNL     1     -36.917  76.109  96.848  1.00  0.00     0.096 A 
HETATM   35  C15 UNL     1     -36.000  75.432  97.602  1.00  0.00     0.111 A 
HETATM   36  N10 UNL     1     -36.359  74.966  98.805  1.00  0.00    -0.350 N 
ATOM     37  H10 UNL     1     -35.672  74.461  99.365  1.00  0.00     0.166 HD
BRANCH  34  38
HETATM   38  O2  UNL     1     -36.511  76.580  95.599  1.00  0.00    -0.358 OA
ATOM     39  H2  UNL     1     -35.808  77.213  95.510  1.00  0.00     0.217 HD
ENDBRANCH  34  38
BRANCH  35  40
HETATM   40  C16 UNL     1     -34.651  75.202  97.136  1.00  0.00     0.143 C 
HETATM   41  N7  UNL     1     -34.330  74.008  96.725  1.00  0.00    -0.383 N 
ATOM     42  H72 UNL     1     -35.026  73.263  96.739  1.00  0.00     0.157 HD
ATOM     43  H71 UNL     1     -33.379  73.846  96.396  1.00  0.00     0.157 HD
BRANCH  40  44
HETATM   44  N8  UNL     1     -33.687  76.235  97.116  1.00  0.00    -0.291 N 
ATOM     45  H8  UNL     1     -33.180  76.462  97.971  1.00  0.00     0.188 HD
BRANCH  44  46
HETATM   46  N9  UNL     1     -33.417  76.945  95.959  1.00  0.00    -0.344 N 
ATOM     47  H92 UNL     1     -32.619  77.580  95.954  1.00  0.00     0.176 HD
ATOM     48  H91 UNL     1     -33.998  76.841  95.126  1.00  0.00     0.176 HD
ENDBRANCH  44  46
ENDBRANCH  40  44
ENDBRANCH  35  40
ENDBRANCH  29  31
ENDBRANCH  26  28
ENDBRANCH   1  26
BRANCH   2  49
HETATM   49  N4  UNL     1     -38.709  69.245 101.689  1.00  0.00    -0.344 N 
ATOM     50  H42 UNL     1     -39.284  68.955 100.897  1.00  0.00     0.176 HD
ATOM     51  H41 UNL     1     -38.445  68.530 102.367  1.00  0.00     0.176 HD
ENDBRANCH   2  49
TORSDOF 15
ENDMDL
MODEL 2
REMARK VINA RESULT: -8.836927322      2.278      3.216
REMARK  15 active torsions:
REMARK  status: ('A' for Active; 'I' for Inactive)
REMARK    1  A    between atoms: O1_2  and  C2_3 
REMARK    2  A    between atoms: C5_6  and  C6_7 
REMARK    3  A    between atoms: C7_12  and  S1_13 
REMARK    4  A    between atoms: S1_13  and  C8_14 
REMARK    5  A    between atoms: C8_14  and  C9_15 
REMARK    6  A    between atoms: C9_15  and  N5_21 
REMARK    7  A    between atoms: N3_16  and  N4_18 
REMARK    8  A    between atoms: N5_21  and  N6_23 
REMARK    9  A    between atoms: C10_25  and  C11_26 
REMARK   10  A    between atoms: C14_29  and  O2_30 
REMARK   11  A    between atoms: C15_32  and  C16_33 
REMARK   12  A    between atoms: C16_33  and  N8_37 
REMARK   13  A    between atoms: N8_37  and  N9_39 
REMARK   14  A    between atoms: N11_44  and  N12_45 
REMARK   15  A    between atoms: C18_49  and  O3_50 
ROOT
HETATM    1  C9  UNL     1     -42.041  71.468  99.500  1.00  0.00     0.119 C 
HETATM    2  N3  UNL     1     -41.971  71.585  98.239  1.00  0.00    -0.294 N 
ATOM      3  H3  UNL     1     -41.470  72.399  97.884  1.00  0.00     0.187 HD
ENDROOT
BRANCH   1   4
HETATM    4  C8  UNL     1     -42.716  70.372 100.239  1.00  0.00     0.161 C 
BRANCH   4   5
HETATM    5  S1  UNL     1     -44.478  70.435  99.809  1.00  0.00    -0.083 SA
BRANCH   5   6
HETATM    6  C7  UNL     1     -45.000  72.138  99.772  1.00  0.00     0.182 A 
HETATM    7  N2  UNL     1     -45.325  72.869  98.726  1.00  0.00    -0.277 N 
HETATM    8  N1  UNL     1     -45.650  74.068  99.134  1.00  0.00    -0.281 N 
ATOM      9  H2  UNL     1     -45.323  72.552  97.756  1.00  0.00     0.189 HD
HETATM   10  C6  UNL     1     -45.545  74.158 100.491  1.00  0.00     0.154 A 
ATOM     11  H1  UNL     1     -45.941  74.831  98.523  1.00  0.00     0.188 HD
HETATM   12  N11 UNL     1     -45.137  72.941 100.872  1.00  0.00    -0.221 N 
BRANCH  10  13
HETATM   13  C5  UNL     1     -45.826  75.334 101.281  1.00  0.00     0.014 A 
HETATM   14  C4  UNL     1     -47.127  75.546 101.727  1.00  0.00     0.018 A 
HETATM   15  C3  UNL     1     -47.433  76.671 102.494  1.00  0.00     0.040 A 
HETATM   16  C2  UNL     1     -46.471  77.594 102.828  1.00  0.00     0.101 A 
HETATM   17  C18 UNL     1     -45.194  77.359 102.372  1.00  0.00     0.102 A 
HETATM   18  C17 UNL     1     -44.874  76.242 101.608  1.00  0.00     0.055 A 
BRANCH  16  19
HETATM   19  O1  UNL     1     -46.806  78.685 103.580  1.00  0.00    -0.353 OA
HETATM   20  C1  UNL     1     -48.080  79.051 103.987  1.00  0.00     0.210 C 
ENDBRANCH  16  19
BRANCH  17  21
HETATM   21  O3  UNL     1     -44.199  78.253 102.680  1.00  0.00    -0.353 OA
HETATM   22  C19 UNL     1     -42.845  77.868 102.831  1.00  0.00     0.210 C 
ENDBRANCH  17  21
ENDBRANCH  10  13
BRANCH  12  23
HETATM   23  N12 UNL     1     -44.865  72.457 102.151  1.00  0.00    -0.335 N 
ATOM     24 2H12 UNL     1     -45.620  72.183 102.780  1.00  0.00     0.177 HD
ATOM     25 1H12 UNL     1     -43.967  72.316 102.614  1.00  0.00     0.177 HD
ENDBRANCH  12  23
ENDBRANCH   5   6
ENDBRANCH   4   5
ENDBRANCH   1   4
BRANCH   1  26
HETATM   26  N5  UNL     1     -41.420  72.476 100.301  1.00  0.00    -0.288 N 
ATOM     27  H5  UNL     1     -41.774  72.721 101.226  1.00  0.00     0.188 HD
BRANCH  26  28
HETATM   28  N6  UNL     1     -40.301  73.111  99.749  1.00  0.00    -0.308 N 
HETATM   29  C10 UNL     1     -39.147  72.572  99.966  1.00  0.00     0.136 C 
ATOM     30  H6  UNL     1     -40.394  73.963  99.197  1.00  0.00     0.186 HD
BRANCH  29  31
HETATM   31  C11 UNL     1     -37.977  73.235  99.389  1.00  0.00     0.049 A 
HETATM   32  C12 UNL     1     -36.720  72.897  99.869  1.00  0.00     0.034 A 
HETATM   33  C13 UNL     1     -35.617  73.518  99.330  1.00  0.00     0.041 A 
HETATM   34  C14 UNL     1     -35.795  74.465  98.321  1.00  0.00     0.096 A 
HETATM   35  C15 UNL     1     -37.048  74.774  97.872  1.00  0.00     0.111 A 
HETATM   36  N10 UNL     1     -38.107  74.157  98.411  1.00  0.00    -0.350 N 
ATOM     37  H10 UNL     1     -39.041  74.391  98.073  1.00  0.00     0.166 HD
BRANCH  34  38
HETATM   38  O2  UNL     1     -34.714  75.126  97.738  1.00  0.00    -0.358 OA
ATOM     39  H2  UNL     1     -34.412  74.911  96.863  1.00  0.00     0.217 HD
ENDBRANCH  34  38
BRANCH  35  40
HETATM   40  C16 UNL     1     -37.264  75.752  96.829  1.00  0.00     0.143 C 
HETATM   41  N7  UNL     1     -38.026  76.776  97.085  1.00  0.00    -0.383 N 
ATOM     42  H72 UNL     1     -38.455  76.872  98.006  1.00  0.00     0.157 HD
ATOM     43  H71 UNL     1     -38.178  77.466  96.350  1.00  0.00     0.157 HD
BRANCH  40  44
HETATM   44  N8  UNL     1     -36.670  75.620  95.553  1.00  0.00    -0.291 N 
ATOM     45  H8  UNL     1     -36.888  74.804  94.982  1.00  0.00     0.188 HD
BRANCH  44  46
HETATM   46  N9  UNL     1     -35.797  76.577  95.064  1.00  0.00    -0.344 N 
ATOM     47  H92 UNL     1     -34.794  76.403  95.143  1.00  0.00     0.176 HD
ATOM     48  H91 UNL     1     -36.140  77.436  94.635  1.00  0.00     0.176 HD
ENDBRANCH  44  46
ENDBRANCH  40  44
ENDBRANCH  35  40
ENDBRANCH  29  31
ENDBRANCH  26  28
ENDBRANCH   1  26
BRANCH   2  49
HETATM   49  N4  UNL     1     -42.500  70.731  97.297  1.00  0.00    -0.344 N 
ATOM     50  H42 UNL     1     -41.848  70.045  96.915  1.00  0.00     0.176 HD
ATOM     51  H41 UNL     1     -43.459  70.716  96.949  1.00  0.00     0.176 HD
ENDBRANCH   2  49
TORSDOF 15
ENDMDL
MODEL 3
REMARK VINA RESULT: -8.791263500      1.927      2.572
REMARK  15 active torsions:
REMARK  status: ('A' for Active; 'I' for Inactive)
REMARK    1  A    between atoms: O1_2  and  C2_3 
REMARK    2  A    between atoms: C5_6  and  C6_7 
REMARK    3  A    between atoms: C7_12  and  S1_13 
REMARK    4  A    between atoms: S1_13  and  C8_14 
REMARK    5  A    between atoms: C8_14  and  C9_15 
REMARK    6  A    between atoms: C9_15  and  N5_21 
REMARK    7  A    between atoms: N3_16  and  N4_18 
REMARK    8  A    between atoms: N5_21  and  N6_23 
REMARK    9  A    between atoms: C10_25  and  C11_26 
REMARK   10  A    between atoms: C14_29  and  O2_30 
REMARK   11  A    between atoms: C15_32  and  C16_33 
REMARK   12  A    between atoms: C16_33  and  N8_37 
REMARK   13  A    between atoms: N8_37  and  N9_39 
REMARK   14  A    between atoms: N11_44  and  N12_45 
REMARK   15  A    between atoms: C18_49  and  O3_50 
ROOT
HETATM    1  C9  UNL     1     -41.646  70.927 100.576  1.00  0.00     0.119 C 
HETATM    2  N3  UNL     1     -41.322  70.058 101.442  1.00  0.00    -0.294 N 
ATOM      3  H3  UNL     1     -40.820  70.398 102.263  1.00  0.00     0.187 HD
ENDROOT
BRANCH   1   4
HETATM    4  C8  UNL     1     -42.376  70.667  99.310  1.00  0.00     0.161 C 
BRANCH   4   5
HETATM    5  S1  UNL     1     -44.142  70.574  99.713  1.00  0.00    -0.083 SA
BRANCH   5   6
HETATM    6  C7  UNL     1     -44.819  72.222  99.710  1.00  0.00     0.182 A 
HETATM    7  N2  UNL     1     -45.287  72.910  98.689  1.00  0.00    -0.277 N 
HETATM    8  N1  UNL     1     -45.689  74.078  99.117  1.00  0.00    -0.281 N 
ATOM      9  H2  UNL     1     -45.328  72.586  97.723  1.00  0.00     0.189 HD
HETATM   10  C6  UNL     1     -45.493  74.191 100.462  1.00  0.00     0.154 A 
ATOM     11  H1  UNL     1     -46.093  74.806  98.527  1.00  0.00     0.188 HD
HETATM   12  N11 UNL     1     -44.947  73.020 100.815  1.00  0.00    -0.221 N 
BRANCH  10  13
HETATM   13  C5  UNL     1     -45.821  75.344 101.268  1.00  0.00     0.014 A 
HETATM   14  C4  UNL     1     -47.137  75.518 101.683  1.00  0.00     0.018 A 
HETATM   15  C3  UNL     1     -47.488  76.620 102.464  1.00  0.00     0.040 A 
HETATM   16  C2  UNL     1     -46.557  77.558 102.841  1.00  0.00     0.101 A 
HETATM   17  C18 UNL     1     -45.263  77.360 102.415  1.00  0.00     0.102 A 
HETATM   18  C17 UNL     1     -44.898  76.266 101.637  1.00  0.00     0.055 A 
BRANCH  16  19
HETATM   19  O1  UNL     1     -46.936  78.625 103.605  1.00  0.00    -0.353 OA
HETATM   20  C1  UNL     1     -48.230  78.966 103.968  1.00  0.00     0.210 C 
ENDBRANCH  16  19
BRANCH  17  21
HETATM   21  O3  UNL     1     -44.298  78.269 102.766  1.00  0.00    -0.353 OA
HETATM   22  C19 UNL     1     -42.954  77.900 103.019  1.00  0.00     0.210 C 
ENDBRANCH  17  21
ENDBRANCH  10  13
BRANCH  12  23
HETATM   23  N12 UNL     1     -44.538  72.576 102.071  1.00  0.00    -0.335 N 
ATOM     24 2H12 UNL     1     -45.215  72.410 102.816  1.00  0.00     0.177 HD
ATOM     25 1H12 UNL     1     -43.599  72.368 102.412  1.00  0.00     0.177 HD
ENDBRANCH  12  23
ENDBRANCH   5   6
ENDBRANCH   4   5
ENDBRANCH   1   4
BRANCH   1  26
HETATM   26  N5  UNL     1     -41.282  72.287 100.824  1.00  0.00    -0.288 N 
ATOM     27  H5  UNL     1     -41.676  72.816 101.602  1.00  0.00     0.188 HD
BRANCH  26  28
HETATM   28  N6  UNL     1     -40.355  72.855  99.941  1.00  0.00    -0.308 N 
HETATM   29  C10 UNL     1     -39.774  73.947 100.314  1.00  0.00     0.136 C 
ATOM     30  H6  UNL     1     -40.148  72.424  99.040  1.00  0.00     0.186 HD
BRANCH  29  31
HETATM   31  C11 UNL     1     -38.806  74.541  99.392  1.00  0.00     0.049 A 
HETATM   32  C12 UNL     1     -39.094  75.778  98.834  1.00  0.00     0.034 A 
HETATM   33  C13 UNL     1     -38.187  76.340  97.966  1.00  0.00     0.041 A 
HETATM   34  C14 UNL     1     -37.009  75.652  97.674  1.00  0.00     0.096 A 
HETATM   35  C15 UNL     1     -36.756  74.435  98.241  1.00  0.00     0.111 A 
HETATM   36  N10 UNL     1     -37.653  73.907  99.083  1.00  0.00    -0.350 N 
ATOM     37  H10 UNL     1     -37.461  72.998  99.504  1.00  0.00     0.166 HD
BRANCH  34  38
HETATM   38  O2  UNL     1     -36.054  76.174  96.801  1.00  0.00    -0.358 OA
ATOM     39  H2  UNL     1     -35.173  75.820  96.757  1.00  0.00     0.217 HD
ENDBRANCH  34  38
BRANCH  35  40
HETATM   40  C16 UNL     1     -35.545  73.698  97.956  1.00  0.00     0.143 C 
HETATM   41  N7  UNL     1     -35.636  72.593  97.274  1.00  0.00    -0.383 N 
ATOM     42  H72 UNL     1     -36.549  72.267  96.956  1.00  0.00     0.157 HD
ATOM     43  H71 UNL     1     -34.782  72.073  97.073  1.00  0.00     0.157 HD
BRANCH  40  44
HETATM   44  N8  UNL     1     -34.281  74.151  98.397  1.00  0.00    -0.291 N 
ATOM     45  H8  UNL     1     -33.882  73.764  99.252  1.00  0.00     0.188 HD
BRANCH  44  46
HETATM   46  N9  UNL     1     -33.574  75.109  97.691  1.00  0.00    -0.344 N 
ATOM     47  H92 UNL     1     -33.887  75.347  96.750  1.00  0.00     0.176 HD
ATOM     48  H91 UNL     1     -32.760  75.572  98.096  1.00  0.00     0.176 HD
ENDBRANCH  44  46
ENDBRANCH  40  44
ENDBRANCH  35  40
ENDBRANCH  29  31
ENDBRANCH  26  28
ENDBRANCH   1  26
BRANCH   2  49
HETATM   49  N4  UNL     1     -41.575  68.705 101.394  1.00  0.00    -0.344 N 
ATOM     50  H42 UNL     1     -40.901  68.154 100.862  1.00  0.00     0.176 HD
ATOM     51  H41 UNL     1     -42.353  68.209 101.828  1.00  0.00     0.176 HD
ENDBRANCH   2  49
TORSDOF 15
ENDMDL
MODEL 4
REMARK VINA RESULT: -8.688714625      1.490      2.046
REMARK  15 active torsions:
REMARK  status: ('A' for Active; 'I' for Inactive)
REMARK    1  A    between atoms: O1_2  and  C2_3 
REMARK    2  A    between atoms: C5_6  and  C6_7 
REMARK    3  A    between atoms: C7_12  and  S1_13 
REMARK    4  A    between atoms: S1_13  and  C8_14 
REMARK    5  A    between atoms: C8_14  and  C9_15 
REMARK    6  A    between atoms: C9_15  and  N5_21 
REMARK    7  A    between atoms: N3_16  and  N4_18 
REMARK    8  A    between atoms: N5_21  and  N6_23 
REMARK    9  A    between atoms: C10_25  and  C11_26 
REMARK   10  A    between atoms: C14_29  and  O2_30 
REMARK   11  A    between atoms: C15_32  and  C16_33 
REMARK   12  A    between atoms: C16_33  and  N8_37 
REMARK   13  A    between atoms: N8_37  and  N9_39 
REMARK   14  A    between atoms: N11_44  and  N12_45 
REMARK   15  A    between atoms: C18_49  and  O3_50 
ROOT
HETATM    1  C9  UNL     1     -39.326  71.585 102.105  1.00  0.00     0.119 C 
HETATM    2  N3  UNL     1     -38.434  72.030 102.890  1.00  0.00    -0.294 N 
ATOM      3  H3  UNL     1     -37.512  72.192 102.487  1.00  0.00     0.187 HD
ENDROOT
BRANCH   1   4
HETATM    4  C8  UNL     1     -40.732  71.276 102.467  1.00  0.00     0.161 C 
BRANCH   4   5
HETATM    5  S1  UNL     1     -41.711  71.346 100.941  1.00  0.00    -0.083 SA
BRANCH   5   6
HETATM    6  C7  UNL     1     -42.401  72.980 100.777  1.00  0.00     0.182 A 
HETATM    7  N2  UNL     1     -42.061  73.928  99.928  1.00  0.00    -0.277 N 
HETATM    8  N1  UNL     1     -42.817  74.974 100.140  1.00  0.00    -0.281 N 
ATOM      9  H2  UNL     1     -41.329  73.858  99.222  1.00  0.00     0.189 HD
HETATM   10  C6  UNL     1     -43.694  74.735 101.157  1.00  0.00     0.154 A 
ATOM     11  H1  UNL     1     -42.758  75.848  99.618  1.00  0.00     0.188 HD
HETATM   12  N11 UNL     1     -43.419  73.483 101.543  1.00  0.00    -0.221 N 
BRANCH  10  13
HETATM   13  C5  UNL     1     -44.676  75.668 101.659  1.00  0.00     0.014 A 
HETATM   14  C4  UNL     1     -44.243  76.888 102.166  1.00  0.00     0.018 A 
HETATM   15  C3  UNL     1     -45.165  77.813 102.657  1.00  0.00     0.040 A 
HETATM   16  C2  UNL     1     -46.514  77.550 102.658  1.00  0.00     0.101 A 
HETATM   17  C18 UNL     1     -46.913  76.334 102.151  1.00  0.00     0.102 A 
HETATM   18  C17 UNL     1     -46.006  75.403 101.657  1.00  0.00     0.055 A 
BRANCH  16  19
HETATM   19  O1  UNL     1     -47.389  78.478 103.148  1.00  0.00    -0.353 OA
HETATM   20  C1  UNL     1     -47.346  79.078 104.398  1.00  0.00     0.210 C 
ENDBRANCH  16  19
BRANCH  17  21
HETATM   21  O3  UNL     1     -48.250  76.026 102.130  1.00  0.00    -0.353 OA
HETATM   22  C19 UNL     1     -48.734  74.746 101.764  1.00  0.00     0.210 C 
ENDBRANCH  17  21
ENDBRANCH  10  13
BRANCH  12  23
HETATM   23  N12 UNL     1     -44.007  72.715 102.546  1.00  0.00    -0.335 N 
ATOM     24 2H12 UNL     1     -43.688  72.782 103.513  1.00  0.00     0.177 HD
ATOM     25 1H12 UNL     1     -44.768  72.038 102.484  1.00  0.00     0.177 HD
ENDBRANCH  12  23
ENDBRANCH   5   6
ENDBRANCH   4   5
ENDBRANCH   1   4
BRANCH   1  26
HETATM   26  N5  UNL     1     -38.962  71.352 100.742  1.00  0.00    -0.288 N 
ATOM     27  H5  UNL     1     -39.270  70.520 100.238  1.00  0.00     0.188 HD
BRANCH  26  28
HETATM   28  N6  UNL     1     -38.161  72.327 100.135  1.00  0.00    -0.308 N 
HETATM   29  C10 UNL     1     -37.229  71.917  99.340  1.00  0.00     0.136 C 
ATOM     30  H6  UNL     1     -38.308  73.320 100.314  1.00  0.00     0.186 HD
BRANCH  29  31
HETATM   31  C11 UNL     1     -36.391  72.935  98.706  1.00  0.00     0.049 A 
HETATM   32  C12 UNL     1     -35.027  72.923  98.959  1.00  0.00     0.034 A 
HETATM   33  C13 UNL     1     -34.235  73.878  98.365  1.00  0.00     0.041 A 
HETATM   34  C14 UNL     1     -34.825  74.827  97.530  1.00  0.00     0.096 A 
HETATM   35  C15 UNL     1     -36.173  74.809  97.302  1.00  0.00     0.111 A 
HETATM   36  N10 UNL     1     -36.924  73.870  97.890  1.00  0.00    -0.350 N 
ATOM     37  H10 UNL     1     -37.929  73.861  97.718  1.00  0.00     0.166 HD
BRANCH  34  38
HETATM   38  O2  UNL     1     -34.072  75.818  96.901  1.00  0.00    -0.358 OA
ATOM     39  H2  UNL     1     -34.013  76.698  97.254  1.00  0.00     0.217 HD
ENDBRANCH  34  38
BRANCH  35  40
HETATM   40  C16 UNL     1     -36.812  75.780  96.442  1.00  0.00     0.143 C 
HETATM   41  N7  UNL     1     -37.799  76.480  96.922  1.00  0.00    -0.383 N 
ATOM     42  H72 UNL     1     -38.104  76.335  97.884  1.00  0.00     0.157 HD
ATOM     43  H71 UNL     1     -38.251  77.165  96.316  1.00  0.00     0.157 HD
BRANCH  40  44
HETATM   44  N8  UNL     1     -36.390  75.981  95.108  1.00  0.00    -0.291 N 
ATOM     45  H8  UNL     1     -36.400  75.197  94.457  1.00  0.00     0.188 HD
BRANCH  44  46
HETATM   46  N9  UNL     1     -35.963  77.223  94.669  1.00  0.00    -0.344 N 
ATOM     47  H92 UNL     1     -36.600  78.015  94.761  1.00  0.00     0.176 HD
ATOM     48  H91 UNL     1     -35.036  77.351  94.262  1.00  0.00     0.176 HD
ENDBRANCH  44  46
ENDBRANCH  40  44
ENDBRANCH  35  40
ENDBRANCH  29  31
ENDBRANCH  26  28
ENDBRANCH   1  26
BRANCH   2  49
HETATM   49  N4  UNL     1     -38.577  72.318 104.229  1.00  0.00    -0.344 N 
ATOM     50  H42 UNL     1     -38.380  71.545 104.865  1.00  0.00     0.176 HD
ATOM     51  H41 UNL     1     -38.856  73.208 104.641  1.00  0.00     0.176 HD
ENDBRANCH   2  49
TORSDOF 15
ENDMDL
MODEL 5
REMARK VINA RESULT: -8.664241556      2.226      2.748
REMARK  15 active torsions:
REMARK  status: ('A' for Active; 'I' for Inactive)
REMARK    1  A    between atoms: O1_2  and  C2_3 
REMARK    2  A    between atoms: C5_6  and  C6_7 
REMARK    3  A    between atoms: C7_12  and  S1_13 
REMARK    4  A    between atoms: S1_13  and  C8_14 
REMARK    5  A    between atoms: C8_14  and  C9_15 
REMARK    6  A    between atoms: C9_15  and  N5_21 
REMARK    7  A    between atoms: N3_16  and  N4_18 
REMARK    8  A    between atoms: N5_21  and  N6_23 
REMARK    9  A    between atoms: C10_25  and  C11_26 
REMARK   10  A    between atoms: C14_29  and  O2_30 
REMARK   11  A    between atoms: C15_32  and  C16_33 
REMARK   12  A    between atoms: C16_33  and  N8_37 
REMARK   13  A    between atoms: N8_37  and  N9_39 
REMARK   14  A    between atoms: N11_44  and  N12_45 
REMARK   15  A    between atoms: C18_49  and  O3_50 
ROOT
HETATM    1  C9  UNL     1     -41.852  71.099 100.761  1.00  0.00     0.119 C 
HETATM    2  N3  UNL     1     -41.735  70.376 101.796  1.00  0.00    -0.294 N 
ATOM      3  H3  UNL     1     -41.425  70.845 102.647  1.00  0.00     0.187 HD
ENDROOT
BRANCH   1   4
HETATM    4  C8  UNL     1     -42.285  70.638  99.418  1.00  0.00     0.161 C 
BRANCH   4   5
HETATM    5  S1  UNL     1     -44.081  70.383  99.486  1.00  0.00    -0.083 SA
BRANCH   5   6
HETATM    6  C7  UNL     1     -44.887  71.972  99.474  1.00  0.00     0.182 A 
HETATM    7  N2  UNL     1     -45.234  72.702  98.434  1.00  0.00    -0.277 N 
HETATM    8  N1  UNL     1     -45.801  73.799  98.861  1.00  0.00    -0.281 N 
ATOM      9  H2  UNL     1     -45.084  72.453  97.456  1.00  0.00     0.189 HD
HETATM   10  C6  UNL     1     -45.845  73.819 100.224  1.00  0.00     0.154 A 
ATOM     11  H1  UNL     1     -46.162  74.539  98.259  1.00  0.00     0.188 HD
HETATM   12  N11 UNL     1     -45.267  72.667 100.590  1.00  0.00    -0.221 N 
BRANCH  10  13
HETATM   13  C5  UNL     1     -46.402  74.877 101.034  1.00  0.00     0.014 A 
HETATM   14  C4  UNL     1     -45.575  75.924 101.429  1.00  0.00     0.018 A 
HETATM   15  C3  UNL     1     -46.081  76.963 102.211  1.00  0.00     0.040 A 
HETATM   16  C2  UNL     1     -47.396  76.984 102.612  1.00  0.00     0.101 A 
HETATM   17  C18 UNL     1     -48.190  75.935 102.207  1.00  0.00     0.102 A 
HETATM   18  C17 UNL     1     -47.699  74.893 101.427  1.00  0.00     0.055 A 
BRANCH  16  19
HETATM   19  O1  UNL     1     -47.858  78.017 103.378  1.00  0.00    -0.353 OA
HETATM   20  C1  UNL     1     -47.091  78.945 104.067  1.00  0.00     0.210 C 
ENDBRANCH  16  19
BRANCH  17  21
HETATM   21  O3  UNL     1     -49.509  75.912 102.583  1.00  0.00    -0.353 OA
HETATM   22  C19 UNL     1     -50.375  74.837 102.267  1.00  0.00     0.210 C 
ENDBRANCH  17  21
ENDBRANCH  10  13
BRANCH  12  23
HETATM   23  N12 UNL     1     -45.038  72.156 101.866  1.00  0.00    -0.335 N 
ATOM     24 2H12 UNL     1     -44.622  72.735 102.596  1.00  0.00     0.177 HD
ATOM     25 1H12 UNL     1     -45.228  71.225 102.236  1.00  0.00     0.177 HD
ENDBRANCH  12  23
ENDBRANCH   5   6
ENDBRANCH   4   5
ENDBRANCH   1   4
BRANCH   1  26
HETATM   26  N5  UNL     1     -41.541  72.490 100.877  1.00  0.00    -0.288 N 
ATOM     27  H5  UNL     1     -42.098  73.119 101.456  1.00  0.00     0.188 HD
BRANCH  26  28
HETATM   28  N6  UNL     1     -40.432  72.943 100.153  1.00  0.00    -0.308 N 
HETATM   29  C10 UNL     1     -39.290  72.946 100.758  1.00  0.00     0.136 C 
ATOM     30  H6  UNL     1     -40.522  73.258  99.187  1.00  0.00     0.186 HD
BRANCH  29  31
HETATM   31  C11 UNL     1     -38.131  73.420 100.002  1.00  0.00     0.049 A 
HETATM   32  C12 UNL     1     -36.870  72.978 100.375  1.00  0.00     0.034 A 
HETATM   33  C13 UNL     1     -35.777  73.422  99.668  1.00  0.00     0.041 A 
HETATM   34  C14 UNL     1     -35.968  74.299  98.601  1.00  0.00     0.096 A 
HETATM   35  C15 UNL     1     -37.224  74.715  98.260  1.00  0.00     0.111 A 
HETATM   36  N10 UNL     1     -38.274  74.271  98.962  1.00  0.00    -0.350 N 
ATOM     37  H10 UNL     1     -39.210  74.583  98.705  1.00  0.00     0.166 HD
BRANCH  34  38
HETATM   38  O2  UNL     1     -34.897  74.782  97.848  1.00  0.00    -0.358 OA
ATOM     39  H2  UNL     1     -34.927  74.808  96.899  1.00  0.00     0.217 HD
ENDBRANCH  34  38
BRANCH  35  40
HETATM   40  C16 UNL     1     -37.453  75.625  97.160  1.00  0.00     0.143 C 
HETATM   41  N7  UNL     1     -38.159  76.698  97.377  1.00  0.00    -0.383 N 
ATOM     42  H72 UNL     1     -38.536  76.877  98.308  1.00  0.00     0.157 HD
ATOM     43  H71 UNL     1     -38.321  77.340  96.602  1.00  0.00     0.157 HD
BRANCH  40  44
HETATM   44  N8  UNL     1     -36.931  75.377  95.870  1.00  0.00    -0.291 N 
ATOM     45  H8  UNL     1     -37.224  74.541  95.365  1.00  0.00     0.188 HD
BRANCH  44  46
HETATM   46  N9  UNL     1     -36.029  76.246  95.280  1.00  0.00    -0.344 N 
ATOM     47  H92 UNL     1     -35.118  76.372  95.722  1.00  0.00     0.176 HD
ATOM     48  H91 UNL     1     -36.262  76.751  94.425  1.00  0.00     0.176 HD
ENDBRANCH  44  46
ENDBRANCH  40  44
ENDBRANCH  35  40
ENDBRANCH  29  31
ENDBRANCH  26  28
ENDBRANCH   1  26
BRANCH   2  49
HETATM   49  N4  UNL     1     -41.982  69.025 101.896  1.00  0.00    -0.344 N 
ATOM     50  H42 UNL     1     -41.231  68.419 101.566  1.00  0.00     0.176 HD
ATOM     51  H41 UNL     1     -42.824  68.579 102.259  1.00  0.00     0.176 HD
ENDBRANCH   2  49
TORSDOF 15
ENDMDL
