MODEL 1
REMARK VINA RESULT: -8.868295789      0.000      0.000
REMARK  12 active torsions:
REMARK  status: ('A' for Active; 'I' for Inactive)
REMARK    1  A    between atoms: C2_2  and  C3_4 
REMARK    2  A    between atoms: N1_6  and  N2_7 
REMARK    3  A    between atoms: N2_7  and  C5_9 
REMARK    4  A    between atoms: C9_13  and  C10_14 
REMARK    5  A    between atoms: C10_14  and  S1_15 
REMARK    6  A    between atoms: S1_15  and  C11_16 
REMARK    7  A    between atoms: C11_16  and  C12_17 
REMARK    8  A    between atoms: C12_17  and  N3_18 
REMARK    9  A    between atoms: C12_17  and  C14_22 
REMARK   10  A    between atoms: C17_30  and  N7_31 
REMARK   11  A    between atoms: N9_37  and  N10_38 
REMARK   12  A    between atoms: C20_45  and  N12_46 
ROOT
HETATM    1  N3  UNL     1     -43.167  72.662 101.199  1.00  0.00    -0.317 N 
ATOM      2  H3  UNL     1     -43.186  71.806 100.645  1.00  0.00     0.172 HD
HETATM    3  C13 UNL     1     -43.108  72.491 102.563  1.00  0.00     0.178 C 
HETATM    4  N4  UNL     1     -43.019  72.346 103.684  1.00  0.00    -0.172 NA
ENDROOT
BRANCH   1   5
HETATM    5  C12 UNL     1     -43.205  73.874 100.461  1.00  0.00     0.157 C 
BRANCH   5   6
HETATM    6  C11 UNL     1     -41.890  74.554 100.396  1.00  0.00     0.106 C 
BRANCH   6   7
HETATM    7  S1  UNL     1     -40.571  73.467  99.931  1.00  0.00    -0.159 SA
BRANCH   7   8
HETATM    8  C10 UNL     1     -38.994  73.738 100.746  1.00  0.00     0.152 C 
BRANCH   8   9
HETATM    9  C9  UNL     1     -38.009  74.192  99.736  1.00  0.00     0.113 A 
HETATM   10  N1  UNL     1     -36.839  73.666  99.457  1.00  0.00    -0.257 N 
HETATM   11  C4  UNL     1     -36.073  74.191  98.439  1.00  0.00     0.136 A 
HETATM   12  C3  UNL     1     -36.552  75.279  97.717  1.00  0.00     0.070 A 
HETATM   13  C20 UNL     1     -37.775  75.813  98.025  1.00  0.00     0.115 A 
HETATM   14  N11 UNL     1     -38.479  75.272  99.015  1.00  0.00    -0.330 N 
ATOM     15  H11 UNL     1     -39.391  75.665  99.249  1.00  0.00     0.168 HD
BRANCH  10  16
HETATM   16  N2  UNL     1     -36.318  72.635 100.226  1.00  0.00    -0.320 N 
ATOM     17  H2  UNL     1     -35.877  72.903 101.105  1.00  0.00     0.181 HD
BRANCH  16  18
HETATM   18  C5  UNL     1     -36.332  71.227  99.917  1.00  0.00     0.035 C 
HETATM   19  C6  UNL     1     -35.009  70.749  99.425  1.00  0.00     0.039 C 
HETATM   20  C7  UNL     1     -36.774  70.430 101.131  1.00  0.00     0.039 C 
HETATM   21  C8  UNL     1     -37.348  70.900  98.817  1.00  0.00     0.039 C 
ENDBRANCH  16  18
ENDBRANCH  10  16
BRANCH  12  22
HETATM   22  C2  UNL     1     -35.723  75.820  96.649  1.00  0.00     0.160 C 
HETATM   23  C1  UNL     1     -34.275  76.018  96.849  1.00  0.00     0.097 C 
HETATM   24  O1  UNL     1     -36.204  76.142  95.516  1.00  0.00    -0.293 OA
ENDBRANCH  12  22
BRANCH  13  25
HETATM   25  N12 UNL     1     -38.207  76.836  97.336  1.00  0.00    -0.385 N 
ATOM     26 2H12 UNL     1     -37.668  77.696  97.238  1.00  0.00     0.157 HD
ATOM     27 1H12 UNL     1     -39.118  76.773  96.881  1.00  0.00     0.157 HD
ENDBRANCH  13  25
ENDBRANCH   8   9
ENDBRANCH   7   8
ENDBRANCH   6   7
ENDBRANCH   5   6
BRANCH   5  28
HETATM   28  C14 UNL     1     -44.275  74.734 101.046  1.00  0.00     0.105 A 
HETATM   29  N5  UNL     1     -43.920  75.895 101.626  1.00  0.00    -0.346 N 
HETATM   30  C15 UNL     1     -44.841  76.719 102.172  1.00  0.00     0.149 A 
ATOM     31  H5  UNL     1     -42.935  76.158 101.655  1.00  0.00     0.166 HD
HETATM   32  C16 UNL     1     -44.416  77.890 102.744  1.00  0.00     0.290 A 
HETATM   33  C18 UNL     1     -46.174  76.355 102.128  1.00  0.00     0.177 A 
HETATM   34  O2  UNL     1     -43.214  78.230 102.792  1.00  0.00    -0.265 OA
HETATM   35  N6  UNL     1     -45.382  78.676 103.265  1.00  0.00    -0.154 N 
HETATM   36  C17 UNL     1     -46.664  78.334 103.225  1.00  0.00     0.680 A 
ATOM     37  H6  UNL     1     -45.119  79.558 103.703  1.00  0.00     0.187 HD
HETATM   38  N8  UNL     1     -47.102  77.187 102.669  1.00  0.00    -0.172 N 
ATOM     39  H8  UNL     1     -48.094  76.952 102.655  1.00  0.00     0.186 HD
HETATM   40  N9  UNL     1     -46.562  75.192 101.551  1.00  0.00    -0.206 N 
HETATM   41  C19 UNL     1     -45.607  74.409 101.024  1.00  0.00     0.292 A 
HETATM   42  O3  UNL     1     -45.978  73.310 100.480  1.00  0.00    -0.264 OA
BRANCH  36  43
HETATM   43  N7  UNL     1     -47.539  79.129 103.732  1.00  0.00    -0.234 N 
ATOM     44  H72 UNL     1     -47.203  79.965 104.210  1.00  0.00     0.174 HD
ATOM     45  H71 UNL     1     -48.529  78.899 103.644  1.00  0.00     0.174 HD
ENDBRANCH  36  43
BRANCH  40  46
HETATM   46  N10 UNL     1     -47.889  74.799 101.478  1.00  0.00    -0.334 N 
ATOM     47 2H10 UNL     1     -48.463  75.104 100.692  1.00  0.00     0.177 HD
ATOM     48 1H10 UNL     1     -48.330  74.215 102.189  1.00  0.00     0.177 HD
ENDBRANCH  40  46
ENDBRANCH   5  28
ENDBRANCH   1   5
TORSDOF 12
ENDMDL
MODEL 2
REMARK VINA RESULT: -8.863666572      2.588      9.118
REMARK  12 active torsions:
REMARK  status: ('A' for Active; 'I' for Inactive)
REMARK    1  A    between atoms: C2_2  and  C3_4 
REMARK    2  A    between atoms: N1_6  and  N2_7 
REMARK    3  A    between atoms: N2_7  and  C5_9 
REMARK    4  A    between atoms: C9_13  and  C10_14 
REMARK    5  A    between atoms: C10_14  and  S1_15 
REMARK    6  A    between atoms: S1_15  and  C11_16 
REMARK    7  A    between atoms: C11_16  and  C12_17 
REMARK    8  A    between atoms: C12_17  and  N3_18 
REMARK    9  A    between atoms: C12_17  and  C14_22 
REMARK   10  A    between atoms: C17_30  and  N7_31 
REMARK   11  A    between atoms: N9_37  and  N10_38 
REMARK   12  A    between atoms: C20_45  and  N12_46 
ROOT
HETATM    1  N3  UNL     1     -38.573  72.185 102.505  1.00  0.00    -0.317 N 
ATOM      2  H3  UNL     1     -37.825  71.671 102.041  1.00  0.00     0.172 HD
HETATM    3  C13 UNL     1     -38.613  72.073 103.877  1.00  0.00     0.178 C 
HETATM    4  N4  UNL     1     -38.619  72.010 105.008  1.00  0.00    -0.172 NA
ENDROOT
BRANCH   1   5
HETATM    5  C12 UNL     1     -39.437  72.921 101.654  1.00  0.00     0.157 C 
BRANCH   5   6
HETATM    6  C11 UNL     1     -40.460  72.075 100.994  1.00  0.00     0.106 C 
BRANCH   6   7
HETATM    7  S1  UNL     1     -42.069  72.817 100.983  1.00  0.00    -0.159 SA
BRANCH   7   8
HETATM    8  C10 UNL     1     -42.243  74.321 100.018  1.00  0.00     0.152 C 
BRANCH   8   9
HETATM    9  C9  UNL     1     -43.262  75.183 100.662  1.00  0.00     0.113 A 
HETATM   10  N1  UNL     1     -44.561  75.176 100.471  1.00  0.00    -0.257 N 
HETATM   11  C4  UNL     1     -45.370  76.018 101.204  1.00  0.00     0.136 A 
HETATM   12  C3  UNL     1     -44.794  76.871 102.141  1.00  0.00     0.070 A 
HETATM   13  C20 UNL     1     -43.437  76.863 102.323  1.00  0.00     0.115 A 
HETATM   14  N11 UNL     1     -42.698  76.032 101.593  1.00  0.00    -0.330 N 
ATOM     15  H11 UNL     1     -41.686  76.021 101.725  1.00  0.00     0.168 HD
BRANCH  10  16
HETATM   16  N2  UNL     1     -45.133  74.390  99.482  1.00  0.00    -0.320 N 
ATOM     17  H2  UNL     1     -45.055  74.735  98.525  1.00  0.00     0.181 HD
BRANCH  16  18
HETATM   18  C5  UNL     1     -45.827  73.138  99.658  1.00  0.00     0.035 C 
HETATM   19  C6  UNL     1     -45.889  72.730 101.090  1.00  0.00     0.039 C 
HETATM   20  C7  UNL     1     -47.221  73.225  99.062  1.00  0.00     0.039 C 
HETATM   21  C8  UNL     1     -45.130  71.996  98.911  1.00  0.00     0.039 C 
ENDBRANCH  16  18
ENDBRANCH  10  16
BRANCH  12  22
HETATM   22  C2  UNL     1     -45.667  77.755 102.899  1.00  0.00     0.160 C 
HETATM   23  C1  UNL     1     -47.133  77.605 102.829  1.00  0.00     0.097 C 
HETATM   24  O1  UNL     1     -45.211  78.682 103.643  1.00  0.00    -0.293 OA
ENDBRANCH  12  22
BRANCH  13  25
HETATM   25  N12 UNL     1     -42.915  77.672 103.207  1.00  0.00    -0.385 N 
ATOM     26 2H12 UNL     1     -43.144  78.665 103.241  1.00  0.00     0.157 HD
ATOM     27 1H12 UNL     1     -42.254  77.297 103.887  1.00  0.00     0.157 HD
ENDBRANCH  13  25
ENDBRANCH   8   9
ENDBRANCH   7   8
ENDBRANCH   6   7
ENDBRANCH   5   6
BRANCH   5  28
HETATM   28  C14 UNL     1     -38.591  73.673 100.681  1.00  0.00     0.105 A 
HETATM   29  N5  UNL     1     -37.799  72.976  99.846  1.00  0.00    -0.346 N 
HETATM   30  C15 UNL     1     -37.012  73.598  98.941  1.00  0.00     0.149 A 
ATOM     31  H5  UNL     1     -37.793  71.957  99.897  1.00  0.00     0.166 HD
HETATM   32  C16 UNL     1     -36.231  72.832  98.115  1.00  0.00     0.290 A 
HETATM   33  C18 UNL     1     -37.027  74.979  98.879  1.00  0.00     0.177 A 
HETATM   34  O2  UNL     1     -36.207  71.583  98.163  1.00  0.00    -0.265 OA
HETATM   35  N6  UNL     1     -35.472  73.509  97.227  1.00  0.00    -0.154 N 
HETATM   36  C17 UNL     1     -35.483  74.834  97.159  1.00  0.00     0.680 A 
ATOM     37  H6  UNL     1     -34.872  72.986  96.590  1.00  0.00     0.187 HD
HETATM   38  N8  UNL     1     -36.241  75.606  97.963  1.00  0.00    -0.172 N 
ATOM     39  H8  UNL     1     -36.227  76.622  97.888  1.00  0.00     0.186 HD
HETATM   40  N9  UNL     1     -37.814  75.708  99.707  1.00  0.00    -0.206 N 
HETATM   41  C19 UNL     1     -38.577  75.041 100.588  1.00  0.00     0.292 A 
HETATM   42  O3  UNL     1     -39.318  75.733 101.369  1.00  0.00    -0.264 OA
BRANCH  36  43
HETATM   43  N7  UNL     1     -34.743  75.422  96.286  1.00  0.00    -0.234 N 
ATOM     44  H72 UNL     1     -34.416  74.872  95.491  1.00  0.00     0.174 HD
ATOM     45  H71 UNL     1     -34.507  76.405  96.417  1.00  0.00     0.174 HD
ENDBRANCH  36  43
BRANCH  40  46
HETATM   46  N10 UNL     1     -37.864  77.092  99.666  1.00  0.00    -0.334 N 
ATOM     47 2H10 UNL     1     -37.992  77.566  98.772  1.00  0.00     0.177 HD
ATOM     48 1H10 UNL     1     -37.769  77.671 100.500  1.00  0.00     0.177 HD
ENDBRANCH  40  46
ENDBRANCH   5  28
ENDBRANCH   1   5
TORSDOF 12
ENDMDL
MODEL 3
REMARK VINA RESULT: -8.794543698      2.057      3.496
REMARK  12 active torsions:
REMARK  status: ('A' for Active; 'I' for Inactive)
REMARK    1  A    between atoms: C2_2  and  C3_4 
REMARK    2  A    between atoms: N1_6  and  N2_7 
REMARK    3  A    between atoms: N2_7  and  C5_9 
REMARK    4  A    between atoms: C9_13  and  C10_14 
REMARK    5  A    between atoms: C10_14  and  S1_15 
REMARK    6  A    between atoms: S1_15  and  C11_16 
REMARK    7  A    between atoms: C11_16  and  C12_17 
REMARK    8  A    between atoms: C12_17  and  N3_18 
REMARK    9  A    between atoms: C12_17  and  C14_22 
REMARK   10  A    between atoms: C17_30  and  N7_31 
REMARK   11  A    between atoms: N9_37  and  N10_38 
REMARK   12  A    between atoms: C20_45  and  N12_46 
ROOT
HETATM    1  N3  UNL     1     -43.633  72.763 101.288  1.00  0.00    -0.317 N 
ATOM      2  H3  UNL     1     -43.820  71.935 100.724  1.00  0.00     0.172 HD
HETATM    3  C13 UNL     1     -43.329  72.530 102.610  1.00  0.00     0.178 C 
HETATM    4  N4  UNL     1     -43.040  72.332 103.688  1.00  0.00    -0.172 NA
ENDROOT
BRANCH   1   5
HETATM    5  C12 UNL     1     -43.720  74.005 100.608  1.00  0.00     0.157 C 
BRANCH   5   6
HETATM    6  C11 UNL     1     -42.463  74.789 100.668  1.00  0.00     0.106 C 
BRANCH   6   7
HETATM    7  S1  UNL     1     -41.079  73.931  99.971  1.00  0.00    -0.159 SA
BRANCH   7   8
HETATM    8  C10 UNL     1     -39.553  74.868  99.833  1.00  0.00     0.152 C 
BRANCH   8   9
HETATM    9  C9  UNL     1     -38.446  74.056 100.392  1.00  0.00     0.113 A 
HETATM   10  N1  UNL     1     -37.161  74.166 100.146  1.00  0.00    -0.257 N 
HETATM   11  C4  UNL     1     -36.262  73.355 100.803  1.00  0.00     0.136 A 
HETATM   12  C3  UNL     1     -36.731  72.423 101.725  1.00  0.00     0.070 A 
HETATM   13  C20 UNL     1     -38.075  72.325 101.965  1.00  0.00     0.115 A 
HETATM   14  N11 UNL     1     -38.905  73.130 101.307  1.00  0.00    -0.330 N 
ATOM     15  H11 UNL     1     -39.907  73.061 101.483  1.00  0.00     0.168 HD
BRANCH  10  16
HETATM   16  N2  UNL     1     -36.693  75.033  99.169  1.00  0.00    -0.320 N 
ATOM     17  H2  UNL     1     -36.495  75.989  99.467  1.00  0.00     0.181 HD
BRANCH  16  18
HETATM   18  C5  UNL     1     -36.454  74.731  97.780  1.00  0.00     0.035 C 
HETATM   19  C6  UNL     1     -36.976  73.387  97.403  1.00  0.00     0.039 C 
HETATM   20  C7  UNL     1     -37.060  75.810  96.899  1.00  0.00     0.039 C 
HETATM   21  C8  UNL     1     -34.957  74.724  97.453  1.00  0.00     0.039 C 
ENDBRANCH  16  18
ENDBRANCH  10  16
BRANCH  12  22
HETATM   22  C2  UNL     1     -35.763  71.574 102.403  1.00  0.00     0.160 C 
HETATM   23  C1  UNL     1     -34.878  72.127 103.446  1.00  0.00     0.097 C 
HETATM   24  O1  UNL     1     -35.640  70.337 102.130  1.00  0.00    -0.293 OA
ENDBRANCH  12  22
BRANCH  13  25
HETATM   25  N12 UNL     1     -38.497  71.443 102.833  1.00  0.00    -0.385 N 
ATOM     26 2H12 UNL     1     -38.710  71.686 103.800  1.00  0.00     0.157 HD
ATOM     27 1H12 UNL     1     -38.618  70.475 102.532  1.00  0.00     0.157 HD
ENDBRANCH  13  25
ENDBRANCH   8   9
ENDBRANCH   7   8
ENDBRANCH   6   7
ENDBRANCH   5   6
BRANCH   5  28
HETATM   28  C14 UNL     1     -44.894  74.747 101.155  1.00  0.00     0.105 A 
HETATM   29  N5  UNL     1     -44.681  75.934 101.753  1.00  0.00    -0.346 N 
HETATM   30  C15 UNL     1     -45.701  76.656 102.266  1.00  0.00     0.149 A 
ATOM     31  H5  UNL     1     -43.729  76.296 101.820  1.00  0.00     0.166 HD
HETATM   32  C16 UNL     1     -45.420  77.859 102.858  1.00  0.00     0.290 A 
HETATM   33  C18 UNL     1     -46.987  76.157 102.170  1.00  0.00     0.177 A 
HETATM   34  O2  UNL     1     -44.261  78.320 102.954  1.00  0.00    -0.265 OA
HETATM   35  N6  UNL     1     -46.480  78.538 103.345  1.00  0.00    -0.154 N 
HETATM   36  C17 UNL     1     -47.718  78.068 103.254  1.00  0.00     0.680 A 
ATOM     37  H6  UNL     1     -46.325  79.439 103.797  1.00  0.00     0.187 HD
HETATM   38  N8  UNL     1     -48.015  76.887 102.678  1.00  0.00    -0.172 N 
ATOM     39  H8  UNL     1     -48.977  76.552 102.625  1.00  0.00     0.186 HD
HETATM   40  N9  UNL     1     -47.232  74.966 101.573  1.00  0.00    -0.206 N 
HETATM   41  C19 UNL     1     -46.183  74.288 101.080  1.00  0.00     0.292 A 
HETATM   42  O3  UNL     1     -46.420  73.162 100.518  1.00  0.00    -0.264 OA
BRANCH  36  43
HETATM   43  N7  UNL     1     -48.688  78.766 103.731  1.00  0.00    -0.234 N 
ATOM     44  H72 UNL     1     -48.688  79.769 103.549  1.00  0.00     0.174 HD
ATOM     45  H71 UNL     1     -49.416  78.299 104.272  1.00  0.00     0.174 HD
ENDBRANCH  36  43
BRANCH  40  46
HETATM   46  N10 UNL     1     -48.509  74.440 101.448  1.00  0.00    -0.334 N 
ATOM     47 2H10 UNL     1     -49.315  75.003 101.720  1.00  0.00     0.177 HD
ATOM     48 1H10 UNL     1     -48.684  73.499 101.098  1.00  0.00     0.177 HD
ENDBRANCH  40  46
ENDBRANCH   5  28
ENDBRANCH   1   5
TORSDOF 12
ENDMDL
MODEL 4
REMARK VINA RESULT: -8.741839822      1.299      1.385
REMARK  12 active torsions:
REMARK  status: ('A' for Active; 'I' for Inactive)
REMARK    1  A    between atoms: C2_2  and  C3_4 
REMARK    2  A    between atoms: N1_6  and  N2_7 
REMARK    3  A    between atoms: N2_7  and  C5_9 
REMARK    4  A    between atoms: C9_13  and  C10_14 
REMARK    5  A    between atoms: C10_14  and  S1_15 
REMARK    6  A    between atoms: S1_15  and  C11_16 
REMARK    7  A    between atoms: C11_16  and  C12_17 
REMARK    8  A    between atoms: C12_17  and  N3_18 
REMARK    9  A    between atoms: C12_17  and  C14_22 
REMARK   10  A    between atoms: C17_30  and  N7_31 
REMARK   11  A    between atoms: N9_37  and  N10_38 
REMARK   12  A    between atoms: C20_45  and  N12_46 
ROOT
HETATM    1  N3  UNL     1     -42.142  71.866 100.870  1.00  0.00    -0.317 N 
ATOM      2  H3  UNL     1     -42.367  71.004 100.373  1.00  0.00     0.172 HD
HETATM    3  C13 UNL     1     -41.868  71.728 102.212  1.00  0.00     0.178 C 
HETATM    4  N4  UNL     1     -41.605  71.606 103.307  1.00  0.00    -0.172 NA
ENDROOT
BRANCH   1   5
HETATM    5  C12 UNL     1     -42.151  73.049 100.087  1.00  0.00     0.157 C 
BRANCH   5   6
HETATM    6  C11 UNL     1     -40.845  73.749 100.078  1.00  0.00     0.106 C 
BRANCH   6   7
HETATM    7  S1  UNL     1     -39.543  72.776  99.373  1.00  0.00    -0.159 SA
BRANCH   7   8
HETATM    8  C10 UNL     1     -37.901  73.036 100.053  1.00  0.00     0.152 C 
BRANCH   8   9
HETATM    9  C9  UNL     1     -37.083  73.762  99.052  1.00  0.00     0.113 A 
HETATM   10  N1  UNL     1     -35.886  73.454  98.613  1.00  0.00    -0.257 N 
HETATM   11  C4  UNL     1     -35.293  74.219  97.632  1.00  0.00     0.136 A 
HETATM   12  C3  UNL     1     -35.977  75.318  97.119  1.00  0.00     0.070 A 
HETATM   13  C20 UNL     1     -37.224  75.622  97.593  1.00  0.00     0.115 A 
HETATM   14  N11 UNL     1     -37.756  74.853  98.539  1.00  0.00    -0.330 N 
ATOM     15  H11 UNL     1     -38.685  75.075  98.896  1.00  0.00     0.168 HD
BRANCH  10  16
HETATM   16  N2  UNL     1     -35.164  72.411  99.177  1.00  0.00    -0.320 N 
ATOM     17  H2  UNL     1     -34.761  72.584 100.098  1.00  0.00     0.181 HD
BRANCH  16  18
HETATM   18  C5  UNL     1     -34.922  71.111  98.604  1.00  0.00     0.035 C 
HETATM   19  C6  UNL     1     -33.600  71.040  97.918  1.00  0.00     0.039 C 
HETATM   20  C7  UNL     1     -35.030  70.039  99.674  1.00  0.00     0.039 C 
HETATM   21  C8  UNL     1     -35.976  70.752  97.552  1.00  0.00     0.039 C 
ENDBRANCH  16  18
ENDBRANCH  10  16
BRANCH  12  22
HETATM   22  C2  UNL     1     -35.329  76.115  96.087  1.00  0.00     0.160 C 
HETATM   23  C1  UNL     1     -33.910  76.497  96.213  1.00  0.00     0.097 C 
HETATM   24  O1  UNL     1     -35.950  76.511  95.049  1.00  0.00    -0.293 OA
ENDBRANCH  12  22
BRANCH  13  25
HETATM   25  N12 UNL     1     -37.850  76.659  97.100  1.00  0.00    -0.385 N 
ATOM     26 2H12 UNL     1     -38.099  76.728  96.114  1.00  0.00     0.157 HD
ATOM     27 1H12 UNL     1     -38.098  77.427  97.724  1.00  0.00     0.157 HD
ENDBRANCH  13  25
ENDBRANCH   8   9
ENDBRANCH   7   8
ENDBRANCH   6   7
ENDBRANCH   5   6
BRANCH   5  28
HETATM   28  C14 UNL     1     -43.269  73.911 100.572  1.00  0.00     0.105 A 
HETATM   29  N5  UNL     1     -42.965  75.062 101.199  1.00  0.00    -0.346 N 
HETATM   30  C15 UNL     1     -43.931  75.888 101.659  1.00  0.00     0.149 A 
ATOM     31  H5  UNL     1     -41.986  75.317 101.329  1.00  0.00     0.166 HD
HETATM   32  C16 UNL     1     -43.558  77.049 102.285  1.00  0.00     0.290 A 
HETATM   33  C18 UNL     1     -45.255  75.535 101.477  1.00  0.00     0.177 A 
HETATM   34  O2  UNL     1     -42.364  77.379 102.457  1.00  0.00    -0.265 OA
HETATM   35  N6  UNL     1     -44.566  77.836 102.716  1.00  0.00    -0.154 N 
HETATM   36  C17 UNL     1     -45.840  77.505 102.542  1.00  0.00     0.680 A 
ATOM     37  H6  UNL     1     -44.342  78.712 103.189  1.00  0.00     0.187 HD
HETATM   38  N8  UNL     1     -46.228  76.369 101.932  1.00  0.00    -0.172 N 
ATOM     39  H8  UNL     1     -47.215  76.142 101.815  1.00  0.00     0.186 HD
HETATM   40  N9  UNL     1     -45.591  74.382 100.850  1.00  0.00    -0.206 N 
HETATM   41  C19 UNL     1     -44.594  73.597 100.412  1.00  0.00     0.292 A 
HETATM   42  O3  UNL     1     -44.916  72.508  99.820  1.00  0.00    -0.264 OA
BRANCH  36  43
HETATM   43  N7  UNL     1     -46.756  78.302 102.969  1.00  0.00    -0.234 N 
ATOM     44  H72 UNL     1     -47.057  78.206 103.938  1.00  0.00     0.174 HD
ATOM     45  H71 UNL     1     -47.150  78.993 102.330  1.00  0.00     0.174 HD
ENDBRANCH  36  43
BRANCH  40  46
HETATM   46  N10 UNL     1     -46.907  74.000 100.639  1.00  0.00    -0.334 N 
ATOM     47 2H10 UNL     1     -47.480  74.515  99.970  1.00  0.00     0.177 HD
ATOM     48 1H10 UNL     1     -47.340  73.222 101.134  1.00  0.00     0.177 HD
ENDBRANCH  40  46
ENDBRANCH   5  28
ENDBRANCH   1   5
TORSDOF 12
ENDMDL
MODEL 5
REMARK VINA RESULT: -8.735149435      1.470      1.878
REMARK  12 active torsions:
REMARK  status: ('A' for Active; 'I' for Inactive)
REMARK    1  A    between atoms: C2_2  and  C3_4 
REMARK    2  A    between atoms: N1_6  and  N2_7 
REMARK    3  A    between atoms: N2_7  and  C5_9 
REMARK    4  A    between atoms: C9_13  and  C10_14 
REMARK    5  A    between atoms: C10_14  and  S1_15 
REMARK    6  A    between atoms: S1_15  and  C11_16 
REMARK    7  A    between atoms: C11_16  and  C12_17 
REMARK    8  A    between atoms: C12_17  and  N3_18 
REMARK    9  A    between atoms: C12_17  and  C14_22 
REMARK   10  A    between atoms: C17_30  and  N7_31 
REMARK   11  A    between atoms: N9_37  and  N10_38 
REMARK   12  A    between atoms: C20_45  and  N12_46 
ROOT
HETATM    1  N3  UNL     1     -43.238  72.385 101.326  1.00  0.00    -0.317 N 
ATOM      2  H3  UNL     1     -43.282  71.484 100.849  1.00  0.00     0.172 HD
HETATM    3  C13 UNL     1     -43.113  72.330 102.696  1.00  0.00     0.178 C 
HETATM    4  N4  UNL     1     -42.970  72.281 103.819  1.00  0.00    -0.172 NA
ENDROOT
BRANCH   1   5
HETATM    5  C12 UNL     1     -43.313  73.529 100.491  1.00  0.00     0.157 C 
BRANCH   5   6
HETATM    6  C11 UNL     1     -42.012  74.224 100.341  1.00  0.00     0.106 C 
BRANCH   6   7
HETATM    7  S1  UNL     1     -40.700  73.139  99.851  1.00  0.00    -0.159 SA
BRANCH   7   8
HETATM    8  C10 UNL     1     -39.353  72.944 101.021  1.00  0.00     0.152 C 
BRANCH   8   9
HETATM    9  C9  UNL     1     -38.070  73.154 100.308  1.00  0.00     0.113 A 
HETATM   10  N1  UNL     1     -36.859  73.165 100.813  1.00  0.00    -0.257 N 
HETATM   11  C4  UNL     1     -35.768  73.322  99.986  1.00  0.00     0.136 A 
HETATM   12  C3  UNL     1     -35.968  73.468  98.616  1.00  0.00     0.070 A 
HETATM   13  C20 UNL     1     -37.240  73.455  98.110  1.00  0.00     0.115 A 
HETATM   14  N11 UNL     1     -38.261  73.300  98.949  1.00  0.00    -0.330 N 
ATOM     15  H11 UNL     1     -39.211  73.288  98.577  1.00  0.00     0.168 HD
BRANCH  10  16
HETATM   16  N2  UNL     1     -36.656  73.104 102.185  1.00  0.00    -0.320 N 
ATOM     17  H2  UNL     1     -36.713  73.987 102.692  1.00  0.00     0.181 HD
BRANCH  16  18
HETATM   18  C5  UNL     1     -36.375  71.928 102.971  1.00  0.00     0.035 C 
HETATM   19  C6  UNL     1     -36.459  70.681 102.160  1.00  0.00     0.039 C 
HETATM   20  C7  UNL     1     -35.010  72.052 103.626  1.00  0.00     0.039 C 
HETATM   21  C8  UNL     1     -37.372  71.766 104.122  1.00  0.00     0.039 C 
ENDBRANCH  16  18
ENDBRANCH  10  16
BRANCH  12  22
HETATM   22  C2  UNL     1     -34.801  73.637  97.761  1.00  0.00     0.160 C 
HETATM   23  C1  UNL     1     -34.243  74.978  97.508  1.00  0.00     0.097 C 
HETATM   24  O1  UNL     1     -34.223  72.650  97.204  1.00  0.00    -0.293 OA
ENDBRANCH  12  22
BRANCH  13  25
HETATM   25  N12 UNL     1     -37.408  73.595  96.822  1.00  0.00    -0.385 N 
ATOM     26 2H12 UNL     1     -36.795  73.149  96.139  1.00  0.00     0.157 HD
ATOM     27 1H12 UNL     1     -38.179  74.172  96.486  1.00  0.00     0.157 HD
ENDBRANCH  13  25
ENDBRANCH   8   9
ENDBRANCH   7   8
ENDBRANCH   6   7
ENDBRANCH   5   6
BRANCH   5  28
HETATM   28  C14 UNL     1     -44.387  74.417 101.024  1.00  0.00     0.105 A 
HETATM   29  N5  UNL     1     -44.031  75.581 101.598  1.00  0.00    -0.346 N 
HETATM   30  C15 UNL     1     -44.957  76.430 102.098  1.00  0.00     0.149 A 
ATOM     31  H5  UNL     1     -43.043  75.828 101.657  1.00  0.00     0.166 HD
HETATM   32  C16 UNL     1     -44.531  77.603 102.665  1.00  0.00     0.290 A 
HETATM   33  C18 UNL     1     -46.293  76.088 102.013  1.00  0.00     0.177 A 
HETATM   34  O2  UNL     1     -43.325  77.924 102.750  1.00  0.00    -0.265 OA
HETATM   35  N6  UNL     1     -45.501  78.413 103.139  1.00  0.00    -0.154 N 
HETATM   36  C17 UNL     1     -46.786  78.093 103.060  1.00  0.00     0.680 A 
ATOM     37  H6  UNL     1     -45.237  79.299 103.573  1.00  0.00     0.187 HD
HETATM   38  N8  UNL     1     -47.225  76.945 102.508  1.00  0.00    -0.172 N 
ATOM     39  H8  UNL     1     -48.220  76.727 102.463  1.00  0.00     0.186 HD
HETATM   40  N9  UNL     1     -46.681  74.923 101.441  1.00  0.00    -0.206 N 
HETATM   41  C19 UNL     1     -45.723  74.114 100.960  1.00  0.00     0.292 A 
HETATM   42  O3  UNL     1     -46.094  73.014 100.422  1.00  0.00    -0.264 OA
BRANCH  36  43
HETATM   43  N7  UNL     1     -47.664  78.911 103.523  1.00  0.00    -0.234 N 
ATOM     44  H72 UNL     1     -47.674  79.862 103.152  1.00  0.00     0.174 HD
ATOM     45  H71 UNL     1     -48.313  78.589 104.241  1.00  0.00     0.174 HD
ENDBRANCH  36  43
BRANCH  40  46
HETATM   46  N10 UNL     1     -48.012  74.551 101.328  1.00  0.00    -0.334 N 
ATOM     47 2H10 UNL     1     -48.744  75.226 101.550  1.00  0.00     0.177 HD
ATOM     48 1H10 UNL     1     -48.300  73.618 101.036  1.00  0.00     0.177 HD
ENDBRANCH  40  46
ENDBRANCH   5  28
ENDBRANCH   1   5
TORSDOF 12
ENDMDL
