MODEL 1
REMARK VINA RESULT: -5.208177603      0.000      0.000
REMARK  2 active torsions:
REMARK  status: ('A' for Active; 'I' for Inactive)
REMARK    1  A    between atoms: C5_5  and  O1_6 
REMARK    2  A    between atoms: C6_8  and  O2_9 
ROOT
HETATM    1  C1  UNL     1      73.606  45.174  53.614  1.00  0.00     0.045 C 
HETATM    2  C2  UNL     1      72.128  45.181  53.325  1.00  0.00     0.059 C 
HETATM    3  C3  UNL     1      71.538  43.813  53.589  1.00  0.00     0.045 C 
HETATM    4  C4  UNL     1      71.365  46.167  54.165  1.00  0.00     0.074 C 
HETATM    5  C5  UNL     1      70.574  46.914  53.082  1.00  0.00     0.176 C 
HETATM    6  C6  UNL     1      71.581  46.837  51.942  1.00  0.00     0.286 C 
HETATM    7  O3  UNL     1      71.931  45.489  52.005  1.00  0.00    -0.349 OA
ENDROOT
BRANCH   5   8
HETATM    8  O1  UNL     1      70.340  48.231  53.454  1.00  0.00    -0.391 OA
ATOM      9  H1  UNL     1      71.107  48.770  53.301  1.00  0.00     0.210 HD
ENDBRANCH   5   8
BRANCH   6  10
HETATM   10  O2  UNL     1      71.058  47.196  50.732  1.00  0.00    -0.369 OA
ATOM     11  H2  UNL     1      70.918  46.460  50.148  1.00  0.00     0.212 HD
ENDBRANCH   6  10
TORSDOF 2
ENDMDL
MODEL 2
REMARK VINA RESULT: -5.136797716      1.990      3.016
REMARK  2 active torsions:
REMARK  status: ('A' for Active; 'I' for Inactive)
REMARK    1  A    between atoms: C5_5  and  O1_6 
REMARK    2  A    between atoms: C6_8  and  O2_9 
ROOT
HETATM    1  C1  UNL     1      73.792  43.636  51.943  1.00  0.00     0.045 C 
HETATM    2  C2  UNL     1      73.241  44.408  53.112  1.00  0.00     0.059 C 
HETATM    3  C3  UNL     1      74.370  45.003  53.924  1.00  0.00     0.045 C 
HETATM    4  C4  UNL     1      72.339  45.539  52.703  1.00  0.00     0.074 C 
HETATM    5  C5  UNL     1      71.111  45.259  53.580  1.00  0.00     0.176 C 
HETATM    6  C6  UNL     1      71.181  43.738  53.626  1.00  0.00     0.286 C 
HETATM    7  O3  UNL     1      72.533  43.556  53.917  1.00  0.00    -0.349 OA
ENDROOT
BRANCH   5   8
HETATM    8  O1  UNL     1      69.946  45.687  52.958  1.00  0.00    -0.391 OA
ATOM      9  H1  UNL     1      69.540  44.981  52.469  1.00  0.00     0.210 HD
ENDBRANCH   5   8
BRANCH   6  10
HETATM   10  O2  UNL     1      70.354  43.186  54.561  1.00  0.00    -0.369 OA
ATOM     11  H2  UNL     1      70.130  42.280  54.379  1.00  0.00     0.212 HD
ENDBRANCH   6  10
TORSDOF 2
ENDMDL
MODEL 3
REMARK VINA RESULT: -5.074056753      0.865      2.270
REMARK  2 active torsions:
REMARK  status: ('A' for Active; 'I' for Inactive)
REMARK    1  A    between atoms: C5_5  and  O1_6 
REMARK    2  A    between atoms: C6_8  and  O2_9 
ROOT
HETATM    1  C1  UNL     1      71.637  43.941  53.546  1.00  0.00     0.045 C 
HETATM    2  C2  UNL     1      72.321  45.243  53.223  1.00  0.00     0.059 C 
HETATM    3  C3  UNL     1      73.765  45.200  53.672  1.00  0.00     0.045 C 
HETATM    4  C4  UNL     1      72.317  45.567  51.755  1.00  0.00     0.074 C 
HETATM    5  C5  UNL     1      71.770  47.001  51.779  1.00  0.00     0.176 C 
HETATM    6  C6  UNL     1      70.847  46.894  52.985  1.00  0.00     0.286 C 
HETATM    7  O3  UNL     1      71.690  46.257  53.894  1.00  0.00    -0.349 OA
ENDROOT
BRANCH   5   8
HETATM    8  O1  UNL     1      71.054  47.281  50.623  1.00  0.00    -0.391 OA
ATOM      9  H1  UNL     1      71.001  48.217  50.472  1.00  0.00     0.210 HD
ENDBRANCH   5   8
BRANCH   6  10
HETATM   10  O2  UNL     1      70.396  48.104  53.431  1.00  0.00    -0.369 OA
ATOM     11  H2  UNL     1      70.019  48.067  54.303  1.00  0.00     0.212 HD
ENDBRANCH   6  10
TORSDOF 2
ENDMDL
MODEL 4
REMARK VINA RESULT: -4.993191635      1.725      2.474
REMARK  2 active torsions:
REMARK  status: ('A' for Active; 'I' for Inactive)
REMARK    1  A    between atoms: C5_5  and  O1_6 
REMARK    2  A    between atoms: C6_8  and  O2_9 
ROOT
HETATM    1  C1  UNL     1      73.854  43.602  51.691  1.00  0.00     0.045 C 
HETATM    2  C2  UNL     1      73.334  44.809  52.426  1.00  0.00     0.059 C 
HETATM    3  C3  UNL     1      74.265  45.170  53.562  1.00  0.00     0.045 C 
HETATM    4  C4  UNL     1      73.202  46.024  51.552  1.00  0.00     0.074 C 
HETATM    5  C5  UNL     1      71.758  46.445  51.860  1.00  0.00     0.176 C 
HETATM    6  C6  UNL     1      71.147  45.072  52.104  1.00  0.00     0.286 C 
HETATM    7  O3  UNL     1      72.103  44.516  52.952  1.00  0.00    -0.349 OA
ENDROOT
BRANCH   5   8
HETATM    8  O1  UNL     1      71.174  47.065  50.764  1.00  0.00    -0.391 OA
ATOM      9  H1  UNL     1      70.939  47.963  50.965  1.00  0.00     0.210 HD
ENDBRANCH   5   8
BRANCH   6  10
HETATM   10  O2  UNL     1      69.902  45.125  52.664  1.00  0.00    -0.369 OA
ATOM     11  H2  UNL     1      69.210  45.271  52.029  1.00  0.00     0.212 HD
ENDBRANCH   6  10
TORSDOF 2
ENDMDL
MODEL 5
REMARK VINA RESULT: -4.954099910      2.330      3.215
REMARK  2 active torsions:
REMARK  status: ('A' for Active; 'I' for Inactive)
REMARK    1  A    between atoms: C5_5  and  O1_6 
REMARK    2  A    between atoms: C6_8  and  O2_9 
ROOT
HETATM    1  C1  UNL     1      73.710  43.585  51.405  1.00  0.00     0.045 C 
HETATM    2  C2  UNL     1      73.749  45.051  51.747  1.00  0.00     0.059 C 
HETATM    3  C3  UNL     1      74.413  45.257  53.090  1.00  0.00     0.045 C 
HETATM    4  C4  UNL     1      74.506  45.874  50.742  1.00  0.00     0.074 C 
HETATM    5  C5  UNL     1      73.485  46.982  50.450  1.00  0.00     0.176 C 
HETATM    6  C6  UNL     1      72.199  46.185  50.622  1.00  0.00     0.286 C 
HETATM    7  O3  UNL     1      72.467  45.527  51.821  1.00  0.00    -0.349 OA
ENDROOT
BRANCH   5   8
HETATM    8  O1  UNL     1      73.615  47.450  49.150  1.00  0.00    -0.391 OA
ATOM      9  H1  UNL     1      73.552  46.739  48.523  1.00  0.00     0.210 HD
ENDBRANCH   5   8
BRANCH   6  10
HETATM   10  O2  UNL     1      71.081  46.968  50.680  1.00  0.00    -0.369 OA
ATOM     11  H2  UNL     1      70.271  46.473  50.622  1.00  0.00     0.212 HD
ENDBRANCH   6  10
TORSDOF 2
ENDMDL
