MODEL 1
REMARK VINA RESULT: -6.271000550      0.000      0.000
REMARK  14 active torsions:
REMARK  status: ('A' for Active; 'I' for Inactive)
REMARK    1  A    between atoms: N1_2  and  C2_4 
REMARK    2  A    between atoms: C2_4  and  O1_5 
REMARK    3  A    between atoms: C2_4  and  C3_7 
REMARK    4  A    between atoms: C3_7  and  C4_8 
REMARK    5  A    between atoms: C3_7  and  C8_12 
REMARK    6  A    between atoms: C4_8  and  C5_9 
REMARK    7  A    between atoms: C8_12  and  C9_13 
REMARK    8  A    between atoms: C9_13  and  O2_14 
REMARK    9  A    between atoms: C9_13  and  N2_16 
REMARK   10  A    between atoms: C13_21  and  C14_22 
REMARK   11  A    between atoms: C14_22  and  N3_23 
REMARK   12  A    between atoms: N3_23  and  C15_26 
REMARK   13  A    between atoms: C15_26  and  O4_27 
REMARK   14  A    between atoms: C15_26  and  C16_29 
ROOT
HETATM    1  N2  UNL     1      49.820  49.198  70.364  1.00  0.00     0.147 N 
HETATM    2  C10 UNL     1      49.390  49.546  71.687  1.00  0.00     0.281 C 
HETATM    3  C11 UNL     1      49.847  50.872  72.188  1.00  0.00     0.056 C 
HETATM    4  C12 UNL     1      49.882  51.956  71.142  1.00  0.00     0.172 C 
HETATM    5  O3  UNL     1      50.188  51.455  69.879  1.00  0.00    -0.356 OA
HETATM    6  C13 UNL     1      49.465  50.346  69.520  1.00  0.00     0.388 C 
ENDROOT
BRANCH   1   7
HETATM    7  C9  UNL     1      51.298  49.117  70.263  1.00  0.00     0.360 C 
BRANCH   7   8
HETATM    8  C8  UNL     1      51.641  47.682  70.653  1.00  0.00     0.077 C 
BRANCH   8   9
HETATM    9  C3  UNL     1      52.891  47.170  69.971  1.00  0.00     0.064 C 
BRANCH   9  10
HETATM   10  C2  UNL     1      52.527  46.146  68.952  1.00  0.00     0.115 C 
BRANCH  10  11
HETATM   11  N1  UNL     1      52.660  44.791  69.249  1.00  0.00    -0.379 N 
HETATM   12  C1  UNL     1      53.359  43.870  68.476  1.00  0.00     0.148 C 
ATOM     13  H1  UNL     1      52.212  44.448  70.099  1.00  0.00     0.160 HD
ENDBRANCH  10  11
BRANCH  10  14
HETATM   14  O1  UNL     1      51.439  46.448  68.134  1.00  0.00    -0.349 OA
ATOM     15  H1  UNL     1      50.622  46.571  68.602  1.00  0.00     0.219 HD
ENDBRANCH  10  14
ENDBRANCH   9  10
BRANCH   9  16
HETATM   16  C4  UNL     1      53.916  46.834  70.959  1.00  0.00     0.017 C 
BRANCH  16  17
HETATM   17  C5  UNL     1      54.645  47.797  71.781  1.00  0.00    -0.014 A 
HETATM   18  C6  UNL     1      55.949  47.161  72.397  1.00  0.00     0.005 A 
HETATM   19  C7  UNL     1      54.930  47.927  73.186  1.00  0.00     0.005 A 
ENDBRANCH  16  17
ENDBRANCH   9  16
ENDBRANCH   8   9
ENDBRANCH   7   8
BRANCH   7  20
HETATM   20  O2  UNL     1      51.558  49.303  68.918  1.00  0.00    -0.368 OA
ATOM     21  H2  UNL     1      52.368  49.790  68.817  1.00  0.00     0.212 HD
ENDBRANCH   7  20
ENDBRANCH   1   7
BRANCH   6  22
HETATM   22  C14 UNL     1      47.989  50.658  69.634  1.00  0.00     0.299 C 
BRANCH  22  23
HETATM   23  N3  UNL     1      47.235  50.002  68.612  1.00  0.00    -0.039 N 
ATOM     24  H32 UNL     1      46.761  50.688  68.026  1.00  0.00     0.280 HD
ATOM     25  H31 UNL     1      47.859  49.584  67.923  1.00  0.00     0.280 HD
BRANCH  23  26
HETATM   26  C15 UNL     1      46.295  49.021  69.096  1.00  0.00     0.369 C 
BRANCH  26  27
HETATM   27  O4  UNL     1      45.005  49.292  68.575  1.00  0.00    -0.365 OA
ATOM     28  H4  UNL     1      44.910  48.888  67.720  1.00  0.00     0.212 HD
ENDBRANCH  26  27
BRANCH  26  29
HETATM   29  C16 UNL     1      46.636  47.633  68.770  1.00  0.00     0.065 A 
HETATM   30  C17 UNL     1      47.833  47.158  68.287  1.00  0.00     0.031 A 
HETATM   31  C18 UNL     1      47.694  45.807  68.139  1.00  0.00     0.019 A 
HETATM   32  C19 UNL     1      46.423  45.463  68.528  1.00  0.00     0.088 A 
HETATM   33  N4  UNL     1      45.804  46.583  68.905  1.00  0.00    -0.366 N 
ATOM     34  H4  UNL     1      44.843  46.637  69.245  1.00  0.00     0.165 HD
ENDBRANCH  26  29
ENDBRANCH  23  26
ENDBRANCH  22  23
ENDBRANCH   6  22
TORSDOF 14
ENDMDL
MODEL 2
REMARK VINA RESULT: -6.108249820      2.729      6.938
REMARK  14 active torsions:
REMARK  status: ('A' for Active; 'I' for Inactive)
REMARK    1  A    between atoms: N1_2  and  C2_4 
REMARK    2  A    between atoms: C2_4  and  O1_5 
REMARK    3  A    between atoms: C2_4  and  C3_7 
REMARK    4  A    between atoms: C3_7  and  C4_8 
REMARK    5  A    between atoms: C3_7  and  C8_12 
REMARK    6  A    between atoms: C4_8  and  C5_9 
REMARK    7  A    between atoms: C8_12  and  C9_13 
REMARK    8  A    between atoms: C9_13  and  O2_14 
REMARK    9  A    between atoms: C9_13  and  N2_16 
REMARK   10  A    between atoms: C13_21  and  C14_22 
REMARK   11  A    between atoms: C14_22  and  N3_23 
REMARK   12  A    between atoms: N3_23  and  C15_26 
REMARK   13  A    between atoms: C15_26  and  O4_27 
REMARK   14  A    between atoms: C15_26  and  C16_29 
ROOT
HETATM    1  N2  UNL     1      49.732  48.137  68.959  1.00  0.00     0.147 N 
HETATM    2  C10 UNL     1      50.589  48.272  70.101  1.00  0.00     0.281 C 
HETATM    3  C11 UNL     1      51.554  47.160  70.321  1.00  0.00     0.056 C 
HETATM    4  C12 UNL     1      52.137  46.581  69.057  1.00  0.00     0.172 C 
HETATM    5  O3  UNL     1      51.238  46.631  67.995  1.00  0.00    -0.356 OA
HETATM    6  C13 UNL     1      50.625  47.847  67.830  1.00  0.00     0.388 C 
ENDROOT
BRANCH   1   7
HETATM    7  C9  UNL     1      48.865  46.938  69.053  1.00  0.00     0.360 C 
BRANCH   7   8
HETATM    8  C8  UNL     1      47.606  47.417  69.770  1.00  0.00     0.077 C 
BRANCH   8   9
HETATM    9  C3  UNL     1      47.351  48.897  69.586  1.00  0.00     0.064 C 
BRANCH   9  10
HETATM   10  C2  UNL     1      47.057  49.526  70.903  1.00  0.00     0.115 C 
BRANCH  10  11
HETATM   11  N1  UNL     1      46.174  48.909  71.788  1.00  0.00    -0.379 N 
HETATM   12  C1  UNL     1      44.882  49.346  72.063  1.00  0.00     0.148 C 
ATOM     13  H1  UNL     1      46.500  48.072  72.271  1.00  0.00     0.160 HD
ENDBRANCH  10  11
BRANCH  10  14
HETATM   14  O1  UNL     1      48.115  50.190  71.522  1.00  0.00    -0.349 OA
ATOM     15  H1  UNL     1      48.974  49.876  71.267  1.00  0.00     0.219 HD
ENDBRANCH  10  14
ENDBRANCH   9  10
BRANCH   9  16
HETATM   16  C4  UNL     1      46.419  49.125  68.482  1.00  0.00     0.017 C 
BRANCH  16  17
HETATM   17  C5  UNL     1      45.345  50.116  68.474  1.00  0.00    -0.014 A 
HETATM   18  C6  UNL     1      45.536  51.165  67.313  1.00  0.00     0.005 A 
HETATM   19  C7  UNL     1      45.259  51.528  68.741  1.00  0.00     0.005 A 
ENDBRANCH  16  17
ENDBRANCH   9  16
ENDBRANCH   8   9
ENDBRANCH   7   8
BRANCH   7  20
HETATM   20  O2  UNL     1      48.559  46.634  67.739  1.00  0.00    -0.368 OA
ATOM     21  H2  UNL     1      48.564  45.691  67.623  1.00  0.00     0.212 HD
ENDBRANCH   7  20
ENDBRANCH   1   7
BRANCH   6  22
HETATM   22  C14 UNL     1      51.682  48.921  67.694  1.00  0.00     0.299 C 
BRANCH  22  23
HETATM   23  N3  UNL     1      51.157  50.096  67.070  1.00  0.00    -0.039 N 
ATOM     24  H32 UNL     1      51.336  50.074  66.066  1.00  0.00     0.280 HD
ATOM     25  H31 UNL     1      50.138  50.071  67.067  1.00  0.00     0.280 HD
BRANCH  23  26
HETATM   26  C15 UNL     1      51.626  51.336  67.636  1.00  0.00     0.369 C 
BRANCH  26  27
HETATM   27  O4  UNL     1      52.281  52.104  66.640  1.00  0.00    -0.365 OA
ATOM     28  H4  UNL     1      51.929  52.986  66.629  1.00  0.00     0.212 HD
ENDBRANCH  26  27
BRANCH  26  29
HETATM   29  C16 UNL     1      50.580  52.168  68.239  1.00  0.00     0.065 A 
HETATM   30  C17 UNL     1      49.343  51.764  68.684  1.00  0.00     0.031 A 
HETATM   31  C18 UNL     1      48.713  52.874  69.172  1.00  0.00     0.019 A 
HETATM   32  C19 UNL     1      49.560  53.945  69.023  1.00  0.00     0.088 A 
HETATM   33  N4  UNL     1      50.680  53.494  68.457  1.00  0.00    -0.366 N 
ATOM     34  H4  UNL     1      51.492  54.066  68.224  1.00  0.00     0.165 HD
ENDBRANCH  26  29
ENDBRANCH  23  26
ENDBRANCH  22  23
ENDBRANCH   6  22
TORSDOF 14
ENDMDL
MODEL 3
REMARK VINA RESULT: -5.990739643      2.558      6.946
REMARK  14 active torsions:
REMARK  status: ('A' for Active; 'I' for Inactive)
REMARK    1  A    between atoms: N1_2  and  C2_4 
REMARK    2  A    between atoms: C2_4  and  O1_5 
REMARK    3  A    between atoms: C2_4  and  C3_7 
REMARK    4  A    between atoms: C3_7  and  C4_8 
REMARK    5  A    between atoms: C3_7  and  C8_12 
REMARK    6  A    between atoms: C4_8  and  C5_9 
REMARK    7  A    between atoms: C8_12  and  C9_13 
REMARK    8  A    between atoms: C9_13  and  O2_14 
REMARK    9  A    between atoms: C9_13  and  N2_16 
REMARK   10  A    between atoms: C13_21  and  C14_22 
REMARK   11  A    between atoms: C14_22  and  N3_23 
REMARK   12  A    between atoms: N3_23  and  C15_26 
REMARK   13  A    between atoms: C15_26  and  O4_27 
REMARK   14  A    between atoms: C15_26  and  C16_29 
ROOT
HETATM    1  N2  UNL     1      49.949  48.372  68.878  1.00  0.00     0.147 N 
HETATM    2  C10 UNL     1      50.909  48.656  69.905  1.00  0.00     0.281 C 
HETATM    3  C11 UNL     1      51.859  47.557  70.226  1.00  0.00     0.056 C 
HETATM    4  C12 UNL     1      52.309  46.753  69.033  1.00  0.00     0.172 C 
HETATM    5  O3  UNL     1      51.319  46.665  68.058  1.00  0.00    -0.356 OA
HETATM    6  C13 UNL     1      50.728  47.861  67.742  1.00  0.00     0.388 C 
ENDROOT
BRANCH   1   7
HETATM    7  C9  UNL     1      49.061  47.242  69.245  1.00  0.00     0.360 C 
BRANCH   7   8
HETATM    8  C8  UNL     1      47.839  47.894  69.886  1.00  0.00     0.077 C 
BRANCH   8   9
HETATM    9  C3  UNL     1      47.084  48.794  68.933  1.00  0.00     0.064 C 
BRANCH   9  10
HETATM   10  C2  UNL     1      47.180  50.208  69.392  1.00  0.00     0.115 C 
BRANCH  10  11
HETATM   11  N1  UNL     1      47.773  50.503  70.619  1.00  0.00    -0.379 N 
HETATM   12  C1  UNL     1      47.279  51.416  71.545  1.00  0.00     0.148 C 
ATOM     13  H1  UNL     1      48.635  50.011  70.856  1.00  0.00     0.160 HD
ENDBRANCH  10  11
BRANCH  10  14
HETATM   14  O1  UNL     1      47.404  51.166  68.404  1.00  0.00    -0.349 OA
ATOM     15  H1  UNL     1      46.620  51.442  67.944  1.00  0.00     0.219 HD
ENDBRANCH  10  14
ENDBRANCH   9  10
BRANCH   9  16
HETATM   16  C4  UNL     1      45.760  48.244  68.645  1.00  0.00     0.017 C 
BRANCH  16  17
HETATM   17  C5  UNL     1      45.163  47.087  69.307  1.00  0.00    -0.014 A 
HETATM   18  C6  UNL     1      45.468  45.753  68.525  1.00  0.00     0.005 A 
HETATM   19  C7  UNL     1      44.104  46.165  68.989  1.00  0.00     0.005 A 
ENDBRANCH  16  17
ENDBRANCH   9  16
ENDBRANCH   8   9
ENDBRANCH   7   8
BRANCH   7  20
HETATM   20  O2  UNL     1      48.701  46.683  68.032  1.00  0.00    -0.368 OA
ATOM     21  H2  UNL     1      49.213  45.897  67.882  1.00  0.00     0.212 HD
ENDBRANCH   7  20
ENDBRANCH   1   7
BRANCH   6  22
HETATM   22  C14 UNL     1      51.798  48.853  67.339  1.00  0.00     0.299 C 
BRANCH  22  23
HETATM   23  N3  UNL     1      51.232  50.114  66.973  1.00  0.00    -0.039 N 
ATOM     24  H32 UNL     1      51.080  50.156  65.966  1.00  0.00     0.280 HD
ATOM     25  H31 UNL     1      50.267  50.177  67.298  1.00  0.00     0.280 HD
BRANCH  23  26
HETATM   26  C15 UNL     1      51.985  51.260  67.415  1.00  0.00     0.369 C 
BRANCH  26  27
HETATM   27  O4  UNL     1      52.416  52.015  66.295  1.00  0.00    -0.365 OA
ATOM     28  H4  UNL     1      52.391  51.476  65.514  1.00  0.00     0.212 HD
ENDBRANCH  26  27
BRANCH  26  29
HETATM   29  C16 UNL     1      51.260  52.159  68.319  1.00  0.00     0.065 A 
HETATM   30  C17 UNL     1      51.590  52.488  69.613  1.00  0.00     0.031 A 
HETATM   31  C18 UNL     1      50.634  53.358  70.057  1.00  0.00     0.019 A 
HETATM   32  C19 UNL     1      49.730  53.554  69.043  1.00  0.00     0.088 A 
HETATM   33  N4  UNL     1      50.129  52.820  68.003  1.00  0.00    -0.366 N 
ATOM     34  H4  UNL     1      49.651  52.766  67.104  1.00  0.00     0.165 HD
ENDBRANCH  26  29
ENDBRANCH  23  26
ENDBRANCH  22  23
ENDBRANCH   6  22
TORSDOF 14
ENDMDL
MODEL 4
REMARK VINA RESULT: -5.947607164      2.567      5.947
REMARK  14 active torsions:
REMARK  status: ('A' for Active; 'I' for Inactive)
REMARK    1  A    between atoms: N1_2  and  C2_4 
REMARK    2  A    between atoms: C2_4  and  O1_5 
REMARK    3  A    between atoms: C2_4  and  C3_7 
REMARK    4  A    between atoms: C3_7  and  C4_8 
REMARK    5  A    between atoms: C3_7  and  C8_12 
REMARK    6  A    between atoms: C4_8  and  C5_9 
REMARK    7  A    between atoms: C8_12  and  C9_13 
REMARK    8  A    between atoms: C9_13  and  O2_14 
REMARK    9  A    between atoms: C9_13  and  N2_16 
REMARK   10  A    between atoms: C13_21  and  C14_22 
REMARK   11  A    between atoms: C14_22  and  N3_23 
REMARK   12  A    between atoms: N3_23  and  C15_26 
REMARK   13  A    between atoms: C15_26  and  O4_27 
REMARK   14  A    between atoms: C15_26  and  C16_29 
ROOT
HETATM    1  N2  UNL     1      49.783  48.798  68.833  1.00  0.00     0.147 N 
HETATM    2  C10 UNL     1      49.796  48.877  70.265  1.00  0.00     0.281 C 
HETATM    3  C11 UNL     1      50.942  48.209  70.941  1.00  0.00     0.056 C 
HETATM    4  C12 UNL     1      52.254  48.329  70.209  1.00  0.00     0.172 C 
HETATM    5  O3  UNL     1      52.081  48.368  68.828  1.00  0.00    -0.356 OA
HETATM    6  C13 UNL     1      51.114  49.243  68.403  1.00  0.00     0.388 C 
ENDROOT
BRANCH   1   7
HETATM    7  C9  UNL     1      49.698  47.396  68.356  1.00  0.00     0.360 C 
BRANCH   7   8
HETATM    8  C8  UNL     1      48.236  47.201  67.966  1.00  0.00     0.077 C 
BRANCH   8   9
HETATM    9  C3  UNL     1      47.449  46.429  69.001  1.00  0.00     0.064 C 
BRANCH   9  10
HETATM   10  C2  UNL     1      46.776  45.264  68.360  1.00  0.00     0.115 C 
BRANCH  10  11
HETATM   11  N1  UNL     1      47.301  43.983  68.519  1.00  0.00    -0.379 N 
HETATM   12  C1  UNL     1      47.645  43.126  67.479  1.00  0.00     0.148 C 
ATOM     13  H1  UNL     1      47.444  43.648  69.472  1.00  0.00     0.160 HD
ENDBRANCH  10  11
BRANCH  10  14
HETATM   14  O1  UNL     1      45.383  45.309  68.303  1.00  0.00    -0.349 OA
ATOM     15  H1  UNL     1      45.017  46.179  68.404  1.00  0.00     0.219 HD
ENDBRANCH  10  14
ENDBRANCH   9  10
BRANCH   9  16
HETATM   16  C4  UNL     1      46.641  47.336  69.816  1.00  0.00     0.017 C 
BRANCH  16  17
HETATM   17  C5  UNL     1      46.263  48.697  69.444  1.00  0.00    -0.014 A 
HETATM   18  C6  UNL     1      44.823  49.062  69.968  1.00  0.00     0.005 A 
HETATM   19  C7  UNL     1      45.287  49.278  68.559  1.00  0.00     0.005 A 
ENDBRANCH  16  17
ENDBRANCH   9  16
ENDBRANCH   8   9
ENDBRANCH   7   8
BRANCH   7  20
HETATM   20  O2  UNL     1      50.485  47.375  67.218  1.00  0.00    -0.368 OA
ATOM     21  H2  UNL     1      50.636  46.475  66.955  1.00  0.00     0.212 HD
ENDBRANCH   7  20
ENDBRANCH   1   7
BRANCH   6  22
HETATM   22  C14 UNL     1      51.419  50.622  68.948  1.00  0.00     0.299 C 
BRANCH  22  23
HETATM   23  N3  UNL     1      50.846  51.646  68.132  1.00  0.00    -0.039 N 
ATOM     24  H32 UNL     1      51.507  51.937  67.412  1.00  0.00     0.280 HD
ATOM     25  H31 UNL     1      50.107  51.260  67.545  1.00  0.00     0.280 HD
BRANCH  23  26
HETATM   26  C15 UNL     1      50.361  52.792  68.860  1.00  0.00     0.369 C 
BRANCH  26  27
HETATM   27  O4  UNL     1      50.029  53.832  67.956  1.00  0.00    -0.365 OA
ATOM     28  H4  UNL     1      50.110  53.521  67.062  1.00  0.00     0.212 HD
ENDBRANCH  26  27
BRANCH  26  29
HETATM   29  C16 UNL     1      49.190  52.530  69.703  1.00  0.00     0.065 A 
HETATM   30  C17 UNL     1      47.918  52.206  69.290  1.00  0.00     0.031 A 
HETATM   31  C18 UNL     1      47.163  52.048  70.418  1.00  0.00     0.019 A 
HETATM   32  C19 UNL     1      47.968  52.275  71.507  1.00  0.00     0.088 A 
HETATM   33  N4  UNL     1      49.187  52.565  71.049  1.00  0.00    -0.366 N 
ATOM     34  H4  UNL     1      49.997  52.780  71.631  1.00  0.00     0.165 HD
ENDBRANCH  26  29
ENDBRANCH  23  26
ENDBRANCH  22  23
ENDBRANCH   6  22
TORSDOF 14
ENDMDL
MODEL 5
REMARK VINA RESULT: -5.917325688      2.220      7.325
REMARK  14 active torsions:
REMARK  status: ('A' for Active; 'I' for Inactive)
REMARK    1  A    between atoms: N1_2  and  C2_4 
REMARK    2  A    between atoms: C2_4  and  O1_5 
REMARK    3  A    between atoms: C2_4  and  C3_7 
REMARK    4  A    between atoms: C3_7  and  C4_8 
REMARK    5  A    between atoms: C3_7  and  C8_12 
REMARK    6  A    between atoms: C4_8  and  C5_9 
REMARK    7  A    between atoms: C8_12  and  C9_13 
REMARK    8  A    between atoms: C9_13  and  O2_14 
REMARK    9  A    between atoms: C9_13  and  N2_16 
REMARK   10  A    between atoms: C13_21  and  C14_22 
REMARK   11  A    between atoms: C14_22  and  N3_23 
REMARK   12  A    between atoms: N3_23  and  C15_26 
REMARK   13  A    between atoms: C15_26  and  O4_27 
REMARK   14  A    between atoms: C15_26  and  C16_29 
ROOT
HETATM    1  N2  UNL     1      50.128  48.105  70.283  1.00  0.00     0.147 N 
HETATM    2  C10 UNL     1      50.488  47.501  69.034  1.00  0.00     0.281 C 
HETATM    3  C11 UNL     1      50.477  48.405  67.851  1.00  0.00     0.056 C 
HETATM    4  C12 UNL     1      50.959  49.805  68.130  1.00  0.00     0.172 C 
HETATM    5  O3  UNL     1      50.652  50.216  69.425  1.00  0.00    -0.356 OA
HETATM    6  C13 UNL     1      50.970  49.304  70.399  1.00  0.00     0.388 C 
ENDROOT
BRANCH   1   7
HETATM    7  C9  UNL     1      48.743  48.636  70.265  1.00  0.00     0.360 C 
BRANCH   7   8
HETATM    8  C8  UNL     1      47.850  47.413  70.452  1.00  0.00     0.077 C 
BRANCH   8   9
HETATM    9  C3  UNL     1      46.748  47.326  69.420  1.00  0.00     0.064 C 
BRANCH   9  10
HETATM   10  C2  UNL     1      46.765  45.982  68.776  1.00  0.00     0.115 C 
BRANCH  10  11
HETATM   11  N1  UNL     1      45.567  45.372  68.407  1.00  0.00    -0.379 N 
HETATM   12  C1  UNL     1      44.300  45.814  68.773  1.00  0.00     0.148 C 
ATOM     13  H1  UNL     1      45.624  44.538  67.823  1.00  0.00     0.160 HD
ENDBRANCH  10  11
BRANCH  10  14
HETATM   14  O1  UNL     1      47.828  45.724  67.911  1.00  0.00    -0.349 OA
ATOM     15  H1  UNL     1      48.685  45.881  68.290  1.00  0.00     0.219 HD
ENDBRANCH  10  14
ENDBRANCH   9  10
BRANCH   9  16
HETATM   16  C4  UNL     1      46.752  48.510  68.560  1.00  0.00     0.017 C 
BRANCH  16  17
HETATM   17  C5  UNL     1      45.649  49.457  68.421  1.00  0.00    -0.014 A 
HETATM   18  C6  UNL     1      46.140  50.945  68.588  1.00  0.00     0.005 A 
HETATM   19  C7  UNL     1      44.963  50.360  69.308  1.00  0.00     0.005 A 
ENDBRANCH  16  17
ENDBRANCH   9  16
ENDBRANCH   8   9
ENDBRANCH   7   8
BRANCH   7  20
HETATM   20  O2  UNL     1      48.669  49.437  71.391  1.00  0.00    -0.368 OA
ATOM     21  H2  UNL     1      49.250  50.182  71.287  1.00  0.00     0.212 HD
ENDBRANCH   7  20
ENDBRANCH   1   7
BRANCH   6  22
HETATM   22  C14 UNL     1      52.434  48.941  70.280  1.00  0.00     0.299 C 
BRANCH  22  23
HETATM   23  N3  UNL     1      52.857  48.109  71.363  1.00  0.00    -0.039 N 
ATOM     24  H32 UNL     1      53.178  48.679  72.144  1.00  0.00     0.280 HD
ATOM     25  H31 UNL     1      52.052  47.655  71.796  1.00  0.00     0.280 HD
BRANCH  23  26
HETATM   26  C15 UNL     1      53.855  47.130  71.012  1.00  0.00     0.369 C 
BRANCH  26  27
HETATM   27  O4  UNL     1      54.347  47.389  69.708  1.00  0.00    -0.365 OA
ATOM     28  H4  UNL     1      54.624  46.576  69.301  1.00  0.00     0.212 HD
ENDBRANCH  26  27
BRANCH  26  29
HETATM   29  C16 UNL     1      54.999  47.067  71.928  1.00  0.00     0.065 A 
HETATM   30  C17 UNL     1      55.213  47.831  73.051  1.00  0.00     0.031 A 
HETATM   31  C18 UNL     1      56.400  47.421  73.590  1.00  0.00     0.019 A 
HETATM   32  C19 UNL     1      56.903  46.417  72.800  1.00  0.00     0.088 A 
HETATM   33  N4  UNL     1      56.039  46.221  71.803  1.00  0.00    -0.366 N 
ATOM     34  H4  UNL     1      56.150  45.534  71.057  1.00  0.00     0.165 HD
ENDBRANCH  26  29
ENDBRANCH  23  26
ENDBRANCH  22  23
ENDBRANCH   6  22
TORSDOF 14
ENDMDL
