MODEL 1
REMARK VINA RESULT: -7.107118945      0.000      0.000
REMARK  6 active torsions:
REMARK  status: ('A' for Active; 'I' for Inactive)
REMARK       I    between atoms: C1_4  and  N2_5 
REMARK       I    between atoms: C1_4  and  N4_11 
REMARK    1  A    between atoms: N2_5  and  C2_7 
REMARK    2  A    between atoms: C2_7  and  C3_8 
REMARK    3  A    between atoms: N4_11  and  C4_13 
REMARK    4  A    between atoms: C4_13  and  C5_14 
REMARK       I    between atoms: C5_14  and  N5_16 
REMARK    5  A    between atoms: N5_16  and  N6_18 
REMARK       I    between atoms: N6_18  and  C6_20 
REMARK    6  A    between atoms: C6_20  and  C7_22 
ROOT
HETATM    1  C5  UNL     1     -35.684  59.189  76.354  1.00  0.00     0.254 C 
HETATM    2  O2  UNL     1     -36.602  59.162  77.190  1.00  0.00    -0.270 OA
HETATM    3  N5  UNL     1     -35.928  59.154  74.935  1.00  0.00    -0.266 N 
ATOM      4  H5  UNL     1     -35.171  59.175  74.252  1.00  0.00     0.190 HD
ENDROOT
BRANCH   1   5
HETATM    5  C4  UNL     1     -34.265  59.258  76.795  1.00  0.00     0.242 C 
BRANCH   5   6
HETATM    6  N4  UNL     1     -33.484  58.313  76.049  1.00  0.00    -0.218 N 
HETATM    7  C1  UNL     1     -33.230  56.993  76.523  1.00  0.00     0.668 C 
HETATM    8  N1  UNL     1     -33.510  56.709  77.718  1.00  0.00    -0.235 N 
HETATM    9  N2  UNL     1     -32.668  56.054  75.597  1.00  0.00    -0.218 N 
ATOM     10  H12 UNL     1     -33.328  55.765  78.057  1.00  0.00     0.174 HD
ATOM     11  H11 UNL     1     -33.910  57.377  78.377  1.00  0.00     0.174 HD
ATOM     12  H2  UNL     1     -32.950  56.067  74.616  1.00  0.00     0.178 HD
ATOM     13  H4  UNL     1     -33.096  58.596  75.148  1.00  0.00     0.178 HD
BRANCH   9  14
HETATM   14  C2  UNL     1     -31.697  55.090  76.067  1.00  0.00     0.237 C 
BRANCH  14  15
HETATM   15  C3  UNL     1     -31.008  54.440  74.937  1.00  0.00     0.249 C 
HETATM   16  N3  UNL     1     -30.615  53.088  75.064  1.00  0.00    -0.061 NA
HETATM   17  O1  UNL     1     -30.770  55.065  73.881  1.00  0.00    -0.275 OA
ENDBRANCH  14  15
ENDBRANCH   9  14
ENDBRANCH   5   6
ENDBRANCH   1   5
BRANCH   3  18
HETATM   18  N6  UNL     1     -37.262  59.090  74.558  1.00  0.00    -0.261 N 
HETATM   19  C6  UNL     1     -37.651  59.595  73.299  1.00  0.00     0.306 C 
HETATM   20  O3  UNL     1     -36.771  60.097  72.553  1.00  0.00    -0.262 OA
ATOM     21  H6  UNL     1     -37.955  58.681  75.185  1.00  0.00     0.190 HD
BRANCH  19  22
HETATM   22  C7  UNL     1     -39.022  59.565  72.815  1.00  0.00     0.208 A 
HETATM   23  N7  UNL     1     -39.757  60.566  72.298  1.00  0.00    -0.264 N 
HETATM   24  N8  UNL     1     -40.949  60.085  72.000  1.00  0.00    -0.226 N 
ATOM     25  H7  UNL     1     -39.447  61.527  72.159  1.00  0.00     0.190 HD
HETATM   26  N9  UNL     1     -40.996  58.817  72.310  1.00  0.00    -0.226 N 
ATOM     27  H8  UNL     1     -41.715  60.621  71.593  1.00  0.00     0.210 HD
HETATM   28  N10 UNL     1     -39.810  58.495  72.812  1.00  0.00    -0.264 N 
ATOM     29  H9  UNL     1     -41.793  58.192  72.188  1.00  0.00     0.210 HD
ATOM     30  H10 UNL     1     -39.544  57.568  73.145  1.00  0.00     0.190 HD
ENDBRANCH  19  22
ENDBRANCH   3  18
TORSDOF 6
ENDMDL
MODEL 2
REMARK VINA RESULT: -6.707524011      4.727      7.027
REMARK  6 active torsions:
REMARK  status: ('A' for Active; 'I' for Inactive)
REMARK       I    between atoms: C1_4  and  N2_5 
REMARK       I    between atoms: C1_4  and  N4_11 
REMARK    1  A    between atoms: N2_5  and  C2_7 
REMARK    2  A    between atoms: C2_7  and  C3_8 
REMARK    3  A    between atoms: N4_11  and  C4_13 
REMARK    4  A    between atoms: C4_13  and  C5_14 
REMARK       I    between atoms: C5_14  and  N5_16 
REMARK    5  A    between atoms: N5_16  and  N6_18 
REMARK       I    between atoms: N6_18  and  C6_20 
REMARK    6  A    between atoms: C6_20  and  C7_22 
ROOT
HETATM    1  C5  UNL     1     -31.079  57.615  74.382  1.00  0.00     0.254 C 
HETATM    2  O2  UNL     1     -31.091  56.601  73.665  1.00  0.00    -0.270 OA
HETATM    3  N5  UNL     1     -30.747  58.920  73.871  1.00  0.00    -0.266 N 
ATOM      4  H5  UNL     1     -30.737  59.750  74.464  1.00  0.00     0.190 HD
ENDROOT
BRANCH   1   5
HETATM    5  C4  UNL     1     -31.414  57.520  75.828  1.00  0.00     0.242 C 
BRANCH   5   6
HETATM    6  N4  UNL     1     -32.378  58.528  76.165  1.00  0.00    -0.218 N 
HETATM    7  C1  UNL     1     -33.436  58.290  77.090  1.00  0.00     0.668 C 
HETATM    8  N1  UNL     1     -33.668  57.109  77.462  1.00  0.00    -0.235 N 
HETATM    9  N2  UNL     1     -34.179  59.426  77.551  1.00  0.00    -0.218 N 
ATOM     10  H12 UNL     1     -34.425  56.939  78.124  1.00  0.00     0.174 HD
ATOM     11  H11 UNL     1     -33.139  56.301  77.134  1.00  0.00     0.174 HD
ATOM     12  H2  UNL     1     -33.709  60.315  77.721  1.00  0.00     0.178 HD
ATOM     13  H4  UNL     1     -32.304  59.446  75.727  1.00  0.00     0.178 HD
BRANCH   9  14
HETATM   14  C2  UNL     1     -35.603  59.298  77.773  1.00  0.00     0.237 C 
BRANCH  14  15
HETATM   15  C3  UNL     1     -35.888  58.895  79.163  1.00  0.00     0.249 C 
HETATM   16  N3  UNL     1     -36.261  57.557  79.422  1.00  0.00    -0.061 NA
HETATM   17  O1  UNL     1     -35.804  59.715  80.102  1.00  0.00    -0.275 OA
ENDBRANCH  14  15
ENDBRANCH   9  14
ENDBRANCH   5   6
ENDBRANCH   1   5
BRANCH   3  18
HETATM   18  N6  UNL     1     -30.440  58.974  72.519  1.00  0.00    -0.261 N 
HETATM   19  C6  UNL     1     -31.378  59.520  71.618  1.00  0.00     0.306 C 
HETATM   20  O3  UNL     1     -32.475  59.939  72.069  1.00  0.00    -0.262 OA
ATOM     21  H6  UNL     1     -29.545  58.622  72.180  1.00  0.00     0.190 HD
BRANCH  19  22
HETATM   22  C7  UNL     1     -31.144  59.625  70.186  1.00  0.00     0.208 A 
HETATM   23  N7  UNL     1     -29.976  59.709  69.525  1.00  0.00    -0.264 N 
HETATM   24  N8  UNL     1     -30.242  59.795  68.236  1.00  0.00    -0.226 N 
ATOM     25  H7  UNL     1     -29.048  59.707  69.946  1.00  0.00     0.190 HD
HETATM   26  N9  UNL     1     -31.536  59.768  68.056  1.00  0.00    -0.226 N 
ATOM     27  H8  UNL     1     -29.546  59.872  67.495  1.00  0.00     0.210 HD
HETATM   28  N10 UNL     1     -32.093  59.663  69.256  1.00  0.00    -0.264 N 
ATOM     29  H9  UNL     1     -32.025  59.817  67.162  1.00  0.00     0.210 HD
ATOM     30  H10 UNL     1     -33.096  59.619  69.437  1.00  0.00     0.190 HD
ENDBRANCH  19  22
ENDBRANCH   3  18
TORSDOF 6
ENDMDL
MODEL 3
REMARK VINA RESULT: -6.620763707      3.919      5.178
REMARK  6 active torsions:
REMARK  status: ('A' for Active; 'I' for Inactive)
REMARK       I    between atoms: C1_4  and  N2_5 
REMARK       I    between atoms: C1_4  and  N4_11 
REMARK    1  A    between atoms: N2_5  and  C2_7 
REMARK    2  A    between atoms: C2_7  and  C3_8 
REMARK    3  A    between atoms: N4_11  and  C4_13 
REMARK    4  A    between atoms: C4_13  and  C5_14 
REMARK       I    between atoms: C5_14  and  N5_16 
REMARK    5  A    between atoms: N5_16  and  N6_18 
REMARK       I    between atoms: N6_18  and  C6_20 
REMARK    6  A    between atoms: C6_20  and  C7_22 
ROOT
HETATM    1  C5  UNL     1     -33.935  59.232  73.415  1.00  0.00     0.254 C 
HETATM    2  O2  UNL     1     -35.175  59.307  73.444  1.00  0.00    -0.270 OA
HETATM    3  N5  UNL     1     -33.120  59.438  74.585  1.00  0.00    -0.266 N 
ATOM      4  H5  UNL     1     -32.102  59.377  74.555  1.00  0.00     0.190 HD
ENDROOT
BRANCH   1   5
HETATM    5  C4  UNL     1     -33.229  58.923  72.144  1.00  0.00     0.242 C 
BRANCH   5   6
HETATM    6  N4  UNL     1     -32.365  57.793  72.337  1.00  0.00    -0.218 N 
HETATM    7  C1  UNL     1     -32.869  56.471  72.512  1.00  0.00     0.668 C 
HETATM    8  N1  UNL     1     -34.101  56.310  72.719  1.00  0.00    -0.235 N 
HETATM    9  N2  UNL     1     -31.930  55.391  72.436  1.00  0.00    -0.218 N 
ATOM     10  H12 UNL     1     -34.461  55.364  72.844  1.00  0.00     0.174 HD
ATOM     11  H11 UNL     1     -34.769  57.079  72.773  1.00  0.00     0.174 HD
ATOM     12  H2  UNL     1     -31.157  55.426  71.772  1.00  0.00     0.178 HD
ATOM     13  H4  UNL     1     -31.356  57.942  72.351  1.00  0.00     0.178 HD
BRANCH   9  14
HETATM   14  C2  UNL     1     -32.091  54.250  73.312  1.00  0.00     0.237 C 
BRANCH  14  15
HETATM   15  C3  UNL     1     -31.058  54.241  74.364  1.00  0.00     0.249 C 
HETATM   16  N3  UNL     1     -30.718  53.013  74.975  1.00  0.00    -0.061 NA
HETATM   17  O1  UNL     1     -30.486  55.295  74.716  1.00  0.00    -0.275 OA
ENDBRANCH  14  15
ENDBRANCH   9  14
ENDBRANCH   5   6
ENDBRANCH   1   5
BRANCH   3  18
HETATM   18  N6  UNL     1     -33.810  59.724  75.754  1.00  0.00    -0.261 N 
HETATM   19  C6  UNL     1     -34.070  58.688  76.676  1.00  0.00     0.306 C 
HETATM   20  O3  UNL     1     -33.671  57.526  76.405  1.00  0.00    -0.262 OA
ATOM     21  H6  UNL     1     -34.127  60.675  75.945  1.00  0.00     0.190 HD
BRANCH  19  22
HETATM   22  C7  UNL     1     -34.780  58.893  77.929  1.00  0.00     0.208 A 
HETATM   23  N7  UNL     1     -34.935  60.026  78.637  1.00  0.00    -0.264 N 
HETATM   24  N8  UNL     1     -35.645  59.741  79.711  1.00  0.00    -0.226 N 
ATOM     25  H7  UNL     1     -34.568  60.943  78.387  1.00  0.00     0.190 HD
HETATM   26  N9  UNL     1     -35.946  58.470  79.710  1.00  0.00    -0.226 N 
ATOM     27  H8  UNL     1     -35.916  60.410  80.432  1.00  0.00     0.210 HD
HETATM   28  N10 UNL     1     -35.413  57.946  78.613  1.00  0.00    -0.264 N 
ATOM     29  H9  UNL     1     -36.488  57.974  80.418  1.00  0.00     0.210 HD
ATOM     30  H10 UNL     1     -35.481  56.966  78.337  1.00  0.00     0.190 HD
ENDBRANCH  19  22
ENDBRANCH   3  18
TORSDOF 6
ENDMDL
MODEL 4
REMARK VINA RESULT: -6.563800239      6.442      8.742
REMARK  6 active torsions:
REMARK  status: ('A' for Active; 'I' for Inactive)
REMARK       I    between atoms: C1_4  and  N2_5 
REMARK       I    between atoms: C1_4  and  N4_11 
REMARK    1  A    between atoms: N2_5  and  C2_7 
REMARK    2  A    between atoms: C2_7  and  C3_8 
REMARK    3  A    between atoms: N4_11  and  C4_13 
REMARK    4  A    between atoms: C4_13  and  C5_14 
REMARK       I    between atoms: C5_14  and  N5_16 
REMARK    5  A    between atoms: N5_16  and  N6_18 
REMARK       I    between atoms: N6_18  and  C6_20 
REMARK    6  A    between atoms: C6_20  and  C7_22 
ROOT
HETATM    1  C5  UNL     1     -33.264  51.797  73.458  1.00  0.00     0.254 C 
HETATM    2  O2  UNL     1     -34.082  51.670  74.384  1.00  0.00    -0.270 OA
HETATM    3  N5  UNL     1     -32.466  52.983  73.287  1.00  0.00    -0.266 N 
ATOM      4  H5  UNL     1     -31.797  53.083  72.524  1.00  0.00     0.190 HD
ENDROOT
BRANCH   1   5
HETATM    5  C4  UNL     1     -33.073  50.704  72.467  1.00  0.00     0.242 C 
BRANCH   5   6
HETATM    6  N4  UNL     1     -32.108  49.766  72.967  1.00  0.00    -0.218 N 
HETATM    7  C1  UNL     1     -32.482  48.635  73.750  1.00  0.00     0.668 C 
HETATM    8  N1  UNL     1     -33.656  48.565  74.201  1.00  0.00    -0.235 N 
HETATM    9  N2  UNL     1     -31.485  47.629  73.976  1.00  0.00    -0.218 N 
ATOM     10  H12 UNL     1     -33.922  47.756  74.761  1.00  0.00     0.174 HD
ATOM     11  H11 UNL     1     -34.365  49.281  74.040  1.00  0.00     0.174 HD
ATOM     12  H2  UNL     1     -30.820  47.389  73.241  1.00  0.00     0.178 HD
ATOM     13  H4  UNL     1     -31.121  49.914  72.755  1.00  0.00     0.178 HD
BRANCH   9  14
HETATM   14  C2  UNL     1     -31.433  46.959  75.257  1.00  0.00     0.237 C 
BRANCH  14  15
HETATM   15  C3  UNL     1     -30.570  47.690  76.203  1.00  0.00     0.249 C 
HETATM   16  N3  UNL     1     -30.565  47.303  77.562  1.00  0.00    -0.061 NA
HETATM   17  O1  UNL     1     -29.851  48.638  75.819  1.00  0.00    -0.275 OA
ENDBRANCH  14  15
ENDBRANCH   9  14
ENDBRANCH   5   6
ENDBRANCH   1   5
BRANCH   3  18
HETATM   18  N6  UNL     1     -32.669  53.982  74.228  1.00  0.00    -0.261 N 
HETATM   19  C6  UNL     1     -31.755  54.125  75.293  1.00  0.00     0.306 C 
HETATM   20  O3  UNL     1     -30.780  53.333  75.362  1.00  0.00    -0.262 OA
ATOM     21  H6  UNL     1     -33.471  54.607  74.151  1.00  0.00     0.190 HD
BRANCH  19  22
HETATM   22  C7  UNL     1     -31.880  55.145  76.323  1.00  0.00     0.208 A 
HETATM   23  N7  UNL     1     -32.655  55.146  77.422  1.00  0.00    -0.264 N 
HETATM   24  N8  UNL     1     -32.451  56.279  78.065  1.00  0.00    -0.226 N 
ATOM     25  H7  UNL     1     -33.290  54.401  77.708  1.00  0.00     0.190 HD
HETATM   26  N9  UNL     1     -31.575  56.996  77.414  1.00  0.00    -0.226 N 
ATOM     27  H8  UNL     1     -32.907  56.553  78.935  1.00  0.00     0.210 HD
HETATM   28  N10 UNL     1     -31.222  56.300  76.340  1.00  0.00    -0.264 N 
ATOM     29  H9  UNL     1     -31.227  57.918  77.681  1.00  0.00     0.210 HD
ATOM     30  H10 UNL     1     -30.548  56.604  75.637  1.00  0.00     0.190 HD
ENDBRANCH  19  22
ENDBRANCH   3  18
TORSDOF 6
ENDMDL
MODEL 5
REMARK VINA RESULT: -6.553137087      4.979      6.762
REMARK  6 active torsions:
REMARK  status: ('A' for Active; 'I' for Inactive)
REMARK       I    between atoms: C1_4  and  N2_5 
REMARK       I    between atoms: C1_4  and  N4_11 
REMARK    1  A    between atoms: N2_5  and  C2_7 
REMARK    2  A    between atoms: C2_7  and  C3_8 
REMARK    3  A    between atoms: N4_11  and  C4_13 
REMARK    4  A    between atoms: C4_13  and  C5_14 
REMARK       I    between atoms: C5_14  and  N5_16 
REMARK    5  A    between atoms: N5_16  and  N6_18 
REMARK       I    between atoms: N6_18  and  C6_20 
REMARK    6  A    between atoms: C6_20  and  C7_22 
ROOT
HETATM    1  C5  UNL     1     -33.667  58.089  73.246  1.00  0.00     0.254 C 
HETATM    2  O2  UNL     1     -33.981  59.284  73.122  1.00  0.00    -0.270 OA
HETATM    3  N5  UNL     1     -33.917  57.343  74.452  1.00  0.00    -0.266 N 
ATOM      4  H5  UNL     1     -33.656  56.362  74.549  1.00  0.00     0.190 HD
ENDROOT
BRANCH   1   5
HETATM    5  C4  UNL     1     -33.003  57.365  72.128  1.00  0.00     0.242 C 
BRANCH   5   6
HETATM    6  N4  UNL     1     -31.855  58.107  71.691  1.00  0.00    -0.218 N 
HETATM    7  C1  UNL     1     -31.763  58.667  70.383  1.00  0.00     0.668 C 
HETATM    8  N1  UNL     1     -32.608  58.325  69.513  1.00  0.00    -0.235 N 
HETATM    9  N2  UNL     1     -30.704  59.600  70.136  1.00  0.00    -0.218 N 
ATOM     10  H12 UNL     1     -32.542  58.725  68.577  1.00  0.00     0.174 HD
ATOM     11  H11 UNL     1     -33.362  57.661  69.689  1.00  0.00     0.174 HD
ATOM     12  H2  UNL     1     -30.419  60.259  70.860  1.00  0.00     0.178 HD
ATOM     13  H4  UNL     1     -31.077  58.238  72.338  1.00  0.00     0.178 HD
BRANCH   9  14
HETATM   14  C2  UNL     1     -30.043  59.597  68.849  1.00  0.00     0.237 C 
BRANCH  14  15
HETATM   15  C3  UNL     1     -29.011  58.545  68.786  1.00  0.00     0.249 C 
HETATM   16  N3  UNL     1     -28.694  57.974  67.533  1.00  0.00    -0.061 NA
HETATM   17  O1  UNL     1     -28.421  58.158  69.818  1.00  0.00    -0.275 OA
ENDBRANCH  14  15
ENDBRANCH   9  14
ENDBRANCH   5   6
ENDBRANCH   1   5
BRANCH   3  18
HETATM   18  N6  UNL     1     -34.538  58.047  75.474  1.00  0.00    -0.261 N 
HETATM   19  C6  UNL     1     -34.176  57.788  76.812  1.00  0.00     0.306 C 
HETATM   20  O3  UNL     1     -33.299  56.915  77.042  1.00  0.00    -0.262 OA
ATOM     21  H6  UNL     1     -35.250  58.746  75.259  1.00  0.00     0.190 HD
BRANCH  19  22
HETATM   22  C7  UNL     1     -34.765  58.479  77.948  1.00  0.00     0.208 A 
HETATM   23  N7  UNL     1     -34.659  59.774  78.297  1.00  0.00    -0.264 N 
HETATM   24  N8  UNL     1     -35.354  59.957  79.403  1.00  0.00    -0.226 N 
ATOM     25  H7  UNL     1     -34.134  60.489  77.795  1.00  0.00     0.190 HD
HETATM   26  N9  UNL     1     -35.897  58.825  79.768  1.00  0.00    -0.226 N 
ATOM     27  H8  UNL     1     -35.452  60.843  79.898  1.00  0.00     0.210 HD
HETATM   28  N10 UNL     1     -35.535  57.914  78.873  1.00  0.00    -0.264 N 
ATOM     29  H9  UNL     1     -36.487  58.672  80.585  1.00  0.00     0.210 HD
ATOM     30  H10 UNL     1     -35.807  56.931  78.891  1.00  0.00     0.190 HD
ENDBRANCH  19  22
ENDBRANCH   3  18
TORSDOF 6
ENDMDL
