MODEL 1
REMARK VINA RESULT: -6.935151049      0.000      0.000
REMARK  13 active torsions:
REMARK  status: ('A' for Active; 'I' for Inactive)
REMARK       I    between atoms: C1_4  and  N2_5 
REMARK       I    between atoms: C1_4  and  N9_30 
REMARK    1  A    between atoms: N2_5  and  C2_7 
REMARK    2  A    between atoms: C3_10  and  N4_11 
REMARK    3  A    between atoms: N4_11  and  C4_13 
REMARK    4  A    between atoms: C4_13  and  C5_14 
REMARK    5  A    between atoms: C5_14  and  C6_15 
REMARK    6  A    between atoms: C6_15  and  C7_16 
REMARK    7  A    between atoms: C7_16  and  C8_17 
REMARK    8  A    between atoms: C8_17  and  O1_18 
REMARK    9  A    between atoms: C9_22  and  N6_23 
REMARK   10  A    between atoms: N6_23  and  N7_25 
REMARK   11  A    between atoms: N9_30  and  N10_32 
REMARK   12  A    between atoms: N10_32  and  N11_33 
REMARK   13  A    between atoms: N10_32  and  O2_36 
ROOT
HETATM    1  C2  UNL     1     -32.801  56.746  74.609  1.00  0.00     0.726 A 
HETATM    2  N3  UNL     1     -33.518  57.884  74.598  1.00  0.00    -0.021 N 
ATOM      3  H3  UNL     1     -33.702  58.363  73.717  1.00  0.00     0.203 HD
HETATM    4  C3  UNL     1     -33.994  58.391  75.758  1.00  0.00     0.707 A 
HETATM    5  N5  UNL     1     -33.715  57.708  76.881  1.00  0.00    -0.020 N 
ATOM      6  H5  UNL     1     -34.064  58.073  77.768  1.00  0.00     0.203 HD
HETATM    7  C9  UNL     1     -32.994  56.564  76.900  1.00  0.00     0.725 A 
HETATM    8  N8  UNL     1     -32.527  56.069  75.741  1.00  0.00    -0.019 N 
ATOM      9  H8  UNL     1     -31.980  55.208  75.719  1.00  0.00     0.203 HD
ENDROOT
BRANCH   1  10
HETATM   10  N2  UNL     1     -32.329  56.233  73.499  1.00  0.00    -0.020 N 
HETATM   11  C1  UNL     1     -32.226  54.827  73.364  1.00  0.00     0.704 C 
HETATM   12  N1  UNL     1     -33.244  54.171  72.967  1.00  0.00    -0.233 N 
HETATM   13  N9  UNL     1     -31.028  54.153  73.660  1.00  0.00    -0.110 N 
ATOM     14  H12 UNL     1     -34.113  54.660  72.752  1.00  0.00     0.174 HD
ATOM     15  H11 UNL     1     -33.169  53.159  72.870  1.00  0.00     0.174 HD
ATOM     16  H9  UNL     1     -30.202  54.414  73.121  1.00  0.00     0.203 HD
ATOM     17  H2  UNL     1     -32.037  56.844  72.736  1.00  0.00     0.203 HD
BRANCH  13  18
HETATM   18  N10 UNL     1     -30.871  53.168  74.617  1.00  0.00     0.004 NA
BRANCH  18  19
HETATM   19  N11 UNL     1     -31.413  51.948  74.206  1.00  0.00    -0.322 NA
ATOM     20 2H11 UNL     1     -32.183  51.627  74.793  1.00  0.00     0.175 HD
ATOM     21 1H11 UNL     1     -31.687  51.963  73.224  1.00  0.00     0.175 HD
ENDBRANCH  18  19
BRANCH  18  22
HETATM   22  O2  UNL     1     -31.324  53.579  75.799  1.00  0.00    -0.276 OA
ATOM     23  H2  UNL     1     -32.132  54.070  75.700  1.00  0.00     0.241 HD
ENDBRANCH  18  22
ENDBRANCH  13  18
ENDBRANCH   1  10
BRANCH   4  24
HETATM   24  N4  UNL     1     -34.692  59.494  75.769  1.00  0.00    -0.225 N 
ATOM     25  H4  UNL     1     -35.458  59.643  75.114  1.00  0.00     0.177 HD
BRANCH  24  26
HETATM   26  C4  UNL     1     -34.338  60.490  76.741  1.00  0.00     0.138 C 
BRANCH  26  27
HETATM   27  C5  UNL     1     -35.436  60.727  77.744  1.00  0.00     0.020 C 
BRANCH  27  28
HETATM   28  C6  UNL     1     -34.939  60.443  79.145  1.00  0.00     0.004 C 
BRANCH  28  29
HETATM   29  C7  UNL     1     -35.842  59.452  79.832  1.00  0.00     0.026 C 
BRANCH  29  30
HETATM   30  C8  UNL     1     -36.186  58.295  78.919  1.00  0.00     0.164 C 
BRANCH  30  31
HETATM   31  O1  UNL     1     -35.635  57.101  79.311  1.00  0.00    -0.401 OA
ATOM     32  H1  UNL     1     -34.741  57.178  79.620  1.00  0.00     0.209 HD
ENDBRANCH  30  31
ENDBRANCH  29  30
ENDBRANCH  28  29
ENDBRANCH  27  28
ENDBRANCH  26  27
ENDBRANCH  24  26
ENDBRANCH   4  24
BRANCH   7  33
HETATM   33  N6  UNL     1     -32.776  55.973  78.045  1.00  0.00    -0.138 N 
ATOM     34  H6  UNL     1     -33.498  55.422  78.509  1.00  0.00     0.205 HD
BRANCH  33  35
HETATM   35  N7  UNL     1     -31.514  56.130  78.599  1.00  0.00    -0.331 N 
ATOM     36  H72 UNL     1     -31.398  56.259  79.605  1.00  0.00     0.177 HD
ATOM     37  H71 UNL     1     -30.724  56.110  77.954  1.00  0.00     0.177 HD
ENDBRANCH  33  35
ENDBRANCH   7  33
TORSDOF 13
ENDMDL
MODEL 2
REMARK VINA RESULT: -6.916445914      2.361      4.653
REMARK  13 active torsions:
REMARK  status: ('A' for Active; 'I' for Inactive)
REMARK       I    between atoms: C1_4  and  N2_5 
REMARK       I    between atoms: C1_4  and  N9_30 
REMARK    1  A    between atoms: N2_5  and  C2_7 
REMARK    2  A    between atoms: C3_10  and  N4_11 
REMARK    3  A    between atoms: N4_11  and  C4_13 
REMARK    4  A    between atoms: C4_13  and  C5_14 
REMARK    5  A    between atoms: C5_14  and  C6_15 
REMARK    6  A    between atoms: C6_15  and  C7_16 
REMARK    7  A    between atoms: C7_16  and  C8_17 
REMARK    8  A    between atoms: C8_17  and  O1_18 
REMARK    9  A    between atoms: C9_22  and  N6_23 
REMARK   10  A    between atoms: N6_23  and  N7_25 
REMARK   11  A    between atoms: N9_30  and  N10_32 
REMARK   12  A    between atoms: N10_32  and  N11_33 
REMARK   13  A    between atoms: N10_32  and  O2_36 
ROOT
HETATM    1  C2  UNL     1     -33.918  57.504  77.069  1.00  0.00     0.726 A 
HETATM    2  N3  UNL     1     -33.948  57.391  75.729  1.00  0.00    -0.021 N 
ATOM      3  H3  UNL     1     -33.697  56.508  75.285  1.00  0.00     0.203 HD
HETATM    4  C3  UNL     1     -34.312  58.451  74.972  1.00  0.00     0.707 A 
HETATM    5  N5  UNL     1     -34.630  59.583  75.622  1.00  0.00    -0.020 N 
ATOM      6  H5  UNL     1     -34.908  60.395  75.070  1.00  0.00     0.203 HD
HETATM    7  C9  UNL     1     -34.601  59.705  76.969  1.00  0.00     0.725 A 
HETATM    8  N8  UNL     1     -34.238  58.644  77.711  1.00  0.00    -0.019 N 
ATOM      9  H8  UNL     1     -34.206  58.701  78.729  1.00  0.00     0.203 HD
ENDROOT
BRANCH   1  10
HETATM   10  N2  UNL     1     -33.569  56.492  77.826  1.00  0.00    -0.020 N 
HETATM   11  C1  UNL     1     -32.345  55.823  77.582  1.00  0.00     0.704 C 
HETATM   12  N1  UNL     1     -31.278  56.286  78.102  1.00  0.00    -0.233 N 
HETATM   13  N9  UNL     1     -32.294  54.667  76.784  1.00  0.00    -0.110 N 
ATOM     14  H12 UNL     1     -31.315  57.124  78.681  1.00  0.00     0.174 HD
ATOM     15  H11 UNL     1     -30.397  55.804  77.926  1.00  0.00     0.174 HD
ATOM     16  H9  UNL     1     -32.842  53.864  77.092  1.00  0.00     0.203 HD
ATOM     17  H2  UNL     1     -34.178  56.188  78.586  1.00  0.00     0.203 HD
BRANCH  13  18
HETATM   18  N10 UNL     1     -31.565  54.523  75.618  1.00  0.00     0.004 NA
BRANCH  18  19
HETATM   19  N11 UNL     1     -32.325  54.823  74.485  1.00  0.00    -0.322 NA
ATOM     20 2H11 UNL     1     -31.844  55.429  73.821  1.00  0.00     0.175 HD
ATOM     21 1H11 UNL     1     -32.674  53.982  74.025  1.00  0.00     0.175 HD
ENDBRANCH  18  19
BRANCH  18  22
HETATM   22  O2  UNL     1     -30.984  53.327  75.566  1.00  0.00    -0.276 OA
ATOM     23  H2  UNL     1     -31.447  52.751  74.967  1.00  0.00     0.241 HD
ENDBRANCH  18  22
ENDBRANCH  13  18
ENDBRANCH   1  10
BRANCH   4  24
HETATM   24  N4  UNL     1     -34.349  58.362  73.670  1.00  0.00    -0.225 N 
ATOM     25  H4  UNL     1     -34.558  57.479  73.205  1.00  0.00     0.177 HD
BRANCH  24  26
HETATM   26  C4  UNL     1     -34.082  59.555  72.918  1.00  0.00     0.138 C 
BRANCH  26  27
HETATM   27  C5  UNL     1     -32.779  59.481  72.167  1.00  0.00     0.020 C 
BRANCH  27  28
HETATM   28  C6  UNL     1     -31.634  59.917  73.055  1.00  0.00     0.004 C 
BRANCH  28  29
HETATM   29  C7  UNL     1     -30.731  58.750  73.359  1.00  0.00     0.026 C 
BRANCH  29  30
HETATM   30  C8  UNL     1     -30.663  58.478  74.847  1.00  0.00     0.164 C 
BRANCH  30  31
HETATM   31  O1  UNL     1     -30.677  57.143  75.163  1.00  0.00    -0.401 OA
ATOM     32  H1  UNL     1     -30.539  56.969  76.086  1.00  0.00     0.209 HD
ENDBRANCH  30  31
ENDBRANCH  29  30
ENDBRANCH  28  29
ENDBRANCH  27  28
ENDBRANCH  26  27
ENDBRANCH  24  26
ENDBRANCH   4  24
BRANCH   7  33
HETATM   33  N6  UNL     1     -34.928  60.850  77.508  1.00  0.00    -0.138 N 
ATOM     34  H6  UNL     1     -34.536  61.730  77.174  1.00  0.00     0.205 HD
BRANCH  33  35
HETATM   35  N7  UNL     1     -35.836  60.810  78.556  1.00  0.00    -0.331 N 
ATOM     36  H72 UNL     1     -35.577  61.150  79.483  1.00  0.00     0.177 HD
ATOM     37  H71 UNL     1     -36.759  60.427  78.350  1.00  0.00     0.177 HD
ENDBRANCH  33  35
ENDBRANCH   7  33
TORSDOF 13
ENDMDL
MODEL 3
REMARK VINA RESULT: -6.846707001      3.447      6.935
REMARK  13 active torsions:
REMARK  status: ('A' for Active; 'I' for Inactive)
REMARK       I    between atoms: C1_4  and  N2_5 
REMARK       I    between atoms: C1_4  and  N9_30 
REMARK    1  A    between atoms: N2_5  and  C2_7 
REMARK    2  A    between atoms: C3_10  and  N4_11 
REMARK    3  A    between atoms: N4_11  and  C4_13 
REMARK    4  A    between atoms: C4_13  and  C5_14 
REMARK    5  A    between atoms: C5_14  and  C6_15 
REMARK    6  A    between atoms: C6_15  and  C7_16 
REMARK    7  A    between atoms: C7_16  and  C8_17 
REMARK    8  A    between atoms: C8_17  and  O1_18 
REMARK    9  A    between atoms: C9_22  and  N6_23 
REMARK   10  A    between atoms: N6_23  and  N7_25 
REMARK   11  A    between atoms: N9_30  and  N10_32 
REMARK   12  A    between atoms: N10_32  and  N11_33 
REMARK   13  A    between atoms: N10_32  and  O2_36 
ROOT
HETATM    1  C2  UNL     1     -33.515  59.036  75.931  1.00  0.00     0.726 A 
HETATM    2  N3  UNL     1     -32.695  59.308  74.900  1.00  0.00    -0.021 N 
ATOM      3  H3  UNL     1     -32.977  59.980  74.187  1.00  0.00     0.203 HD
HETATM    4  C3  UNL     1     -31.496  58.688  74.811  1.00  0.00     0.707 A 
HETATM    5  N5  UNL     1     -31.189  57.814  75.785  1.00  0.00    -0.020 N 
ATOM      6  H5  UNL     1     -30.289  57.335  75.738  1.00  0.00     0.203 HD
HETATM    7  C9  UNL     1     -32.008  57.535  76.824  1.00  0.00     0.725 A 
HETATM    8  N8  UNL     1     -33.197  58.158  76.902  1.00  0.00    -0.019 N 
ATOM      9  H8  UNL     1     -33.839  57.971  77.672  1.00  0.00     0.203 HD
ENDROOT
BRANCH   1  10
HETATM   10  N2  UNL     1     -34.681  59.623  76.041  1.00  0.00    -0.020 N 
HETATM   11  C1  UNL     1     -35.266  59.789  77.320  1.00  0.00     0.704 C 
HETATM   12  N1  UNL     1     -34.943  60.806  78.016  1.00  0.00    -0.233 N 
HETATM   13  N9  UNL     1     -36.188  58.856  77.825  1.00  0.00    -0.110 N 
ATOM     14  H12 UNL     1     -34.274  61.483  77.649  1.00  0.00     0.174 HD
ATOM     15  H11 UNL     1     -35.364  60.925  78.937  1.00  0.00     0.174 HD
ATOM     16  H9  UNL     1     -37.044  58.711  77.289  1.00  0.00     0.203 HD
ATOM     17  H2  UNL     1     -35.166  59.959  75.208  1.00  0.00     0.203 HD
BRANCH  13  18
HETATM   18  N10 UNL     1     -36.037  58.118  78.984  1.00  0.00     0.004 NA
BRANCH  18  19
HETATM   19  N11 UNL     1     -35.864  58.933  80.105  1.00  0.00    -0.322 NA
ATOM     20 2H11 UNL     1     -36.622  58.858  80.783  1.00  0.00     0.175 HD
ATOM     21 1H11 UNL     1     -34.959  58.782  80.552  1.00  0.00     0.175 HD
ENDBRANCH  18  19
BRANCH  18  22
HETATM   22  O2  UNL     1     -35.081  57.202  78.842  1.00  0.00    -0.276 OA
ATOM     23  H2  UNL     1     -35.449  56.325  78.850  1.00  0.00     0.241 HD
ENDBRANCH  18  22
ENDBRANCH  13  18
ENDBRANCH   1  10
BRANCH   4  24
HETATM   24  N4  UNL     1     -30.685  58.938  73.820  1.00  0.00    -0.225 N 
ATOM     25  H4  UNL     1     -29.740  59.284  73.982  1.00  0.00     0.177 HD
BRANCH  24  26
HETATM   26  C4  UNL     1     -31.175  58.706  72.490  1.00  0.00     0.138 C 
BRANCH  26  27
HETATM   27  C5  UNL     1     -31.404  59.987  71.732  1.00  0.00     0.020 C 
BRANCH  27  28
HETATM   28  C6  UNL     1     -31.450  59.716  70.244  1.00  0.00     0.004 C 
BRANCH  28  29
HETATM   29  C7  UNL     1     -30.810  58.388  69.932  1.00  0.00     0.026 C 
BRANCH  29  30
HETATM   30  C8  UNL     1     -29.487  58.568  69.219  1.00  0.00     0.164 C 
BRANCH  30  31
HETATM   31  O1  UNL     1     -28.400  58.509  70.055  1.00  0.00    -0.401 OA
ATOM     32  H1  UNL     1     -27.606  58.213  69.626  1.00  0.00     0.209 HD
ENDBRANCH  30  31
ENDBRANCH  29  30
ENDBRANCH  28  29
ENDBRANCH  27  28
ENDBRANCH  26  27
ENDBRANCH  24  26
ENDBRANCH   4  24
BRANCH   7  33
HETATM   33  N6  UNL     1     -31.619  56.669  77.722  1.00  0.00    -0.138 N 
ATOM     34  H6  UNL     1     -30.645  56.608  78.020  1.00  0.00     0.205 HD
BRANCH  33  35
HETATM   35  N7  UNL     1     -32.594  55.837  78.252  1.00  0.00    -0.331 N 
ATOM     36  H72 UNL     1     -32.629  54.848  77.999  1.00  0.00     0.177 HD
ATOM     37  H71 UNL     1     -33.261  56.262  78.896  1.00  0.00     0.177 HD
ENDBRANCH  33  35
ENDBRANCH   7  33
TORSDOF 13
ENDMDL
MODEL 4
REMARK VINA RESULT: -6.773999155      3.093      6.076
REMARK  13 active torsions:
REMARK  status: ('A' for Active; 'I' for Inactive)
REMARK       I    between atoms: C1_4  and  N2_5 
REMARK       I    between atoms: C1_4  and  N9_30 
REMARK    1  A    between atoms: N2_5  and  C2_7 
REMARK    2  A    between atoms: C3_10  and  N4_11 
REMARK    3  A    between atoms: N4_11  and  C4_13 
REMARK    4  A    between atoms: C4_13  and  C5_14 
REMARK    5  A    between atoms: C5_14  and  C6_15 
REMARK    6  A    between atoms: C6_15  and  C7_16 
REMARK    7  A    between atoms: C7_16  and  C8_17 
REMARK    8  A    between atoms: C8_17  and  O1_18 
REMARK    9  A    between atoms: C9_22  and  N6_23 
REMARK   10  A    between atoms: N6_23  and  N7_25 
REMARK   11  A    between atoms: N9_30  and  N10_32 
REMARK   12  A    between atoms: N10_32  and  N11_33 
REMARK   13  A    between atoms: N10_32  and  O2_36 
ROOT
HETATM    1  C2  UNL     1     -33.500  59.011  75.922  1.00  0.00     0.726 A 
HETATM    2  N3  UNL     1     -32.676  59.277  74.893  1.00  0.00    -0.021 N 
ATOM      3  H3  UNL     1     -32.954  59.947  74.176  1.00  0.00     0.203 HD
HETATM    4  C3  UNL     1     -31.477  58.655  74.811  1.00  0.00     0.707 A 
HETATM    5  N5  UNL     1     -31.175  57.785  75.790  1.00  0.00    -0.020 N 
ATOM      6  H5  UNL     1     -30.276  57.304  75.748  1.00  0.00     0.203 HD
HETATM    7  C9  UNL     1     -31.999  57.512  76.827  1.00  0.00     0.725 A 
HETATM    8  N8  UNL     1     -33.187  58.137  76.898  1.00  0.00    -0.019 N 
ATOM      9  H8  UNL     1     -33.832  57.955  77.667  1.00  0.00     0.203 HD
ENDROOT
BRANCH   1  10
HETATM   10  N2  UNL     1     -34.666  59.601  76.025  1.00  0.00    -0.020 N 
HETATM   11  C1  UNL     1     -35.254  59.774  77.302  1.00  0.00     0.704 C 
HETATM   12  N1  UNL     1     -34.931  60.794  77.993  1.00  0.00    -0.233 N 
HETATM   13  N9  UNL     1     -36.180  58.845  77.809  1.00  0.00    -0.110 N 
ATOM     14  H12 UNL     1     -34.260  61.468  77.626  1.00  0.00     0.174 HD
ATOM     15  H11 UNL     1     -35.355  60.919  78.912  1.00  0.00     0.174 HD
ATOM     16  H9  UNL     1     -37.034  58.699  77.271  1.00  0.00     0.203 HD
ATOM     17  H2  UNL     1     -35.147  59.933  75.189  1.00  0.00     0.203 HD
BRANCH  13  18
HETATM   18  N10 UNL     1     -36.033  58.113  78.972  1.00  0.00     0.004 NA
BRANCH  18  19
HETATM   19  N11 UNL     1     -35.866  58.934  80.090  1.00  0.00    -0.322 NA
ATOM     20 2H11 UNL     1     -36.212  58.519  80.955  1.00  0.00     0.175 HD
ATOM     21 1H11 UNL     1     -34.900  59.244  80.196  1.00  0.00     0.175 HD
ENDBRANCH  18  19
BRANCH  18  22
HETATM   22  O2  UNL     1     -35.076  57.197  78.839  1.00  0.00    -0.276 OA
ATOM     23  H2  UNL     1     -35.347  56.508  78.243  1.00  0.00     0.241 HD
ENDBRANCH  18  22
ENDBRANCH  13  18
ENDBRANCH   1  10
BRANCH   4  24
HETATM   24  N4  UNL     1     -30.663  58.898  73.821  1.00  0.00    -0.225 N 
ATOM     25  H4  UNL     1     -29.679  59.108  73.984  1.00  0.00     0.177 HD
BRANCH  24  26
HETATM   26  C4  UNL     1     -31.206  58.860  72.493  1.00  0.00     0.138 C 
BRANCH  26  27
HETATM   27  C5  UNL     1     -31.391  60.236  71.909  1.00  0.00     0.020 C 
BRANCH  27  28
HETATM   28  C6  UNL     1     -32.557  60.245  70.944  1.00  0.00     0.004 C 
BRANCH  28  29
HETATM   29  C7  UNL     1     -33.525  59.140  71.279  1.00  0.00     0.026 C 
BRANCH  29  30
HETATM   30  C8  UNL     1     -34.884  59.691  71.655  1.00  0.00     0.164 C 
BRANCH  30  31
HETATM   31  O1  UNL     1     -35.138  59.657  73.003  1.00  0.00    -0.401 OA
ATOM     32  H1  UNL     1     -35.003  58.803  73.394  1.00  0.00     0.209 HD
ENDBRANCH  30  31
ENDBRANCH  29  30
ENDBRANCH  28  29
ENDBRANCH  27  28
ENDBRANCH  26  27
ENDBRANCH  24  26
ENDBRANCH   4  24
BRANCH   7  33
HETATM   33  N6  UNL     1     -31.614  56.649  77.731  1.00  0.00    -0.138 N 
ATOM     34  H6  UNL     1     -30.643  56.592  78.036  1.00  0.00     0.205 HD
BRANCH  33  35
HETATM   35  N7  UNL     1     -32.591  55.816  78.255  1.00  0.00    -0.331 N 
ATOM     36  H72 UNL     1     -32.403  54.825  78.409  1.00  0.00     0.177 HD
ATOM     37  H71 UNL     1     -33.491  56.244  78.474  1.00  0.00     0.177 HD
ENDBRANCH  33  35
ENDBRANCH   7  33
TORSDOF 13
ENDMDL
MODEL 5
REMARK VINA RESULT: -6.752262002      2.986      4.812
REMARK  13 active torsions:
REMARK  status: ('A' for Active; 'I' for Inactive)
REMARK       I    between atoms: C1_4  and  N2_5 
REMARK       I    between atoms: C1_4  and  N9_30 
REMARK    1  A    between atoms: N2_5  and  C2_7 
REMARK    2  A    between atoms: C3_10  and  N4_11 
REMARK    3  A    between atoms: N4_11  and  C4_13 
REMARK    4  A    between atoms: C4_13  and  C5_14 
REMARK    5  A    between atoms: C5_14  and  C6_15 
REMARK    6  A    between atoms: C6_15  and  C7_16 
REMARK    7  A    between atoms: C7_16  and  C8_17 
REMARK    8  A    between atoms: C8_17  and  O1_18 
REMARK    9  A    between atoms: C9_22  and  N6_23 
REMARK   10  A    between atoms: N6_23  and  N7_25 
REMARK   11  A    between atoms: N9_30  and  N10_32 
REMARK   12  A    between atoms: N10_32  and  N11_33 
REMARK   13  A    between atoms: N10_32  and  O2_36 
ROOT
HETATM    1  C2  UNL     1     -33.932  58.937  76.429  1.00  0.00     0.726 A 
HETATM    2  N3  UNL     1     -34.862  58.896  75.458  1.00  0.00    -0.021 N 
ATOM      3  H3  UNL     1     -34.597  58.643  74.507  1.00  0.00     0.203 HD
HETATM    4  C3  UNL     1     -36.150  59.192  75.747  1.00  0.00     0.707 A 
HETATM    5  N5  UNL     1     -36.429  59.518  77.021  1.00  0.00    -0.020 N 
ATOM      6  H5  UNL     1     -37.395  59.744  77.260  1.00  0.00     0.203 HD
HETATM    7  C9  UNL     1     -35.500  59.561  78.002  1.00  0.00     0.725 A 
HETATM    8  N8  UNL     1     -34.223  59.265  77.703  1.00  0.00    -0.019 N 
ATOM      9  H8  UNL     1     -33.496  59.287  78.419  1.00  0.00     0.203 HD
ENDROOT
BRANCH   1  10
HETATM   10  N2  UNL     1     -32.678  58.654  76.176  1.00  0.00    -0.020 N 
HETATM   11  C1  UNL     1     -32.266  57.302  76.096  1.00  0.00     0.704 C 
HETATM   12  N1  UNL     1     -32.392  56.685  74.988  1.00  0.00    -0.233 N 
HETATM   13  N9  UNL     1     -31.725  56.638  77.211  1.00  0.00    -0.110 N 
ATOM     14  H12 UNL     1     -32.784  57.166  74.179  1.00  0.00     0.174 HD
ATOM     15  H11 UNL     1     -32.095  55.712  74.930  1.00  0.00     0.174 HD
ATOM     16  H9  UNL     1     -30.875  57.028  77.617  1.00  0.00     0.203 HD
ATOM     17  H2  UNL     1     -32.001  59.405  76.037  1.00  0.00     0.203 HD
BRANCH  13  18
HETATM   18  N10 UNL     1     -32.246  55.504  77.806  1.00  0.00     0.004 NA
BRANCH  18  19
HETATM   19  N11 UNL     1     -32.278  54.420  76.927  1.00  0.00    -0.322 NA
ATOM     20 2H11 UNL     1     -32.030  54.666  75.969  1.00  0.00     0.175 HD
ATOM     21 1H11 UNL     1     -31.712  53.640  77.260  1.00  0.00     0.175 HD
ENDBRANCH  18  19
BRANCH  18  22
HETATM   22  O2  UNL     1     -33.422  55.763  78.373  1.00  0.00    -0.276 OA
ATOM     23  H2  UNL     1     -33.550  55.228  79.148  1.00  0.00     0.241 HD
ENDBRANCH  18  22
ENDBRANCH  13  18
ENDBRANCH   1  10
BRANCH   4  24
HETATM   24  N4  UNL     1     -37.068  59.159  74.820  1.00  0.00    -0.225 N 
ATOM     25  H4  UNL     1     -38.011  59.505  74.996  1.00  0.00     0.177 HD
BRANCH  24  26
HETATM   26  C4  UNL     1     -36.700  58.616  73.543  1.00  0.00     0.138 C 
BRANCH  26  27
HETATM   27  C5  UNL     1     -36.880  59.608  72.424  1.00  0.00     0.020 C 
BRANCH  27  28
HETATM   28  C6  UNL     1     -35.535  60.034  71.878  1.00  0.00     0.004 C 
BRANCH  28  29
HETATM   29  C7  UNL     1     -34.594  58.858  71.825  1.00  0.00     0.026 C 
BRANCH  29  30
HETATM   30  C8  UNL     1     -33.151  59.301  71.950  1.00  0.00     0.164 C 
BRANCH  30  31
HETATM   31  O1  UNL     1     -32.687  59.307  73.241  1.00  0.00    -0.401 OA
ATOM     32  H1  UNL     1     -31.741  59.254  73.306  1.00  0.00     0.209 HD
ENDBRANCH  30  31
ENDBRANCH  29  30
ENDBRANCH  28  29
ENDBRANCH  27  28
ENDBRANCH  26  27
ENDBRANCH  24  26
ENDBRANCH   4  24
BRANCH   7  33
HETATM   33  N6  UNL     1     -35.871  59.889  79.211  1.00  0.00    -0.138 N 
ATOM     34  H6  UNL     1     -36.058  60.858  79.469  1.00  0.00     0.205 HD
BRANCH  33  35
HETATM   35  N7  UNL     1     -35.999  58.855  80.127  1.00  0.00    -0.331 N 
ATOM     36  H72 UNL     1     -35.826  57.889  79.849  1.00  0.00     0.177 HD
ATOM     37  H71 UNL     1     -36.271  59.114  81.076  1.00  0.00     0.177 HD
ENDBRANCH  33  35
ENDBRANCH   7  33
TORSDOF 13
ENDMDL
