MODEL 1
REMARK VINA RESULT: -6.210826926      0.000      0.000
REMARK  5 active torsions:
REMARK  status: ('A' for Active; 'I' for Inactive)
REMARK    1  A    between atoms: N1_2  and  C3_4 
REMARK    2  A    between atoms: C3_4  and  C4_5 
REMARK    3  A    between atoms: C4_5  and  N2_6 
REMARK    4  A    between atoms: N2_6  and  C5_9 
REMARK    5  A    between atoms: C5_9  and  C6_10 
ROOT
HETATM    1  C6  UNL     1      63.701  37.213  70.376  1.00  0.00     0.023 C 
HETATM    2  C7  UNL     1      64.743  36.528  71.226  1.00  0.00     0.024 C 
HETATM    3  C8  UNL     1      64.192  36.173  72.621  1.00  0.00     0.040 C 
HETATM    4  C9  UNL     1      63.369  34.964  72.317  1.00  0.00     0.187 C 
HETATM    5  C10 UNL     1      62.262  35.386  71.369  1.00  0.00     0.040 C 
HETATM    6  C11 UNL     1      63.105  35.812  70.155  1.00  0.00     0.024 C 
HETATM    7  C12 UNL     1      64.481  35.274  70.425  1.00  0.00     0.195 C 
HETATM    8  N3  UNL     1      64.232  34.242  71.398  1.00  0.00    -0.066 N 
ATOM      9  H31 UNL     1      63.857  33.367  71.032  1.00  0.00     0.278 HD
ATOM     10  H32 UNL     1      65.059  33.810  71.810  1.00  0.00     0.278 HD
ENDROOT
BRANCH   1  11
HETATM   11  C5  UNL     1      64.195  37.749  69.084  1.00  0.00     0.237 C 
BRANCH  11  12
HETATM   12  N2  UNL     1      63.172  38.097  68.124  1.00  0.00    -0.073 N 
ATOM     13  H22 UNL     1      62.229  37.964  68.490  1.00  0.00     0.277 HD
ATOM     14  H21 UNL     1      63.116  37.433  67.352  1.00  0.00     0.277 HD
BRANCH  12  15
HETATM   15  C4  UNL     1      63.406  39.440  67.680  1.00  0.00     0.262 C 
BRANCH  15  16
HETATM   16  C3  UNL     1      63.422  39.637  66.191  1.00  0.00     0.298 C 
BRANCH  16  17
HETATM   17  N1  UNL     1      62.091  40.124  65.796  1.00  0.00     0.081 N 
HETATM   18  C1  UNL     1      62.190  41.465  65.313  1.00  0.00     0.309 C 
HETATM   19  C2  UNL     1      61.422  39.224  64.900  1.00  0.00     0.309 C 
ENDBRANCH  16  17
ENDBRANCH  15  16
ENDBRANCH  12  15
ENDBRANCH  11  12
ENDBRANCH   1  11
TORSDOF 5
ENDMDL
MODEL 2
REMARK VINA RESULT: -6.111168329      1.124      6.947
REMARK  5 active torsions:
REMARK  status: ('A' for Active; 'I' for Inactive)
REMARK    1  A    between atoms: N1_2  and  C3_4 
REMARK    2  A    between atoms: C3_4  and  C4_5 
REMARK    3  A    between atoms: C4_5  and  N2_6 
REMARK    4  A    between atoms: N2_6  and  C5_9 
REMARK    5  A    between atoms: C5_9  and  C6_10 
ROOT
HETATM    1  C6  UNL     1      63.388  40.095  67.553  1.00  0.00     0.023 C 
HETATM    2  C7  UNL     1      61.978  40.082  67.018  1.00  0.00     0.024 C 
HETATM    3  C8  UNL     1      61.507  41.497  66.629  1.00  0.00     0.040 C 
HETATM    4  C9  UNL     1      62.203  41.695  65.324  1.00  0.00     0.187 C 
HETATM    5  C10 UNL     1      63.697  41.655  65.587  1.00  0.00     0.040 C 
HETATM    6  C11 UNL     1      63.838  40.208  66.085  1.00  0.00     0.024 C 
HETATM    7  C12 UNL     1      62.541  39.541  65.724  1.00  0.00     0.195 C 
HETATM    8  N3  UNL     1      62.021  40.400  64.691  1.00  0.00    -0.066 N 
ATOM      9  H31 UNL     1      62.444  40.292  63.769  1.00  0.00     0.278 HD
ATOM     10  H32 UNL     1      61.075  40.190  64.372  1.00  0.00     0.278 HD
ENDROOT
BRANCH   1  11
HETATM   11  C5  UNL     1      63.861  38.806  68.116  1.00  0.00     0.237 C 
BRANCH  11  12
HETATM   12  N2  UNL     1      63.001  38.212  69.115  1.00  0.00    -0.073 N 
ATOM     13  H22 UNL     1      62.074  37.990  68.753  1.00  0.00     0.277 HD
ATOM     14  H21 UNL     1      62.714  38.878  69.832  1.00  0.00     0.277 HD
BRANCH  12  15
HETATM   15  C4  UNL     1      63.667  37.066  69.663  1.00  0.00     0.262 C 
BRANCH  15  16
HETATM   16  C3  UNL     1      62.783  36.078  70.368  1.00  0.00     0.298 C 
BRANCH  16  17
HETATM   17  N1  UNL     1      63.187  36.055  71.782  1.00  0.00     0.081 N 
HETATM   18  C1  UNL     1      62.719  34.854  72.399  1.00  0.00     0.309 C 
HETATM   19  C2  UNL     1      64.590  36.297  71.955  1.00  0.00     0.309 C 
ENDBRANCH  16  17
ENDBRANCH  15  16
ENDBRANCH  12  15
ENDBRANCH  11  12
ENDBRANCH   1  11
TORSDOF 5
ENDMDL
MODEL 3
REMARK VINA RESULT: -6.036022848      1.519      2.136
REMARK  5 active torsions:
REMARK  status: ('A' for Active; 'I' for Inactive)
REMARK    1  A    between atoms: N1_2  and  C3_4 
REMARK    2  A    between atoms: C3_4  and  C4_5 
REMARK    3  A    between atoms: C4_5  and  N2_6 
REMARK    4  A    between atoms: N2_6  and  C5_9 
REMARK    5  A    between atoms: C5_9  and  C6_10 
ROOT
HETATM    1  C6  UNL     1      64.253  36.433  71.701  1.00  0.00     0.023 C 
HETATM    2  C7  UNL     1      64.982  35.154  71.370  1.00  0.00     0.024 C 
HETATM    3  C8  UNL     1      65.310  34.345  72.640  1.00  0.00     0.040 C 
HETATM    4  C9  UNL     1      63.985  33.731  72.952  1.00  0.00     0.187 C 
HETATM    5  C10 UNL     1      63.012  34.859  73.243  1.00  0.00     0.040 C 
HETATM    6  C11 UNL     1      63.000  35.555  71.873  1.00  0.00     0.024 C 
HETATM    7  C12 UNL     1      63.654  34.583  70.933  1.00  0.00     0.195 C 
HETATM    8  N3  UNL     1      63.525  33.331  71.633  1.00  0.00    -0.066 N 
ATOM      9  H31 UNL     1      62.604  32.894  71.597  1.00  0.00     0.278 HD
ATOM     10  H32 UNL     1      64.009  32.536  71.216  1.00  0.00     0.278 HD
ENDROOT
BRANCH   1  11
HETATM   11  C5  UNL     1      64.054  37.359  70.559  1.00  0.00     0.237 C 
BRANCH  11  12
HETATM   12  N2  UNL     1      64.676  38.657  70.696  1.00  0.00    -0.073 N 
ATOM     13  H22 UNL     1      65.508  38.632  71.286  1.00  0.00     0.277 HD
ATOM     14  H21 UNL     1      64.123  39.300  71.262  1.00  0.00     0.277 HD
BRANCH  12  15
HETATM   15  C4  UNL     1      64.947  39.170  69.384  1.00  0.00     0.262 C 
BRANCH  15  16
HETATM   16  C3  UNL     1      63.924  38.839  68.336  1.00  0.00     0.298 C 
BRANCH  16  17
HETATM   17  N1  UNL     1      63.780  40.020  67.472  1.00  0.00     0.081 N 
HETATM   18  C1  UNL     1      64.961  40.821  67.546  1.00  0.00     0.309 C 
HETATM   19  C2  UNL     1      63.385  39.677  66.136  1.00  0.00     0.309 C 
ENDBRANCH  16  17
ENDBRANCH  15  16
ENDBRANCH  12  15
ENDBRANCH  11  12
ENDBRANCH   1  11
TORSDOF 5
ENDMDL
MODEL 4
REMARK VINA RESULT: -6.001850825      4.587      7.813
REMARK  5 active torsions:
REMARK  status: ('A' for Active; 'I' for Inactive)
REMARK    1  A    between atoms: N1_2  and  C3_4 
REMARK    2  A    between atoms: C3_4  and  C4_5 
REMARK    3  A    between atoms: C4_5  and  N2_6 
REMARK    4  A    between atoms: N2_6  and  C5_9 
REMARK    5  A    between atoms: C5_9  and  C6_10 
ROOT
HETATM    1  C6  UNL     1      65.343  33.539  71.754  1.00  0.00     0.023 C 
HETATM    2  C7  UNL     1      65.096  34.812  70.984  1.00  0.00     0.024 C 
HETATM    3  C8  UNL     1      63.589  35.089  70.817  1.00  0.00     0.040 C 
HETATM    4  C9  UNL     1      63.231  35.612  72.169  1.00  0.00     0.187 C 
HETATM    5  C10 UNL     1      63.488  34.505  73.175  1.00  0.00     0.040 C 
HETATM    6  C11 UNL     1      65.010  34.355  73.016  1.00  0.00     0.024 C 
HETATM    7  C12 UNL     1      65.445  35.568  72.245  1.00  0.00     0.195 C 
HETATM    8  N3  UNL     1      64.355  36.486  72.457  1.00  0.00    -0.066 N 
ATOM      9  H31 UNL     1      64.336  36.951  73.364  1.00  0.00     0.278 HD
ATOM     10  H32 UNL     1      64.393  37.353  71.921  1.00  0.00     0.278 HD
ENDROOT
BRANCH   1  11
HETATM   11  C5  UNL     1      66.760  33.101  71.810  1.00  0.00     0.237 C 
BRANCH  11  12
HETATM   12  N2  UNL     1      67.340  32.709  70.544  1.00  0.00    -0.073 N 
ATOM     13  H22 UNL     1      66.864  33.133  69.748  1.00  0.00     0.277 HD
ATOM     14  H21 UNL     1      67.155  31.733  70.313  1.00  0.00     0.277 HD
BRANCH  12  15
HETATM   15  C4  UNL     1      68.741  33.012  70.575  1.00  0.00     0.262 C 
BRANCH  15  16
HETATM   16  C3  UNL     1      69.603  32.015  71.293  1.00  0.00     0.298 C 
BRANCH  16  17
HETATM   17  N1  UNL     1      69.382  30.705  70.664  1.00  0.00     0.081 N 
HETATM   18  C1  UNL     1      70.384  30.467  69.673  1.00  0.00     0.309 C 
HETATM   19  C2  UNL     1      69.245  29.650  71.627  1.00  0.00     0.309 C 
ENDBRANCH  16  17
ENDBRANCH  15  16
ENDBRANCH  12  15
ENDBRANCH  11  12
ENDBRANCH   1  11
TORSDOF 5
ENDMDL
MODEL 5
REMARK VINA RESULT: -5.997012469      1.251      1.838
REMARK  5 active torsions:
REMARK  status: ('A' for Active; 'I' for Inactive)
REMARK    1  A    between atoms: N1_2  and  C3_4 
REMARK    2  A    between atoms: C3_4  and  C4_5 
REMARK    3  A    between atoms: C4_5  and  N2_6 
REMARK    4  A    between atoms: N2_6  and  C5_9 
REMARK    5  A    between atoms: C5_9  and  C6_10 
ROOT
HETATM    1  C6  UNL     1      63.810  36.159  71.052  1.00  0.00     0.023 C 
HETATM    2  C7  UNL     1      64.877  35.094  71.103  1.00  0.00     0.024 C 
HETATM    3  C8  UNL     1      65.491  34.975  72.512  1.00  0.00     0.040 C 
HETATM    4  C9  UNL     1      64.429  34.216  73.237  1.00  0.00     0.187 C 
HETATM    5  C10 UNL     1      63.174  35.070  73.243  1.00  0.00     0.040 C 
HETATM    6  C11 UNL     1      62.890  35.130  71.734  1.00  0.00     0.024 C 
HETATM    7  C12 UNL     1      63.765  34.070  71.127  1.00  0.00     0.195 C 
HETATM    8  N3  UNL     1      64.053  33.217  72.251  1.00  0.00    -0.066 N 
ATOM      9  H31 UNL     1      63.307  32.579  72.527  1.00  0.00     0.278 HD
ATOM     10  H32 UNL     1      64.736  32.478  72.084  1.00  0.00     0.278 HD
ENDROOT
BRANCH   1  11
HETATM   11  C5  UNL     1      63.289  36.465  69.696  1.00  0.00     0.237 C 
BRANCH  11  12
HETATM   12  N2  UNL     1      62.926  37.845  69.466  1.00  0.00    -0.073 N 
ATOM     13  H22 UNL     1      62.975  38.410  70.315  1.00  0.00     0.277 HD
ATOM     14  H21 UNL     1      61.931  37.963  69.279  1.00  0.00     0.277 HD
BRANCH  12  15
HETATM   15  C4  UNL     1      63.751  38.361  68.413  1.00  0.00     0.262 C 
BRANCH  15  16
HETATM   16  C3  UNL     1      63.326  39.685  67.847  1.00  0.00     0.298 C 
BRANCH  16  17
HETATM   17  N1  UNL     1      63.679  39.689  66.419  1.00  0.00     0.081 N 
HETATM   18  C1  UNL     1      62.532  39.354  65.635  1.00  0.00     0.309 C 
HETATM   19  C2  UNL     1      64.331  40.903  66.019  1.00  0.00     0.309 C 
ENDBRANCH  16  17
ENDBRANCH  15  16
ENDBRANCH  12  15
ENDBRANCH  11  12
ENDBRANCH   1  11
TORSDOF 5
ENDMDL
