MODEL 1
REMARK VINA RESULT: -8.886807967      0.000      0.000
REMARK  10 active torsions:
REMARK  status: ('A' for Active; 'I' for Inactive)
REMARK    1  A    between atoms: C5_7  and  N2_8 
REMARK       I    between atoms: N2_8  and  C6_10 
REMARK       I    between atoms: C6_10  and  N3_11 
REMARK    2  A    between atoms: C7_13  and  C8_14 
REMARK    3  A    between atoms: C7_13  and  N9_32 
REMARK    4  A    between atoms: C8_14  and  C9_15 
REMARK    5  A    between atoms: C9_15  and  C10_16 
REMARK    6  A    between atoms: C10_16  and  S1_17 
REMARK    7  A    between atoms: S1_17  and  N4_18 
REMARK    8  A    between atoms: S1_17  and  N5_22 
REMARK    9  A    between atoms: N5_22  and  C11_24 
REMARK   10  A    between atoms: C11_24  and  C12_25 
REMARK       I    between atoms: C12_25  and  N6_27 
ROOT
HETATM    1  C1  UNL     1      44.420  11.529  36.826  1.00  0.00     0.019 C 
HETATM    2  C2  UNL     1      44.435  12.420  37.639  1.00  0.00    -0.058 C 
HETATM    3  C3  UNL     1      44.467  13.482  38.602  1.00  0.00     0.118 A 
HETATM    4  C4  UNL     1      44.658  13.275  39.947  1.00  0.00     0.145 A 
HETATM    5  N1  UNL     1      44.636  14.474  40.578  1.00  0.00    -0.198 N 
ATOM      6  H1  UNL     1      44.751  14.636  41.579  1.00  0.00     0.183 HD
HETATM    7  C5  UNL     1      44.437  15.402  39.642  1.00  0.00     0.697 A 
HETATM    8  N14 UNL     1      44.334  14.805  38.441  1.00  0.00    -0.182 N 
ATOM      9  H14 UNL     1      44.180  15.283  37.553  1.00  0.00     0.185 HD
ENDROOT
BRANCH   7  10
HETATM   10  N2  UNL     1      44.355  16.663  39.832  1.00  0.00    -0.021 N 
HETATM   11  C6  UNL     1      43.222  17.460  39.548  1.00  0.00     0.707 C 
HETATM   12  N3  UNL     1      43.346  18.634  38.796  1.00  0.00    -0.179 N 
HETATM   13  N12 UNL     1      42.068  17.078  40.008  1.00  0.00    -0.125 N 
HETATM   14  C7  UNL     1      44.160  18.863  37.837  1.00  0.00     0.099 C 
ATOM     15  H3  UNL     1      42.714  19.396  39.042  1.00  0.00     0.185 HD
HETATM   16  C15 UNL     1      40.901  17.819  39.767  1.00  0.00     0.196 C 
ATOM     17  H12 UNL     1      42.009  16.220  40.557  1.00  0.00     0.197 HD
HETATM   18  N13 UNL     1      39.938  18.447  39.582  1.00  0.00    -0.171 NA
ATOM     19  H2  UNL     1      45.173  17.134  40.219  1.00  0.00     0.203 HD
BRANCH  14  20
HETATM   20  C8  UNL     1      44.169  20.170  37.132  1.00  0.00     0.078 C 
BRANCH  20  21
HETATM   21  C9  UNL     1      45.032  21.105  37.905  1.00  0.00     0.023 C 
BRANCH  21  22
HETATM   22  C10 UNL     1      45.211  22.472  37.282  1.00  0.00     0.139 C 
BRANCH  22  23
HETATM   23  S1  UNL     1      45.985  22.470  35.621  1.00  0.00     0.100 S 
HETATM   24  O1  UNL     1      44.761  21.933  34.118  1.00  0.00    -0.229 OA
BRANCH  23  25
HETATM   25  N4  UNL     1      45.430  24.121  35.131  1.00  0.00    -0.345 N 
ATOM     26  H42 UNL     1      44.521  24.453  34.806  1.00  0.00     0.167 HD
ATOM     27  H41 UNL     1      46.319  24.595  35.288  1.00  0.00     0.167 HD
ENDBRANCH  23  25
BRANCH  23  28
HETATM   28  N5  UNL     1      47.682  22.703  35.183  1.00  0.00    -0.328 N 
ATOM     29  H5  UNL     1      47.907  23.392  34.465  1.00  0.00     0.171 HD
BRANCH  28  30
HETATM   30  C11 UNL     1      48.756  21.971  35.784  1.00  0.00     0.233 C 
BRANCH  30  31
HETATM   31  C12 UNL     1      48.852  20.596  35.270  1.00  0.00     0.241 C 
HETATM   32  O2  UNL     1      48.333  20.265  34.177  1.00  0.00    -0.271 OA
HETATM   33  N6  UNL     1      49.540  19.606  36.010  1.00  0.00    -0.302 N 
HETATM   34  C13 UNL     1      49.165  19.171  37.158  1.00  0.00     0.203 C 
ATOM     35  H6  UNL     1      50.389  19.211  35.606  1.00  0.00     0.171 HD
HETATM   36  N7  UNL     1      49.979  18.167  37.771  1.00  0.00    -0.066 NA
HETATM   37  N8  UNL     1      48.007  19.630  37.835  1.00  0.00    -0.066 NA
ENDBRANCH  30  31
ENDBRANCH  28  30
ENDBRANCH  23  28
ENDBRANCH  22  23
ENDBRANCH  21  22
ENDBRANCH  20  21
ENDBRANCH  14  20
BRANCH  14  38
HETATM   38  N9  UNL     1      45.068  17.868  37.433  1.00  0.00    -0.322 N 
HETATM   39  C14 UNL     1      45.686  17.798  36.319  1.00  0.00     0.202 C 
HETATM   40  N10 UNL     1      46.569  16.709  36.098  1.00  0.00    -0.066 NA
HETATM   41  N11 UNL     1      45.494  18.783  35.322  1.00  0.00    -0.066 NA
ATOM     42  H9  UNL     1      45.254  17.122  38.103  1.00  0.00     0.169 HD
ENDBRANCH  14  38
ENDBRANCH   7  10
TORSDOF 10
ENDMDL
MODEL 2
REMARK VINA RESULT: -8.834064115      2.099      2.744
REMARK  10 active torsions:
REMARK  status: ('A' for Active; 'I' for Inactive)
REMARK    1  A    between atoms: C5_7  and  N2_8 
REMARK       I    between atoms: N2_8  and  C6_10 
REMARK       I    between atoms: C6_10  and  N3_11 
REMARK    2  A    between atoms: C7_13  and  C8_14 
REMARK    3  A    between atoms: C7_13  and  N9_32 
REMARK    4  A    between atoms: C8_14  and  C9_15 
REMARK    5  A    between atoms: C9_15  and  C10_16 
REMARK    6  A    between atoms: C10_16  and  S1_17 
REMARK    7  A    between atoms: S1_17  and  N4_18 
REMARK    8  A    between atoms: S1_17  and  N5_22 
REMARK    9  A    between atoms: N5_22  and  C11_24 
REMARK   10  A    between atoms: C11_24  and  C12_25 
REMARK       I    between atoms: C12_25  and  N6_27 
ROOT
HETATM    1  C1  UNL     1      45.063  10.926  38.310  1.00  0.00     0.019 C 
HETATM    2  C2  UNL     1      44.630  12.052  38.344  1.00  0.00    -0.058 C 
HETATM    3  C3  UNL     1      44.113  13.388  38.399  1.00  0.00     0.118 A 
HETATM    4  C4  UNL     1      42.868  13.734  37.930  1.00  0.00     0.145 A 
HETATM    5  N1  UNL     1      42.683  15.062  38.129  1.00  0.00    -0.198 N 
ATOM      6  H1  UNL     1      41.855  15.604  37.882  1.00  0.00     0.183 HD
HETATM    7  C5  UNL     1      43.791  15.525  38.709  1.00  0.00     0.697 A 
HETATM    8  N14 UNL     1      44.660  14.513  38.876  1.00  0.00    -0.182 N 
ATOM      9  H14 UNL     1      45.586  14.591  39.297  1.00  0.00     0.185 HD
ENDROOT
BRANCH   7  10
HETATM   10  N2  UNL     1      44.011  16.734  39.062  1.00  0.00    -0.021 N 
HETATM   11  C6  UNL     1      43.019  17.723  39.253  1.00  0.00     0.707 C 
HETATM   12  N3  UNL     1      43.138  18.978  38.644  1.00  0.00    -0.179 N 
HETATM   13  N12 UNL     1      42.001  17.439  40.009  1.00  0.00    -0.125 N 
HETATM   14  C7  UNL     1      43.660  19.247  37.508  1.00  0.00     0.099 C 
ATOM     15  H3  UNL     1      42.763  19.770  39.167  1.00  0.00     0.185 HD
HETATM   16  C15 UNL     1      40.979  18.371  40.243  1.00  0.00     0.196 C 
ATOM     17  H12 UNL     1      41.944  16.518  40.443  1.00  0.00     0.197 HD
HETATM   18  N13 UNL     1      40.143  19.154  40.452  1.00  0.00    -0.171 NA
ATOM     19  H2  UNL     1      44.981  17.007  39.220  1.00  0.00     0.203 HD
BRANCH  14  20
HETATM   20  C8  UNL     1      43.710  20.640  36.997  1.00  0.00     0.078 C 
BRANCH  20  21
HETATM   21  C9  UNL     1      44.767  21.370  37.749  1.00  0.00     0.023 C 
BRANCH  21  22
HETATM   22  C10 UNL     1      44.928  22.827  37.373  1.00  0.00     0.139 C 
BRANCH  22  23
HETATM   23  S1  UNL     1      45.878  23.128  35.835  1.00  0.00     0.100 S 
HETATM   24  O1  UNL     1      47.499  24.298  36.056  1.00  0.00    -0.229 OA
BRANCH  23  25
HETATM   25  N4  UNL     1      47.110  21.827  36.093  1.00  0.00    -0.345 N 
ATOM     26  H42 UNL     1      47.592  21.519  36.938  1.00  0.00     0.167 HD
ATOM     27  H41 UNL     1      47.155  21.514  35.124  1.00  0.00     0.167 HD
ENDBRANCH  23  25
BRANCH  23  28
HETATM   28  N5  UNL     1      45.476  22.681  34.172  1.00  0.00    -0.328 N 
ATOM     29  H5  UNL     1      44.692  22.048  34.017  1.00  0.00     0.171 HD
BRANCH  28  30
HETATM   30  C11 UNL     1      46.197  23.163  33.033  1.00  0.00     0.233 C 
BRANCH  30  31
HETATM   31  C12 UNL     1      46.156  22.218  31.906  1.00  0.00     0.241 C 
HETATM   32  O2  UNL     1      45.101  22.008  31.262  1.00  0.00    -0.271 OA
HETATM   33  N6  UNL     1      47.324  21.517  31.523  1.00  0.00    -0.302 N 
HETATM   34  C13 UNL     1      47.919  20.648  32.256  1.00  0.00     0.203 C 
ATOM     35  H6  UNL     1      47.720  21.716  30.604  1.00  0.00     0.171 HD
HETATM   36  N7  UNL     1      49.091  20.032  31.715  1.00  0.00    -0.066 NA
HETATM   37  N8  UNL     1      47.478  20.276  33.551  1.00  0.00    -0.066 NA
ENDBRANCH  30  31
ENDBRANCH  28  30
ENDBRANCH  23  28
ENDBRANCH  22  23
ENDBRANCH  21  22
ENDBRANCH  20  21
ENDBRANCH  14  20
BRANCH  14  38
HETATM   38  N9  UNL     1      44.201  18.215  36.721  1.00  0.00    -0.322 N 
HETATM   39  C14 UNL     1      45.433  18.015  36.457  1.00  0.00     0.202 C 
HETATM   40  N10 UNL     1      45.783  16.909  35.637  1.00  0.00    -0.066 NA
HETATM   41  N11 UNL     1      46.432  18.876  36.969  1.00  0.00    -0.066 NA
ATOM     42  H9  UNL     1      43.537  17.556  36.316  1.00  0.00     0.169 HD
ENDBRANCH  14  38
ENDBRANCH   7  10
TORSDOF 10
ENDMDL
MODEL 3
REMARK VINA RESULT: -8.769031714      1.977      3.008
REMARK  10 active torsions:
REMARK  status: ('A' for Active; 'I' for Inactive)
REMARK    1  A    between atoms: C5_7  and  N2_8 
REMARK       I    between atoms: N2_8  and  C6_10 
REMARK       I    between atoms: C6_10  and  N3_11 
REMARK    2  A    between atoms: C7_13  and  C8_14 
REMARK    3  A    between atoms: C7_13  and  N9_32 
REMARK    4  A    between atoms: C8_14  and  C9_15 
REMARK    5  A    between atoms: C9_15  and  C10_16 
REMARK    6  A    between atoms: C10_16  and  S1_17 
REMARK    7  A    between atoms: S1_17  and  N4_18 
REMARK    8  A    between atoms: S1_17  and  N5_22 
REMARK    9  A    between atoms: N5_22  and  C11_24 
REMARK   10  A    between atoms: C11_24  and  C12_25 
REMARK       I    between atoms: C12_25  and  N6_27 
ROOT
HETATM    1  C1  UNL     1      45.058  10.914  38.314  1.00  0.00     0.019 C 
HETATM    2  C2  UNL     1      44.633  12.043  38.349  1.00  0.00    -0.058 C 
HETATM    3  C3  UNL     1      44.126  13.383  38.407  1.00  0.00     0.118 A 
HETATM    4  C4  UNL     1      42.884  13.739  37.938  1.00  0.00     0.145 A 
HETATM    5  N1  UNL     1      42.709  15.068  38.139  1.00  0.00    -0.198 N 
ATOM      6  H1  UNL     1      41.885  15.617  37.893  1.00  0.00     0.183 HD
HETATM    7  C5  UNL     1      43.820  15.522  38.719  1.00  0.00     0.697 A 
HETATM    8  N14 UNL     1      44.682  14.504  38.885  1.00  0.00    -0.182 N 
ATOM      9  H14 UNL     1      45.609  14.573  39.305  1.00  0.00     0.185 HD
ENDROOT
BRANCH   7  10
HETATM   10  N2  UNL     1      44.050  16.729  39.074  1.00  0.00    -0.021 N 
HETATM   11  C6  UNL     1      43.066  17.725  39.264  1.00  0.00     0.707 C 
HETATM   12  N3  UNL     1      43.195  18.980  38.657  1.00  0.00    -0.179 N 
HETATM   13  N12 UNL     1      42.045  17.449  40.020  1.00  0.00    -0.125 N 
HETATM   14  C7  UNL     1      43.720  19.246  37.522  1.00  0.00     0.099 C 
ATOM     15  H3  UNL     1      42.826  19.775  39.181  1.00  0.00     0.185 HD
HETATM   16  C15 UNL     1      41.030  18.389  40.254  1.00  0.00     0.196 C 
ATOM     17  H12 UNL     1      41.980  16.527  40.453  1.00  0.00     0.197 HD
HETATM   18  N13 UNL     1      40.200  19.178  40.463  1.00  0.00    -0.171 NA
ATOM     19  H2  UNL     1      45.022  16.994  39.233  1.00  0.00     0.203 HD
BRANCH  14  20
HETATM   20  C8  UNL     1      43.782  20.639  37.012  1.00  0.00     0.078 C 
BRANCH  20  21
HETATM   21  C9  UNL     1      44.901  21.336  37.705  1.00  0.00     0.023 C 
BRANCH  21  22
HETATM   22  C10 UNL     1      45.670  22.318  36.849  1.00  0.00     0.139 C 
BRANCH  22  23
HETATM   23  S1  UNL     1      46.091  21.716  35.170  1.00  0.00     0.100 S 
HETATM   24  O1  UNL     1      44.632  21.935  33.803  1.00  0.00    -0.229 OA
BRANCH  23  25
HETATM   25  N4  UNL     1      46.598  23.317  34.497  1.00  0.00    -0.345 N 
ATOM     26  H42 UNL     1      46.054  24.146  34.256  1.00  0.00     0.167 HD
ATOM     27  H41 UNL     1      47.595  23.110  34.442  1.00  0.00     0.167 HD
ENDBRANCH  23  25
BRANCH  23  28
HETATM   28  N5  UNL     1      47.518  20.823  34.632  1.00  0.00    -0.328 N 
ATOM     29  H5  UNL     1      47.700  19.908  35.044  1.00  0.00     0.171 HD
BRANCH  28  30
HETATM   30  C11 UNL     1      48.431  21.319  33.647  1.00  0.00     0.233 C 
BRANCH  30  31
HETATM   31  C12 UNL     1      48.155  20.778  32.307  1.00  0.00     0.241 C 
HETATM   32  O2  UNL     1      48.937  19.973  31.749  1.00  0.00    -0.271 OA
HETATM   33  N6  UNL     1      46.985  21.165  31.611  1.00  0.00    -0.302 N 
HETATM   34  C13 UNL     1      46.748  22.357  31.200  1.00  0.00     0.203 C 
ATOM     35  H6  UNL     1      46.282  20.449  31.425  1.00  0.00     0.171 HD
HETATM   36  N7  UNL     1      45.513  22.576  30.513  1.00  0.00    -0.066 NA
HETATM   37  N8  UNL     1      47.636  23.446  31.390  1.00  0.00    -0.066 NA
ENDBRANCH  30  31
ENDBRANCH  28  30
ENDBRANCH  23  28
ENDBRANCH  22  23
ENDBRANCH  21  22
ENDBRANCH  20  21
ENDBRANCH  14  20
BRANCH  14  38
HETATM   38  N9  UNL     1      44.254  18.211  36.734  1.00  0.00    -0.322 N 
HETATM   39  C14 UNL     1      45.487  17.971  36.512  1.00  0.00     0.202 C 
HETATM   40  N10 UNL     1      45.828  16.870  35.683  1.00  0.00    -0.066 NA
HETATM   41  N11 UNL     1      46.495  18.786  37.078  1.00  0.00    -0.066 NA
ATOM     42  H9  UNL     1      43.582  17.584  36.291  1.00  0.00     0.169 HD
ENDBRANCH  14  38
ENDBRANCH   7  10
TORSDOF 10
ENDMDL
MODEL 4
REMARK VINA RESULT: -8.751609938      2.085      3.119
REMARK  10 active torsions:
REMARK  status: ('A' for Active; 'I' for Inactive)
REMARK    1  A    between atoms: C5_7  and  N2_8 
REMARK       I    between atoms: N2_8  and  C6_10 
REMARK       I    between atoms: C6_10  and  N3_11 
REMARK    2  A    between atoms: C7_13  and  C8_14 
REMARK    3  A    between atoms: C7_13  and  N9_32 
REMARK    4  A    between atoms: C8_14  and  C9_15 
REMARK    5  A    between atoms: C9_15  and  C10_16 
REMARK    6  A    between atoms: C10_16  and  S1_17 
REMARK    7  A    between atoms: S1_17  and  N4_18 
REMARK    8  A    between atoms: S1_17  and  N5_22 
REMARK    9  A    between atoms: N5_22  and  C11_24 
REMARK   10  A    between atoms: C11_24  and  C12_25 
REMARK       I    between atoms: C12_25  and  N6_27 
ROOT
HETATM    1  C1  UNL     1      43.883  11.333  40.196  1.00  0.00     0.019 C 
HETATM    2  C2  UNL     1      44.050  12.443  39.753  1.00  0.00    -0.058 C 
HETATM    3  C3  UNL     1      44.234  13.763  39.225  1.00  0.00     0.118 A 
HETATM    4  C4  UNL     1      44.627  14.010  37.931  1.00  0.00     0.145 A 
HETATM    5  N1  UNL     1      44.706  15.351  37.751  1.00  0.00    -0.198 N 
ATOM      6  H1  UNL     1      44.973  15.834  36.893  1.00  0.00     0.183 HD
HETATM    7  C5  UNL     1      44.369  15.919  38.909  1.00  0.00     0.697 A 
HETATM    8  N14 UNL     1      44.081  14.960  39.806  1.00  0.00    -0.182 N 
ATOM      9  H14 UNL     1      43.793  15.119  40.771  1.00  0.00     0.185 HD
ENDROOT
BRANCH   7  10
HETATM   10  N2  UNL     1      44.318  17.174  39.149  1.00  0.00    -0.021 N 
HETATM   11  C6  UNL     1      43.139  17.953  39.178  1.00  0.00     0.707 C 
HETATM   12  N3  UNL     1      43.055  19.147  38.453  1.00  0.00    -0.179 N 
HETATM   13  N12 UNL     1      42.141  17.535  39.898  1.00  0.00    -0.125 N 
HETATM   14  C7  UNL     1      43.603  19.416  37.329  1.00  0.00     0.099 C 
ATOM     15  H3  UNL     1      42.492  19.889  38.869  1.00  0.00     0.185 HD
HETATM   16  C15 UNL     1      40.940  18.256  39.974  1.00  0.00     0.196 C 
ATOM     17  H12 UNL     1      42.232  16.663  40.419  1.00  0.00     0.197 HD
HETATM   18  N13 UNL     1      39.952  18.867  40.051  1.00  0.00    -0.171 NA
ATOM     19  H2  UNL     1      45.200  17.652  39.336  1.00  0.00     0.203 HD
BRANCH  14  20
HETATM   20  C8  UNL     1      43.418  20.740  36.682  1.00  0.00     0.078 C 
BRANCH  20  21
HETATM   21  C9  UNL     1      44.342  21.707  37.336  1.00  0.00     0.023 C 
BRANCH  21  22
HETATM   22  C10 UNL     1      44.879  22.792  36.428  1.00  0.00     0.139 C 
BRANCH  22  23
HETATM   23  S1  UNL     1      46.640  22.604  35.957  1.00  0.00     0.100 S 
HETATM   24  O1  UNL     1      47.776  24.236  36.263  1.00  0.00    -0.229 OA
BRANCH  23  25
HETATM   25  N4  UNL     1      47.254  22.192  37.608  1.00  0.00    -0.345 N 
ATOM     26  H42 UNL     1      47.852  21.431  37.930  1.00  0.00     0.167 HD
ATOM     27  H41 UNL     1      46.806  22.967  38.097  1.00  0.00     0.167 HD
ENDBRANCH  23  25
BRANCH  23  28
HETATM   28  N5  UNL     1      47.432  21.264  35.119  1.00  0.00    -0.328 N 
ATOM     29  H5  UNL     1      48.368  20.992  35.417  1.00  0.00     0.171 HD
BRANCH  28  30
HETATM   30  C11 UNL     1      46.824  20.542  34.042  1.00  0.00     0.233 C 
BRANCH  30  31
HETATM   31  C12 UNL     1      47.675  20.508  32.842  1.00  0.00     0.241 C 
HETATM   32  O2  UNL     1      48.851  20.077  32.883  1.00  0.00    -0.271 OA
HETATM   33  N6  UNL     1      47.175  20.970  31.602  1.00  0.00    -0.302 N 
HETATM   34  C13 UNL     1      46.851  22.189  31.362  1.00  0.00     0.203 C 
ATOM     35  H6  UNL     1      47.064  20.291  30.849  1.00  0.00     0.171 HD
HETATM   36  N7  UNL     1      46.360  22.486  30.052  1.00  0.00    -0.066 NA
HETATM   37  N8  UNL     1      46.955  23.234  32.315  1.00  0.00    -0.066 NA
ENDBRANCH  30  31
ENDBRANCH  28  30
ENDBRANCH  23  28
ENDBRANCH  22  23
ENDBRANCH  21  22
ENDBRANCH  20  21
ENDBRANCH  14  20
BRANCH  14  38
HETATM   38  N9  UNL     1      44.397  18.452  36.684  1.00  0.00    -0.322 N 
HETATM   39  C14 UNL     1      45.667  18.341  36.738  1.00  0.00     0.202 C 
HETATM   40  N10 UNL     1      46.290  17.292  36.012  1.00  0.00    -0.066 NA
HETATM   41  N11 UNL     1      46.440  19.245  37.503  1.00  0.00    -0.066 NA
ATOM     42  H9  UNL     1      43.905  17.767  36.111  1.00  0.00     0.169 HD
ENDBRANCH  14  38
ENDBRANCH   7  10
TORSDOF 10
ENDMDL
MODEL 5
REMARK VINA RESULT: -8.429942478      3.682      6.488
REMARK  10 active torsions:
REMARK  status: ('A' for Active; 'I' for Inactive)
REMARK    1  A    between atoms: C5_7  and  N2_8 
REMARK       I    between atoms: N2_8  and  C6_10 
REMARK       I    between atoms: C6_10  and  N3_11 
REMARK    2  A    between atoms: C7_13  and  C8_14 
REMARK    3  A    between atoms: C7_13  and  N9_32 
REMARK    4  A    between atoms: C8_14  and  C9_15 
REMARK    5  A    between atoms: C9_15  and  C10_16 
REMARK    6  A    between atoms: C10_16  and  S1_17 
REMARK    7  A    between atoms: S1_17  and  N4_18 
REMARK    8  A    between atoms: S1_17  and  N5_22 
REMARK    9  A    between atoms: N5_22  and  C11_24 
REMARK   10  A    between atoms: C11_24  and  C12_25 
REMARK       I    between atoms: C12_25  and  N6_27 
ROOT
HETATM    1  C1  UNL     1      42.454  16.959  39.442  1.00  0.00     0.019 C 
HETATM    2  C2  UNL     1      43.194  17.659  38.795  1.00  0.00    -0.058 C 
HETATM    3  C3  UNL     1      44.061  18.496  38.018  1.00  0.00     0.118 A 
HETATM    4  C4  UNL     1      44.904  18.010  37.046  1.00  0.00     0.145 A 
HETATM    5  N1  UNL     1      45.582  19.050  36.502  1.00  0.00    -0.198 N 
ATOM      6  H1  UNL     1      46.278  18.999  35.758  1.00  0.00     0.183 HD
HETATM    7  C5  UNL     1      45.166  20.153  37.125  1.00  0.00     0.697 A 
HETATM    8  N14 UNL     1      44.243  19.822  38.044  1.00  0.00    -0.182 N 
ATOM      9  H14 UNL     1      43.760  20.475  38.661  1.00  0.00     0.185 HD
ENDROOT
BRANCH   7  10
HETATM   10  N2  UNL     1      45.565  21.346  36.898  1.00  0.00    -0.021 N 
HETATM   11  C6  UNL     1      45.904  21.866  35.628  1.00  0.00     0.707 C 
HETATM   12  N3  UNL     1      47.118  22.537  35.432  1.00  0.00    -0.179 N 
HETATM   13  N12 UNL     1      45.061  21.712  34.652  1.00  0.00    -0.125 N 
HETATM   14  C7  UNL     1      48.237  22.304  36.005  1.00  0.00     0.099 C 
ATOM     15  H3  UNL     1      47.108  23.299  34.754  1.00  0.00     0.185 HD
HETATM   16  C15 UNL     1      45.330  22.201  33.365  1.00  0.00     0.196 C 
ATOM     17  H12 UNL     1      44.182  21.223  34.825  1.00  0.00     0.197 HD
HETATM   18  N13 UNL     1      45.547  22.627  32.303  1.00  0.00    -0.171 NA
ATOM     19  H2  UNL     1      45.645  21.975  37.698  1.00  0.00     0.203 HD
BRANCH  14  20
HETATM   20  C8  UNL     1      49.444  23.109  35.688  1.00  0.00     0.078 C 
BRANCH  20  21
HETATM   21  C9  UNL     1      49.177  24.518  36.088  1.00  0.00     0.023 C 
BRANCH  21  22
HETATM   22  C10 UNL     1      49.725  24.913  37.442  1.00  0.00     0.139 C 
BRANCH  22  23
HETATM   23  S1  UNL     1      48.891  26.344  38.226  1.00  0.00     0.100 S 
HETATM   24  O1  UNL     1      49.500  28.143  37.565  1.00  0.00    -0.229 OA
BRANCH  23  25
HETATM   25  N4  UNL     1      47.643  26.588  36.940  1.00  0.00    -0.345 N 
ATOM     26  H42 UNL     1      47.025  25.925  36.471  1.00  0.00     0.167 HD
ATOM     27  H41 UNL     1      47.766  27.596  36.847  1.00  0.00     0.167 HD
ENDBRANCH  23  25
BRANCH  23  28
HETATM   28  N5  UNL     1      47.767  26.369  39.590  1.00  0.00    -0.328 N 
ATOM     29  H5  UNL     1      48.017  25.853  40.434  1.00  0.00     0.171 HD
BRANCH  28  30
HETATM   30  C11 UNL     1      46.521  27.075  39.569  1.00  0.00     0.233 C 
BRANCH  30  31
HETATM   31  C12 UNL     1      45.411  26.264  40.092  1.00  0.00     0.241 C 
HETATM   32  O2  UNL     1      45.215  26.134  41.323  1.00  0.00    -0.271 OA
HETATM   33  N6  UNL     1      44.531  25.604  39.202  1.00  0.00    -0.302 N 
HETATM   34  C13 UNL     1      44.880  24.654  38.413  1.00  0.00     0.203 C 
ATOM     35  H6  UNL     1      43.556  25.903  39.186  1.00  0.00     0.171 HD
HETATM   36  N7  UNL     1      43.862  24.097  37.576  1.00  0.00    -0.066 NA
HETATM   37  N8  UNL     1      46.199  24.140  38.333  1.00  0.00    -0.066 NA
ENDBRANCH  30  31
ENDBRANCH  28  30
ENDBRANCH  23  28
ENDBRANCH  22  23
ENDBRANCH  21  22
ENDBRANCH  20  21
ENDBRANCH  14  20
BRANCH  14  38
HETATM   38  N9  UNL     1      48.341  21.271  36.954  1.00  0.00    -0.322 N 
HETATM   39  C14 UNL     1      48.772  20.087  36.757  1.00  0.00     0.202 C 
HETATM   40  N10 UNL     1      48.801  19.183  37.851  1.00  0.00    -0.066 NA
HETATM   41  N11 UNL     1      49.211  19.681  35.475  1.00  0.00    -0.066 NA
ATOM     42  H9  UNL     1      48.040  21.493  37.902  1.00  0.00     0.169 HD
ENDBRANCH  14  38
ENDBRANCH   7  10
TORSDOF 10
ENDMDL
