MODEL 1
REMARK VINA RESULT: -5.585490673      0.000      0.000
REMARK  2 active torsions:
REMARK  status: ('A' for Active; 'I' for Inactive)
REMARK    1  A    between atoms: C3_5  and  N2_6 
REMARK    2  A    between atoms: N2_6  and  C4_8 
ROOT
HETATM    1  N2  UNL     1      10.297  31.173   8.420  1.00  0.00    -0.020 N 
ATOM      2  H2  UNL     1       9.580  30.537   8.769  1.00  0.00     0.203 HD
ENDROOT
BRANCH   1   3
HETATM    3  C3  UNL     1      10.128  31.862   7.182  1.00  0.00     0.688 C 
HETATM    4  N1  UNL     1       9.730  33.085   7.132  1.00  0.00    -0.226 N 
HETATM    5  C2  UNL     1       9.554  33.790   5.884  1.00  0.00     0.139 C 
ATOM      6  H1  UNL     1       9.531  33.573   8.005  1.00  0.00     0.177 HD
HETATM    7  C1  UNL     1       9.161  32.804   4.810  1.00  0.00     0.040 C 
HETATM    8  C5  UNL     1      10.332  31.822   4.682  1.00  0.00     0.139 C 
HETATM    9  N7  UNL     1      10.412  31.154   5.985  1.00  0.00    -0.226 N 
ATOM     10  H7  UNL     1      10.674  30.170   6.032  1.00  0.00     0.177 HD
ENDBRANCH   1   3
BRANCH   1  11
HETATM   11  C4  UNL     1      11.392  31.380   9.091  1.00  0.00     0.728 A 
HETATM   12  N3  UNL     1      12.601  31.741   8.627  1.00  0.00    -0.115 N 
HETATM   13  N4  UNL     1      13.444  31.845   9.636  1.00  0.00    -0.213 N 
ATOM     14  H3  UNL     1      12.831  31.908   7.646  1.00  0.00     0.207 HD
HETATM   15  N5  UNL     1      12.806  31.557  10.754  1.00  0.00    -0.213 N 
ATOM     16  H4  UNL     1      14.428  32.105   9.565  1.00  0.00     0.210 HD
HETATM   17  N6  UNL     1      11.560  31.274  10.421  1.00  0.00    -0.115 N 
ATOM     18  H5  UNL     1      13.199  31.553  11.695  1.00  0.00     0.210 HD
ATOM     19  H6  UNL     1      10.826  31.012  11.081  1.00  0.00     0.207 HD
ENDBRANCH   1  11
TORSDOF 2
ENDMDL
MODEL 2
REMARK VINA RESULT: -5.585275163      0.031      1.022
REMARK  2 active torsions:
REMARK  status: ('A' for Active; 'I' for Inactive)
REMARK    1  A    between atoms: C3_5  and  N2_6 
REMARK    2  A    between atoms: N2_6  and  C4_8 
ROOT
HETATM    1  N2  UNL     1      10.276  31.166   8.439  1.00  0.00    -0.020 N 
ATOM      2  H2  UNL     1       9.556  30.528   8.780  1.00  0.00     0.203 HD
ENDROOT
BRANCH   1   3
HETATM    3  C3  UNL     1      10.112  31.862   7.204  1.00  0.00     0.688 C 
HETATM    4  N1  UNL     1       9.710  33.085   7.160  1.00  0.00    -0.226 N 
HETATM    5  C2  UNL     1       9.541  33.798   5.915  1.00  0.00     0.139 C 
ATOM      6  H1  UNL     1       9.504  33.566   8.035  1.00  0.00     0.177 HD
HETATM    7  C1  UNL     1       9.160  32.818   4.832  1.00  0.00     0.040 C 
HETATM    8  C5  UNL     1      10.335  31.841   4.706  1.00  0.00     0.139 C 
HETATM    9  N7  UNL     1      10.408  31.164   6.004  1.00  0.00    -0.226 N 
ATOM     10  H7  UNL     1      10.673  30.181   6.046  1.00  0.00     0.177 HD
ENDBRANCH   1   3
BRANCH   1  11
HETATM   11  C4  UNL     1      11.368  31.367   9.116  1.00  0.00     0.728 A 
HETATM   12  N3  UNL     1      11.561  31.253  10.442  1.00  0.00    -0.115 N 
HETATM   13  N4  UNL     1      12.816  31.547  10.727  1.00  0.00    -0.213 N 
ATOM     14  H3  UNL     1      10.850  30.982  11.121  1.00  0.00     0.207 HD
HETATM   15  N5  UNL     1      13.445  31.852   9.609  1.00  0.00    -0.213 N 
ATOM     16  H4  UNL     1      13.231  31.539  11.659  1.00  0.00     0.210 HD
HETATM   17  N6  UNL     1      12.564  31.743   8.632  1.00  0.00    -0.115 N 
ATOM     18  H5  UNL     1      14.425  32.121   9.517  1.00  0.00     0.210 HD
ATOM     19  H6  UNL     1      12.763  31.919   7.646  1.00  0.00     0.207 HD
ENDBRANCH   1  11
TORSDOF 2
ENDMDL
MODEL 3
REMARK VINA RESULT: -5.583884422      0.841      1.847
REMARK  2 active torsions:
REMARK  status: ('A' for Active; 'I' for Inactive)
REMARK    1  A    between atoms: C3_5  and  N2_6 
REMARK    2  A    between atoms: N2_6  and  C4_8 
ROOT
HETATM    1  N2  UNL     1      11.147  30.847   8.333  1.00  0.00    -0.020 N 
ATOM      2  H2  UNL     1      11.150  29.828   8.358  1.00  0.00     0.203 HD
ENDROOT
BRANCH   1   3
HETATM    3  C3  UNL     1      10.421  31.554   7.329  1.00  0.00     0.688 C 
HETATM    4  N1  UNL     1      10.692  31.430   6.077  1.00  0.00    -0.226 N 
HETATM    5  C2  UNL     1       9.962  32.142   5.053  1.00  0.00     0.139 C 
ATOM      6  H1  UNL     1      11.450  30.807   5.798  1.00  0.00     0.177 HD
HETATM    7  C1  UNL     1       9.482  33.459   5.614  1.00  0.00     0.040 C 
HETATM    8  C5  UNL     1       8.535  33.111   6.769  1.00  0.00     0.139 C 
HETATM    9  N7  UNL     1       9.372  32.413   7.750  1.00  0.00    -0.226 N 
ATOM     10  H7  UNL     1       9.200  32.547   8.746  1.00  0.00     0.177 HD
ENDBRANCH   1   3
BRANCH   1  11
HETATM   11  C4  UNL     1      11.806  31.541   9.215  1.00  0.00     0.728 A 
HETATM   12  N3  UNL     1      11.772  31.437  10.555  1.00  0.00    -0.115 N 
HETATM   13  N4  UNL     1      12.590  32.327  11.083  1.00  0.00    -0.213 N 
ATOM     14  H3  UNL     1      11.203  30.773  11.081  1.00  0.00     0.207 HD
HETATM   15  N5  UNL     1      13.158  33.012  10.110  1.00  0.00    -0.213 N 
ATOM     16  H4  UNL     1      12.756  32.463  12.081  1.00  0.00     0.210 HD
HETATM   17  N6  UNL     1      12.680  32.534   8.976  1.00  0.00    -0.115 N 
ATOM     18  H5  UNL     1      13.836  33.767  10.213  1.00  0.00     0.210 HD
ATOM     19  H6  UNL     1      12.939  32.871   8.048  1.00  0.00     0.207 HD
ENDBRANCH   1  11
TORSDOF 2
ENDMDL
MODEL 4
REMARK VINA RESULT: -5.550958683      0.880      1.575
REMARK  2 active torsions:
REMARK  status: ('A' for Active; 'I' for Inactive)
REMARK    1  A    between atoms: C3_5  and  N2_6 
REMARK    2  A    between atoms: N2_6  and  C4_8 
ROOT
HETATM    1  N2  UNL     1      11.376  30.844   8.140  1.00  0.00    -0.020 N 
ATOM      2  H2  UNL     1      11.522  29.838   8.053  1.00  0.00     0.203 HD
ENDROOT
BRANCH   1   3
HETATM    3  C3  UNL     1      10.539  31.546   7.222  1.00  0.00     0.688 C 
HETATM    4  N1  UNL     1      10.680  31.433   5.947  1.00  0.00    -0.226 N 
HETATM    5  C2  UNL     1       9.839  32.140   5.010  1.00  0.00     0.139 C 
ATOM      6  H1  UNL     1      11.413  30.822   5.587  1.00  0.00     0.177 HD
HETATM    7  C1  UNL     1       9.402  33.447   5.627  1.00  0.00     0.040 C 
HETATM    8  C5  UNL     1       8.585  33.080   6.872  1.00  0.00     0.139 C 
HETATM    9  N7  UNL     1       9.529  32.388   7.755  1.00  0.00    -0.226 N 
ATOM     10  H7  UNL     1       9.459  32.514   8.765  1.00  0.00     0.177 HD
ENDBRANCH   1   3
BRANCH   1  11
HETATM   11  C4  UNL     1      11.947  31.524   9.091  1.00  0.00     0.728 A 
HETATM   12  N3  UNL     1      12.774  32.578   8.983  1.00  0.00    -0.115 N 
HETATM   13  N4  UNL     1      13.134  32.977  10.189  1.00  0.00    -0.213 N 
ATOM     14  H3  UNL     1      13.077  33.004   8.106  1.00  0.00     0.207 HD
HETATM   15  N5  UNL     1      12.555  32.198  11.083  1.00  0.00    -0.213 N 
ATOM     16  H4  UNL     1      13.757  33.758  10.395  1.00  0.00     0.210 HD
HETATM   17  N6  UNL     1      11.835  31.317  10.415  1.00  0.00    -0.115 N 
ATOM     18  H5  UNL     1      12.647  32.265  12.097  1.00  0.00     0.210 HD
ATOM     19  H6  UNL     1      11.273  30.581  10.842  1.00  0.00     0.207 HD
ENDBRANCH   1  11
TORSDOF 2
ENDMDL
MODEL 5
REMARK VINA RESULT: -5.255155953      2.336      4.024
REMARK  2 active torsions:
REMARK  status: ('A' for Active; 'I' for Inactive)
REMARK    1  A    between atoms: C3_5  and  N2_6 
REMARK    2  A    between atoms: N2_6  and  C4_8 
ROOT
HETATM    1  N2  UNL     1      10.981  32.063   7.259  1.00  0.00    -0.020 N 
ATOM      2  H2  UNL     1      11.736  32.732   7.410  1.00  0.00     0.203 HD
ENDROOT
BRANCH   1   3
HETATM    3  C3  UNL     1       9.738  32.192   7.947  1.00  0.00     0.688 C 
HETATM    4  N1  UNL     1       8.865  33.078   7.616  1.00  0.00    -0.226 N 
HETATM    5  C2  UNL     1       7.604  33.217   8.308  1.00  0.00     0.139 C 
ATOM      6  H1  UNL     1       9.071  33.706   6.839  1.00  0.00     0.177 HD
HETATM    7  C1  UNL     1       7.783  32.807   9.750  1.00  0.00     0.040 C 
HETATM    8  C5  UNL     1       8.194  31.329   9.726  1.00  0.00     0.139 C 
HETATM    9  N7  UNL     1       9.481  31.304   9.024  1.00  0.00    -0.226 N 
ATOM     10  H7  UNL     1      10.200  30.641   9.313  1.00  0.00     0.177 HD
ENDBRANCH   1   3
BRANCH   1  11
HETATM   11  C4  UNL     1      11.124  31.068   6.432  1.00  0.00     0.728 A 
HETATM   12  N3  UNL     1      11.980  30.034   6.511  1.00  0.00    -0.115 N 
HETATM   13  N4  UNL     1      11.805  29.243   5.469  1.00  0.00    -0.213 N 
ATOM     14  H3  UNL     1      12.658  29.884   7.258  1.00  0.00     0.207 HD
HETATM   15  N5  UNL     1      10.849  29.744   4.711  1.00  0.00    -0.213 N 
ATOM     16  H4  UNL     1      12.323  28.384   5.281  1.00  0.00     0.210 HD
HETATM   17  N6  UNL     1      10.437  30.853   5.297  1.00  0.00    -0.115 N 
ATOM     18  H5  UNL     1      10.496  29.350   3.839  1.00  0.00     0.210 HD
ATOM     19  H6  UNL     1       9.701  31.461   4.939  1.00  0.00     0.207 HD
ENDBRANCH   1  11
TORSDOF 2
ENDMDL
