MODEL 1
REMARK VINA RESULT: -11.238777464      0.000      0.000
REMARK  1 active torsions:
REMARK  status: ('A' for Active; 'I' for Inactive)
REMARK    1  A    between atoms: N1_1  and  C1_5 
ROOT
HETATM    1  C1  UNL     1      22.346 -10.520  40.815  1.00  0.00     0.267 C 
HETATM    2  C2  UNL     1      23.524  -9.839  41.473  1.00  0.00    -0.015 A 
HETATM    3  C3  UNL     1      24.517 -10.579  42.040  1.00  0.00     0.011 A 
HETATM    4  C4  UNL     1      25.595  -9.958  42.673  1.00  0.00     0.013 A 
HETATM    5  C5  UNL     1      25.651  -8.580  42.722  1.00  0.00    -0.025 A 
HETATM    6  C6  UNL     1      26.721  -7.950  43.352  1.00  0.00     0.012 A 
HETATM    7  C7  UNL     1      26.771  -6.577  43.398  1.00  0.00     0.001 A 
HETATM    8  C8  UNL     1      25.794  -5.795  42.840  1.00  0.00     0.001 A 
HETATM    9  C9  UNL     1      24.730  -6.411  42.215  1.00  0.00     0.013 A 
HETATM   10  C10 UNL     1      24.669  -7.804  42.162  1.00  0.00    -0.019 A 
HETATM   11  C11 UNL     1      23.600  -8.452  41.534  1.00  0.00    -0.034 A 
HETATM   12  C12 UNL     1      22.512  -7.730  40.880  1.00  0.00     0.080 C 
HETATM   13  C13 UNL     1      21.210  -8.340  41.252  1.00  0.00    -0.028 A 
HETATM   14  C14 UNL     1      20.104  -7.580  41.623  1.00  0.00     0.023 A 
HETATM   15  C15 UNL     1      18.924  -8.220  41.931  1.00  0.00    -0.009 A 
HETATM   16  C16 UNL     1      17.788  -7.503  42.309  1.00  0.00     0.014 A 
HETATM   17  C17 UNL     1      16.610  -8.153  42.614  1.00  0.00     0.001 A 
HETATM   18  C18 UNL     1      16.562  -9.530  42.544  1.00  0.00     0.002 A 
HETATM   19  C19 UNL     1      17.697 -10.219  42.168  1.00  0.00     0.030 A 
HETATM   20  C20 UNL     1      18.889  -9.595  41.857  1.00  0.00     0.042 A 
HETATM   21  N2  UNL     1      19.990 -10.324  41.489  1.00  0.00    -0.356 N 
ATOM     22  H2  UNL     1      19.932 -11.341  41.443  1.00  0.00     0.166 HD
HETATM   23  C21 UNL     1      21.128  -9.715  41.193  1.00  0.00     0.051 A 
ENDROOT
BRANCH   1  24
HETATM   24  N1  UNL     1      22.505 -10.653  39.399  1.00  0.00    -0.066 N 
ATOM     25  H13 UNL     1      21.977  -9.935  38.903  1.00  0.00     0.275 HD
ATOM     26  H12 UNL     1      23.448 -10.394  39.110  1.00  0.00     0.275 HD
ATOM     27  H11 UNL     1      22.261 -11.584  39.060  1.00  0.00     0.275 HD
ENDBRANCH   1  24
TORSDOF 1
ENDMDL
MODEL 2
REMARK VINA RESULT: -10.337677419      1.513      1.977
REMARK  1 active torsions:
REMARK  status: ('A' for Active; 'I' for Inactive)
REMARK    1  A    between atoms: N1_1  and  C1_5 
ROOT
HETATM    1  C1  UNL     1      20.598 -10.104  42.619  1.00  0.00     0.267 C 
HETATM    2  C2  UNL     1      21.957  -9.519  42.928  1.00  0.00    -0.015 A 
HETATM    3  C3  UNL     1      22.742 -10.075  43.892  1.00  0.00     0.011 A 
HETATM    4  C4  UNL     1      23.988  -9.525  44.201  1.00  0.00     0.013 A 
HETATM    5  C5  UNL     1      24.422  -8.406  43.522  1.00  0.00    -0.025 A 
HETATM    6  C6  UNL     1      25.661  -7.848  43.823  1.00  0.00     0.012 A 
HETATM    7  C7  UNL     1      26.090  -6.733  43.143  1.00  0.00     0.001 A 
HETATM    8  C8  UNL     1      25.332  -6.141  42.166  1.00  0.00     0.001 A 
HETATM    9  C9  UNL     1      24.102  -6.687  41.862  1.00  0.00     0.013 A 
HETATM   10  C10 UNL     1      23.658  -7.819  42.546  1.00  0.00    -0.019 A 
HETATM   11  C11 UNL     1      22.415  -8.392  42.255  1.00  0.00    -0.034 A 
HETATM   12  C12 UNL     1      21.528  -7.870  41.218  1.00  0.00     0.080 C 
HETATM   13  C13 UNL     1      20.134  -7.817  41.731  1.00  0.00    -0.028 A 
HETATM   14  C14 UNL     1      19.306  -6.715  41.538  1.00  0.00     0.023 A 
HETATM   15  C15 UNL     1      18.016  -6.753  42.022  1.00  0.00    -0.009 A 
HETATM   16  C16 UNL     1      17.147  -5.674  41.855  1.00  0.00     0.014 A 
HETATM   17  C17 UNL     1      15.858  -5.723  42.343  1.00  0.00     0.001 A 
HETATM   18  C18 UNL     1      15.429  -6.855  43.005  1.00  0.00     0.002 A 
HETATM   19  C19 UNL     1      16.306  -7.909  43.159  1.00  0.00     0.030 A 
HETATM   20  C20 UNL     1      17.601  -7.889  42.681  1.00  0.00     0.042 A 
HETATM   21  N2  UNL     1      18.434  -8.963  42.860  1.00  0.00    -0.356 N 
ATOM     22  H2  UNL     1      18.096  -9.790  43.352  1.00  0.00     0.166 HD
HETATM   23  C21 UNL     1      19.674  -8.933  42.397  1.00  0.00     0.051 A 
ENDROOT
BRANCH   1  24
HETATM   24  N1  UNL     1      20.624 -11.007  41.508  1.00  0.00    -0.066 N 
ATOM     25  H13 UNL     1      20.177 -11.892  41.746  1.00  0.00     0.275 HD
ATOM     26  H12 UNL     1      19.994 -10.696  40.769  1.00  0.00     0.275 HD
ATOM     27  H11 UNL     1      21.566 -11.158  41.146  1.00  0.00     0.275 HD
ENDBRANCH   1  24
TORSDOF 1
ENDMDL
MODEL 3
REMARK VINA RESULT: -9.935265947      2.207      6.899
REMARK  1 active torsions:
REMARK  status: ('A' for Active; 'I' for Inactive)
REMARK    1  A    between atoms: N1_1  and  C1_5 
ROOT
HETATM    1  C1  UNL     1      19.913  -8.966  43.337  1.00  0.00     0.267 C 
HETATM    2  C2  UNL     1      18.966  -8.783  42.173  1.00  0.00    -0.015 A 
HETATM    3  C3  UNL     1      17.960  -9.675  41.958  1.00  0.00     0.011 A 
HETATM    4  C4  UNL     1      17.097  -9.528  40.870  1.00  0.00     0.013 A 
HETATM    5  C5  UNL     1      17.269  -8.466  40.007  1.00  0.00    -0.025 A 
HETATM    6  C6  UNL     1      16.416  -8.309  38.919  1.00  0.00     0.012 A 
HETATM    7  C7  UNL     1      16.591  -7.249  38.062  1.00  0.00     0.001 A 
HETATM    8  C8  UNL     1      17.590  -6.327  38.241  1.00  0.00     0.001 A 
HETATM    9  C9  UNL     1      18.441  -6.475  39.317  1.00  0.00     0.013 A 
HETATM   10  C10 UNL     1      18.271  -7.548  40.193  1.00  0.00    -0.019 A 
HETATM   11  C11 UNL     1      19.120  -7.719  41.291  1.00  0.00    -0.034 A 
HETATM   12  C12 UNL     1      20.204  -6.790  41.604  1.00  0.00     0.080 C 
HETATM   13  C13 UNL     1      21.432  -7.552  41.950  1.00  0.00    -0.028 A 
HETATM   14  C14 UNL     1      22.687  -7.219  41.445  1.00  0.00     0.023 A 
HETATM   15  C15 UNL     1      23.782  -7.959  41.833  1.00  0.00    -0.009 A 
HETATM   16  C16 UNL     1      25.060  -7.666  41.356  1.00  0.00     0.014 A 
HETATM   17  C17 UNL     1      26.151  -8.412  41.751  1.00  0.00     0.001 A 
HETATM   18  C18 UNL     1      25.969  -9.462  42.628  1.00  0.00     0.002 A 
HETATM   19  C19 UNL     1      24.696  -9.733  43.087  1.00  0.00     0.030 A 
HETATM   20  C20 UNL     1      23.587  -9.003  42.710  1.00  0.00     0.042 A 
HETATM   21  N2  UNL     1      22.343  -9.313  43.193  1.00  0.00    -0.356 N 
ATOM     22  H2  UNL     1      22.231 -10.093  43.842  1.00  0.00     0.166 HD
HETATM   23  C21 UNL     1      21.285  -8.606  42.825  1.00  0.00     0.051 A 
ENDROOT
BRANCH   1  24
HETATM   24  N1  UNL     1      19.532  -8.201  44.485  1.00  0.00    -0.066 N 
ATOM     25  H13 UNL     1      18.814  -7.518  44.247  1.00  0.00     0.275 HD
ATOM     26  H12 UNL     1      19.006  -8.771  45.147  1.00  0.00     0.275 HD
ATOM     27  H11 UNL     1      20.327  -7.752  44.940  1.00  0.00     0.275 HD
ENDBRANCH   1  24
TORSDOF 1
ENDMDL
MODEL 4
REMARK VINA RESULT: -9.905209711      2.049      2.866
REMARK  1 active torsions:
REMARK  status: ('A' for Active; 'I' for Inactive)
REMARK    1  A    between atoms: N1_1  and  C1_5 
ROOT
HETATM    1  C1  UNL     1      20.363  -9.594  44.068  1.00  0.00     0.267 C 
HETATM    2  C2  UNL     1      21.833  -9.392  43.782  1.00  0.00    -0.015 A 
HETATM    3  C3  UNL     1      22.731  -9.335  44.804  1.00  0.00     0.011 A 
HETATM    4  C4  UNL     1      24.088  -9.123  44.549  1.00  0.00     0.013 A 
HETATM    5  C5  UNL     1      24.517  -8.968  43.248  1.00  0.00    -0.025 A 
HETATM    6  C6  UNL     1      25.867  -8.755  42.983  1.00  0.00     0.012 A 
HETATM    7  C7  UNL     1      26.290  -8.603  41.684  1.00  0.00     0.001 A 
HETATM    8  C8  UNL     1      25.421  -8.653  40.625  1.00  0.00     0.001 A 
HETATM    9  C9  UNL     1      24.081  -8.863  40.879  1.00  0.00     0.013 A 
HETATM   10  C10 UNL     1      23.641  -9.020  42.194  1.00  0.00    -0.019 A 
HETATM   11  C11 UNL     1      22.288  -9.235  42.477  1.00  0.00    -0.034 A 
HETATM   12  C12 UNL     1      21.269  -9.335  41.435  1.00  0.00     0.080 C 
HETATM   13  C13 UNL     1      20.076  -8.539  41.823  1.00  0.00    -0.028 A 
HETATM   14  C14 UNL     1      19.419  -7.692  40.935  1.00  0.00     0.023 A 
HETATM   15  C15 UNL     1      18.304  -7.006  41.364  1.00  0.00    -0.009 A 
HETATM   16  C16 UNL     1      17.611  -6.145  40.512  1.00  0.00     0.014 A 
HETATM   17  C17 UNL     1      16.495  -5.464  40.951  1.00  0.00     0.001 A 
HETATM   18  C18 UNL     1      16.064  -5.639  42.250  1.00  0.00     0.002 A 
HETATM   19  C19 UNL     1      16.764  -6.495  43.074  1.00  0.00     0.030 A 
HETATM   20  C20 UNL     1      17.884  -7.191  42.663  1.00  0.00     0.042 A 
HETATM   21  N2  UNL     1      18.546  -8.030  43.520  1.00  0.00    -0.356 N 
ATOM     22  H2  UNL     1      18.210  -8.146  44.476  1.00  0.00     0.166 HD
HETATM   23  C21 UNL     1      19.619  -8.692  43.115  1.00  0.00     0.051 A 
ENDROOT
BRANCH   1  24
HETATM   24  N1  UNL     1      19.962 -10.964  43.961  1.00  0.00    -0.066 N 
ATOM     25  H13 UNL     1      19.503 -11.141  43.067  1.00  0.00     0.275 HD
ATOM     26  H12 UNL     1      20.771 -11.575  43.856  1.00  0.00     0.275 HD
ATOM     27  H11 UNL     1      19.375 -11.264  44.739  1.00  0.00     0.275 HD
ENDBRANCH   1  24
TORSDOF 1
ENDMDL
MODEL 5
REMARK VINA RESULT: -9.888527784      2.878      4.384
REMARK  1 active torsions:
REMARK  status: ('A' for Active; 'I' for Inactive)
REMARK    1  A    between atoms: N1_1  and  C1_5 
ROOT
HETATM    1  C1  UNL     1      18.468  -9.377  43.929  1.00  0.00     0.267 C 
HETATM    2  C2  UNL     1      19.893  -9.653  43.505  1.00  0.00    -0.015 A 
HETATM    3  C3  UNL     1      20.907  -9.580  44.411  1.00  0.00     0.011 A 
HETATM    4  C4  UNL     1      22.228  -9.808  44.022  1.00  0.00     0.013 A 
HETATM    5  C5  UNL     1      22.504 -10.109  42.705  1.00  0.00    -0.025 A 
HETATM    6  C6  UNL     1      23.818 -10.338  42.306  1.00  0.00     0.012 A 
HETATM    7  C7  UNL     1      24.088 -10.638  40.992  1.00  0.00     0.001 A 
HETATM    8  C8  UNL     1      23.099 -10.722  40.047  1.00  0.00     0.001 A 
HETATM    9  C9  UNL     1      21.794 -10.497  40.434  1.00  0.00     0.013 A 
HETATM   10  C10 UNL     1      21.509 -10.192  41.766  1.00  0.00    -0.019 A 
HETATM   11  C11 UNL     1      20.194  -9.960  42.183  1.00  0.00    -0.034 A 
HETATM   12  C12 UNL     1      19.051 -10.046  41.277  1.00  0.00     0.080 C 
HETATM   13  C13 UNL     1      18.145  -8.890  41.502  1.00  0.00    -0.028 A 
HETATM   14  C14 UNL     1      17.597  -8.153  40.455  1.00  0.00     0.023 A 
HETATM   15  C15 UNL     1      16.745  -7.110  40.745  1.00  0.00    -0.009 A 
HETATM   16  C16 UNL     1      16.170  -6.341  39.732  1.00  0.00     0.014 A 
HETATM   17  C17 UNL     1      15.318  -5.299  40.033  1.00  0.00     0.001 A 
HETATM   18  C18 UNL     1      15.035  -5.018  41.354  1.00  0.00     0.002 A 
HETATM   19  C19 UNL     1      15.615  -5.791  42.339  1.00  0.00     0.030 A 
HETATM   20  C20 UNL     1      16.471  -6.840  42.068  1.00  0.00     0.042 A 
HETATM   21  N2  UNL     1      17.021  -7.579  43.082  1.00  0.00    -0.356 N 
ATOM     22  H2  UNL     1      16.798  -7.354  44.052  1.00  0.00     0.166 HD
HETATM   23  C21 UNL     1      17.841  -8.583  42.811  1.00  0.00     0.051 A 
ENDROOT
BRANCH   1  24
HETATM   24  N1  UNL     1      17.741 -10.571  44.235  1.00  0.00    -0.066 N 
ATOM     25  H13 UNL     1      17.044 -10.769  43.517  1.00  0.00     0.275 HD
ATOM     26  H12 UNL     1      18.330 -11.397  44.125  1.00  0.00     0.275 HD
ATOM     27  H11 UNL     1      17.315 -10.547  45.161  1.00  0.00     0.275 HD
ENDBRANCH   1  24
TORSDOF 1
ENDMDL
