MODEL 1
REMARK VINA RESULT: -7.956962000      0.000      0.000
REMARK  5 active torsions:
REMARK  status: ('A' for Active; 'I' for Inactive)
REMARK    1  A    between atoms: C2_2  and  N1_3 
REMARK    2  A    between atoms: C6_7  and  C7_8 
REMARK    3  A    between atoms: C8_13  and  N4_14 
REMARK    4  A    between atoms: C13_23  and  O2_24 
REMARK    5  A    between atoms: O2_24  and  C14_25 
ROOT
HETATM    1  C14 UNL     1      79.176   4.958  29.164  1.00  0.00     0.299 C 
HETATM    2  C15 UNL     1      78.530   6.224  29.634  1.00  0.00     0.085 C 
HETATM    3  N6  UNL     1      78.042   7.221  29.986  1.00  0.00    -0.195 NA
ENDROOT
BRANCH   1   4
HETATM    4  O2  UNL     1      79.839   5.141  28.053  1.00  0.00    -0.331 OA
BRANCH   4   5
HETATM    5  C13 UNL     1      80.462   5.409  26.956  1.00  0.00     0.143 A 
HETATM    6  C7  UNL     1      81.774   5.893  26.862  1.00  0.00     0.089 A 
HETATM    7  N2  UNL     1      82.022   6.014  25.565  1.00  0.00    -0.296 N 
HETATM    8  N3  UNL     1      80.988   5.653  24.834  1.00  0.00    -0.283 N 
ATOM      9  H2  UNL     1      82.906   6.346  25.180  1.00  0.00     0.187 HD
HETATM   10  C8  UNL     1      79.976   5.261  25.618  1.00  0.00     0.158 A 
ATOM     11  H3  UNL     1      80.962   5.669  23.814  1.00  0.00     0.188 HD
BRANCH   6  12
HETATM   12  C6  UNL     1      82.658   6.335  27.938  1.00  0.00    -0.030 C 
HETATM   13  C5  UNL     1      83.326   7.647  27.869  1.00  0.00     0.043 C 
HETATM   14  C4  UNL     1      84.586   7.522  28.752  1.00  0.00     0.049 C 
HETATM   15  C3  UNL     1      84.257   7.071  30.143  1.00  0.00     0.063 C 
HETATM   16  N1  UNL     1      83.549   5.853  30.091  1.00  0.00    -0.370 N 
HETATM   17  C16 UNL     1      83.334   5.292  28.764  1.00  0.00     0.163 C 
BRANCH  16  18
HETATM   18  C2  UNL     1      82.626   5.541  31.092  1.00  0.00     0.059 C 
HETATM   19  C1  UNL     1      81.686   6.629  31.561  1.00  0.00     0.055 C 
ENDBRANCH  16  18
ENDBRANCH   6  12
BRANCH  10  20
HETATM   20  N4  UNL     1      78.731   4.746  25.394  1.00  0.00    -0.324 N 
HETATM   21  C9  UNL     1      77.710   5.073  24.765  1.00  0.00     0.129 A 
HETATM   22  C10 UNL     1      77.440   6.181  23.991  1.00  0.00     0.084 A 
HETATM   23  N5  UNL     1      76.554   4.314  24.712  1.00  0.00    -0.245 N 
HETATM   24  C11 UNL     1      76.154   6.032  23.518  1.00  0.00     0.076 A 
HETATM   25  C12 UNL     1      75.377   6.943  22.628  1.00  0.00     0.079 C 
HETATM   26  O1  UNL     1      75.699   4.915  23.983  1.00  0.00    -0.241 OA
ATOM     27  H5  UNL     1      76.410   3.420  25.180  1.00  0.00     0.196 HD
ATOM     28  H4  UNL     1      78.605   3.854  25.871  1.00  0.00     0.169 HD
ENDBRANCH  10  20
ENDBRANCH   4   5
ENDBRANCH   1   4
TORSDOF 5
ENDMDL
MODEL 2
REMARK VINA RESULT: -7.891328536      1.780      3.371
REMARK  5 active torsions:
REMARK  status: ('A' for Active; 'I' for Inactive)
REMARK    1  A    between atoms: C2_2  and  N1_3 
REMARK    2  A    between atoms: C6_7  and  C7_8 
REMARK    3  A    between atoms: C8_13  and  N4_14 
REMARK    4  A    between atoms: C13_23  and  O2_24 
REMARK    5  A    between atoms: O2_24  and  C14_25 
ROOT
HETATM    1  C14 UNL     1      81.537   5.258  24.847  1.00  0.00     0.299 C 
HETATM    2  C15 UNL     1      83.024   5.330  24.993  1.00  0.00     0.085 C 
HETATM    3  N6  UNL     1      84.179   5.392  25.130  1.00  0.00    -0.195 NA
ENDROOT
BRANCH   1   4
HETATM    4  O2  UNL     1      80.942   5.201  26.009  1.00  0.00    -0.331 OA
BRANCH   4   5
HETATM    5  C13 UNL     1      80.421   5.085  27.183  1.00  0.00     0.143 A 
HETATM    6  C7  UNL     1      81.041   5.445  28.388  1.00  0.00     0.089 A 
HETATM    7  N2  UNL     1      80.158   5.178  29.341  1.00  0.00    -0.296 N 
HETATM    8  N3  UNL     1      79.042   4.683  28.849  1.00  0.00    -0.283 N 
ATOM      9  H2  UNL     1      80.324   5.337  30.335  1.00  0.00     0.187 HD
HETATM   10  C8  UNL     1      79.119   4.593  27.516  1.00  0.00     0.158 A 
ATOM     11  H3  UNL     1      78.232   4.406  29.406  1.00  0.00     0.188 HD
BRANCH   6  12
HETATM   12  C6  UNL     1      82.420   5.875  28.607  1.00  0.00    -0.030 C 
HETATM   13  C5  UNL     1      83.449   4.908  29.029  1.00  0.00     0.043 C 
HETATM   14  C4  UNL     1      84.533   5.737  29.750  1.00  0.00     0.049 C 
HETATM   15  C3  UNL     1      85.051   6.853  28.894  1.00  0.00     0.063 C 
HETATM   16  N1  UNL     1      83.978   7.668  28.478  1.00  0.00    -0.370 N 
HETATM   17  C16 UNL     1      82.661   7.300  28.978  1.00  0.00     0.163 C 
BRANCH  16  18
HETATM   18  C2  UNL     1      84.050   8.345  27.257  1.00  0.00     0.059 C 
HETATM   19  C1  UNL     1      82.755   8.724  26.574  1.00  0.00     0.055 C 
ENDBRANCH  16  18
ENDBRANCH   6  12
BRANCH  10  20
HETATM   20  N4  UNL     1      78.255   4.219  26.526  1.00  0.00    -0.324 N 
HETATM   21  C9  UNL     1      77.671   4.761  25.574  1.00  0.00     0.129 A 
HETATM   22  C10 UNL     1      77.689   6.065  25.126  1.00  0.00     0.084 A 
HETATM   23  N5  UNL     1      76.829   4.099  24.699  1.00  0.00    -0.245 N 
HETATM   24  C11 UNL     1      76.867   6.117  24.021  1.00  0.00     0.076 A 
HETATM   25  C12 UNL     1      76.543   7.288  23.155  1.00  0.00     0.079 C 
HETATM   26  O1  UNL     1      76.399   4.927  23.832  1.00  0.00    -0.241 OA
ATOM     27  H5  UNL     1      76.589   3.108  24.742  1.00  0.00     0.196 HD
ATOM     28  H4  UNL     1      78.026   3.226  26.587  1.00  0.00     0.169 HD
ENDBRANCH  10  20
ENDBRANCH   4   5
ENDBRANCH   1   4
TORSDOF 5
ENDMDL
MODEL 3
REMARK VINA RESULT: -7.818851393      1.592      1.906
REMARK  5 active torsions:
REMARK  status: ('A' for Active; 'I' for Inactive)
REMARK    1  A    between atoms: C2_2  and  N1_3 
REMARK    2  A    between atoms: C6_7  and  C7_8 
REMARK    3  A    between atoms: C8_13  and  N4_14 
REMARK    4  A    between atoms: C13_23  and  O2_24 
REMARK    5  A    between atoms: O2_24  and  C14_25 
ROOT
HETATM    1  C14 UNL     1      77.782   7.004  28.480  1.00  0.00     0.299 C 
HETATM    2  C15 UNL     1      78.336   6.792  29.854  1.00  0.00     0.085 C 
HETATM    3  N6  UNL     1      78.785   6.616  30.913  1.00  0.00    -0.195 NA
ENDROOT
BRANCH   1   4
HETATM    4  O2  UNL     1      78.678   6.765  27.558  1.00  0.00    -0.331 OA
BRANCH   4   5
HETATM    5  C13 UNL     1      79.581   6.621  26.650  1.00  0.00     0.143 A 
HETATM    6  C7  UNL     1      80.869   7.175  26.686  1.00  0.00     0.089 A 
HETATM    7  N2  UNL     1      81.467   6.768  25.574  1.00  0.00    -0.296 N 
HETATM    8  N3  UNL     1      80.677   6.011  24.842  1.00  0.00    -0.283 N 
ATOM      9  H2  UNL     1      82.424   7.012  25.318  1.00  0.00     0.187 HD
HETATM   10  C8  UNL     1      79.487   5.867  25.437  1.00  0.00     0.158 A 
ATOM     11  H3  UNL     1      80.935   5.594  23.947  1.00  0.00     0.188 HD
BRANCH   6  12
HETATM   12  C6  UNL     1      81.419   8.130  27.643  1.00  0.00    -0.030 C 
HETATM   13  C5  UNL     1      80.719   9.396  27.927  1.00  0.00     0.043 C 
HETATM   14  C4  UNL     1      81.805  10.373  28.424  1.00  0.00     0.049 C 
HETATM   15  C3  UNL     1      82.570   9.820  29.588  1.00  0.00     0.063 C 
HETATM   16  N1  UNL     1      83.129   8.574  29.238  1.00  0.00    -0.370 N 
HETATM   17  C16 UNL     1      82.894   8.126  27.872  1.00  0.00     0.163 C 
BRANCH  16  18
HETATM   18  C2  UNL     1      83.333   7.601  30.220  1.00  0.00     0.059 C 
HETATM   19  C1  UNL     1      82.276   7.434  31.289  1.00  0.00     0.055 C 
ENDBRANCH  16  18
ENDBRANCH   6  12
BRANCH  10  20
HETATM   20  N4  UNL     1      78.352   5.159  25.156  1.00  0.00    -0.324 N 
HETATM   21  C9  UNL     1      77.319   5.323  24.486  1.00  0.00     0.129 A 
HETATM   22  C10 UNL     1      76.906   6.382  23.707  1.00  0.00     0.084 A 
HETATM   23  N5  UNL     1      76.306   4.388  24.379  1.00  0.00    -0.245 N 
HETATM   24  C11 UNL     1      75.682   6.032  23.178  1.00  0.00     0.076 A 
HETATM   25  C12 UNL     1      74.805   6.817  22.260  1.00  0.00     0.079 C 
HETATM   26  O1  UNL     1      75.395   4.851  23.617  1.00  0.00    -0.241 OA
ATOM     27  H5  UNL     1      76.289   3.477  24.836  1.00  0.00     0.196 HD
ATOM     28  H4  UNL     1      78.353   4.252  25.623  1.00  0.00     0.169 HD
ENDBRANCH  10  20
ENDBRANCH   4   5
ENDBRANCH   1   4
TORSDOF 5
ENDMDL
MODEL 4
REMARK VINA RESULT: -7.804935002      1.761      3.218
REMARK  5 active torsions:
REMARK  status: ('A' for Active; 'I' for Inactive)
REMARK    1  A    between atoms: C2_2  and  N1_3 
REMARK    2  A    between atoms: C6_7  and  C7_8 
REMARK    3  A    between atoms: C8_13  and  N4_14 
REMARK    4  A    between atoms: C13_23  and  O2_24 
REMARK    5  A    between atoms: O2_24  and  C14_25 
ROOT
HETATM    1  C14 UNL     1      82.689   6.128  26.480  1.00  0.00     0.299 C 
HETATM    2  C15 UNL     1      82.606   5.473  25.137  1.00  0.00     0.085 C 
HETATM    3  N6  UNL     1      82.526   4.948  24.101  1.00  0.00    -0.195 NA
ENDROOT
BRANCH   1   4
HETATM    4  O2  UNL     1      81.704   5.759  27.256  1.00  0.00    -0.331 OA
BRANCH   4   5
HETATM    5  C13 UNL     1      80.714   5.328  27.960  1.00  0.00     0.143 A 
HETATM    6  C7  UNL     1      80.570   5.484  29.346  1.00  0.00     0.089 A 
HETATM    7  N2  UNL     1      79.414   4.913  29.655  1.00  0.00    -0.296 N 
HETATM    8  N3  UNL     1      78.817   4.411  28.594  1.00  0.00    -0.283 N 
ATOM      9  H2  UNL     1      79.033   4.868  30.600  1.00  0.00     0.187 HD
HETATM   10  C8  UNL     1      79.555   4.626  27.498  1.00  0.00     0.158 A 
ATOM     11  H3  UNL     1      77.919   3.926  28.606  1.00  0.00     0.188 HD
BRANCH   6  12
HETATM   12  C6  UNL     1      81.536   6.014  30.304  1.00  0.00    -0.030 C 
HETATM   13  C5  UNL     1      81.811   7.461  30.370  1.00  0.00     0.043 C 
HETATM   14  C4  UNL     1      83.231   7.591  30.962  1.00  0.00     0.049 C 
HETATM   15  C3  UNL     1      83.361   6.880  32.275  1.00  0.00     0.063 C 
HETATM   16  N1  UNL     1      82.997   5.527  32.118  1.00  0.00    -0.370 N 
HETATM   17  C16 UNL     1      82.630   5.113  30.771  1.00  0.00     0.163 C 
BRANCH  16  18
HETATM   18  C2  UNL     1      82.444   4.826  33.193  1.00  0.00     0.059 C 
HETATM   19  C1  UNL     1      81.118   5.299  33.747  1.00  0.00     0.055 C 
ENDBRANCH  16  18
ENDBRANCH   6  12
BRANCH  10  20
HETATM   20  N4  UNL     1      79.389   4.380  26.165  1.00  0.00    -0.324 N 
HETATM   21  C9  UNL     1      78.736   4.861  25.224  1.00  0.00     0.129 A 
HETATM   22  C10 UNL     1      77.858   5.923  25.182  1.00  0.00     0.084 A 
HETATM   23  N5  UNL     1      78.779   4.387  23.925  1.00  0.00    -0.245 N 
HETATM   24  C11 UNL     1      77.426   6.030  23.878  1.00  0.00     0.076 A 
HETATM   25  C12 UNL     1      76.474   7.018  23.291  1.00  0.00     0.079 C 
HETATM   26  O1  UNL     1      78.008   5.097  23.200  1.00  0.00    -0.241 OA
ATOM     27  H5  UNL     1      79.337   3.597  23.600  1.00  0.00     0.196 HD
ATOM     28  H4  UNL     1      79.953   3.586  25.859  1.00  0.00     0.169 HD
ENDBRANCH  10  20
ENDBRANCH   4   5
ENDBRANCH   1   4
TORSDOF 5
ENDMDL
MODEL 5
REMARK VINA RESULT: -7.768948770      1.618      2.934
REMARK  5 active torsions:
REMARK  status: ('A' for Active; 'I' for Inactive)
REMARK    1  A    between atoms: C2_2  and  N1_3 
REMARK    2  A    between atoms: C6_7  and  C7_8 
REMARK    3  A    between atoms: C8_13  and  N4_14 
REMARK    4  A    between atoms: C13_23  and  O2_24 
REMARK    5  A    between atoms: O2_24  and  C14_25 
ROOT
HETATM    1  C14 UNL     1      81.399   5.354  24.758  1.00  0.00     0.299 C 
HETATM    2  C15 UNL     1      82.886   5.194  24.764  1.00  0.00     0.085 C 
HETATM    3  N6  UNL     1      84.044   5.074  24.793  1.00  0.00    -0.195 NA
ENDROOT
BRANCH   1   4
HETATM    4  O2  UNL     1      80.904   5.297  25.967  1.00  0.00    -0.331 OA
BRANCH   4   5
HETATM    5  C13 UNL     1      80.403   5.149  27.146  1.00  0.00     0.143 A 
HETATM    6  C7  UNL     1      81.024   5.517  28.347  1.00  0.00     0.089 A 
HETATM    7  N2  UNL     1      80.163   5.207  29.308  1.00  0.00    -0.296 N 
HETATM    8  N3  UNL     1      79.059   4.678  28.823  1.00  0.00    -0.283 N 
ATOM      9  H2  UNL     1      80.336   5.361  30.301  1.00  0.00     0.187 HD
HETATM   10  C8  UNL     1      79.123   4.606  27.488  1.00  0.00     0.158 A 
ATOM     11  H3  UNL     1      78.267   4.366  29.386  1.00  0.00     0.188 HD
BRANCH   6  12
HETATM   12  C6  UNL     1      82.389   5.994  28.554  1.00  0.00    -0.030 C 
HETATM   13  C5  UNL     1      82.889   7.173  27.825  1.00  0.00     0.043 C 
HETATM   14  C4  UNL     1      84.424   7.015  27.775  1.00  0.00     0.049 C 
HETATM   15  C3  UNL     1      85.017   6.837  29.140  1.00  0.00     0.063 C 
HETATM   16  N1  UNL     1      84.412   5.736  29.780  1.00  0.00    -0.370 N 
HETATM   17  C16 UNL     1      83.417   5.010  29.003  1.00  0.00     0.163 C 
BRANCH  16  18
HETATM   18  C2  UNL     1      84.299   5.716  31.172  1.00  0.00     0.059 C 
HETATM   19  C1  UNL     1      83.789   6.959  31.865  1.00  0.00     0.055 C 
ENDBRANCH  16  18
ENDBRANCH   6  12
BRANCH  10  20
HETATM   20  N4  UNL     1      78.260   4.212  26.505  1.00  0.00    -0.324 N 
HETATM   21  C9  UNL     1      77.655   4.742  25.559  1.00  0.00     0.129 A 
HETATM   22  C10 UNL     1      77.634   6.047  25.116  1.00  0.00     0.084 A 
HETATM   23  N5  UNL     1      76.822   4.060  24.689  1.00  0.00    -0.245 N 
HETATM   24  C11 UNL     1      76.802   6.081  24.018  1.00  0.00     0.076 A 
HETATM   25  C12 UNL     1      76.439   7.246  23.159  1.00  0.00     0.079 C 
HETATM   26  O1  UNL     1      76.364   4.880  23.828  1.00  0.00    -0.241 OA
ATOM     27  H5  UNL     1      76.610   3.064  24.730  1.00  0.00     0.196 HD
ATOM     28  H4  UNL     1      78.059   3.214  26.564  1.00  0.00     0.169 HD
ENDBRANCH  10  20
ENDBRANCH   4   5
ENDBRANCH   1   4
TORSDOF 5
ENDMDL
