MODEL 1
REMARK VINA RESULT: -7.853771703      0.000      0.000
REMARK  10 active torsions:
REMARK  status: ('A' for Active; 'I' for Inactive)
REMARK    1  A    between atoms: C2_2  and  N1_3 
REMARK    2  A    between atoms: C2_2  and  C3_7 
REMARK       I    between atoms: C3_7  and  N2_9 
REMARK    3  A    between atoms: N2_9  and  C4_11 
REMARK    4  A    between atoms: C7_14  and  S1_15 
REMARK    5  A    between atoms: S1_15  and  C8_16 
REMARK    6  A    between atoms: C20_31  and  C21_32 
REMARK    7  A    between atoms: C21_32  and  C22_33 
REMARK    8  A    between atoms: C22_33  and  N4_34 
REMARK    9  A    between atoms: N4_34  and  N5_36 
REMARK   10  A    between atoms: N5_36  and  N6_37 
ROOT
HETATM    1  C4  UNL     1       8.810  35.916  16.523  1.00  0.00     0.104 C 
HETATM    2  C5  UNL     1       7.645  35.263  17.286  1.00  0.00     0.021 C 
HETATM    3  C6  UNL     1       7.904  33.813  17.535  1.00  0.00     0.013 C 
HETATM    4  C7  UNL     1       7.707  36.090  18.585  1.00  0.00     0.077 C 
HETATM    5  C18 UNL     1       8.154  37.453  18.234  1.00  0.00     0.113 C 
HETATM    6  N3  UNL     1       7.253  38.530  18.399  1.00  0.00    -0.353 N 
ATOM      7  H3  UNL     1       6.481  38.375  19.046  1.00  0.00     0.163 HD
HETATM    8  C19 UNL     1       7.297  39.796  17.775  1.00  0.00     0.240 C 
HETATM    9  O2  UNL     1       6.371  40.587  18.171  1.00  0.00    -0.271 OA
HETATM   10  C20 UNL     1       8.144  40.466  16.765  1.00  0.00     0.178 C 
HETATM   11  N7  UNL     1       9.355  39.723  16.445  1.00  0.00    -0.347 N 
ATOM     12  H7  UNL     1      10.160  40.280  16.159  1.00  0.00     0.163 HD
HETATM   13  C23 UNL     1       9.552  38.304  16.483  1.00  0.00     0.226 C 
HETATM   14  O3  UNL     1      10.735  37.968  16.268  1.00  0.00    -0.273 OA
HETATM   15  C24 UNL     1       8.489  37.340  16.745  1.00  0.00     0.125 C 
ENDROOT
BRANCH   4  16
HETATM   16  S1  UNL     1       6.468  35.793  19.734  1.00  0.00    -0.156 SA
BRANCH  16  17
HETATM   17  C8  UNL     1       6.391  34.542  20.902  1.00  0.00     0.056 C 
HETATM   18  C9  UNL     1       7.592  33.656  21.097  1.00  0.00     0.000 C 
HETATM   19  C10 UNL     1       8.794  34.349  21.633  1.00  0.00     0.010 C 
HETATM   20  C14 UNL     1       7.193  32.609  22.122  1.00  0.00     0.010 C 
HETATM   21  C11 UNL     1       8.495  35.062  22.929  1.00  0.00    -0.013 C 
HETATM   22  C12 UNL     1       8.150  34.020  23.958  1.00  0.00     0.009 C 
HETATM   23  C17 UNL     1       7.360  36.021  22.664  1.00  0.00     0.010 C 
HETATM   24  C13 UNL     1       6.957  33.241  23.473  1.00  0.00    -0.013 C 
HETATM   25  C15 UNL     1       5.809  34.204  23.314  1.00  0.00     0.010 C 
HETATM   26  C16 UNL     1       6.163  35.208  22.280  1.00  0.00     0.000 C 
ENDBRANCH  16  17
ENDBRANCH   4  16
BRANCH   1  27
HETATM   27  N2  UNL     1      10.071  35.455  16.990  1.00  0.00    -0.353 N 
HETATM   28  C3  UNL     1      10.890  34.597  16.206  1.00  0.00     0.248 C 
HETATM   29  O1  UNL     1      10.498  34.234  15.071  1.00  0.00    -0.271 OA
ATOM     30  H2  UNL     1      10.396  35.748  17.912  1.00  0.00     0.163 HD
BRANCH  28  31
HETATM   31  C2  UNL     1      12.199  34.112  16.682  1.00  0.00     0.270 C 
HETATM   32  C1  UNL     1      11.979  32.864  17.510  1.00  0.00     0.050 C 
BRANCH  31  33
HETATM   33  N1  UNL     1      13.079  33.823  15.593  1.00  0.00    -0.067 N 
ATOM     34  H13 UNL     1      12.581  33.757  14.706  1.00  0.00     0.275 HD
ATOM     35  H12 UNL     1      13.682  34.615  15.367  1.00  0.00     0.275 HD
ATOM     36  H11 UNL     1      13.616  32.980  15.796  1.00  0.00     0.275 HD
ENDBRANCH  31  33
ENDBRANCH  28  31
ENDBRANCH   1  27
BRANCH  10  37
HETATM   37  C21 UNL     1       8.441  41.883  17.086  1.00  0.00     0.057 C 
BRANCH  37  38
HETATM   38  C22 UNL     1       8.369  42.847  15.950  1.00  0.00     0.158 C 
BRANCH  38  39
HETATM   39  N4  UNL     1       9.603  43.577  15.775  1.00  0.00    -0.253 N 
ATOM     40  H4  UNL     1      10.111  43.513  14.892  1.00  0.00     0.196 HD
BRANCH  39  41
HETATM   41  N5  UNL     1      10.043  44.274  16.682  1.00  0.00    -0.249 NA
BRANCH  41  42
HETATM   42  N6  UNL     1      10.545  44.837  17.674  1.00  0.00    -0.261 N 
ATOM     43  H62 UNL     1      10.768  43.896  17.999  1.00  0.00     0.193 HD
ATOM     44  H61 UNL     1      10.919  45.417  18.426  1.00  0.00     0.193 HD
ENDBRANCH  41  42
ENDBRANCH  39  41
ENDBRANCH  38  39
ENDBRANCH  37  38
ENDBRANCH  10  37
TORSDOF 10
ENDMDL
MODEL 2
REMARK VINA RESULT: -7.845905994      0.988      1.861
REMARK  10 active torsions:
REMARK  status: ('A' for Active; 'I' for Inactive)
REMARK    1  A    between atoms: C2_2  and  N1_3 
REMARK    2  A    between atoms: C2_2  and  C3_7 
REMARK       I    between atoms: C3_7  and  N2_9 
REMARK    3  A    between atoms: N2_9  and  C4_11 
REMARK    4  A    between atoms: C7_14  and  S1_15 
REMARK    5  A    between atoms: S1_15  and  C8_16 
REMARK    6  A    between atoms: C20_31  and  C21_32 
REMARK    7  A    between atoms: C21_32  and  C22_33 
REMARK    8  A    between atoms: C22_33  and  N4_34 
REMARK    9  A    between atoms: N4_34  and  N5_36 
REMARK   10  A    between atoms: N5_36  and  N6_37 
ROOT
HETATM    1  C4  UNL     1       8.729  35.505  16.635  1.00  0.00     0.104 C 
HETATM    2  C5  UNL     1       7.636  34.867  17.509  1.00  0.00     0.021 C 
HETATM    3  C6  UNL     1       7.936  33.432  17.793  1.00  0.00     0.013 C 
HETATM    4  C7  UNL     1       7.783  35.745  18.768  1.00  0.00     0.077 C 
HETATM    5  C18 UNL     1       8.181  37.099  18.331  1.00  0.00     0.113 C 
HETATM    6  N3  UNL     1       7.279  38.170  18.524  1.00  0.00    -0.353 N 
ATOM      7  H3  UNL     1       6.560  38.030  19.233  1.00  0.00     0.163 HD
HETATM    8  C19 UNL     1       7.255  39.410  17.849  1.00  0.00     0.240 C 
HETATM    9  O2  UNL     1       6.349  40.204  18.285  1.00  0.00    -0.271 OA
HETATM   10  C20 UNL     1       8.011  40.051  16.753  1.00  0.00     0.178 C 
HETATM   11  N7  UNL     1       9.206  39.312  16.370  1.00  0.00    -0.347 N 
ATOM     12  H7  UNL     1       9.978  39.867  16.002  1.00  0.00     0.163 HD
HETATM   13  C23 UNL     1       9.428  37.898  16.447  1.00  0.00     0.226 C 
HETATM   14  O3  UNL     1      10.597  37.569  16.155  1.00  0.00    -0.273 OA
HETATM   15  C24 UNL     1       8.404  36.931  16.826  1.00  0.00     0.125 C 
ENDROOT
BRANCH   4  16
HETATM   16  S1  UNL     1       6.640  35.478  20.018  1.00  0.00    -0.156 SA
BRANCH  16  17
HETATM   17  C8  UNL     1       6.934  35.325  21.700  1.00  0.00     0.056 C 
HETATM   18  C9  UNL     1       5.866  34.718  22.570  1.00  0.00     0.000 C 
HETATM   19  C10 UNL     1       5.578  33.285  22.291  1.00  0.00     0.010 C 
HETATM   20  C14 UNL     1       6.380  34.794  23.998  1.00  0.00     0.010 C 
HETATM   21  C11 UNL     1       6.823  32.438  22.381  1.00  0.00    -0.013 C 
HETATM   22  C12 UNL     1       7.302  32.473  23.807  1.00  0.00     0.009 C 
HETATM   23  C17 UNL     1       7.828  33.012  21.412  1.00  0.00     0.010 C 
HETATM   24  C13 UNL     1       7.583  33.902  24.185  1.00  0.00    -0.013 C 
HETATM   25  C15 UNL     1       8.661  34.420  23.270  1.00  0.00     0.010 C 
HETATM   26  C16 UNL     1       8.160  34.397  21.873  1.00  0.00     0.000 C 
ENDBRANCH  16  17
ENDBRANCH   4  16
BRANCH   1  27
HETATM   27  N2  UNL     1      10.029  35.079  17.022  1.00  0.00    -0.353 N 
HETATM   28  C3  UNL     1      10.900  34.418  16.112  1.00  0.00     0.248 C 
HETATM   29  O1  UNL     1      10.520  34.202  14.936  1.00  0.00    -0.271 OA
ATOM     30  H2  UNL     1      10.345  35.251  17.976  1.00  0.00     0.163 HD
BRANCH  28  31
HETATM   31  C2  UNL     1      12.250  33.971  16.504  1.00  0.00     0.270 C 
HETATM   32  C1  UNL     1      12.555  34.507  17.885  1.00  0.00     0.050 C 
BRANCH  31  33
HETATM   33  N1  UNL     1      12.351  32.544  16.503  1.00  0.00    -0.067 N 
ATOM     34  H13 UNL     1      12.192  32.149  17.429  1.00  0.00     0.275 HD
ATOM     35  H12 UNL     1      11.569  32.104  16.017  1.00  0.00     0.275 HD
ATOM     36  H11 UNL     1      13.251  32.261  16.114  1.00  0.00     0.275 HD
ENDBRANCH  31  33
ENDBRANCH  28  31
ENDBRANCH   1  27
BRANCH  10  37
HETATM   37  C21 UNL     1       8.310  41.484  16.996  1.00  0.00     0.057 C 
BRANCH  37  38
HETATM   38  C22 UNL     1       8.314  42.371  15.796  1.00  0.00     0.158 C 
BRANCH  38  39
HETATM   39  N4  UNL     1       9.642  42.559  15.262  1.00  0.00    -0.253 N 
ATOM     40  H4  UNL     1      10.226  43.320  15.609  1.00  0.00     0.196 HD
BRANCH  39  41
HETATM   41  N5  UNL     1      10.070  41.809  14.392  1.00  0.00    -0.249 NA
BRANCH  41  42
HETATM   42  N6  UNL     1      10.350  40.978  13.506  1.00  0.00    -0.261 N 
ATOM     43  H62 UNL     1      10.021  41.686  12.848  1.00  0.00     0.193 HD
ATOM     44  H61 UNL     1      10.619  40.216  12.884  1.00  0.00     0.193 HD
ENDBRANCH  41  42
ENDBRANCH  39  41
ENDBRANCH  38  39
ENDBRANCH  37  38
ENDBRANCH  10  37
TORSDOF 10
ENDMDL
MODEL 3
REMARK VINA RESULT: -7.836543116      3.013      6.045
REMARK  10 active torsions:
REMARK  status: ('A' for Active; 'I' for Inactive)
REMARK    1  A    between atoms: C2_2  and  N1_3 
REMARK    2  A    between atoms: C2_2  and  C3_7 
REMARK       I    between atoms: C3_7  and  N2_9 
REMARK    3  A    between atoms: N2_9  and  C4_11 
REMARK    4  A    between atoms: C7_14  and  S1_15 
REMARK    5  A    between atoms: S1_15  and  C8_16 
REMARK    6  A    between atoms: C20_31  and  C21_32 
REMARK    7  A    between atoms: C21_32  and  C22_33 
REMARK    8  A    between atoms: C22_33  and  N4_34 
REMARK    9  A    between atoms: N4_34  and  N5_36 
REMARK   10  A    between atoms: N5_36  and  N6_37 
ROOT
HETATM    1  C4  UNL     1       7.941  38.785  20.277  1.00  0.00     0.104 C 
HETATM    2  C5  UNL     1       8.953  37.733  19.791  1.00  0.00     0.021 C 
HETATM    3  C6  UNL     1       8.878  36.488  20.612  1.00  0.00     0.013 C 
HETATM    4  C7  UNL     1       8.414  37.513  18.363  1.00  0.00     0.077 C 
HETATM    5  C18 UNL     1       7.859  38.796  17.886  1.00  0.00     0.113 C 
HETATM    6  N3  UNL     1       8.495  39.456  16.810  1.00  0.00    -0.353 N 
ATOM      7  H3  UNL     1       9.083  38.877  16.212  1.00  0.00     0.163 HD
HETATM    8  C19 UNL     1       8.411  40.823  16.465  1.00  0.00     0.240 C 
HETATM    9  O2  UNL     1       9.057  41.115  15.397  1.00  0.00    -0.271 OA
HETATM   10  C20 UNL     1       7.765  42.032  17.017  1.00  0.00     0.178 C 
HETATM   11  N7  UNL     1       6.820  41.741  18.087  1.00  0.00    -0.347 N 
ATOM     12  H7  UNL     1       6.040  42.390  18.184  1.00  0.00     0.163 HD
HETATM   13  C23 UNL     1       6.855  40.654  19.020  1.00  0.00     0.226 C 
HETATM   14  O3  UNL     1       5.843  40.601  19.749  1.00  0.00    -0.273 OA
HETATM   15  C24 UNL     1       7.954  39.699  19.118  1.00  0.00     0.125 C 
ENDROOT
BRANCH   4  16
HETATM   16  S1  UNL     1       9.336  36.476  17.355  1.00  0.00    -0.156 SA
BRANCH  16  17
HETATM   17  C8  UNL     1      11.012  36.130  17.450  1.00  0.00     0.056 C 
HETATM   18  C9  UNL     1      11.503  35.215  18.539  1.00  0.00     0.000 C 
HETATM   19  C10 UNL     1      11.020  33.811  18.437  1.00  0.00     0.010 C 
HETATM   20  C14 UNL     1      13.017  35.169  18.413  1.00  0.00     0.010 C 
HETATM   21  C11 UNL     1      11.354  33.203  17.097  1.00  0.00    -0.013 C 
HETATM   22  C12 UNL     1      12.853  33.111  16.995  1.00  0.00     0.009 C 
HETATM   23  C17 UNL     1      10.749  34.089  16.037  1.00  0.00     0.010 C 
HETATM   24  C13 UNL     1      13.430  34.494  17.128  1.00  0.00    -0.013 C 
HETATM   25  C15 UNL     1      12.890  35.332  15.998  1.00  0.00     0.010 C 
HETATM   26  C16 UNL     1      11.414  35.426  16.131  1.00  0.00     0.000 C 
ENDBRANCH  16  17
ENDBRANCH   4  16
BRANCH   1  27
HETATM   27  N2  UNL     1       6.694  38.196  20.624  1.00  0.00    -0.353 N 
HETATM   28  C3  UNL     1       6.272  38.086  21.977  1.00  0.00     0.248 C 
HETATM   29  O1  UNL     1       7.011  38.518  22.895  1.00  0.00    -0.271 OA
ATOM     30  H2  UNL     1       6.088  37.844  19.883  1.00  0.00     0.163 HD
BRANCH  28  31
HETATM   31  C2  UNL     1       4.982  37.476  22.349  1.00  0.00     0.270 C 
HETATM   32  C1  UNL     1       4.000  38.581  22.671  1.00  0.00     0.050 C 
BRANCH  31  33
HETATM   33  N1  UNL     1       4.464  36.658  21.296  1.00  0.00    -0.067 N 
ATOM     34  H13 UNL     1       4.951  35.764  21.232  1.00  0.00     0.275 HD
ATOM     35  H12 UNL     1       3.531  36.305  21.508  1.00  0.00     0.275 HD
ATOM     36  H11 UNL     1       4.489  37.172  20.415  1.00  0.00     0.275 HD
ENDBRANCH  31  33
ENDBRANCH  28  31
ENDBRANCH   1  27
BRANCH  10  37
HETATM   37  C21 UNL     1       7.164  42.910  15.982  1.00  0.00     0.057 C 
BRANCH  37  38
HETATM   38  C22 UNL     1       7.672  44.311  15.929  1.00  0.00     0.158 C 
BRANCH  38  39
HETATM   39  N4  UNL     1       9.073  44.371  15.582  1.00  0.00    -0.253 N 
ATOM     40  H4  UNL     1       9.363  44.242  14.613  1.00  0.00     0.196 HD
BRANCH  39  41
HETATM   41  N5  UNL     1       9.915  44.575  16.449  1.00  0.00    -0.249 NA
BRANCH  41  42
HETATM   42  N6  UNL     1      10.672  44.693  17.432  1.00  0.00    -0.261 N 
ATOM     43  H62 UNL     1      10.317  43.780  17.716  1.00  0.00     0.193 HD
ATOM     44  H61 UNL     1      11.327  44.911  18.182  1.00  0.00     0.193 HD
ENDBRANCH  41  42
ENDBRANCH  39  41
ENDBRANCH  38  39
ENDBRANCH  37  38
ENDBRANCH  10  37
TORSDOF 10
ENDMDL
MODEL 4
REMARK VINA RESULT: -7.804949216      0.600      1.409
REMARK  10 active torsions:
REMARK  status: ('A' for Active; 'I' for Inactive)
REMARK    1  A    between atoms: C2_2  and  N1_3 
REMARK    2  A    between atoms: C2_2  and  C3_7 
REMARK       I    between atoms: C3_7  and  N2_9 
REMARK    3  A    between atoms: N2_9  and  C4_11 
REMARK    4  A    between atoms: C7_14  and  S1_15 
REMARK    5  A    between atoms: S1_15  and  C8_16 
REMARK    6  A    between atoms: C20_31  and  C21_32 
REMARK    7  A    between atoms: C21_32  and  C22_33 
REMARK    8  A    between atoms: C22_33  and  N4_34 
REMARK    9  A    between atoms: N4_34  and  N5_36 
REMARK   10  A    between atoms: N5_36  and  N6_37 
ROOT
HETATM    1  C4  UNL     1       8.722  35.885  16.495  1.00  0.00     0.104 C 
HETATM    2  C5  UNL     1       7.604  35.233  17.327  1.00  0.00     0.021 C 
HETATM    3  C6  UNL     1       7.864  33.778  17.541  1.00  0.00     0.013 C 
HETATM    4  C7  UNL     1       7.761  36.043  18.629  1.00  0.00     0.077 C 
HETATM    5  C18 UNL     1       8.198  37.406  18.265  1.00  0.00     0.113 C 
HETATM    6  N3  UNL     1       7.322  38.490  18.503  1.00  0.00    -0.353 N 
ATOM      7  H3  UNL     1       6.593  38.333  19.198  1.00  0.00     0.163 HD
HETATM    8  C19 UNL     1       7.337  39.762  17.892  1.00  0.00     0.240 C 
HETATM    9  O2  UNL     1       6.447  40.557  18.360  1.00  0.00    -0.271 OA
HETATM   10  C20 UNL     1       8.120  40.437  16.835  1.00  0.00     0.178 C 
HETATM   11  N7  UNL     1       9.299  39.687  16.426  1.00  0.00    -0.347 N 
ATOM     12  H7  UNL     1      10.089  40.240  16.093  1.00  0.00     0.163 HD
HETATM   13  C23 UNL     1       9.484  38.265  16.434  1.00  0.00     0.226 C 
HETATM   14  O3  UNL     1      10.647  37.921  16.135  1.00  0.00    -0.273 OA
HETATM   15  C24 UNL     1       8.431  37.308  16.755  1.00  0.00     0.125 C 
ENDROOT
BRANCH   4  16
HETATM   16  S1  UNL     1       6.600  35.744  19.855  1.00  0.00    -0.156 SA
BRANCH  16  17
HETATM   17  C8  UNL     1       6.863  35.584  21.541  1.00  0.00     0.056 C 
HETATM   18  C9  UNL     1       5.818  34.894  22.376  1.00  0.00     0.000 C 
HETATM   19  C10 UNL     1       5.632  33.449  22.070  1.00  0.00     0.010 C 
HETATM   20  C14 UNL     1       6.291  34.982  23.817  1.00  0.00     0.010 C 
HETATM   21  C11 UNL     1       6.929  32.686  22.178  1.00  0.00    -0.013 C 
HETATM   22  C12 UNL     1       7.371  32.730  23.616  1.00  0.00     0.009 C 
HETATM   23  C17 UNL     1       7.916  33.340  21.242  1.00  0.00     0.010 C 
HETATM   24  C13 UNL     1       7.547  34.168  24.021  1.00  0.00    -0.013 C 
HETATM   25  C15 UNL     1       8.610  34.771  23.140  1.00  0.00     0.010 C 
HETATM   26  C16 UNL     1       8.144  34.737  21.731  1.00  0.00     0.000 C 
ENDBRANCH  16  17
ENDBRANCH   4  16
BRANCH   1  27
HETATM   27  N2  UNL     1      10.006  35.406  16.871  1.00  0.00    -0.353 N 
HETATM   28  C3  UNL     1      10.751  34.530  16.034  1.00  0.00     0.248 C 
HETATM   29  O1  UNL     1      10.270  34.166  14.933  1.00  0.00    -0.271 OA
ATOM     30  H2  UNL     1      10.404  35.699  17.764  1.00  0.00     0.163 HD
BRANCH  28  31
HETATM   31  C2  UNL     1      12.084  34.026  16.415  1.00  0.00     0.270 C 
HETATM   32  C1  UNL     1      12.400  34.507  17.814  1.00  0.00     0.050 C 
BRANCH  31  33
HETATM   33  N1  UNL     1      12.138  32.598  16.369  1.00  0.00    -0.067 N 
ATOM     34  H13 UNL     1      12.122  32.246  15.412  1.00  0.00     0.275 HD
ATOM     35  H12 UNL     1      13.053  32.240  16.644  1.00  0.00     0.275 HD
ATOM     36  H11 UNL     1      11.387  32.204  16.936  1.00  0.00     0.275 HD
ENDBRANCH  31  33
ENDBRANCH  28  31
ENDBRANCH   1  27
BRANCH  10  37
HETATM   37  C21 UNL     1       8.453  41.848  17.153  1.00  0.00     0.057 C 
BRANCH  37  38
HETATM   38  C22 UNL     1       8.378  42.815  16.020  1.00  0.00     0.158 C 
BRANCH  38  39
HETATM   39  N4  UNL     1       9.610  43.549  15.847  1.00  0.00    -0.253 N 
ATOM     40  H4  UNL     1      10.125  43.478  14.970  1.00  0.00     0.196 HD
BRANCH  39  41
HETATM   41  N5  UNL     1      10.039  44.258  16.751  1.00  0.00    -0.249 NA
BRANCH  41  42
HETATM   42  N6  UNL     1      10.579  44.849  17.706  1.00  0.00    -0.261 N 
ATOM     43  H62 UNL     1      11.402  44.902  17.106  1.00  0.00     0.193 HD
ATOM     44  H61 UNL     1      10.900  45.317  18.553  1.00  0.00     0.193 HD
ENDBRANCH  41  42
ENDBRANCH  39  41
ENDBRANCH  38  39
ENDBRANCH  37  38
ENDBRANCH  10  37
TORSDOF 10
ENDMDL
MODEL 5
REMARK VINA RESULT: -7.785929124      0.888      1.240
REMARK  10 active torsions:
REMARK  status: ('A' for Active; 'I' for Inactive)
REMARK    1  A    between atoms: C2_2  and  N1_3 
REMARK    2  A    between atoms: C2_2  and  C3_7 
REMARK       I    between atoms: C3_7  and  N2_9 
REMARK    3  A    between atoms: N2_9  and  C4_11 
REMARK    4  A    between atoms: C7_14  and  S1_15 
REMARK    5  A    between atoms: S1_15  and  C8_16 
REMARK    6  A    between atoms: C20_31  and  C21_32 
REMARK    7  A    between atoms: C21_32  and  C22_33 
REMARK    8  A    between atoms: C22_33  and  N4_34 
REMARK    9  A    between atoms: N4_34  and  N5_36 
REMARK   10  A    between atoms: N5_36  and  N6_37 
ROOT
HETATM    1  C4  UNL     1       8.765  35.730  16.518  1.00  0.00     0.104 C 
HETATM    2  C5  UNL     1       7.680  35.041  17.364  1.00  0.00     0.021 C 
HETATM    3  C6  UNL     1       7.981  33.590  17.555  1.00  0.00     0.013 C 
HETATM    4  C7  UNL     1       7.844  35.839  18.673  1.00  0.00     0.077 C 
HETATM    5  C18 UNL     1       8.239  37.217  18.317  1.00  0.00     0.113 C 
HETATM    6  N3  UNL     1       7.342  38.275  18.585  1.00  0.00    -0.353 N 
ATOM      7  H3  UNL     1       6.631  38.093  19.293  1.00  0.00     0.163 HD
HETATM    8  C19 UNL     1       7.313  39.555  17.990  1.00  0.00     0.240 C 
HETATM    9  O2  UNL     1       6.413  40.322  18.484  1.00  0.00    -0.271 OA
HETATM   10  C20 UNL     1       8.057  40.261  16.926  1.00  0.00     0.178 C 
HETATM   11  N7  UNL     1       9.246  39.546  16.484  1.00  0.00    -0.347 N 
ATOM     12  H7  UNL     1      10.015  40.122  16.143  1.00  0.00     0.163 HD
HETATM   13  C23 UNL     1       9.466  38.129  16.471  1.00  0.00     0.226 C 
HETATM   14  O3  UNL     1      10.631  37.818  16.145  1.00  0.00    -0.273 OA
HETATM   15  C24 UNL     1       8.445  37.143  16.801  1.00  0.00     0.125 C 
ENDROOT
BRANCH   4  16
HETATM   16  S1  UNL     1       6.715  35.497  19.918  1.00  0.00    -0.156 SA
BRANCH  16  17
HETATM   17  C8  UNL     1       6.625  34.098  20.904  1.00  0.00     0.056 C 
HETATM   18  C9  UNL     1       7.904  33.458  21.373  1.00  0.00     0.000 C 
HETATM   19  C10 UNL     1       8.717  34.296  22.297  1.00  0.00     0.010 C 
HETATM   20  C14 UNL     1       7.504  32.212  22.146  1.00  0.00     0.010 C 
HETATM   21  C11 UNL     1       7.918  34.734  23.499  1.00  0.00    -0.013 C 
HETATM   22  C12 UNL     1       7.566  33.504  24.291  1.00  0.00     0.009 C 
HETATM   23  C17 UNL     1       6.703  35.469  22.989  1.00  0.00     0.010 C 
HETATM   24  C13 UNL     1       6.769  32.578  23.413  1.00  0.00    -0.013 C 
HETATM   25  C15 UNL     1       5.512  33.299  23.000  1.00  0.00     0.010 C 
HETATM   26  C16 UNL     1       5.882  34.495  22.203  1.00  0.00     0.000 C 
ENDBRANCH  16  17
ENDBRANCH   4  16
BRANCH   1  27
HETATM   27  N2  UNL     1      10.068  35.279  16.863  1.00  0.00    -0.353 N 
HETATM   28  C3  UNL     1      10.824  34.446  15.994  1.00  0.00     0.248 C 
HETATM   29  O1  UNL     1      10.337  34.095  14.892  1.00  0.00    -0.271 OA
ATOM     30  H2  UNL     1      10.471  35.561  17.757  1.00  0.00     0.163 HD
BRANCH  28  31
HETATM   31  C2  UNL     1      12.177  33.971  16.342  1.00  0.00     0.270 C 
HETATM   32  C1  UNL     1      12.558  34.545  17.689  1.00  0.00     0.050 C 
BRANCH  31  33
HETATM   33  N1  UNL     1      12.236  32.543  16.389  1.00  0.00    -0.067 N 
ATOM     34  H13 UNL     1      12.278  32.193  17.346  1.00  0.00     0.275 HD
ATOM     35  H12 UNL     1      11.354  32.113  16.111  1.00  0.00     0.275 HD
ATOM     36  H11 UNL     1      13.018  32.211  15.824  1.00  0.00     0.275 HD
ENDBRANCH  31  33
ENDBRANCH  28  31
ENDBRANCH   1  27
BRANCH  10  37
HETATM   37  C21 UNL     1       8.362  41.676  17.253  1.00  0.00     0.057 C 
BRANCH  37  38
HETATM   38  C22 UNL     1       8.291  42.646  16.123  1.00  0.00     0.158 C 
BRANCH  38  39
HETATM   39  N4  UNL     1       9.559  42.791  15.448  1.00  0.00    -0.253 N 
ATOM     40  H4  UNL     1      10.232  43.485  15.775  1.00  0.00     0.196 HD
BRANCH  39  41
HETATM   41  N5  UNL     1       9.830  42.085  14.484  1.00  0.00    -0.249 NA
BRANCH  41  42
HETATM   42  N6  UNL     1       9.961  41.286  13.536  1.00  0.00    -0.261 N 
ATOM     43  H62 UNL     1       9.742  40.561  14.220  1.00  0.00     0.193 HD
ATOM     44  H61 UNL     1      10.095  40.743  12.683  1.00  0.00     0.193 HD
ENDBRANCH  41  42
ENDBRANCH  39  41
ENDBRANCH  38  39
ENDBRANCH  37  38
ENDBRANCH  10  37
TORSDOF 10
ENDMDL
