MODEL 1
REMARK VINA RESULT: -8.388089528      0.000      0.000
REMARK  9 active torsions:
REMARK  status: ('A' for Active; 'I' for Inactive)
REMARK    1  A    between atoms: C6_6  and  C7_7 
REMARK    2  A    between atoms: C8_8  and  C9_9 
REMARK    3  A    between atoms: C9_9  and  C10_10 
REMARK    4  A    between atoms: C10_10  and  C11_11 
REMARK    5  A    between atoms: C15_19  and  C16_20 
REMARK    6  A    between atoms: C16_20  and  O1_21 
REMARK    7  A    between atoms: N2_23  and  C17_24 
REMARK    8  A    between atoms: C17_24  and  C18_25 
REMARK    9  A    between atoms: C18_25  and  C19_26 
ROOT
HETATM    1  C1  UNL     1       8.942   1.643  42.638  1.00  0.00     0.042 C 
HETATM    2  C2  UNL     1       7.574   2.308  42.613  1.00  0.00     0.039 C 
HETATM    3  C3  UNL     1       7.641   3.416  41.598  1.00  0.00     0.042 C 
HETATM    4  C4  UNL     1       6.638   1.277  42.028  1.00  0.00    -0.000 C 
HETATM    5  C5  UNL     1       5.590   0.785  42.617  1.00  0.00    -0.018 C 
HETATM    6  C6  UNL     1       5.244   1.264  44.009  1.00  0.00     0.055 C 
HETATM    7  C15 UNL     1       6.602   1.633  44.645  1.00  0.00     0.114 C 
HETATM    8  N2  UNL     1       7.217   2.680  43.912  1.00  0.00    -0.394 N 
ENDROOT
BRANCH   6   9
HETATM    9  C7  UNL     1       4.391   2.436  43.857  1.00  0.00    -0.014 C 
HETATM   10  C8  UNL     1       3.102   2.552  43.780  1.00  0.00     0.024 C 
BRANCH  10  11
HETATM   11  C9  UNL     1       2.098   1.516  43.822  1.00  0.00     0.041 C 
HETATM   12  N1  UNL     1       2.105   0.475  44.552  1.00  0.00    -0.228 N 
HETATM   13  F1  UNL     1       1.138  -0.439  44.534  1.00  0.00    -0.102 F 
ATOM     14  H1  UNL     1       2.893   0.334  45.185  1.00  0.00     0.199 HD
BRANCH  11  15
HETATM   15  C10 UNL     1       0.903   1.668  42.910  1.00  0.00     0.105 C 
BRANCH  15  16
HETATM   16  C11 UNL     1       1.213   1.016  41.584  1.00  0.00    -0.012 A 
HETATM   17  C12 UNL     1       2.428   0.634  41.089  1.00  0.00     0.015 A 
HETATM   18  C13 UNL     1       2.451   0.071  39.877  1.00  0.00     0.008 A 
HETATM   19  C14 UNL     1       1.257  -0.078  39.228  1.00  0.00     0.050 A 
HETATM   20  S1  UNL     1       0.137   0.576  40.337  1.00  0.00    -0.106 SA
ENDBRANCH  15  16
ENDBRANCH  11  15
ENDBRANCH  10  11
ENDBRANCH   6   9
BRANCH   7  21
HETATM   21  C16 UNL     1       6.506   1.836  46.114  1.00  0.00     0.190 C 
BRANCH  21  22
HETATM   22  O1  UNL     1       6.622   0.595  46.754  1.00  0.00    -0.399 OA
ATOM     23  H1  UNL     1       6.758   0.738  47.684  1.00  0.00     0.209 HD
ENDBRANCH  21  22
ENDBRANCH   7  21
BRANCH   8  24
HETATM   24  C17 UNL     1       7.503   3.901  44.474  1.00  0.00     0.127 C 
BRANCH  24  25
HETATM   25  C18 UNL     1       8.785   3.843  45.317  1.00  0.00     0.137 C 
BRANCH  25  26
HETATM   26  C19 UNL     1       9.883   4.658  44.660  1.00  0.00     0.389 C 
HETATM   27  F2  UNL     1      10.337   5.559  45.604  1.00  0.00    -0.171 F 
HETATM   28  F3  UNL     1      10.941   3.887  44.263  1.00  0.00    -0.171 F 
HETATM   29  F4  UNL     1       9.409   5.392  43.585  1.00  0.00    -0.171 F 
ENDBRANCH  25  26
ENDBRANCH  24  25
ENDBRANCH   8  24
TORSDOF 9
ENDMDL
MODEL 2
REMARK VINA RESULT: -7.986386561      0.721      1.087
REMARK  9 active torsions:
REMARK  status: ('A' for Active; 'I' for Inactive)
REMARK    1  A    between atoms: C6_6  and  C7_7 
REMARK    2  A    between atoms: C8_8  and  C9_9 
REMARK    3  A    between atoms: C9_9  and  C10_10 
REMARK    4  A    between atoms: C10_10  and  C11_11 
REMARK    5  A    between atoms: C15_19  and  C16_20 
REMARK    6  A    between atoms: C16_20  and  O1_21 
REMARK    7  A    between atoms: N2_23  and  C17_24 
REMARK    8  A    between atoms: C17_24  and  C18_25 
REMARK    9  A    between atoms: C18_25  and  C19_26 
ROOT
HETATM    1  C1  UNL     1       9.309   2.589  42.006  1.00  0.00     0.042 C 
HETATM    2  C2  UNL     1       7.899   3.156  42.081  1.00  0.00     0.039 C 
HETATM    3  C3  UNL     1       7.934   4.511  41.429  1.00  0.00     0.042 C 
HETATM    4  C4  UNL     1       7.068   2.286  41.167  1.00  0.00    -0.000 C 
HETATM    5  C5  UNL     1       6.033   1.588  41.522  1.00  0.00    -0.018 C 
HETATM    6  C6  UNL     1       5.588   1.626  42.967  1.00  0.00     0.055 C 
HETATM    7  C15 UNL     1       6.884   1.872  43.769  1.00  0.00     0.114 C 
HETATM    8  N2  UNL     1       7.456   3.118  43.406  1.00  0.00    -0.394 N 
ENDROOT
BRANCH   6   9
HETATM    9  C7  UNL     1       4.661   2.743  43.099  1.00  0.00    -0.014 C 
HETATM   10  C8  UNL     1       3.400   2.777  43.400  1.00  0.00     0.024 C 
BRANCH  10  11
HETATM   11  C9  UNL     1       2.514   1.679  43.701  1.00  0.00     0.041 C 
HETATM   12  N1  UNL     1       2.738   0.713  44.497  1.00  0.00    -0.228 N 
HETATM   13  F1  UNL     1       1.867  -0.267  44.724  1.00  0.00    -0.102 F 
ATOM     14  H1  UNL     1       3.633   0.687  44.986  1.00  0.00     0.199 HD
BRANCH  11  15
HETATM   15  C10 UNL     1       1.170   1.659  43.011  1.00  0.00     0.105 C 
BRANCH  15  16
HETATM   16  C11 UNL     1       1.327   1.021  41.651  1.00  0.00    -0.012 A 
HETATM   17  C12 UNL     1       2.470   0.569  41.053  1.00  0.00     0.015 A 
HETATM   18  C13 UNL     1       2.357   0.036  39.832  1.00  0.00     0.008 A 
HETATM   19  C14 UNL     1       1.108  -0.014  39.279  1.00  0.00     0.050 A 
HETATM   20  S1  UNL     1       0.128   0.688  40.487  1.00  0.00    -0.106 SA
ENDBRANCH  15  16
ENDBRANCH  11  15
ENDBRANCH  10  11
ENDBRANCH   6   9
BRANCH   7  21
HETATM   21  C16 UNL     1       6.705   1.639  45.226  1.00  0.00     0.190 C 
BRANCH  21  22
HETATM   22  O1  UNL     1       5.716   0.664  45.414  1.00  0.00    -0.399 OA
ATOM     23  H1  UNL     1       5.236   0.860  46.210  1.00  0.00     0.209 HD
ENDBRANCH  21  22
ENDBRANCH   7  21
BRANCH   8  24
HETATM   24  C17 UNL     1       7.626   4.140  44.308  1.00  0.00     0.127 C 
BRANCH  24  25
HETATM   25  C18 UNL     1       8.844   3.893  45.211  1.00  0.00     0.137 C 
BRANCH  25  26
HETATM   26  C19 UNL     1       9.951   4.875  44.880  1.00  0.00     0.389 C 
HETATM   27  F2  UNL     1      11.075   4.131  44.578  1.00  0.00    -0.171 F 
HETATM   28  F3  UNL     1       9.651   5.655  43.797  1.00  0.00    -0.171 F 
HETATM   29  F4  UNL     1      10.268   5.680  45.963  1.00  0.00    -0.171 F 
ENDBRANCH  25  26
ENDBRANCH  24  25
ENDBRANCH   8  24
TORSDOF 9
ENDMDL
MODEL 3
REMARK VINA RESULT: -7.694687757      2.454      3.204
REMARK  9 active torsions:
REMARK  status: ('A' for Active; 'I' for Inactive)
REMARK    1  A    between atoms: C6_6  and  C7_7 
REMARK    2  A    between atoms: C8_8  and  C9_9 
REMARK    3  A    between atoms: C9_9  and  C10_10 
REMARK    4  A    between atoms: C10_10  and  C11_11 
REMARK    5  A    between atoms: C15_19  and  C16_20 
REMARK    6  A    between atoms: C16_20  and  O1_21 
REMARK    7  A    between atoms: N2_23  and  C17_24 
REMARK    8  A    between atoms: C17_24  and  C18_25 
REMARK    9  A    between atoms: C18_25  and  C19_26 
ROOT
HETATM    1  C1  UNL     1      10.267   2.600  41.766  1.00  0.00     0.042 C 
HETATM    2  C2  UNL     1       8.788   2.826  41.488  1.00  0.00     0.039 C 
HETATM    3  C3  UNL     1       8.643   3.014  40.003  1.00  0.00     0.042 C 
HETATM    4  C4  UNL     1       8.116   1.510  41.799  1.00  0.00    -0.000 C 
HETATM    5  C5  UNL     1       7.183   1.327  42.683  1.00  0.00    -0.018 C 
HETATM    6  C6  UNL     1       6.701   2.511  43.490  1.00  0.00     0.055 C 
HETATM    7  C15 UNL     1       7.927   3.444  43.586  1.00  0.00     0.114 C 
HETATM    8  N2  UNL     1       8.322   3.869  42.292  1.00  0.00    -0.394 N 
ENDROOT
BRANCH   6   9
HETATM    9  C7  UNL     1       5.619   3.130  42.734  1.00  0.00    -0.014 C 
HETATM   10  C8  UNL     1       4.331   3.047  42.861  1.00  0.00     0.024 C 
BRANCH  10  11
HETATM   11  C9  UNL     1       3.565   2.288  43.819  1.00  0.00     0.041 C 
HETATM   12  N1  UNL     1       3.123   2.697  44.939  1.00  0.00    -0.228 N 
HETATM   13  F1  UNL     1       2.419   1.934  45.772  1.00  0.00    -0.102 F 
ATOM     14  H1  UNL     1       3.317   3.660  45.213  1.00  0.00     0.199 HD
BRANCH  11  15
HETATM   15  C10 UNL     1       3.239   0.853  43.473  1.00  0.00     0.105 C 
BRANCH  15  16
HETATM   16  C11 UNL     1       2.158   0.837  42.420  1.00  0.00    -0.012 A 
HETATM   17  C12 UNL     1       2.275   0.562  41.086  1.00  0.00     0.015 A 
HETATM   18  C13 UNL     1       1.163   0.611  40.345  1.00  0.00     0.008 A 
HETATM   19  C14 UNL     1      -0.004   0.932  40.982  1.00  0.00     0.050 A 
HETATM   20  S1  UNL     1       0.493   1.156  42.599  1.00  0.00    -0.106 SA
ENDBRANCH  15  16
ENDBRANCH  11  15
ENDBRANCH  10  11
ENDBRANCH   6   9
BRANCH   7  21
HETATM   21  C16 UNL     1       7.746   4.519  44.597  1.00  0.00     0.190 C 
BRANCH  21  22
HETATM   22  O1  UNL     1       6.999   4.015  45.670  1.00  0.00    -0.399 OA
ATOM     23  H1  UNL     1       7.564   3.937  46.430  1.00  0.00     0.209 HD
ENDBRANCH  21  22
ENDBRANCH   7  21
BRANCH   8  24
HETATM   24  C17 UNL     1       8.319   5.192  41.920  1.00  0.00     0.127 C 
BRANCH  24  25
HETATM   25  C18 UNL     1       6.996   5.580  41.243  1.00  0.00     0.137 C 
BRANCH  25  26
HETATM   26  C19 UNL     1       7.202   6.777  40.335  1.00  0.00     0.389 C 
HETATM   27  F2  UNL     1       8.122   6.403  39.374  1.00  0.00    -0.171 F 
HETATM   28  F3  UNL     1       6.051   7.155  39.699  1.00  0.00    -0.171 F 
HETATM   29  F4  UNL     1       7.736   7.858  41.017  1.00  0.00    -0.171 F 
ENDBRANCH  25  26
ENDBRANCH  24  25
ENDBRANCH   8  24
TORSDOF 9
ENDMDL
MODEL 4
REMARK VINA RESULT: -7.503964376      1.312      1.586
REMARK  9 active torsions:
REMARK  status: ('A' for Active; 'I' for Inactive)
REMARK    1  A    between atoms: C6_6  and  C7_7 
REMARK    2  A    between atoms: C8_8  and  C9_9 
REMARK    3  A    between atoms: C9_9  and  C10_10 
REMARK    4  A    between atoms: C10_10  and  C11_11 
REMARK    5  A    between atoms: C15_19  and  C16_20 
REMARK    6  A    between atoms: C16_20  and  O1_21 
REMARK    7  A    between atoms: N2_23  and  C17_24 
REMARK    8  A    between atoms: C17_24  and  C18_25 
REMARK    9  A    between atoms: C18_25  and  C19_26 
ROOT
HETATM    1  C1  UNL     1       9.882   1.761  42.819  1.00  0.00     0.042 C 
HETATM    2  C2  UNL     1       8.555   2.358  42.374  1.00  0.00     0.039 C 
HETATM    3  C3  UNL     1       8.874   3.472  41.415  1.00  0.00     0.042 C 
HETATM    4  C4  UNL     1       7.890   1.285  41.545  1.00  0.00    -0.000 C 
HETATM    5  C5  UNL     1       6.739   0.740  41.794  1.00  0.00    -0.018 C 
HETATM    6  C6  UNL     1       5.965   1.196  43.011  1.00  0.00     0.055 C 
HETATM    7  C15 UNL     1       7.047   1.629  44.024  1.00  0.00     0.114 C 
HETATM    8  N2  UNL     1       7.805   2.707  43.500  1.00  0.00    -0.394 N 
ENDROOT
BRANCH   6   9
HETATM    9  C7  UNL     1       5.143   2.326  42.595  1.00  0.00    -0.014 C 
HETATM   10  C8  UNL     1       4.006   2.764  43.037  1.00  0.00     0.024 C 
BRANCH  10  11
HETATM   11  C9  UNL     1       3.189   2.240  44.105  1.00  0.00     0.041 C 
HETATM   12  N1  UNL     1       2.908   2.815  45.203  1.00  0.00    -0.228 N 
HETATM   13  F1  UNL     1       2.144   2.266  46.144  1.00  0.00    -0.102 F 
ATOM     14  H1  UNL     1       3.289   3.747  45.373  1.00  0.00     0.199 HD
BRANCH  11  15
HETATM   15  C10 UNL     1       2.592   0.865  43.915  1.00  0.00     0.105 C 
BRANCH  15  16
HETATM   16  C11 UNL     1       1.646   0.900  42.739  1.00  0.00    -0.012 A 
HETATM   17  C12 UNL     1       0.317   1.220  42.727  1.00  0.00     0.015 A 
HETATM   18  C13 UNL     1      -0.316   1.180  41.550  1.00  0.00     0.008 A 
HETATM   19  C14 UNL     1       0.416   0.821  40.452  1.00  0.00     0.050 A 
HETATM   20  S1  UNL     1       1.970   0.551  41.102  1.00  0.00    -0.106 SA
ENDBRANCH  15  16
ENDBRANCH  11  15
ENDBRANCH  10  11
ENDBRANCH   6   9
BRANCH   7  21
HETATM   21  C16 UNL     1       6.501   1.821  45.393  1.00  0.00     0.190 C 
BRANCH  21  22
HETATM   22  O1  UNL     1       5.867   0.640  45.801  1.00  0.00    -0.399 OA
ATOM     23  H1  UNL     1       6.106  -0.061  45.206  1.00  0.00     0.209 HD
ENDBRANCH  21  22
ENDBRANCH   7  21
BRANCH   8  24
HETATM   24  C17 UNL     1       7.848   3.939  44.108  1.00  0.00     0.127 C 
BRANCH  24  25
HETATM   25  C18 UNL     1       8.932   3.988  45.195  1.00  0.00     0.137 C 
BRANCH  25  26
HETATM   26  C19 UNL     1      10.061   4.907  44.771  1.00  0.00     0.389 C 
HETATM   27  F2  UNL     1      10.321   5.747  45.836  1.00  0.00    -0.171 F 
HETATM   28  F3  UNL     1      11.209   4.223  44.476  1.00  0.00    -0.171 F 
HETATM   29  F4  UNL     1       9.702   5.704  43.695  1.00  0.00    -0.171 F 
ENDBRANCH  25  26
ENDBRANCH  24  25
ENDBRANCH   8  24
TORSDOF 9
ENDMDL
MODEL 5
REMARK VINA RESULT: -7.461582438      0.883      1.328
REMARK  9 active torsions:
REMARK  status: ('A' for Active; 'I' for Inactive)
REMARK    1  A    between atoms: C6_6  and  C7_7 
REMARK    2  A    between atoms: C8_8  and  C9_9 
REMARK    3  A    between atoms: C9_9  and  C10_10 
REMARK    4  A    between atoms: C10_10  and  C11_11 
REMARK    5  A    between atoms: C15_19  and  C16_20 
REMARK    6  A    between atoms: C16_20  and  O1_21 
REMARK    7  A    between atoms: N2_23  and  C17_24 
REMARK    8  A    between atoms: C17_24  and  C18_25 
REMARK    9  A    between atoms: C18_25  and  C19_26 
ROOT
HETATM    1  C1  UNL     1       8.997   1.832  42.556  1.00  0.00     0.042 C 
HETATM    2  C2  UNL     1       7.600   2.435  42.551  1.00  0.00     0.039 C 
HETATM    3  C3  UNL     1       7.594   3.525  41.515  1.00  0.00     0.042 C 
HETATM    4  C4  UNL     1       6.698   1.352  42.007  1.00  0.00    -0.000 C 
HETATM    5  C5  UNL     1       5.687   0.826  42.629  1.00  0.00    -0.018 C 
HETATM    6  C6  UNL     1       5.351   1.315  44.020  1.00  0.00     0.055 C 
HETATM    7  C15 UNL     1       6.705   1.756  44.617  1.00  0.00     0.114 C 
HETATM    8  N2  UNL     1       7.256   2.816  43.851  1.00  0.00    -0.394 N 
ENDROOT
BRANCH   6   9
HETATM    9  C7  UNL     1       4.444   2.445  43.866  1.00  0.00    -0.014 C 
HETATM   10  C8  UNL     1       3.154   2.495  43.740  1.00  0.00     0.024 C 
BRANCH  10  11
HETATM   11  C9  UNL     1       2.207   1.407  43.710  1.00  0.00     0.041 C 
HETATM   12  N1  UNL     1       1.480   1.001  44.671  1.00  0.00    -0.228 N 
HETATM   13  F1  UNL     1       0.625  -0.013  44.566  1.00  0.00    -0.102 F 
ATOM     14  H1  UNL     1       1.555   1.478  45.570  1.00  0.00     0.199 HD
BRANCH  11  15
HETATM   15  C10 UNL     1       2.044   0.660  42.407  1.00  0.00     0.105 C 
BRANCH  15  16
HETATM   16  C11 UNL     1       0.677   0.959  41.839  1.00  0.00    -0.012 A 
HETATM   17  C12 UNL     1      -0.334   1.688  42.399  1.00  0.00     0.015 A 
HETATM   18  C13 UNL     1      -1.465   1.816  41.697  1.00  0.00     0.008 A 
HETATM   19  C14 UNL     1      -1.520   1.206  40.474  1.00  0.00     0.050 A 
HETATM   20  S1  UNL     1       0.016   0.472  40.345  1.00  0.00    -0.106 SA
ENDBRANCH  15  16
ENDBRANCH  11  15
ENDBRANCH  10  11
ENDBRANCH   6   9
BRANCH   7  21
HETATM   21  C16 UNL     1       6.633   1.983  46.084  1.00  0.00     0.190 C 
BRANCH  21  22
HETATM   22  O1  UNL     1       6.744   0.751  46.742  1.00  0.00    -0.399 OA
ATOM     23  H1  UNL     1       7.597   0.697  47.156  1.00  0.00     0.209 HD
ENDBRANCH  21  22
ENDBRANCH   7  21
BRANCH   8  24
HETATM   24  C17 UNL     1       7.499   4.059  44.384  1.00  0.00     0.127 C 
BRANCH  24  25
HETATM   25  C18 UNL     1       8.709   4.035  45.330  1.00  0.00     0.137 C 
BRANCH  25  26
HETATM   26  C19 UNL     1       9.913   4.666  44.657  1.00  0.00     0.389 C 
HETATM   27  F2  UNL     1      10.473   5.541  45.568  1.00  0.00    -0.171 F 
HETATM   28  F3  UNL     1      10.863   3.743  44.313  1.00  0.00    -0.171 F 
HETATM   29  F4  UNL     1       9.554   5.407  43.542  1.00  0.00    -0.171 F 
ENDBRANCH  25  26
ENDBRANCH  24  25
ENDBRANCH   8  24
TORSDOF 9
ENDMDL
