MODEL 1
REMARK VINA RESULT: -8.477812735      0.000      0.000
REMARK  17 active torsions:
REMARK  status: ('A' for Active; 'I' for Inactive)
REMARK    1  A    between atoms: C2_2  and  O2_4 
REMARK    2  A    between atoms: O2_4  and  C3_5 
REMARK    3  A    between atoms: C7_10  and  C8_11 
REMARK       I    between atoms: C8_11  and  N1_13 
REMARK    4  A    between atoms: C9_15  and  C10_16 
REMARK    5  A    between atoms: C9_15  and  C11_19 
REMARK    6  A    between atoms: C11_19  and  O7_20 
REMARK    7  A    between atoms: C11_19  and  O8_22 
REMARK    8  A    between atoms: C11_19  and  N2_24 
REMARK    9  A    between atoms: N2_24  and  N3_26 
REMARK   10  A    between atoms: C12_28  and  C13_29 
REMARK   11  A    between atoms: C12_28  and  C16_38 
REMARK   12  A    between atoms: C15_32  and  N4_33 
REMARK   13  A    between atoms: C16_38  and  C17_40 
REMARK   14  A    between atoms: C21_46  and  C22_47 
REMARK   15  A    between atoms: C22_47  and  O11_49 
REMARK   16  A    between atoms: O11_49  and  C23_50 
REMARK   17  A    between atoms: C23_50  and  C24_51 
ROOT
HETATM    1  N3  UNL     1      11.688  27.737  25.707  1.00  0.00    -0.296 N 
ATOM      2  H3  UNL     1      12.140  27.548  26.602  1.00  0.00     0.187 HD
HETATM    3  C12 UNL     1      12.255  28.635  25.105  1.00  0.00     0.097 C 
ENDROOT
BRANCH   1   4
HETATM    4  N2  UNL     1      10.632  26.930  25.512  1.00  0.00    -0.272 N 
ATOM      5  H2  UNL     1       9.880  27.031  26.194  1.00  0.00     0.186 HD
BRANCH   4   6
HETATM    6  C11 UNL     1      10.397  25.946  24.491  1.00  0.00     0.311 C 
BRANCH   6   7
HETATM    7  C9  UNL     1       9.358  26.447  23.538  1.00  0.00     0.176 C 
HETATM    8  N1  UNL     1       9.367  26.153  22.302  1.00  0.00    -0.316 N 
HETATM    9  C8  UNL     1       8.497  26.526  21.287  1.00  0.00     0.251 C 
ATOM     10  H1  UNL     1      10.135  25.549  22.010  1.00  0.00     0.169 HD
HETATM   11  O4  UNL     1       8.673  27.672  20.749  1.00  0.00    -0.270 OA
BRANCH   9  12
HETATM   12  C7  UNL     1       7.363  25.679  20.772  1.00  0.00     0.223 C 
HETATM   13  C6  UNL     1       6.625  26.325  19.656  1.00  0.00     0.120 C 
HETATM   14  C5  UNL     1       5.479  27.135  20.129  1.00  0.00     0.134 C 
HETATM   15  C4  UNL     1       5.282  27.189  21.626  1.00  0.00     0.139 C 
HETATM   16  O3  UNL     1       4.742  27.720  19.362  1.00  0.00    -0.298 OA
HETATM   17  C3  UNL     1       5.433  25.751  22.089  1.00  0.00     0.277 C 
HETATM   18  O12 UNL     1       6.631  25.176  21.804  1.00  0.00    -0.345 OA
BRANCH  17  19
HETATM   19  O2  UNL     1       4.324  25.034  21.555  1.00  0.00    -0.290 OA
BRANCH  19  20
HETATM   20  C2  UNL     1       3.565  24.180  22.343  1.00  0.00     0.257 C 
HETATM   21  C1  UNL     1       2.627  24.699  23.372  1.00  0.00     0.126 C 
HETATM   22  O1  UNL     1       3.701  22.961  22.154  1.00  0.00    -0.266 OA
ENDBRANCH  19  20
ENDBRANCH  17  19
ENDBRANCH   9  12
BRANCH   7  23
HETATM   23  C10 UNL     1       8.308  27.302  24.063  1.00  0.00     0.230 C 
HETATM   24  O5  UNL     1       7.388  26.770  24.776  1.00  0.00    -0.643 OA
HETATM   25  O6  UNL     1       8.196  28.656  23.870  1.00  0.00    -0.643 OA
ENDBRANCH   7  23
ENDBRANCH   6   7
BRANCH   6  26
HETATM   26  O7  UNL     1      11.537  25.601  23.793  1.00  0.00    -0.343 OA
ATOM     27  H7  UNL     1      11.445  24.721  23.449  1.00  0.00     0.215 HD
ENDBRANCH   6  26
BRANCH   6  28
HETATM   28  O8  UNL     1       9.941  24.776  25.109  1.00  0.00    -0.343 OA
ATOM     29  H8  UNL     1       9.193  24.977  25.659  1.00  0.00     0.215 HD
ENDBRANCH   6  28
ENDBRANCH   4   6
ENDBRANCH   1   4
BRANCH   3  30
HETATM   30  C13 UNL     1      11.866  29.153  23.782  1.00  0.00     0.070 A 
HETATM   31  C14 UNL     1      11.248  30.390  23.690  1.00  0.00     0.085 A 
HETATM   32  S1  UNL     1      10.942  30.533  22.018  1.00  0.00    -0.064 SA
HETATM   33  C15 UNL     1      11.598  29.048  21.517  1.00  0.00     0.142 A 
HETATM   34  N5  UNL     1      12.026  28.503  22.659  1.00  0.00    -0.335 N 
ATOM     35  H5  UNL     1      12.473  27.586  22.656  1.00  0.00     0.168 HD
BRANCH  33  36
HETATM   36  N4  UNL     1      11.666  28.550  20.294  1.00  0.00    -0.380 N 
ATOM     37  H42 UNL     1      11.538  29.034  19.405  1.00  0.00     0.158 HD
ATOM     38  H41 UNL     1      11.862  27.590  20.010  1.00  0.00     0.158 HD
ENDBRANCH  33  36
ENDBRANCH   3  30
BRANCH   3  39
HETATM   39  C16 UNL     1      13.421  29.378  25.814  1.00  0.00     0.080 C 
HETATM   40  S2  UNL     1      13.361  29.025  27.517  1.00  0.00    -0.076 SA
BRANCH  39  41
HETATM   41  C17 UNL     1      14.674  29.118  25.114  1.00  0.00     0.048 A 
HETATM   42  S3  UNL     1      14.932  27.477  24.567  1.00  0.00    -0.099 SA
HETATM   43  C18 UNL     1      16.393  27.235  23.749  1.00  0.00     0.054 A 
HETATM   44  C19 UNL     1      17.172  28.362  23.628  1.00  0.00     0.063 A 
HETATM   45  C20 UNL     1      16.854  29.591  24.102  1.00  0.00     0.190 A 
HETATM   46  O9  UNL     1      17.728  30.505  23.878  1.00  0.00    -0.287 OA
HETATM   47  C21 UNL     1      15.687  29.960  24.798  1.00  0.00     0.108 A 
BRANCH  47  48
HETATM   48  C22 UNL     1      15.666  31.405  25.140  1.00  0.00     0.299 C 
HETATM   49  O10 UNL     1      16.044  31.724  26.280  1.00  0.00    -0.259 OA
BRANCH  48  50
HETATM   50  O11 UNL     1      15.277  32.378  24.281  1.00  0.00    -0.312 OA
BRANCH  50  51
HETATM   51  C23 UNL     1      15.615  33.708  24.184  1.00  0.00     0.223 C 
BRANCH  51  52
HETATM   52  C24 UNL     1      16.948  34.104  23.764  1.00  0.00     0.079 C 
HETATM   53  N6  UNL     1      17.588  33.456  22.871  1.00  0.00    -0.409 N 
ATOM     54  H62 UNL     1      17.140  32.641  22.452  1.00  0.00     0.155 HD
ATOM     55  H61 UNL     1      18.525  33.734  22.576  1.00  0.00     0.155 HD
ENDBRANCH  51  52
ENDBRANCH  50  51
ENDBRANCH  48  50
ENDBRANCH  47  48
ENDBRANCH  39  41
ENDBRANCH   3  39
TORSDOF 17
ENDMDL
MODEL 2
REMARK VINA RESULT: -8.439350851      2.987      3.466
REMARK  17 active torsions:
REMARK  status: ('A' for Active; 'I' for Inactive)
REMARK    1  A    between atoms: C2_2  and  O2_4 
REMARK    2  A    between atoms: O2_4  and  C3_5 
REMARK    3  A    between atoms: C7_10  and  C8_11 
REMARK       I    between atoms: C8_11  and  N1_13 
REMARK    4  A    between atoms: C9_15  and  C10_16 
REMARK    5  A    between atoms: C9_15  and  C11_19 
REMARK    6  A    between atoms: C11_19  and  O7_20 
REMARK    7  A    between atoms: C11_19  and  O8_22 
REMARK    8  A    between atoms: C11_19  and  N2_24 
REMARK    9  A    between atoms: N2_24  and  N3_26 
REMARK   10  A    between atoms: C12_28  and  C13_29 
REMARK   11  A    between atoms: C12_28  and  C16_38 
REMARK   12  A    between atoms: C15_32  and  N4_33 
REMARK   13  A    between atoms: C16_38  and  C17_40 
REMARK   14  A    between atoms: C21_46  and  C22_47 
REMARK   15  A    between atoms: C22_47  and  O11_49 
REMARK   16  A    between atoms: O11_49  and  C23_50 
REMARK   17  A    between atoms: C23_50  and  C24_51 
ROOT
HETATM    1  N3  UNL     1      11.143  27.821  24.904  1.00  0.00    -0.296 N 
ATOM      2  H3  UNL     1      11.980  27.248  25.018  1.00  0.00     0.187 HD
HETATM    3  C12 UNL     1      11.383  28.833  24.266  1.00  0.00     0.097 C 
ENDROOT
BRANCH   1   4
HETATM    4  N2  UNL     1      10.078  27.256  25.497  1.00  0.00    -0.272 N 
ATOM      5  H2  UNL     1       9.817  27.664  26.395  1.00  0.00     0.186 HD
BRANCH   4   6
HETATM    6  C11 UNL     1       9.250  26.165  25.062  1.00  0.00     0.311 C 
BRANCH   6   7
HETATM    7  C9  UNL     1       8.288  26.646  24.022  1.00  0.00     0.176 C 
HETATM    8  N1  UNL     1       8.465  26.438  22.781  1.00  0.00    -0.316 N 
HETATM    9  C8  UNL     1       7.688  26.810  21.692  1.00  0.00     0.251 C 
ATOM     10  H1  UNL     1       9.310  25.917  22.549  1.00  0.00     0.169 HD
HETATM   11  O4  UNL     1       7.826  28.000  21.246  1.00  0.00    -0.270 OA
BRANCH   9  12
HETATM   12  C7  UNL     1       6.698  25.913  20.996  1.00  0.00     0.223 C 
HETATM   13  C6  UNL     1       5.902  26.628  19.965  1.00  0.00     0.120 C 
HETATM   14  C5  UNL     1       4.642  27.185  20.509  1.00  0.00     0.134 C 
HETATM   15  C4  UNL     1       4.405  26.963  21.985  1.00  0.00     0.139 C 
HETATM   16  O3  UNL     1       3.847  27.782  19.813  1.00  0.00    -0.298 OA
HETATM   17  C3  UNL     1       4.748  25.503  22.218  1.00  0.00     0.277 C 
HETATM   18  O12 UNL     1       6.021  25.152  21.899  1.00  0.00    -0.345 OA
BRANCH  17  19
HETATM   19  O2  UNL     1       3.764  24.739  21.525  1.00  0.00    -0.290 OA
BRANCH  19  20
HETATM   20  C2  UNL     1       2.968  23.813  22.184  1.00  0.00     0.257 C 
HETATM   21  C1  UNL     1       3.495  22.486  22.595  1.00  0.00     0.126 C 
HETATM   22  O1  UNL     1       1.794  24.138  22.418  1.00  0.00    -0.266 OA
ENDBRANCH  19  20
ENDBRANCH  17  19
ENDBRANCH   9  12
BRANCH   7  23
HETATM   23  C10 UNL     1       7.115  27.378  24.465  1.00  0.00     0.230 C 
HETATM   24  O5  UNL     1       7.056  28.635  24.232  1.00  0.00    -0.643 OA
HETATM   25  O6  UNL     1       6.033  26.849  25.124  1.00  0.00    -0.643 OA
ENDBRANCH   7  23
ENDBRANCH   6   7
BRANCH   6  26
HETATM   26  O7  UNL     1       9.970  25.096  24.568  1.00  0.00    -0.343 OA
ATOM     27  H7  UNL     1      10.855  25.375  24.367  1.00  0.00     0.215 HD
ENDBRANCH   6  26
BRANCH   6  28
HETATM   28  O8  UNL     1       8.541  25.687  26.170  1.00  0.00    -0.343 OA
ATOM     29  H8  UNL     1       9.124  25.620  26.917  1.00  0.00     0.215 HD
ENDBRANCH   6  28
ENDBRANCH   4   6
ENDBRANCH   1   4
BRANCH   3  30
HETATM   30  C13 UNL     1      10.401  29.875  23.918  1.00  0.00     0.070 A 
HETATM   31  C14 UNL     1      10.092  30.858  24.844  1.00  0.00     0.085 A 
HETATM   32  S1  UNL     1       8.902  31.774  24.037  1.00  0.00    -0.064 SA
HETATM   33  C15 UNL     1       8.848  30.890  22.587  1.00  0.00     0.142 A 
HETATM   34  N5  UNL     1       9.750  29.924  22.785  1.00  0.00    -0.335 N 
ATOM     35  H5  UNL     1       9.929  29.231  22.059  1.00  0.00     0.168 HD
BRANCH  33  36
HETATM   36  N4  UNL     1       8.094  31.103  21.521  1.00  0.00    -0.380 N 
ATOM     37  H42 UNL     1       7.078  31.172  21.468  1.00  0.00     0.158 HD
ATOM     38  H41 UNL     1       8.388  31.241  20.554  1.00  0.00     0.158 HD
ENDBRANCH  33  36
ENDBRANCH   3  30
BRANCH   3  39
HETATM   39  C16 UNL     1      12.857  29.123  23.867  1.00  0.00     0.080 C 
HETATM   40  S2  UNL     1      13.570  30.168  25.063  1.00  0.00    -0.076 SA
BRANCH  39  41
HETATM   41  C17 UNL     1      13.545  27.872  23.567  1.00  0.00     0.048 A 
HETATM   42  S3  UNL     1      14.873  27.443  24.621  1.00  0.00    -0.099 SA
HETATM   43  C18 UNL     1      15.624  25.977  24.237  1.00  0.00     0.054 A 
HETATM   44  C19 UNL     1      15.085  25.328  23.151  1.00  0.00     0.063 A 
HETATM   45  C20 UNL     1      14.041  25.772  22.409  1.00  0.00     0.190 A 
HETATM   46  O9  UNL     1      13.699  25.006  21.437  1.00  0.00    -0.287 OA
HETATM   47  C21 UNL     1      13.309  26.960  22.594  1.00  0.00     0.108 A 
BRANCH  47  48
HETATM   48  C22 UNL     1      12.212  27.107  21.604  1.00  0.00     0.299 C 
HETATM   49  O10 UNL     1      11.113  26.606  21.897  1.00  0.00    -0.259 OA
BRANCH  48  50
HETATM   50  O11 UNL     1      12.341  27.762  20.425  1.00  0.00    -0.312 OA
BRANCH  50  51
HETATM   51  C23 UNL     1      12.882  28.986  20.107  1.00  0.00     0.223 C 
BRANCH  51  52
HETATM   52  C24 UNL     1      12.204  30.214  20.483  1.00  0.00     0.079 C 
HETATM   53  N6  UNL     1      11.498  30.872  19.648  1.00  0.00    -0.409 N 
ATOM     54  H62 UNL     1      11.419  30.513  18.696  1.00  0.00     0.155 HD
ATOM     55  H61 UNL     1      11.022  31.735  19.911  1.00  0.00     0.155 HD
ENDBRANCH  51  52
ENDBRANCH  50  51
ENDBRANCH  48  50
ENDBRANCH  47  48
ENDBRANCH  39  41
ENDBRANCH   3  39
TORSDOF 17
ENDMDL
MODEL 3
REMARK VINA RESULT: -8.397294055      4.748      8.096
REMARK  17 active torsions:
REMARK  status: ('A' for Active; 'I' for Inactive)
REMARK    1  A    between atoms: C2_2  and  O2_4 
REMARK    2  A    between atoms: O2_4  and  C3_5 
REMARK    3  A    between atoms: C7_10  and  C8_11 
REMARK       I    between atoms: C8_11  and  N1_13 
REMARK    4  A    between atoms: C9_15  and  C10_16 
REMARK    5  A    between atoms: C9_15  and  C11_19 
REMARK    6  A    between atoms: C11_19  and  O7_20 
REMARK    7  A    between atoms: C11_19  and  O8_22 
REMARK    8  A    between atoms: C11_19  and  N2_24 
REMARK    9  A    between atoms: N2_24  and  N3_26 
REMARK   10  A    between atoms: C12_28  and  C13_29 
REMARK   11  A    between atoms: C12_28  and  C16_38 
REMARK   12  A    between atoms: C15_32  and  N4_33 
REMARK   13  A    between atoms: C16_38  and  C17_40 
REMARK   14  A    between atoms: C21_46  and  C22_47 
REMARK   15  A    between atoms: C22_47  and  O11_49 
REMARK   16  A    between atoms: O11_49  and  C23_50 
REMARK   17  A    between atoms: C23_50  and  C24_51 
ROOT
HETATM    1  N3  UNL     1      12.585  30.787  25.319  1.00  0.00    -0.296 N 
ATOM      2  H3  UNL     1      13.488  31.140  25.000  1.00  0.00     0.187 HD
HETATM    3  C12 UNL     1      12.173  29.901  24.587  1.00  0.00     0.097 C 
ENDROOT
BRANCH   1   4
HETATM    4  N2  UNL     1      12.175  31.424  26.429  1.00  0.00    -0.272 N 
ATOM      5  H2  UNL     1      11.927  30.814  27.209  1.00  0.00     0.186 HD
BRANCH   4   6
HETATM    6  C11 UNL     1      12.033  32.830  26.688  1.00  0.00     0.311 C 
BRANCH   6   7
HETATM    7  C9  UNL     1      10.602  33.232  26.512  1.00  0.00     0.176 C 
HETATM    8  N1  UNL     1       9.996  33.977  27.344  1.00  0.00    -0.316 N 
HETATM    9  C8  UNL     1       8.688  34.441  27.342  1.00  0.00     0.251 C 
ATOM     10  H1  UNL     1      10.559  34.281  28.138  1.00  0.00     0.169 HD
HETATM   11  O4  UNL     1       7.781  33.655  27.782  1.00  0.00    -0.270 OA
BRANCH   9  12
HETATM   12  C7  UNL     1       8.259  35.803  26.862  1.00  0.00     0.223 C 
HETATM   13  C6  UNL     1       6.785  35.984  26.888  1.00  0.00     0.120 C 
HETATM   14  C5  UNL     1       6.145  35.602  25.609  1.00  0.00     0.134 C 
HETATM   15  C4  UNL     1       7.072  35.080  24.536  1.00  0.00     0.139 C 
HETATM   16  O3  UNL     1       4.948  35.703  25.430  1.00  0.00    -0.298 OA
HETATM   17  C3  UNL     1       8.246  36.043  24.536  1.00  0.00     0.277 C 
HETATM   18  O12 UNL     1       8.914  36.137  25.716  1.00  0.00    -0.345 OA
BRANCH  17  19
HETATM   19  O2  UNL     1       7.746  37.294  24.072  1.00  0.00    -0.290 OA
BRANCH  19  20
HETATM   20  C2  UNL     1       7.584  37.554  22.718  1.00  0.00     0.257 C 
HETATM   21  C1  UNL     1       6.236  37.653  22.101  1.00  0.00     0.126 C 
HETATM   22  O1  UNL     1       8.613  37.700  22.041  1.00  0.00    -0.266 OA
ENDBRANCH  19  20
ENDBRANCH  17  19
ENDBRANCH   9  12
BRANCH   7  23
HETATM   23  C10 UNL     1       9.895  32.742  25.343  1.00  0.00     0.230 C 
HETATM   24  O5  UNL     1      10.373  33.007  24.185  1.00  0.00    -0.643 OA
HETATM   25  O6  UNL     1       8.738  32.002  25.349  1.00  0.00    -0.643 OA
ENDBRANCH   7  23
ENDBRANCH   6   7
BRANCH   6  26
HETATM   26  O7  UNL     1      12.466  33.200  27.945  1.00  0.00    -0.343 OA
ATOM     27  H7  UNL     1      12.335  32.480  28.551  1.00  0.00     0.215 HD
ENDBRANCH   6  26
BRANCH   6  28
HETATM   28  O8  UNL     1      12.831  33.525  25.772  1.00  0.00    -0.343 OA
ATOM     29  H8  UNL     1      12.836  34.449  25.992  1.00  0.00     0.215 HD
ENDBRANCH   6  28
ENDBRANCH   4   6
ENDBRANCH   1   4
BRANCH   3  30
HETATM   30  C13 UNL     1      10.903  29.173  24.761  1.00  0.00     0.070 A 
HETATM   31  C14 UNL     1       9.935  29.245  23.772  1.00  0.00     0.085 A 
HETATM   32  S1  UNL     1       8.660  28.320  24.427  1.00  0.00    -0.064 SA
HETATM   33  C15 UNL     1       9.395  27.890  25.898  1.00  0.00     0.142 A 
HETATM   34  N5  UNL     1      10.593  28.478  25.824  1.00  0.00    -0.335 N 
ATOM     35  H5  UNL     1      11.260  28.384  26.590  1.00  0.00     0.168 HD
BRANCH  33  36
HETATM   36  N4  UNL     1       8.901  27.155  26.880  1.00  0.00    -0.380 N 
ATOM     37  H42 UNL     1       8.782  26.143  26.914  1.00  0.00     0.158 HD
ATOM     38  H41 UNL     1       8.549  27.462  27.787  1.00  0.00     0.158 HD
ENDBRANCH  33  36
ENDBRANCH   3  30
BRANCH   3  39
HETATM   39  C16 UNL     1      12.981  29.567  23.303  1.00  0.00     0.080 C 
HETATM   40  S2  UNL     1      13.519  31.053  22.573  1.00  0.00    -0.076 SA
BRANCH  39  41
HETATM   41  C17 UNL     1      13.990  28.557  23.601  1.00  0.00     0.048 A 
HETATM   42  S3  UNL     1      15.530  29.146  24.184  1.00  0.00    -0.099 SA
HETATM   43  C18 UNL     1      16.658  27.932  24.529  1.00  0.00     0.054 A 
HETATM   44  C19 UNL     1      16.205  26.653  24.302  1.00  0.00     0.063 A 
HETATM   45  C20 UNL     1      14.972  26.326  23.842  1.00  0.00     0.190 A 
HETATM   46  O9  UNL     1      14.758  25.067  23.703  1.00  0.00    -0.287 OA
HETATM   47  C21 UNL     1      13.925  27.207  23.512  1.00  0.00     0.108 A 
BRANCH  47  48
HETATM   48  C22 UNL     1      12.702  26.490  23.066  1.00  0.00     0.299 C 
HETATM   49  O10 UNL     1      11.946  26.055  23.952  1.00  0.00    -0.259 OA
BRANCH  48  50
HETATM   50  O11 UNL     1      12.368  26.303  21.767  1.00  0.00    -0.312 OA
BRANCH  50  51
HETATM   51  C23 UNL     1      11.746  27.119  20.851  1.00  0.00     0.223 C 
BRANCH  51  52
HETATM   52  C24 UNL     1      10.306  27.064  20.670  1.00  0.00     0.079 C 
HETATM   53  N6  UNL     1       9.730  26.031  20.192  1.00  0.00    -0.409 N 
ATOM     54  H62 UNL     1      10.309  25.232  19.936  1.00  0.00     0.155 HD
ATOM     55  H61 UNL     1       8.718  25.993  20.065  1.00  0.00     0.155 HD
ENDBRANCH  51  52
ENDBRANCH  50  51
ENDBRANCH  48  50
ENDBRANCH  47  48
ENDBRANCH  39  41
ENDBRANCH   3  39
TORSDOF 17
ENDMDL
MODEL 4
REMARK VINA RESULT: -8.354821707      2.616      3.817
REMARK  17 active torsions:
REMARK  status: ('A' for Active; 'I' for Inactive)
REMARK    1  A    between atoms: C2_2  and  O2_4 
REMARK    2  A    between atoms: O2_4  and  C3_5 
REMARK    3  A    between atoms: C7_10  and  C8_11 
REMARK       I    between atoms: C8_11  and  N1_13 
REMARK    4  A    between atoms: C9_15  and  C10_16 
REMARK    5  A    between atoms: C9_15  and  C11_19 
REMARK    6  A    between atoms: C11_19  and  O7_20 
REMARK    7  A    between atoms: C11_19  and  O8_22 
REMARK    8  A    between atoms: C11_19  and  N2_24 
REMARK    9  A    between atoms: N2_24  and  N3_26 
REMARK   10  A    between atoms: C12_28  and  C13_29 
REMARK   11  A    between atoms: C12_28  and  C16_38 
REMARK   12  A    between atoms: C15_32  and  N4_33 
REMARK   13  A    between atoms: C16_38  and  C17_40 
REMARK   14  A    between atoms: C21_46  and  C22_47 
REMARK   15  A    between atoms: C22_47  and  O11_49 
REMARK   16  A    between atoms: O11_49  and  C23_50 
REMARK   17  A    between atoms: C23_50  and  C24_51 
ROOT
HETATM    1  N3  UNL     1      11.277  28.369  24.919  1.00  0.00    -0.296 N 
ATOM      2  H3  UNL     1      11.079  28.271  23.923  1.00  0.00     0.187 HD
HETATM    3  C12 UNL     1      12.185  29.161  25.115  1.00  0.00     0.097 C 
ENDROOT
BRANCH   1   4
HETATM    4  N2  UNL     1      10.467  27.591  25.657  1.00  0.00    -0.272 N 
ATOM      5  H2  UNL     1      10.447  27.812  26.653  1.00  0.00     0.186 HD
BRANCH   4   6
HETATM    6  C11 UNL     1       9.625  26.497  25.261  1.00  0.00     0.311 C 
BRANCH   6   7
HETATM    7  C9  UNL     1       8.900  26.849  24.000  1.00  0.00     0.176 C 
HETATM    8  N1  UNL     1       9.147  26.283  22.890  1.00  0.00    -0.316 N 
HETATM    9  C8  UNL     1       8.582  26.484  21.638  1.00  0.00     0.251 C 
ATOM     10  H1  UNL     1       9.875  25.570  22.924  1.00  0.00     0.169 HD
HETATM   11  O4  UNL     1       9.022  27.462  20.941  1.00  0.00    -0.270 OA
BRANCH   9  12
HETATM   12  C7  UNL     1       7.491  25.635  21.040  1.00  0.00     0.223 C 
HETATM   13  C6  UNL     1       6.968  26.188  19.764  1.00  0.00     0.120 C 
HETATM   14  C5  UNL     1       5.812  27.091  19.971  1.00  0.00     0.134 C 
HETATM   15  C4  UNL     1       5.396  27.313  21.407  1.00  0.00     0.139 C 
HETATM   16  O3  UNL     1       5.233  27.620  19.045  1.00  0.00    -0.298 OA
HETATM   17  C3  UNL     1       5.394  25.928  22.028  1.00  0.00     0.277 C 
HETATM   18  O12 UNL     1       6.586  25.277  21.991  1.00  0.00    -0.345 OA
BRANCH  17  19
HETATM   19  O2  UNL     1       4.337  25.204  21.403  1.00  0.00    -0.290 OA
BRANCH  19  20
HETATM   20  C2  UNL     1       3.462  24.417  22.139  1.00  0.00     0.257 C 
HETATM   21  C1  UNL     1       2.760  24.947  23.337  1.00  0.00     0.126 C 
HETATM   22  O1  UNL     1       3.288  23.251  21.756  1.00  0.00    -0.266 OA
ENDBRANCH  19  20
ENDBRANCH  17  19
ENDBRANCH   9  12
BRANCH   7  23
HETATM   23  C10 UNL     1       7.880  27.881  24.067  1.00  0.00     0.230 C 
HETATM   24  O5  UNL     1       6.777  27.610  24.656  1.00  0.00    -0.643 OA
HETATM   25  O6  UNL     1       7.979  29.150  23.552  1.00  0.00    -0.643 OA
ENDBRANCH   7  23
ENDBRANCH   6   7
BRANCH   6  26
HETATM   26  O7  UNL     1      10.315  25.314  25.082  1.00  0.00    -0.343 OA
ATOM     27  H7  UNL     1      11.073  25.469  24.530  1.00  0.00     0.215 HD
ENDBRANCH   6  26
BRANCH   6  28
HETATM   28  O8  UNL     1       8.700  26.265  26.285  1.00  0.00    -0.343 OA
ATOM     29  H8  UNL     1       7.828  26.189  25.915  1.00  0.00     0.215 HD
ENDBRANCH   6  28
ENDBRANCH   4   6
ENDBRANCH   1   4
BRANCH   3  30
HETATM   30  C13 UNL     1      12.719  29.537  26.436  1.00  0.00     0.070 A 
HETATM   31  C14 UNL     1      13.733  28.782  27.002  1.00  0.00     0.085 A 
HETATM   32  S1  UNL     1      13.971  29.542  28.510  1.00  0.00    -0.064 SA
HETATM   33  C15 UNL     1      12.797  30.762  28.361  1.00  0.00     0.142 A 
HETATM   34  N5  UNL     1      12.270  30.533  27.155  1.00  0.00    -0.335 N 
ATOM     35  H5  UNL     1      11.524  31.129  26.799  1.00  0.00     0.168 HD
BRANCH  33  36
HETATM   36  N4  UNL     1      12.480  31.708  29.230  1.00  0.00    -0.380 N 
ATOM     37  H42 UNL     1      12.796  32.677  29.254  1.00  0.00     0.158 HD
ATOM     38  H41 UNL     1      11.858  31.646  30.035  1.00  0.00     0.158 HD
ENDBRANCH  33  36
ENDBRANCH   3  30
BRANCH   3  39
HETATM   39  C16 UNL     1      12.925  29.756  23.885  1.00  0.00     0.080 C 
HETATM   40  S2  UNL     1      13.264  31.436  24.190  1.00  0.00    -0.076 SA
BRANCH  39  41
HETATM   41  C17 UNL     1      14.046  28.897  23.517  1.00  0.00     0.048 A 
HETATM   42  S3  UNL     1      15.621  29.383  24.100  1.00  0.00    -0.099 SA
HETATM   43  C18 UNL     1      16.881  28.344  23.657  1.00  0.00     0.054 A 
HETATM   44  C19 UNL     1      16.489  27.263  22.902  1.00  0.00     0.063 A 
HETATM   45  C20 UNL     1      15.219  26.996  22.513  1.00  0.00     0.190 A 
HETATM   46  O9  UNL     1      15.076  25.931  21.810  1.00  0.00    -0.287 OA
HETATM   47  C21 UNL     1      14.065  27.752  22.795  1.00  0.00     0.108 A 
BRANCH  47  48
HETATM   48  C22 UNL     1      12.836  27.140  22.227  1.00  0.00     0.299 C 
HETATM   49  O10 UNL     1      12.210  26.347  22.951  1.00  0.00    -0.259 OA
BRANCH  48  50
HETATM   50  O11 UNL     1      12.362  27.410  20.987  1.00  0.00    -0.312 OA
BRANCH  50  51
HETATM   51  C23 UNL     1      12.447  28.530  20.194  1.00  0.00     0.223 C 
BRANCH  51  52
HETATM   52  C24 UNL     1      11.853  29.785  20.621  1.00  0.00     0.079 C 
HETATM   53  N6  UNL     1      10.641  29.854  21.013  1.00  0.00    -0.409 N 
ATOM     54  H62 UNL     1      10.088  28.997  21.020  1.00  0.00     0.155 HD
ATOM     55  H61 UNL     1      10.224  30.735  21.313  1.00  0.00     0.155 HD
ENDBRANCH  51  52
ENDBRANCH  50  51
ENDBRANCH  48  50
ENDBRANCH  47  48
ENDBRANCH  39  41
ENDBRANCH   3  39
TORSDOF 17
ENDMDL
MODEL 5
REMARK VINA RESULT: -8.323307233      2.644      4.159
REMARK  17 active torsions:
REMARK  status: ('A' for Active; 'I' for Inactive)
REMARK    1  A    between atoms: C2_2  and  O2_4 
REMARK    2  A    between atoms: O2_4  and  C3_5 
REMARK    3  A    between atoms: C7_10  and  C8_11 
REMARK       I    between atoms: C8_11  and  N1_13 
REMARK    4  A    between atoms: C9_15  and  C10_16 
REMARK    5  A    between atoms: C9_15  and  C11_19 
REMARK    6  A    between atoms: C11_19  and  O7_20 
REMARK    7  A    between atoms: C11_19  and  O8_22 
REMARK    8  A    between atoms: C11_19  and  N2_24 
REMARK    9  A    between atoms: N2_24  and  N3_26 
REMARK   10  A    between atoms: C12_28  and  C13_29 
REMARK   11  A    between atoms: C12_28  and  C16_38 
REMARK   12  A    between atoms: C15_32  and  N4_33 
REMARK   13  A    between atoms: C16_38  and  C17_40 
REMARK   14  A    between atoms: C21_46  and  C22_47 
REMARK   15  A    between atoms: C22_47  and  O11_49 
REMARK   16  A    between atoms: O11_49  and  C23_50 
REMARK   17  A    between atoms: C23_50  and  C24_51 
ROOT
HETATM    1  N3  UNL     1      14.341  28.307  23.421  1.00  0.00    -0.296 N 
ATOM      2  H3  UNL     1      15.213  27.779  23.475  1.00  0.00     0.187 HD
HETATM    3  C12 UNL     1      14.293  29.175  24.276  1.00  0.00     0.097 C 
ENDROOT
BRANCH   1   4
HETATM    4  N2  UNL     1      13.558  27.855  22.426  1.00  0.00    -0.272 N 
ATOM      5  H2  UNL     1      13.618  28.384  21.556  1.00  0.00     0.186 HD
BRANCH   4   6
HETATM    6  C11 UNL     1      12.650  26.741  22.398  1.00  0.00     0.311 C 
BRANCH   6   7
HETATM    7  C9  UNL     1      11.402  27.090  23.147  1.00  0.00     0.176 C 
HETATM    8  N1  UNL     1      10.597  27.989  22.751  1.00  0.00    -0.316 N 
HETATM    9  C8  UNL     1       9.411  28.439  23.314  1.00  0.00     0.251 C 
ATOM     10  H1  UNL     1      10.865  28.454  21.884  1.00  0.00     0.169 HD
HETATM   11  O4  UNL     1       9.493  29.295  24.260  1.00  0.00    -0.270 OA
BRANCH   9  12
HETATM   12  C7  UNL     1       8.035  27.994  22.892  1.00  0.00     0.223 C 
HETATM   13  C6  UNL     1       7.873  26.518  22.927  1.00  0.00     0.120 C 
HETATM   14  C5  UNL     1       8.208  25.881  21.633  1.00  0.00     0.134 C 
HETATM   15  C4  UNL     1       8.674  26.813  20.539  1.00  0.00     0.139 C 
HETATM   16  O3  UNL     1       8.113  24.683  21.459  1.00  0.00    -0.298 OA
HETATM   17  C3  UNL     1       7.699  27.976  20.578  1.00  0.00     0.277 C 
HETATM   18  O12 UNL     1       7.646  28.644  21.761  1.00  0.00    -0.345 OA
BRANCH  17  19
HETATM   19  O2  UNL     1       6.435  27.461  20.167  1.00  0.00    -0.290 OA
BRANCH  19  20
HETATM   20  C2  UNL     1       5.503  28.259  19.520  1.00  0.00     0.257 C 
HETATM   21  C1  UNL     1       4.084  27.839  19.380  1.00  0.00     0.126 C 
HETATM   22  O1  UNL     1       5.901  29.340  19.061  1.00  0.00    -0.266 OA
ENDBRANCH  19  20
ENDBRANCH  17  19
ENDBRANCH   9  12
BRANCH   7  23
HETATM   23  C10 UNL     1      11.118  26.363  24.372  1.00  0.00     0.230 C 
HETATM   24  O5  UNL     1      11.507  26.866  25.483  1.00  0.00    -0.643 OA
HETATM   25  O6  UNL     1      10.457  25.163  24.466  1.00  0.00    -0.643 OA
ENDBRANCH   7  23
ENDBRANCH   6   7
BRANCH   6  26
HETATM   26  O7  UNL     1      12.324  26.335  21.120  1.00  0.00    -0.343 OA
ATOM     27  H7  UNL     1      12.915  25.643  20.846  1.00  0.00     0.215 HD
ENDBRANCH   6  26
BRANCH   6  28
HETATM   28  O8  UNL     1      13.277  25.652  23.013  1.00  0.00    -0.343 OA
ATOM     29  H8  UNL     1      14.162  25.563  22.679  1.00  0.00     0.215 HD
ENDBRANCH   6  28
ENDBRANCH   4   6
ENDBRANCH   1   4
BRANCH   3  30
HETATM   30  C13 UNL     1      13.178  30.118  24.474  1.00  0.00     0.070 A 
HETATM   31  C14 UNL     1      12.996  31.158  23.577  1.00  0.00     0.085 A 
HETATM   32  S1  UNL     1      11.660  31.990  24.232  1.00  0.00    -0.064 SA
HETATM   33  C15 UNL     1      11.394  31.004  25.589  1.00  0.00     0.142 A 
HETATM   34  N5  UNL     1      12.346  30.073  25.482  1.00  0.00    -0.335 N 
ATOM     35  H5  UNL     1      12.423  29.333  26.180  1.00  0.00     0.168 HD
BRANCH  33  36
HETATM   36  N4  UNL     1      10.469  31.128  26.528  1.00  0.00    -0.380 N 
ATOM     37  H42 UNL     1      10.040  31.982  26.883  1.00  0.00     0.158 HD
ATOM     38  H41 UNL     1      10.012  30.394  27.068  1.00  0.00     0.158 HD
ENDBRANCH  33  36
ENDBRANCH   3  30
BRANCH   3  39
HETATM   39  C16 UNL     1      15.441  29.248  25.320  1.00  0.00     0.080 C 
HETATM   40  S2  UNL     1      16.511  27.896  25.076  1.00  0.00    -0.076 SA
BRANCH  39  41
HETATM   41  C17 UNL     1      16.030  30.583  25.319  1.00  0.00     0.048 A 
HETATM   42  S3  UNL     1      16.882  31.055  23.867  1.00  0.00    -0.099 SA
HETATM   43  C18 UNL     1      17.531  32.617  23.914  1.00  0.00     0.054 A 
HETATM   44  C19 UNL     1      17.297  33.296  25.087  1.00  0.00     0.063 A 
HETATM   45  C20 UNL     1      16.612  32.812  26.152  1.00  0.00     0.190 A 
HETATM   46  O9  UNL     1      16.511  33.617  27.147  1.00  0.00    -0.287 OA
HETATM   47  C21 UNL     1      16.012  31.544  26.273  1.00  0.00     0.108 A 
BRANCH  47  48
HETATM   48  C22 UNL     1      15.320  31.369  27.576  1.00  0.00     0.299 C 
HETATM   49  O10 UNL     1      14.090  31.544  27.593  1.00  0.00    -0.259 OA
BRANCH  48  50
HETATM   50  O11 UNL     1      15.949  31.018  28.724  1.00  0.00    -0.312 OA
BRANCH  50  51
HETATM   51  C23 UNL     1      15.715  31.347  30.038  1.00  0.00     0.223 C 
BRANCH  51  52
HETATM   52  C24 UNL     1      15.760  32.732  30.474  1.00  0.00     0.079 C 
HETATM   53  N6  UNL     1      16.706  33.513  30.125  1.00  0.00    -0.409 N 
ATOM     54  H62 UNL     1      17.442  33.140  29.525  1.00  0.00     0.155 HD
ATOM     55  H61 UNL     1      16.738  34.486  30.431  1.00  0.00     0.155 HD
ENDBRANCH  51  52
ENDBRANCH  50  51
ENDBRANCH  48  50
ENDBRANCH  47  48
ENDBRANCH  39  41
ENDBRANCH   3  39
TORSDOF 17
ENDMDL
