MODEL 1
REMARK VINA RESULT: -5.381123253      0.000      0.000
REMARK  14 active torsions:
REMARK  status: ('A' for Active; 'I' for Inactive)
REMARK    1  A    between atoms: C3_5  and  N2_6 
REMARK    2  A    between atoms: N2_6  and  C4_8 
REMARK    3  A    between atoms: C4_8  and  C5_9 
REMARK    4  A    between atoms: C5_9  and  O1_10 
REMARK    5  A    between atoms: C6_14  and  N4_15 
REMARK    6  A    between atoms: N4_15  and  C7_17 
REMARK    7  A    between atoms: C7_17  and  C8_18 
REMARK    8  A    between atoms: C8_18  and  N5_19 
REMARK    9  A    between atoms: N5_19  and  C9_22 
REMARK   10  A    between atoms: C9_22  and  C10_23 
REMARK   11  A    between atoms: C10_23  and  O2_24 
REMARK   12  A    between atoms: C11_26  and  C12_27 
REMARK   13  A    between atoms: C12_27  and  C13_28 
REMARK   14  A    between atoms: C13_28  and  O3_29 
ROOT
HETATM    1  C1  UNL     1      -3.016   8.540  75.764  1.00  0.00     0.069 C 
HETATM    2  C2  UNL     1      -2.654   9.640  76.700  1.00  0.00     0.033 A 
HETATM    3  N1  UNL     1      -1.603   9.458  77.501  1.00  0.00    -0.195 N 
ATOM      4  H1  UNL     1      -1.107   8.567  77.457  1.00  0.00     0.184 HD
HETATM    5  C3  UNL     1      -1.160  10.404  78.372  1.00  0.00     0.683 A 
HETATM    6  N3  UNL     1      -1.816  11.569  78.424  1.00  0.00    -0.176 N 
ATOM      7  H3  UNL     1      -1.488  12.280  79.077  1.00  0.00     0.186 HD
HETATM    8  C6  UNL     1      -2.889  11.851  77.657  1.00  0.00     0.125 A 
HETATM    9  C11 UNL     1      -3.306  10.841  76.774  1.00  0.00     0.011 A 
ENDROOT
BRANCH   8  10
HETATM   10  N4  UNL     1      -3.579  12.896  77.643  1.00  0.00    -0.374 N 
ATOM     11  H4  UNL     1      -4.230  12.922  76.858  1.00  0.00     0.161 HD
BRANCH  10  12
HETATM   12  C7  UNL     1      -3.668  14.040  78.451  1.00  0.00     0.148 C 
BRANCH  12  13
HETATM   13  C8  UNL     1      -5.141  14.303  78.828  1.00  0.00     0.251 C 
BRANCH  13  14
HETATM   14  N5  UNL     1      -5.601  13.320  79.770  1.00  0.00    -0.072 N 
ATOM     15  H52 UNL     1      -5.728  12.418  79.310  1.00  0.00     0.277 HD
ATOM     16  H51 UNL     1      -4.857  13.078  80.424  1.00  0.00     0.277 HD
BRANCH  14  17
HETATM   17  C9  UNL     1      -6.793  13.694  80.480  1.00  0.00     0.258 C 
BRANCH  17  18
HETATM   18  C10 UNL     1      -8.055  13.105  79.850  1.00  0.00     0.191 C 
BRANCH  18  19
HETATM   19  O2  UNL     1      -7.975  11.725  79.920  1.00  0.00    -0.399 OA
ATOM     20  H2  UNL     1      -8.510  11.358  79.225  1.00  0.00     0.209 HD
ENDBRANCH  18  19
ENDBRANCH  17  18
ENDBRANCH  14  17
ENDBRANCH  13  14
ENDBRANCH  12  13
ENDBRANCH  10  12
ENDBRANCH   8  10
BRANCH   9  21
HETATM   21  C12 UNL     1      -4.508  11.076  75.957  1.00  0.00     0.070 C 
BRANCH  21  22
HETATM   22  C13 UNL     1      -5.782  10.552  76.554  1.00  0.00     0.169 C 
BRANCH  22  23
HETATM   23  O3  UNL     1      -6.163  11.081  77.747  1.00  0.00    -0.401 OA
ATOM     24  H3  UNL     1      -5.845  10.645  78.529  1.00  0.00     0.209 HD
ENDBRANCH  22  23
ENDBRANCH  21  22
ENDBRANCH   9  21
BRANCH   5  25
HETATM   25  N2  UNL     1      -0.160  10.087  79.067  1.00  0.00    -0.203 N 
ATOM     26  H2  UNL     1       0.104   9.109  78.952  1.00  0.00     0.183 HD
BRANCH  25  27
HETATM   27  C4  UNL     1       0.672  10.765  79.959  1.00  0.00     0.105 C 
BRANCH  27  28
HETATM   28  C5  UNL     1       1.783  11.561  79.297  1.00  0.00     0.209 C 
BRANCH  28  29
HETATM   29  O1  UNL     1       2.719  10.738  78.702  1.00  0.00    -0.396 OA
ATOM     30  H1  UNL     1       3.121  11.150  77.946  1.00  0.00     0.209 HD
ENDBRANCH  28  29
ENDBRANCH  27  28
ENDBRANCH  25  27
ENDBRANCH   5  25
TORSDOF 14
ENDMDL
MODEL 2
REMARK VINA RESULT: -5.369965449      2.400      5.293
REMARK  14 active torsions:
REMARK  status: ('A' for Active; 'I' for Inactive)
REMARK    1  A    between atoms: C3_5  and  N2_6 
REMARK    2  A    between atoms: N2_6  and  C4_8 
REMARK    3  A    between atoms: C4_8  and  C5_9 
REMARK    4  A    between atoms: C5_9  and  O1_10 
REMARK    5  A    between atoms: C6_14  and  N4_15 
REMARK    6  A    between atoms: N4_15  and  C7_17 
REMARK    7  A    between atoms: C7_17  and  C8_18 
REMARK    8  A    between atoms: C8_18  and  N5_19 
REMARK    9  A    between atoms: N5_19  and  C9_22 
REMARK   10  A    between atoms: C9_22  and  C10_23 
REMARK   11  A    between atoms: C10_23  and  O2_24 
REMARK   12  A    between atoms: C11_26  and  C12_27 
REMARK   13  A    between atoms: C12_27  and  C13_28 
REMARK   14  A    between atoms: C13_28  and  O3_29 
ROOT
HETATM    1  C1  UNL     1      -7.797  10.953  76.685  1.00  0.00     0.069 C 
HETATM    2  C2  UNL     1      -6.321  10.912  76.868  1.00  0.00     0.033 A 
HETATM    3  N1  UNL     1      -5.688   9.771  76.590  1.00  0.00    -0.195 N 
ATOM      4  H1  UNL     1      -6.242   8.969  76.289  1.00  0.00     0.184 HD
HETATM    5  C3  UNL     1      -4.340   9.626  76.690  1.00  0.00     0.683 A 
HETATM    6  N3  UNL     1      -3.620  10.682  77.086  1.00  0.00    -0.176 N 
ATOM      7  H3  UNL     1      -2.609  10.577  77.163  1.00  0.00     0.186 HD
HETATM    8  C6  UNL     1      -4.164  11.879  77.390  1.00  0.00     0.125 A 
HETATM    9  C11 UNL     1      -5.560  11.976  77.272  1.00  0.00     0.011 A 
ENDROOT
BRANCH   8  10
HETATM   10  N4  UNL     1      -3.584  12.916  77.785  1.00  0.00    -0.374 N 
ATOM     11  H4  UNL     1      -4.235  13.678  77.974  1.00  0.00     0.161 HD
BRANCH  10  12
HETATM   12  C7  UNL     1      -2.250  13.278  78.030  1.00  0.00     0.148 C 
BRANCH  12  13
HETATM   13  C8  UNL     1      -1.976  13.277  79.548  1.00  0.00     0.251 C 
BRANCH  13  14
HETATM   14  N5  UNL     1      -1.528  11.980  79.976  1.00  0.00    -0.072 N 
ATOM     15  H52 UNL     1      -1.369  11.971  80.983  1.00  0.00     0.277 HD
ATOM     16  H51 UNL     1      -2.288  11.302  79.914  1.00  0.00     0.277 HD
BRANCH  14  17
HETATM   17  C9  UNL     1      -0.367  11.497  79.280  1.00  0.00     0.258 C 
BRANCH  17  18
HETATM   18  C10 UNL     1      -0.548  10.069  78.766  1.00  0.00     0.191 C 
BRANCH  18  19
HETATM   19  O2  UNL     1      -1.759   9.588  79.231  1.00  0.00    -0.399 OA
ATOM     20  H2  UNL     1      -1.619   8.719  79.590  1.00  0.00     0.209 HD
ENDBRANCH  18  19
ENDBRANCH  17  18
ENDBRANCH  14  17
ENDBRANCH  13  14
ENDBRANCH  12  13
ENDBRANCH  10  12
ENDBRANCH   8  10
BRANCH   9  21
HETATM   21  C12 UNL     1      -6.210  13.243  77.648  1.00  0.00     0.070 C 
BRANCH  21  22
HETATM   22  C13 UNL     1      -6.654  13.316  79.081  1.00  0.00     0.169 C 
BRANCH  22  23
HETATM   23  O3  UNL     1      -5.676  13.401  80.021  1.00  0.00    -0.401 OA
ATOM     24  H3  UNL     1      -5.302  12.582  80.325  1.00  0.00     0.209 HD
ENDBRANCH  22  23
ENDBRANCH  21  22
ENDBRANCH   9  21
BRANCH   5  25
HETATM   25  N2  UNL     1      -3.885   8.489  76.400  1.00  0.00    -0.203 N 
ATOM     26  H2  UNL     1      -3.209   8.151  77.085  1.00  0.00     0.183 HD
BRANCH  25  27
HETATM   27  C4  UNL     1      -4.092   7.584  75.359  1.00  0.00     0.105 C 
BRANCH  27  28
HETATM   28  C5  UNL     1      -5.089   6.482  75.676  1.00  0.00     0.209 C 
BRANCH  28  29
HETATM   29  O1  UNL     1      -6.393   6.906  75.503  1.00  0.00    -0.396 OA
ATOM     30  H1  UNL     1      -6.547   7.217  74.618  1.00  0.00     0.209 HD
ENDBRANCH  28  29
ENDBRANCH  27  28
ENDBRANCH  25  27
ENDBRANCH   5  25
TORSDOF 14
ENDMDL
MODEL 3
REMARK VINA RESULT: -5.278955106      2.049      2.832
REMARK  14 active torsions:
REMARK  status: ('A' for Active; 'I' for Inactive)
REMARK    1  A    between atoms: C3_5  and  N2_6 
REMARK    2  A    between atoms: N2_6  and  C4_8 
REMARK    3  A    between atoms: C4_8  and  C5_9 
REMARK    4  A    between atoms: C5_9  and  O1_10 
REMARK    5  A    between atoms: C6_14  and  N4_15 
REMARK    6  A    between atoms: N4_15  and  C7_17 
REMARK    7  A    between atoms: C7_17  and  C8_18 
REMARK    8  A    between atoms: C8_18  and  N5_19 
REMARK    9  A    between atoms: N5_19  and  C9_22 
REMARK   10  A    between atoms: C9_22  and  C10_23 
REMARK   11  A    between atoms: C10_23  and  O2_24 
REMARK   12  A    between atoms: C11_26  and  C12_27 
REMARK   13  A    between atoms: C12_27  and  C13_28 
REMARK   14  A    between atoms: C13_28  and  O3_29 
ROOT
HETATM    1  C1  UNL     1      -4.737   7.511  76.083  1.00  0.00     0.069 C 
HETATM    2  C2  UNL     1      -4.456   8.920  76.475  1.00  0.00     0.033 A 
HETATM    3  N1  UNL     1      -3.240   9.208  76.939  1.00  0.00    -0.195 N 
ATOM      4  H1  UNL     1      -2.562   8.451  77.031  1.00  0.00     0.184 HD
HETATM    5  C3  UNL     1      -2.860  10.464  77.298  1.00  0.00     0.683 A 
HETATM    6  N3  UNL     1      -3.755  11.451  77.176  1.00  0.00    -0.176 N 
ATOM      7  H3  UNL     1      -3.474  12.395  77.444  1.00  0.00     0.186 HD
HETATM    8  C6  UNL     1      -5.009  11.264  76.717  1.00  0.00     0.125 A 
HETATM    9  C11 UNL     1      -5.352   9.949  76.361  1.00  0.00     0.011 A 
ENDROOT
BRANCH   8  10
HETATM   10  N4  UNL     1      -5.921  12.112  76.583  1.00  0.00    -0.374 N 
ATOM     11  H4  UNL     1      -6.545  11.893  75.806  1.00  0.00     0.161 HD
BRANCH  10  12
HETATM   12  C7  UNL     1      -6.288  13.291  77.249  1.00  0.00     0.148 C 
BRANCH  12  13
HETATM   13  C8  UNL     1      -6.550  12.993  78.740  1.00  0.00     0.251 C 
BRANCH  13  14
HETATM   14  N5  UNL     1      -5.467  13.485  79.547  1.00  0.00    -0.072 N 
ATOM     15  H52 UNL     1      -5.797  13.715  80.485  1.00  0.00     0.277 HD
ATOM     16  H51 UNL     1      -4.818  12.732  79.771  1.00  0.00     0.277 HD
BRANCH  14  17
HETATM   17  C9  UNL     1      -4.764  14.600  78.976  1.00  0.00     0.258 C 
BRANCH  17  18
HETATM   18  C10 UNL     1      -3.253  14.505  79.187  1.00  0.00     0.191 C 
BRANCH  18  19
HETATM   19  O2  UNL     1      -2.921  13.175  79.376  1.00  0.00    -0.399 OA
ATOM     20  H2  UNL     1      -3.026  12.719  78.549  1.00  0.00     0.209 HD
ENDBRANCH  18  19
ENDBRANCH  17  18
ENDBRANCH  14  17
ENDBRANCH  13  14
ENDBRANCH  12  13
ENDBRANCH  10  12
ENDBRANCH   8  10
BRANCH   9  21
HETATM   21  C12 UNL     1      -6.727   9.679  75.910  1.00  0.00     0.070 C 
BRANCH  21  22
HETATM   22  C13 UNL     1      -7.738   9.570  77.015  1.00  0.00     0.169 C 
BRANCH  22  23
HETATM   23  O3  UNL     1      -7.526   8.601  77.945  1.00  0.00    -0.401 OA
ATOM     24  H3  UNL     1      -6.950   8.820  78.668  1.00  0.00     0.209 HD
ENDBRANCH  22  23
ENDBRANCH  21  22
ENDBRANCH   9  21
BRANCH   5  25
HETATM   25  N2  UNL     1      -1.683  10.583  77.724  1.00  0.00    -0.203 N 
ATOM     26  H2  UNL     1      -1.205  11.397  77.337  1.00  0.00     0.183 HD
BRANCH  25  27
HETATM   27  C4  UNL     1      -0.878   9.858  78.604  1.00  0.00     0.105 C 
BRANCH  27  28
HETATM   28  C5  UNL     1      -0.414  10.642  79.819  1.00  0.00     0.209 C 
BRANCH  28  29
HETATM   29  O1  UNL     1      -1.463  10.939  80.668  1.00  0.00    -0.396 OA
ATOM     30  H1  UNL     1      -2.118  11.479  80.243  1.00  0.00     0.209 HD
ENDBRANCH  28  29
ENDBRANCH  27  28
ENDBRANCH  25  27
ENDBRANCH   5  25
TORSDOF 14
ENDMDL
MODEL 4
REMARK VINA RESULT: -5.231344954      1.971      4.483
REMARK  14 active torsions:
REMARK  status: ('A' for Active; 'I' for Inactive)
REMARK    1  A    between atoms: C3_5  and  N2_6 
REMARK    2  A    between atoms: N2_6  and  C4_8 
REMARK    3  A    between atoms: C4_8  and  C5_9 
REMARK    4  A    between atoms: C5_9  and  O1_10 
REMARK    5  A    between atoms: C6_14  and  N4_15 
REMARK    6  A    between atoms: N4_15  and  C7_17 
REMARK    7  A    between atoms: C7_17  and  C8_18 
REMARK    8  A    between atoms: C8_18  and  N5_19 
REMARK    9  A    between atoms: N5_19  and  C9_22 
REMARK   10  A    between atoms: C9_22  and  C10_23 
REMARK   11  A    between atoms: C10_23  and  O2_24 
REMARK   12  A    between atoms: C11_26  and  C12_27 
REMARK   13  A    between atoms: C12_27  and  C13_28 
REMARK   14  A    between atoms: C13_28  and  O3_29 
ROOT
HETATM    1  C1  UNL     1       0.552  10.785  80.075  1.00  0.00     0.069 C 
HETATM    2  C2  UNL     1      -0.592  11.086  79.170  1.00  0.00     0.033 A 
HETATM    3  N1  UNL     1      -1.078  10.092  78.426  1.00  0.00    -0.195 N 
ATOM      4  H1  UNL     1      -0.633   9.176  78.488  1.00  0.00     0.184 HD
HETATM    5  C3  UNL     1      -2.139  10.242  77.588  1.00  0.00     0.683 A 
HETATM    6  N3  UNL     1      -2.717  11.446  77.512  1.00  0.00    -0.176 N 
ATOM      7  H3  UNL     1      -3.512  11.562  76.884  1.00  0.00     0.186 HD
HETATM    8  C6  UNL     1      -2.301  12.515  78.222  1.00  0.00     0.125 A 
HETATM    9  C11 UNL     1      -1.201  12.308  79.072  1.00  0.00     0.011 A 
ENDROOT
BRANCH   8  10
HETATM   10  N4  UNL     1      -2.758  13.681  78.209  1.00  0.00    -0.374 N 
ATOM     11  H4  UNL     1      -2.351  14.250  77.468  1.00  0.00     0.161 HD
BRANCH  10  12
HETATM   12  C7  UNL     1      -3.699  14.388  78.973  1.00  0.00     0.148 C 
BRANCH  12  13
HETATM   13  C8  UNL     1      -5.117  14.148  78.415  1.00  0.00     0.251 C 
BRANCH  13  14
HETATM   14  N5  UNL     1      -5.842  13.241  79.262  1.00  0.00    -0.072 N 
ATOM     15  H52 UNL     1      -5.198  12.630  79.764  1.00  0.00     0.277 HD
ATOM     16  H51 UNL     1      -6.256  13.742  80.048  1.00  0.00     0.277 HD
BRANCH  14  17
HETATM   17  C9  UNL     1      -6.841  12.465  78.579  1.00  0.00     0.258 C 
BRANCH  17  18
HETATM   18  C10 UNL     1      -6.354  11.956  77.223  1.00  0.00     0.191 C 
BRANCH  18  19
HETATM   19  O2  UNL     1      -5.665  10.773  77.422  1.00  0.00    -0.399 OA
ATOM     20  H2  UNL     1      -5.897  10.170  76.725  1.00  0.00     0.209 HD
ENDBRANCH  18  19
ENDBRANCH  17  18
ENDBRANCH  14  17
ENDBRANCH  13  14
ENDBRANCH  12  13
ENDBRANCH  10  12
ENDBRANCH   8  10
BRANCH   9  21
HETATM   21  C12 UNL     1      -0.671  13.456  79.826  1.00  0.00     0.070 C 
BRANCH  21  22
HETATM   22  C13 UNL     1       0.388  14.241  79.106  1.00  0.00     0.169 C 
BRANCH  22  23
HETATM   23  O3  UNL     1      -0.037  15.257  78.310  1.00  0.00    -0.401 OA
ATOM     24  H3  UNL     1      -0.882  15.638  78.517  1.00  0.00     0.209 HD
ENDBRANCH  22  23
ENDBRANCH  21  22
ENDBRANCH   9  21
BRANCH   5  25
HETATM   25  N2  UNL     1      -2.482   9.216  76.946  1.00  0.00    -0.203 N 
ATOM     26  H2  UNL     1      -2.196   8.351  77.406  1.00  0.00     0.183 HD
BRANCH  25  27
HETATM   27  C4  UNL     1      -3.163   8.986  75.750  1.00  0.00     0.105 C 
BRANCH  27  28
HETATM   28  C5  UNL     1      -4.294   7.979  75.857  1.00  0.00     0.209 C 
BRANCH  28  29
HETATM   29  O1  UNL     1      -4.867   7.982  77.114  1.00  0.00    -0.396 OA
ATOM     30  H1  UNL     1      -5.703   7.530  77.121  1.00  0.00     0.209 HD
ENDBRANCH  28  29
ENDBRANCH  27  28
ENDBRANCH  25  27
ENDBRANCH   5  25
TORSDOF 14
ENDMDL
MODEL 5
REMARK VINA RESULT: -5.213137929      1.944      3.956
REMARK  14 active torsions:
REMARK  status: ('A' for Active; 'I' for Inactive)
REMARK    1  A    between atoms: C3_5  and  N2_6 
REMARK    2  A    between atoms: N2_6  and  C4_8 
REMARK    3  A    between atoms: C4_8  and  C5_9 
REMARK    4  A    between atoms: C5_9  and  O1_10 
REMARK    5  A    between atoms: C6_14  and  N4_15 
REMARK    6  A    between atoms: N4_15  and  C7_17 
REMARK    7  A    between atoms: C7_17  and  C8_18 
REMARK    8  A    between atoms: C8_18  and  N5_19 
REMARK    9  A    between atoms: N5_19  and  C9_22 
REMARK   10  A    between atoms: C9_22  and  C10_23 
REMARK   11  A    between atoms: C10_23  and  O2_24 
REMARK   12  A    between atoms: C11_26  and  C12_27 
REMARK   13  A    between atoms: C12_27  and  C13_28 
REMARK   14  A    between atoms: C13_28  and  O3_29 
ROOT
HETATM    1  C1  UNL     1      -2.878  13.700  78.134  1.00  0.00     0.069 C 
HETATM    2  C2  UNL     1      -2.534  12.260  77.983  1.00  0.00     0.033 A 
HETATM    3  N1  UNL     1      -1.491  11.792  78.669  1.00  0.00    -0.195 N 
ATOM      4  H1  UNL     1      -0.959  12.442  79.247  1.00  0.00     0.184 HD
HETATM    5  C3  UNL     1      -1.103  10.488  78.634  1.00  0.00     0.683 A 
HETATM    6  N3  UNL     1      -1.806   9.642  77.872  1.00  0.00    -0.176 N 
ATOM      7  H3  UNL     1      -1.518   8.664  77.843  1.00  0.00     0.186 HD
HETATM    8  C6  UNL     1      -2.876  10.016  77.141  1.00  0.00     0.125 A 
HETATM    9  C11 UNL     1      -3.235  11.372  77.211  1.00  0.00     0.011 A 
ENDROOT
BRANCH   8  10
HETATM   10  N4  UNL     1      -3.586   9.311  76.387  1.00  0.00    -0.374 N 
ATOM     11  H4  UNL     1      -4.524   9.693  76.266  1.00  0.00     0.161 HD
BRANCH  10  12
HETATM   12  C7  UNL     1      -3.395   8.120  75.670  1.00  0.00     0.148 C 
BRANCH  12  13
HETATM   13  C8  UNL     1      -4.658   7.239  75.769  1.00  0.00     0.251 C 
BRANCH  13  14
HETATM   14  N5  UNL     1      -5.785   8.025  76.193  1.00  0.00    -0.072 N 
ATOM     15  H52 UNL     1      -6.114   7.713  77.107  1.00  0.00     0.277 HD
ATOM     16  H51 UNL     1      -5.490   8.972  76.429  1.00  0.00     0.277 HD
BRANCH  14  17
HETATM   17  C9  UNL     1      -6.871   8.056  75.252  1.00  0.00     0.258 C 
BRANCH  17  18
HETATM   18  C10 UNL     1      -8.087   8.808  75.793  1.00  0.00     0.191 C 
BRANCH  18  19
HETATM   19  O2  UNL     1      -8.194   8.548  77.148  1.00  0.00    -0.399 OA
ATOM     20  H2  UNL     1      -9.062   8.809  77.435  1.00  0.00     0.209 HD
ENDBRANCH  18  19
ENDBRANCH  17  18
ENDBRANCH  14  17
ENDBRANCH  13  14
ENDBRANCH  12  13
ENDBRANCH  10  12
ENDBRANCH   8  10
BRANCH   9  21
HETATM   21  C12 UNL     1      -4.360  11.845  76.386  1.00  0.00     0.070 C 
BRANCH  21  22
HETATM   22  C13 UNL     1      -5.678  11.907  77.104  1.00  0.00     0.169 C 
BRANCH  22  23
HETATM   23  O3  UNL     1      -6.148  10.742  77.623  1.00  0.00    -0.401 OA
ATOM     24  H3  UNL     1      -6.071  10.631  78.563  1.00  0.00     0.209 HD
ENDBRANCH  22  23
ENDBRANCH  21  22
ENDBRANCH   9  21
BRANCH   5  25
HETATM   25  N2  UNL     1      -0.097  10.195  79.329  1.00  0.00    -0.203 N 
ATOM     26  H2  UNL     1       0.049   9.188  79.402  1.00  0.00     0.183 HD
BRANCH  25  27
HETATM   27  C4  UNL     1       0.866  10.927  80.024  1.00  0.00     0.105 C 
BRANCH  27  28
HETATM   28  C5  UNL     1       1.948  11.531  79.146  1.00  0.00     0.209 C 
BRANCH  28  29
HETATM   29  O1  UNL     1       2.860  10.581  78.730  1.00  0.00    -0.396 OA
ATOM     30  H1  UNL     1       3.246  10.806  77.891  1.00  0.00     0.209 HD
ENDBRANCH  28  29
ENDBRANCH  27  28
ENDBRANCH  25  27
ENDBRANCH   5  25
TORSDOF 14
ENDMDL
