MODEL 1
REMARK VINA RESULT: -6.346494412      0.000      0.000
REMARK  12 active torsions:
REMARK  status: ('A' for Active; 'I' for Inactive)
REMARK    1  A    between atoms: N1_1  and  C1_5 
REMARK    2  A    between atoms: C1_5  and  C2_6 
REMARK    3  A    between atoms: C2_6  and  O1_7 
REMARK    4  A    between atoms: C2_6  and  C3_9 
REMARK    5  A    between atoms: C4_10  and  C5_11 
REMARK    6  A    between atoms: C6_12  and  C7_13 
REMARK    7  A    between atoms: C8_15  and  C9_16 
REMARK    8  A    between atoms: C10_20  and  C11_21 
REMARK    9  A    between atoms: C11_21  and  N3_22 
REMARK   10  A    between atoms: N3_22  and  C12_24 
REMARK   11  A    between atoms: C13_26  and  O4_27 
REMARK   12  A    between atoms: C14_29  and  O5_30 
ROOT
HETATM    1  C7  UNL     1      -5.482   9.921  76.119  1.00  0.00     0.176 C 
HETATM    2  O2  UNL     1      -4.356  10.319  76.857  1.00  0.00    -0.369 OA
HETATM    3  C8  UNL     1      -3.304   9.827  76.113  1.00  0.00     0.186 C 
HETATM    4  C13 UNL     1      -3.743   8.520  75.492  1.00  0.00     0.180 C 
HETATM    5  C14 UNL     1      -5.199   8.452  75.959  1.00  0.00     0.182 C 
ENDROOT
BRANCH   1   6
HETATM    6  C6  UNL     1      -6.736  10.203  76.845  1.00  0.00     0.007 C 
HETATM    7  C5  UNL     1      -7.821  10.619  76.252  1.00  0.00    -0.002 C 
BRANCH   7   8
HETATM    8  C4  UNL     1      -7.833  10.826  74.813  1.00  0.00    -0.002 C 
HETATM    9  C3  UNL     1      -8.467   9.958  74.055  1.00  0.00     0.006 C 
BRANCH   9  10
HETATM   10  C2  UNL     1      -9.151   8.799  74.662  1.00  0.00     0.166 C 
BRANCH  10  11
HETATM   11  C1  UNL     1     -10.335   8.446  73.761  1.00  0.00     0.265 C 
BRANCH  11  12
HETATM   12  N1  UNL     1     -10.489   7.016  73.783  1.00  0.00    -0.077 N 
ATOM     13  H13 UNL     1     -10.038   6.557  72.992  1.00  0.00     0.274 HD
ATOM     14  H12 UNL     1      -9.948   6.570  74.524  1.00  0.00     0.274 HD
ATOM     15  H11 UNL     1     -11.486   6.814  73.844  1.00  0.00     0.274 HD
ENDBRANCH  11  12
ENDBRANCH  10  11
BRANCH  10  16
HETATM   16  O1  UNL     1      -8.299   7.688  74.794  1.00  0.00    -0.390 OA
ATOM     17  H1  UNL     1      -7.676   7.838  75.494  1.00  0.00     0.210 HD
ENDBRANCH  10  16
ENDBRANCH   9  10
ENDBRANCH   7   8
ENDBRANCH   1   6
BRANCH   5  18
HETATM   18  O5  UNL     1      -5.156   7.809  77.210  1.00  0.00    -0.390 OA
ATOM     19  H5  UNL     1      -5.444   6.906  77.139  1.00  0.00     0.210 HD
ENDBRANCH   5  18
BRANCH   3  20
HETATM   20  C9  UNL     1      -2.078   9.560  76.942  1.00  0.00     0.249 A 
HETATM   21  N2  UNL     1      -2.407   9.429  78.391  1.00  0.00    -0.058 N 
HETATM   22  C10 UNL     1      -1.519  10.472  77.895  1.00  0.00     0.237 A 
ATOM     23  H22 UNL     1      -3.259   9.395  78.950  1.00  0.00     0.278 HD
ATOM     24  H21 UNL     1      -2.353   8.692  79.092  1.00  0.00     0.278 HD
BRANCH  22  25
HETATM   25  C11 UNL     1      -0.081  10.264  78.311  1.00  0.00     0.157 C 
BRANCH  25  26
HETATM   26  N3  UNL     1       0.088  10.435  79.731  1.00  0.00    -0.366 N 
ATOM     27  H3  UNL     1      -0.601  10.019  80.358  1.00  0.00     0.161 HD
BRANCH  26  28
HETATM   28  C12 UNL     1       1.166  11.153  80.294  1.00  0.00     0.348 C 
HETATM   29  O3  UNL     1       1.947  10.633  81.131  1.00  0.00    -0.284 OA
ENDBRANCH  26  28
ENDBRANCH  25  26
ENDBRANCH  22  25
ENDBRANCH   3  20
BRANCH   4  30
HETATM   30  O4  UNL     1      -3.021   7.430  75.912  1.00  0.00    -0.390 OA
ATOM     31  H4  UNL     1      -3.549   6.659  76.087  1.00  0.00     0.210 HD
ENDBRANCH   4  30
TORSDOF 12
ENDMDL
MODEL 2
REMARK VINA RESULT: -6.047583652      1.318      1.453
REMARK  12 active torsions:
REMARK  status: ('A' for Active; 'I' for Inactive)
REMARK    1  A    between atoms: N1_1  and  C1_5 
REMARK    2  A    between atoms: C1_5  and  C2_6 
REMARK    3  A    between atoms: C2_6  and  O1_7 
REMARK    4  A    between atoms: C2_6  and  C3_9 
REMARK    5  A    between atoms: C4_10  and  C5_11 
REMARK    6  A    between atoms: C6_12  and  C7_13 
REMARK    7  A    between atoms: C8_15  and  C9_16 
REMARK    8  A    between atoms: C10_20  and  C11_21 
REMARK    9  A    between atoms: C11_21  and  N3_22 
REMARK   10  A    between atoms: N3_22  and  C12_24 
REMARK   11  A    between atoms: C13_26  and  O4_27 
REMARK   12  A    between atoms: C14_29  and  O5_30 
ROOT
HETATM    1  C7  UNL     1      -6.067   8.907  75.572  1.00  0.00     0.176 C 
HETATM    2  O2  UNL     1      -5.145   9.690  76.285  1.00  0.00    -0.369 OA
HETATM    3  C8  UNL     1      -3.950   9.424  75.652  1.00  0.00     0.186 C 
HETATM    4  C13 UNL     1      -3.973   7.979  75.202  1.00  0.00     0.180 C 
HETATM    5  C14 UNL     1      -5.385   7.567  75.625  1.00  0.00     0.182 C 
ENDROOT
BRANCH   1   6
HETATM    6  C6  UNL     1      -7.398   8.916  76.210  1.00  0.00     0.007 C 
HETATM    7  C5  UNL     1      -8.505   9.065  75.538  1.00  0.00    -0.002 C 
BRANCH   7   8
HETATM    8  C4  UNL     1      -8.467   9.233  74.094  1.00  0.00    -0.002 C 
HETATM    9  C3  UNL     1      -9.441   8.725  73.372  1.00  0.00     0.006 C 
BRANCH   9  10
HETATM   10  C2  UNL     1     -10.550   7.999  74.023  1.00  0.00     0.166 C 
BRANCH  10  11
HETATM   11  C1  UNL     1     -11.846   8.452  73.353  1.00  0.00     0.265 C 
BRANCH  11  12
HETATM   12  N1  UNL     1     -12.772   7.352  73.404  1.00  0.00    -0.077 N 
ATOM     13  H13 UNL     1     -12.314   6.456  73.569  1.00  0.00     0.274 HD
ATOM     14  H12 UNL     1     -13.354   7.363  74.241  1.00  0.00     0.274 HD
ATOM     15  H11 UNL     1     -13.316   7.366  72.542  1.00  0.00     0.274 HD
ENDBRANCH  11  12
ENDBRANCH  10  11
BRANCH  10  16
HETATM   16  O1  UNL     1     -10.411   6.603  73.908  1.00  0.00    -0.390 OA
ATOM     17  H1  UNL     1      -9.496   6.377  73.789  1.00  0.00     0.210 HD
ENDBRANCH  10  16
ENDBRANCH   9  10
ENDBRANCH   7   8
ENDBRANCH   1   6
BRANCH   5  18
HETATM   18  O5  UNL     1      -5.256   7.120  76.954  1.00  0.00    -0.390 OA
ATOM     19  H5  UNL     1      -6.020   6.621  77.220  1.00  0.00     0.210 HD
ENDBRANCH   5  18
BRANCH   3  20
HETATM   20  C9  UNL     1      -2.759   9.612  76.550  1.00  0.00     0.249 A 
HETATM   21  N2  UNL     1      -3.077   9.280  77.969  1.00  0.00    -0.058 N 
HETATM   22  C10 UNL     1      -2.652  10.615  77.568  1.00  0.00     0.237 A 
ATOM     23  H22 UNL     1      -3.871   8.882  78.469  1.00  0.00     0.278 HD
ATOM     24  H21 UNL     1      -2.769   8.584  78.647  1.00  0.00     0.278 HD
BRANCH  22  25
HETATM   25  C11 UNL     1      -1.270  10.964  78.071  1.00  0.00     0.157 C 
BRANCH  25  26
HETATM   26  N3  UNL     1      -1.027  10.410  79.378  1.00  0.00    -0.366 N 
ATOM     27  H3  UNL     1      -1.711   9.761  79.767  1.00  0.00     0.161 HD
BRANCH  26  28
HETATM   28  C12 UNL     1       0.116  10.725  80.144  1.00  0.00     0.348 C 
HETATM   29  O3  UNL     1       0.979  11.548  79.745  1.00  0.00    -0.284 OA
ENDBRANCH  26  28
ENDBRANCH  25  26
ENDBRANCH  22  25
ENDBRANCH   3  20
BRANCH   4  30
HETATM   30  O4  UNL     1      -3.013   7.194  75.792  1.00  0.00    -0.390 OA
ATOM     31  H4  UNL     1      -2.574   6.603  75.192  1.00  0.00     0.210 HD
ENDBRANCH   4  30
TORSDOF 12
ENDMDL
MODEL 3
REMARK VINA RESULT: -5.901430232      2.678      3.625
REMARK  12 active torsions:
REMARK  status: ('A' for Active; 'I' for Inactive)
REMARK    1  A    between atoms: N1_1  and  C1_5 
REMARK    2  A    between atoms: C1_5  and  C2_6 
REMARK    3  A    between atoms: C2_6  and  O1_7 
REMARK    4  A    between atoms: C2_6  and  C3_9 
REMARK    5  A    between atoms: C4_10  and  C5_11 
REMARK    6  A    between atoms: C6_12  and  C7_13 
REMARK    7  A    between atoms: C8_15  and  C9_16 
REMARK    8  A    between atoms: C10_20  and  C11_21 
REMARK    9  A    between atoms: C11_21  and  N3_22 
REMARK   10  A    between atoms: N3_22  and  C12_24 
REMARK   11  A    between atoms: C13_26  and  O4_27 
REMARK   12  A    between atoms: C14_29  and  O5_30 
ROOT
HETATM    1  C7  UNL     1      -5.650   9.757  76.129  1.00  0.00     0.176 C 
HETATM    2  O2  UNL     1      -4.525  10.187  76.850  1.00  0.00    -0.369 OA
HETATM    3  C8  UNL     1      -3.471   9.759  76.072  1.00  0.00     0.186 C 
HETATM    4  C13 UNL     1      -3.867   8.448  75.430  1.00  0.00     0.180 C 
HETATM    5  C14 UNL     1      -5.308   8.305  75.929  1.00  0.00     0.182 C 
ENDROOT
BRANCH   1   6
HETATM    6  C6  UNL     1      -6.898   9.968  76.889  1.00  0.00     0.007 C 
HETATM    7  C5  UNL     1      -7.603  11.062  76.807  1.00  0.00    -0.002 C 
BRANCH   7   8
HETATM    8  C4  UNL     1      -7.171  12.145  75.939  1.00  0.00    -0.002 C 
HETATM    9  C3  UNL     1      -6.752  13.265  76.486  1.00  0.00     0.006 C 
BRANCH   9  10
HETATM   10  C2  UNL     1      -6.723  13.411  77.955  1.00  0.00     0.166 C 
BRANCH  10  11
HETATM   11  C1  UNL     1      -5.338  13.936  78.333  1.00  0.00     0.265 C 
BRANCH  11  12
HETATM   12  N1  UNL     1      -4.381  12.913  78.010  1.00  0.00    -0.077 N 
ATOM     13  H13 UNL     1      -4.793  12.130  77.503  1.00  0.00     0.274 HD
ATOM     14  H12 UNL     1      -3.716  13.203  77.294  1.00  0.00     0.274 HD
ATOM     15  H11 UNL     1      -3.928  12.628  78.878  1.00  0.00     0.274 HD
ENDBRANCH  11  12
ENDBRANCH  10  11
BRANCH  10  16
HETATM   16  O1  UNL     1      -7.716  14.293  78.421  1.00  0.00    -0.390 OA
ATOM     17  H1  UNL     1      -8.274  14.562  77.701  1.00  0.00     0.210 HD
ENDBRANCH  10  16
ENDBRANCH   9  10
ENDBRANCH   7   8
ENDBRANCH   1   6
BRANCH   5  18
HETATM   18  O5  UNL     1      -5.207   7.637  77.163  1.00  0.00    -0.390 OA
ATOM     19  H5  UNL     1      -4.798   6.786  77.056  1.00  0.00     0.210 HD
ENDBRANCH   5  18
BRANCH   3  20
HETATM   20  C9  UNL     1      -2.215   9.528  76.866  1.00  0.00     0.249 A 
HETATM   21  N2  UNL     1      -2.501   9.379  78.322  1.00  0.00    -0.058 N 
HETATM   22  C10 UNL     1      -1.661  10.452  77.809  1.00  0.00     0.237 A 
ATOM     23  H22 UNL     1      -3.337   9.313  78.904  1.00  0.00     0.278 HD
ATOM     24  H21 UNL     1      -2.405   8.639  79.018  1.00  0.00     0.278 HD
BRANCH  22  25
HETATM   25  C11 UNL     1      -0.206  10.289  78.187  1.00  0.00     0.157 C 
BRANCH  25  26
HETATM   26  N3  UNL     1      -0.014  10.397  79.610  1.00  0.00    -0.366 N 
ATOM     27  H3  UNL     1      -0.667   9.916  80.228  1.00  0.00     0.161 HD
BRANCH  26  28
HETATM   28  C12 UNL     1       1.039  11.142  80.186  1.00  0.00     0.348 C 
HETATM   29  O3  UNL     1       1.965  11.632  79.492  1.00  0.00    -0.284 OA
ENDBRANCH  26  28
ENDBRANCH  25  26
ENDBRANCH  22  25
ENDBRANCH   3  20
BRANCH   4  30
HETATM   30  O4  UNL     1      -3.089   7.381  75.808  1.00  0.00    -0.390 OA
ATOM     31  H4  UNL     1      -2.172   7.468  75.574  1.00  0.00     0.210 HD
ENDBRANCH   4  30
TORSDOF 12
ENDMDL
MODEL 4
REMARK VINA RESULT: -5.880878514      2.550      3.345
REMARK  12 active torsions:
REMARK  status: ('A' for Active; 'I' for Inactive)
REMARK    1  A    between atoms: N1_1  and  C1_5 
REMARK    2  A    between atoms: C1_5  and  C2_6 
REMARK    3  A    between atoms: C2_6  and  O1_7 
REMARK    4  A    between atoms: C2_6  and  C3_9 
REMARK    5  A    between atoms: C4_10  and  C5_11 
REMARK    6  A    between atoms: C6_12  and  C7_13 
REMARK    7  A    between atoms: C8_15  and  C9_16 
REMARK    8  A    between atoms: C10_20  and  C11_21 
REMARK    9  A    between atoms: C11_21  and  N3_22 
REMARK   10  A    between atoms: N3_22  and  C12_24 
REMARK   11  A    between atoms: C13_26  and  O4_27 
REMARK   12  A    between atoms: C14_29  and  O5_30 
ROOT
HETATM    1  C7  UNL     1      -7.036   9.480  75.016  1.00  0.00     0.176 C 
HETATM    2  O2  UNL     1      -6.036  10.275  75.599  1.00  0.00    -0.369 OA
HETATM    3  C8  UNL     1      -4.998   9.386  75.785  1.00  0.00     0.186 C 
HETATM    4  C13 UNL     1      -5.594   8.036  76.120  1.00  0.00     0.180 C 
HETATM    5  C14 UNL     1      -7.089   8.343  76.000  1.00  0.00     0.182 C 
ENDROOT
BRANCH   1   6
HETATM    6  C6  UNL     1      -8.312  10.213  74.895  1.00  0.00     0.007 C 
HETATM    7  C5  UNL     1      -9.131  10.050  73.893  1.00  0.00    -0.002 C 
BRANCH   7   8
HETATM    8  C4  UNL     1      -8.806   9.113  72.829  1.00  0.00    -0.002 C 
HETATM    9  C3  UNL     1      -9.486   9.173  71.705  1.00  0.00     0.006 C 
BRANCH   9  10
HETATM   10  C2  UNL     1     -10.556  10.176  71.535  1.00  0.00     0.166 C 
BRANCH  10  11
HETATM   11  C1  UNL     1     -10.179  11.046  70.336  1.00  0.00     0.265 C 
BRANCH  11  12
HETATM   12  N1  UNL     1     -11.369  11.723  69.896  1.00  0.00    -0.077 N 
ATOM     13  H13 UNL     1     -11.433  12.679  70.245  1.00  0.00     0.274 HD
ATOM     14  H12 UNL     1     -11.355  11.943  68.900  1.00  0.00     0.274 HD
ATOM     15  H11 UNL     1     -12.168  11.149  70.163  1.00  0.00     0.274 HD
ENDBRANCH  11  12
ENDBRANCH  10  11
BRANCH  10  16
HETATM   16  O1  UNL     1     -11.813   9.580  71.320  1.00  0.00    -0.390 OA
ATOM     17  H1  UNL     1     -12.238   9.982  70.572  1.00  0.00     0.210 HD
ENDBRANCH  10  16
ENDBRANCH   9  10
ENDBRANCH   7   8
ENDBRANCH   1   6
BRANCH   5  18
HETATM   18  O5  UNL     1      -7.476   8.797  77.274  1.00  0.00    -0.390 OA
ATOM     19  H5  UNL     1      -7.550   8.073  77.885  1.00  0.00     0.210 HD
ENDBRANCH   5  18
BRANCH   3  20
HETATM   20  C9  UNL     1      -4.084   9.784  76.911  1.00  0.00     0.249 A 
HETATM   21  N2  UNL     1      -3.748  11.236  76.864  1.00  0.00    -0.058 N 
HETATM   22  C10 UNL     1      -2.724  10.205  76.752  1.00  0.00     0.237 A 
ATOM     23  H22 UNL     1      -4.043  12.041  76.312  1.00  0.00     0.278 HD
ATOM     24  H21 UNL     1      -3.910  12.047  77.460  1.00  0.00     0.278 HD
BRANCH  22  25
HETATM   25  C11 UNL     1      -1.820  10.144  77.962  1.00  0.00     0.157 C 
BRANCH  25  26
HETATM   26  N3  UNL     1      -0.994   8.965  77.945  1.00  0.00    -0.366 N 
ATOM     27  H3  UNL     1      -0.844   8.461  78.819  1.00  0.00     0.161 HD
BRANCH  26  28
HETATM   28  C12 UNL     1      -0.382   8.475  76.770  1.00  0.00     0.348 C 
HETATM   29  O3  UNL     1      -0.610   7.318  76.334  1.00  0.00    -0.284 OA
ENDBRANCH  26  28
ENDBRANCH  25  26
ENDBRANCH  22  25
ENDBRANCH   3  20
BRANCH   4  30
HETATM   30  O4  UNL     1      -5.266   7.575  77.371  1.00  0.00    -0.390 OA
ATOM     31  H4  UNL     1      -5.754   6.805  77.640  1.00  0.00     0.210 HD
ENDBRANCH   4  30
TORSDOF 12
ENDMDL
MODEL 5
REMARK VINA RESULT: -5.749656664      7.964      8.796
REMARK  12 active torsions:
REMARK  status: ('A' for Active; 'I' for Inactive)
REMARK    1  A    between atoms: N1_1  and  C1_5 
REMARK    2  A    between atoms: C1_5  and  C2_6 
REMARK    3  A    between atoms: C2_6  and  O1_7 
REMARK    4  A    between atoms: C2_6  and  C3_9 
REMARK    5  A    between atoms: C4_10  and  C5_11 
REMARK    6  A    between atoms: C6_12  and  C7_13 
REMARK    7  A    between atoms: C8_15  and  C9_16 
REMARK    8  A    between atoms: C10_20  and  C11_21 
REMARK    9  A    between atoms: C11_21  and  N3_22 
REMARK   10  A    between atoms: N3_22  and  C12_24 
REMARK   11  A    between atoms: C13_26  and  O4_27 
REMARK   12  A    between atoms: C14_29  and  O5_30 
ROOT
HETATM    1  C7  UNL     1     -11.122   9.857  72.340  1.00  0.00     0.176 C 
HETATM    2  O2  UNL     1     -10.297  10.965  72.590  1.00  0.00    -0.369 OA
HETATM    3  C8  UNL     1     -11.047  12.026  72.129  1.00  0.00     0.186 C 
HETATM    4  C13 UNL     1     -11.832  11.553  70.925  1.00  0.00     0.180 C 
HETATM    5  C14 UNL     1     -11.438  10.074  70.885  1.00  0.00     0.182 C 
ENDROOT
BRANCH   1   6
HETATM    6  C6  UNL     1     -10.423   8.585  72.607  1.00  0.00     0.007 C 
HETATM    7  C5  UNL     1     -11.043   7.499  72.976  1.00  0.00    -0.002 C 
BRANCH   7   8
HETATM    8  C4  UNL     1     -12.488   7.503  73.143  1.00  0.00    -0.002 C 
HETATM    9  C3  UNL     1     -13.006   6.883  74.180  1.00  0.00     0.006 C 
BRANCH   9  10
HETATM   10  C2  UNL     1     -12.130   6.199  75.153  1.00  0.00     0.166 C 
BRANCH  10  11
HETATM   11  C1  UNL     1     -12.783   6.338  76.528  1.00  0.00     0.265 C 
BRANCH  11  12
HETATM   12  N1  UNL     1     -12.056   5.499  77.443  1.00  0.00    -0.077 N 
ATOM     13  H13 UNL     1     -11.064   5.731  77.490  1.00  0.00     0.274 HD
ATOM     14  H12 UNL     1     -12.284   5.685  78.419  1.00  0.00     0.274 HD
ATOM     15  H11 UNL     1     -12.224   4.530  77.174  1.00  0.00     0.274 HD
ENDBRANCH  11  12
ENDBRANCH  10  11
BRANCH  10  16
HETATM   16  O1  UNL     1     -11.950   4.839  74.841  1.00  0.00    -0.390 OA
ATOM     17  H1  UNL     1     -11.024   4.636  74.800  1.00  0.00     0.210 HD
ENDBRANCH  10  16
ENDBRANCH   9  10
ENDBRANCH   7   8
ENDBRANCH   1   6
BRANCH   5  18
HETATM   18  O5  UNL     1     -10.268  10.025  70.104  1.00  0.00    -0.390 OA
ATOM     19  H5  UNL     1     -10.426   9.571  69.285  1.00  0.00     0.210 HD
ENDBRANCH   5  18
BRANCH   3  20
HETATM   20  C9  UNL     1     -10.203  13.195  71.703  1.00  0.00     0.249 A 
HETATM   21  N2  UNL     1      -9.019  12.763  70.906  1.00  0.00    -0.058 N 
HETATM   22  C10 UNL     1      -8.877  13.463  72.175  1.00  0.00     0.237 A 
ATOM     23  H22 UNL     1      -8.682  11.886  70.508  1.00  0.00     0.278 HD
ATOM     24  H21 UNL     1      -8.687  12.898  69.951  1.00  0.00     0.278 HD
BRANCH  22  25
HETATM   25  C11 UNL     1      -8.340  14.867  72.013  1.00  0.00     0.157 C 
BRANCH  25  26
HETATM   26  N3  UNL     1      -6.911  14.869  71.836  1.00  0.00    -0.366 N 
ATOM     27  H3  UNL     1      -6.317  14.820  72.664  1.00  0.00     0.161 HD
BRANCH  26  28
HETATM   28  C12 UNL     1      -6.296  14.935  70.567  1.00  0.00     0.348 C 
HETATM   29  O3  UNL     1      -6.102  13.910  69.866  1.00  0.00    -0.284 OA
ENDBRANCH  26  28
ENDBRANCH  25  26
ENDBRANCH  22  25
ENDBRANCH   3  20
BRANCH   4  30
HETATM   30  O4  UNL     1     -11.509  12.199  69.757  1.00  0.00    -0.390 OA
ATOM     31  H4  UNL     1     -12.258  12.410  69.211  1.00  0.00     0.210 HD
ENDBRANCH   4  30
TORSDOF 12
ENDMDL
