MODEL 1
REMARK VINA RESULT: -1.294433767      0.000      0.000
REMARK  2 active torsions:
REMARK  status: ('A' for Active; 'I' for Inactive)
REMARK    1  A    between atoms: C3_8  and  C4_9 
REMARK    2  A    between atoms: C4_9  and  N4_10 
ROOT
HETATM    1  C1  UNL     1      15.906  35.305  11.645  1.00  0.00     0.179 C 
HETATM    2  N1  UNL     1      15.646  35.309  13.071  1.00  0.00    -0.282 N 
HETATM    3  N2  UNL     1      14.817  34.465  13.660  1.00  0.00    -0.293 N 
ATOM      4  H2  UNL     1      14.282  33.734  13.191  1.00  0.00     0.188 HD
HETATM    5  C2  UNL     1      14.794  34.728  15.000  1.00  0.00     0.199 A 
HETATM    6  N3  UNL     1      15.644  35.760  15.161  1.00  0.00    -0.338 N 
ATOM      7  H3  UNL     1      15.853  36.201  16.057  1.00  0.00     0.168 HD
HETATM    8  C3  UNL     1      16.178  36.133  13.988  1.00  0.00     0.124 A 
ENDROOT
BRANCH   8   9
HETATM    9  C4  UNL     1      17.164  37.242  13.766  1.00  0.00     0.307 C 
BRANCH   9  10
HETATM   10  N4  UNL     1      18.438  36.633  13.431  1.00  0.00    -0.073 N 
ATOM     11  H43 UNL     1      18.891  36.191  14.231  1.00  0.00     0.274 HD
ATOM     12  H42 UNL     1      18.339  35.796  12.856  1.00  0.00     0.274 HD
ATOM     13  H41 UNL     1      19.016  37.351  12.994  1.00  0.00     0.274 HD
ENDBRANCH   9  10
ENDBRANCH   8   9
TORSDOF 2
ENDMDL
MODEL 2
REMARK VINA RESULT: -0.951263849      7.875      8.602
REMARK  2 active torsions:
REMARK  status: ('A' for Active; 'I' for Inactive)
REMARK    1  A    between atoms: C3_8  and  C4_9 
REMARK    2  A    between atoms: C4_9  and  N4_10 
ROOT
HETATM    1  C1  UNL     1      19.279  31.932   8.164  1.00  0.00     0.179 C 
HETATM    2  N1  UNL     1      20.678  32.301   8.256  1.00  0.00    -0.282 N 
HETATM    3  N2  UNL     1      21.587  31.559   8.865  1.00  0.00    -0.293 N 
ATOM      4  H2  UNL     1      21.411  30.667   9.326  1.00  0.00     0.188 HD
HETATM    5  C2  UNL     1      22.799  32.181   8.777  1.00  0.00     0.199 A 
HETATM    6  N3  UNL     1      22.554  33.314   8.091  1.00  0.00    -0.338 N 
ATOM      7  H3  UNL     1      23.262  34.009   7.853  1.00  0.00     0.168 HD
HETATM    8  C3  UNL     1      21.257  33.407   7.761  1.00  0.00     0.124 A 
ENDROOT
BRANCH   8   9
HETATM    9  C4  UNL     1      20.606  34.523   6.997  1.00  0.00     0.307 C 
BRANCH   9  10
HETATM   10  N4  UNL     1      20.581  34.137   5.598  1.00  0.00    -0.073 N 
ATOM     11  H43 UNL     1      21.497  33.862   5.245  1.00  0.00     0.274 HD
ATOM     12  H42 UNL     1      20.105  33.250   5.439  1.00  0.00     0.274 HD
ATOM     13  H41 UNL     1      20.169  34.910   5.075  1.00  0.00     0.274 HD
ENDBRANCH   9  10
ENDBRANCH   8   9
TORSDOF 2
ENDMDL
MODEL 3
REMARK VINA RESULT: -0.452583033      1.173      3.126
REMARK  2 active torsions:
REMARK  status: ('A' for Active; 'I' for Inactive)
REMARK    1  A    between atoms: C3_8  and  C4_9 
REMARK    2  A    between atoms: C4_9  and  N4_10 
ROOT
HETATM    1  C1  UNL     1      17.820  36.897  13.736  1.00  0.00     0.179 C 
HETATM    2  N1  UNL     1      16.798  36.135  13.047  1.00  0.00    -0.282 N 
HETATM    3  N2  UNL     1      16.733  36.031  11.730  1.00  0.00    -0.293 N 
ATOM      4  H2  UNL     1      17.378  36.464  11.069  1.00  0.00     0.188 HD
HETATM    5  C2  UNL     1      15.663  35.251  11.398  1.00  0.00     0.199 A 
HETATM    6  N3  UNL     1      15.111  34.907  12.578  1.00  0.00    -0.338 N 
ATOM      7  H3  UNL     1      14.283  34.319  12.678  1.00  0.00     0.168 HD
HETATM    8  C3  UNL     1      15.793  35.439  13.603  1.00  0.00     0.124 A 
ENDROOT
BRANCH   8   9
HETATM    9  C4  UNL     1      15.483  35.280  15.063  1.00  0.00     0.307 C 
BRANCH   9  10
HETATM   10  N4  UNL     1      14.306  34.437  15.169  1.00  0.00    -0.073 N 
ATOM     11  H43 UNL     1      13.776  34.599  16.026  1.00  0.00     0.274 HD
ATOM     12  H42 UNL     1      13.573  34.693  14.509  1.00  0.00     0.274 HD
ATOM     13  H41 UNL     1      14.613  33.469  15.069  1.00  0.00     0.274 HD
ENDBRANCH   9  10
ENDBRANCH   8   9
TORSDOF 2
ENDMDL
MODEL 4
REMARK VINA RESULT: -0.407558457      8.486      8.995
REMARK  2 active torsions:
REMARK  status: ('A' for Active; 'I' for Inactive)
REMARK    1  A    between atoms: C3_8  and  C4_9 
REMARK    2  A    between atoms: C4_9  and  N4_10 
ROOT
HETATM    1  C1  UNL     1      22.810  34.054   9.069  1.00  0.00     0.179 C 
HETATM    2  N1  UNL     1      22.142  32.912   8.478  1.00  0.00    -0.282 N 
HETATM    3  N2  UNL     1      22.451  31.659   8.767  1.00  0.00    -0.293 N 
ATOM      4  H2  UNL     1      23.175  31.363   9.421  1.00  0.00     0.188 HD
HETATM    5  C2  UNL     1      21.643  30.826   8.048  1.00  0.00     0.199 A 
HETATM    6  N3  UNL     1      20.853  31.648   7.331  1.00  0.00    -0.338 N 
ATOM      7  H3  UNL     1      20.130  31.334   6.683  1.00  0.00     0.168 HD
HETATM    8  C3  UNL     1      21.143  32.934   7.580  1.00  0.00     0.124 A 
ENDROOT
BRANCH   8   9
HETATM    9  C4  UNL     1      20.479  34.135   6.973  1.00  0.00     0.307 C 
BRANCH   9  10
HETATM   10  N4  UNL     1      20.479  33.951   5.533  1.00  0.00    -0.073 N 
ATOM     11  H43 UNL     1      21.299  33.447   5.196  1.00  0.00     0.274 HD
ATOM     12  H42 UNL     1      19.774  33.285   5.218  1.00  0.00     0.274 HD
ATOM     13  H41 UNL     1      20.375  34.872   5.107  1.00  0.00     0.274 HD
ENDBRANCH   9  10
ENDBRANCH   8   9
TORSDOF 2
ENDMDL
MODEL 5
REMARK VINA RESULT: -0.117734755      7.693      8.440
REMARK  2 active torsions:
REMARK  status: ('A' for Active; 'I' for Inactive)
REMARK    1  A    between atoms: C3_8  and  C4_9 
REMARK    2  A    between atoms: C4_9  and  N4_10 
ROOT
HETATM    1  C1  UNL     1      22.786  32.744   8.299  1.00  0.00     0.179 C 
HETATM    2  N1  UNL     1      21.354  32.615   8.119  1.00  0.00    -0.282 N 
HETATM    3  N2  UNL     1      20.635  31.654   8.674  1.00  0.00    -0.293 N 
ATOM      4  H2  UNL     1      20.997  30.915   9.276  1.00  0.00     0.188 HD
HETATM    5  C2  UNL     1      19.328  31.812   8.312  1.00  0.00     0.199 A 
HETATM    6  N3  UNL     1      19.320  32.904   7.525  1.00  0.00    -0.338 N 
ATOM      7  H3  UNL     1      18.485  33.293   7.085  1.00  0.00     0.168 HD
HETATM    8  C3  UNL     1      20.555  33.413   7.393  1.00  0.00     0.124 A 
ENDROOT
BRANCH   8   9
HETATM    9  C4  UNL     1      20.943  34.624   6.596  1.00  0.00     0.307 C 
BRANCH   9  10
HETATM   10  N4  UNL     1      20.612  34.357   5.209  1.00  0.00    -0.073 N 
ATOM     11  H43 UNL     1      20.124  33.470   5.079  1.00  0.00     0.274 HD
ATOM     12  H42 UNL     1      19.878  34.967   4.850  1.00  0.00     0.274 HD
ATOM     13  H41 UNL     1      21.477  34.416   4.670  1.00  0.00     0.274 HD
ENDBRANCH   9  10
ENDBRANCH   8   9
TORSDOF 2
ENDMDL
