MODEL 1
REMARK VINA RESULT: -7.960829880      0.000      0.000
REMARK  6 active torsions:
REMARK  status: ('A' for Active; 'I' for Inactive)
REMARK    1  A    between atoms: C4_6  and  C5_7 
REMARK    2  A    between atoms: C5_7  and  O1_8 
REMARK    3  A    between atoms: C5_7  and  C6_10 
REMARK    4  A    between atoms: C6_10  and  N2_11 
REMARK    5  A    between atoms: C10_15  and  C11_16 
REMARK    6  A    between atoms: C11_16  and  N3_17 
ROOT
HETATM    1  N3  UNL     1      64.236   2.703  29.011  1.00  0.00    -0.296 NA
HETATM    2  O2  UNL     1      65.200   1.915  29.217  1.00  0.00    -0.219 OA
ATOM      3  H2  UNL     1      65.925   1.322  29.371  1.00  0.00     0.261 HD
ENDROOT
BRANCH   1   4
HETATM    4  C11 UNL     1      63.341   3.435  28.821  1.00  0.00     0.230 C 
BRANCH   4   5
HETATM    5  C10 UNL     1      62.365   3.915  29.842  1.00  0.00     0.011 A 
HETATM    6  C9  UNL     1      62.052   5.252  29.960  1.00  0.00     0.017 A 
HETATM    7  C8  UNL     1      61.144   5.712  30.886  1.00  0.00     0.018 A 
HETATM    8  C7  UNL     1      60.535   4.806  31.718  1.00  0.00     0.090 A 
HETATM    9  N2  UNL     1      60.834   3.477  31.616  1.00  0.00    -0.363 N 
HETATM   10  C12 UNL     1      61.724   3.038  30.703  1.00  0.00     0.104 A 
BRANCH   9  11
HETATM   11  C6  UNL     1      60.143   2.586  32.526  1.00  0.00     0.165 C 
BRANCH  11  12
HETATM   12  C5  UNL     1      58.712   3.045  32.638  1.00  0.00     0.186 C 
BRANCH  12  13
HETATM   13  C4  UNL     1      57.907   2.666  31.426  1.00  0.00     0.040 A 
HETATM   14  N1  UNL     1      58.316   1.945  30.382  1.00  0.00    -0.366 N 
HETATM   15  C3  UNL     1      57.304   1.830  29.477  1.00  0.00     0.095 A 
ATOM     16  H1  UNL     1      59.246   1.541  30.275  1.00  0.00     0.165 HD
HETATM   17  C2  UNL     1      56.244   2.509  29.996  1.00  0.00    -0.045 A 
HETATM   18  C1  UNL     1      54.909   2.650  29.324  1.00  0.00     0.049 C 
HETATM   19  C13 UNL     1      56.604   3.034  31.209  1.00  0.00     0.035 A 
ENDBRANCH  12  13
BRANCH  12  20
HETATM   20  O1  UNL     1      58.061   2.545  33.748  1.00  0.00    -0.388 OA
ATOM     21  H1  UNL     1      57.222   2.985  33.814  1.00  0.00     0.210 HD
ENDBRANCH  12  20
ENDBRANCH  11  12
ENDBRANCH   9  11
ENDBRANCH   4   5
ENDBRANCH   1   4
TORSDOF 6
ENDMDL
MODEL 2
REMARK VINA RESULT: -7.798795224      1.348      1.608
REMARK  6 active torsions:
REMARK  status: ('A' for Active; 'I' for Inactive)
REMARK    1  A    between atoms: C4_6  and  C5_7 
REMARK    2  A    between atoms: C5_7  and  O1_8 
REMARK    3  A    between atoms: C5_7  and  C6_10 
REMARK    4  A    between atoms: C6_10  and  N2_11 
REMARK    5  A    between atoms: C10_15  and  C11_16 
REMARK    6  A    between atoms: C11_16  and  N3_17 
ROOT
HETATM    1  N3  UNL     1      64.412   3.029  29.220  1.00  0.00    -0.296 NA
HETATM    2  O2  UNL     1      64.960   1.893  29.258  1.00  0.00    -0.219 OA
ATOM      3  H2  UNL     1      65.374   1.039  29.287  1.00  0.00     0.261 HD
ENDROOT
BRANCH   1   4
HETATM    4  C11 UNL     1      63.902   4.083  29.183  1.00  0.00     0.230 C 
BRANCH   4   5
HETATM    5  C10 UNL     1      62.499   4.397  29.587  1.00  0.00     0.011 A 
HETATM    6  C9  UNL     1      62.121   5.678  29.923  1.00  0.00     0.017 A 
HETATM    7  C8  UNL     1      60.830   5.989  30.284  1.00  0.00     0.018 A 
HETATM    8  C7  UNL     1      59.894   4.986  30.310  1.00  0.00     0.090 A 
HETATM    9  N2  UNL     1      60.251   3.709  29.981  1.00  0.00    -0.363 N 
HETATM   10  C12 UNL     1      61.519   3.417  29.627  1.00  0.00     0.104 A 
BRANCH   9  11
HETATM   11  C6  UNL     1      59.203   2.710  30.028  1.00  0.00     0.165 C 
BRANCH  11  12
HETATM   12  C5  UNL     1      58.252   3.077  31.138  1.00  0.00     0.186 C 
BRANCH  12  13
HETATM   13  C4  UNL     1      56.824   2.789  30.769  1.00  0.00     0.040 A 
HETATM   14  N1  UNL     1      56.267   2.897  29.562  1.00  0.00    -0.366 N 
HETATM   15  C3  UNL     1      54.948   2.563  29.633  1.00  0.00     0.095 A 
ATOM     16  H1  UNL     1      56.755   3.186  28.715  1.00  0.00     0.165 HD
HETATM   17  C2  UNL     1      54.700   2.244  30.932  1.00  0.00    -0.045 A 
HETATM   18  C1  UNL     1      53.362   1.821  31.467  1.00  0.00     0.049 C 
HETATM   19  C13 UNL     1      55.858   2.378  31.652  1.00  0.00     0.035 A 
ENDBRANCH  12  13
BRANCH  12  20
HETATM   20  O1  UNL     1      58.519   2.426  32.326  1.00  0.00    -0.388 OA
ATOM     21  H1  UNL     1      58.815   3.076  32.952  1.00  0.00     0.210 HD
ENDBRANCH  12  20
ENDBRANCH  11  12
ENDBRANCH   9  11
ENDBRANCH   4   5
ENDBRANCH   1   4
TORSDOF 6
ENDMDL
MODEL 3
REMARK VINA RESULT: -7.697818185      1.909      2.261
REMARK  6 active torsions:
REMARK  status: ('A' for Active; 'I' for Inactive)
REMARK    1  A    between atoms: C4_6  and  C5_7 
REMARK    2  A    between atoms: C5_7  and  O1_8 
REMARK    3  A    between atoms: C5_7  and  C6_10 
REMARK    4  A    between atoms: C6_10  and  N2_11 
REMARK    5  A    between atoms: C10_15  and  C11_16 
REMARK    6  A    between atoms: C11_16  and  N3_17 
ROOT
HETATM    1  N3  UNL     1      63.871   2.522  28.907  1.00  0.00    -0.296 NA
HETATM    2  O2  UNL     1      64.969   2.009  29.254  1.00  0.00    -0.219 OA
ATOM      3  H2  UNL     1      65.796   1.622  29.516  1.00  0.00     0.261 HD
ENDROOT
BRANCH   1   4
HETATM    4  C11 UNL     1      62.850   2.999  28.584  1.00  0.00     0.230 C 
BRANCH   4   5
HETATM    5  C10 UNL     1      61.882   3.697  29.481  1.00  0.00     0.011 A 
HETATM    6  C9  UNL     1      62.119   4.977  29.932  1.00  0.00     0.017 A 
HETATM    7  C8  UNL     1      61.233   5.642  30.747  1.00  0.00     0.018 A 
HETATM    8  C7  UNL     1      60.077   5.003  31.122  1.00  0.00     0.090 A 
HETATM    9  N2  UNL     1      59.826   3.733  30.685  1.00  0.00    -0.363 N 
HETATM   10  C12 UNL     1      60.702   3.093  29.885  1.00  0.00     0.104 A 
BRANCH   9  11
HETATM   11  C6  UNL     1      58.581   3.132  31.120  1.00  0.00     0.165 C 
BRANCH  11  12
HETATM   12  C5  UNL     1      57.548   3.362  30.047  1.00  0.00     0.186 C 
BRANCH  12  13
HETATM   13  C4  UNL     1      56.159   3.059  30.535  1.00  0.00     0.040 A 
HETATM   14  N1  UNL     1      55.250   3.933  30.968  1.00  0.00    -0.366 N 
HETATM   15  C3  UNL     1      54.117   3.273  31.340  1.00  0.00     0.095 A 
ATOM     16  H1  UNL     1      55.382   4.943  31.013  1.00  0.00     0.165 HD
HETATM   17  C2  UNL     1      54.355   1.950  31.125  1.00  0.00    -0.045 A 
HETATM   18  C1  UNL     1      53.372   0.850  31.408  1.00  0.00     0.049 C 
HETATM   19  C13 UNL     1      55.620   1.801  30.624  1.00  0.00     0.035 A 
ENDBRANCH  12  13
BRANCH  12  20
HETATM   20  O1  UNL     1      57.548   4.651  29.553  1.00  0.00    -0.388 OA
ATOM     21  H1  UNL     1      56.644   4.929  29.470  1.00  0.00     0.210 HD
ENDBRANCH  12  20
ENDBRANCH  11  12
ENDBRANCH   9  11
ENDBRANCH   4   5
ENDBRANCH   1   4
TORSDOF 6
ENDMDL
MODEL 4
REMARK VINA RESULT: -7.529773705      1.817      3.148
REMARK  6 active torsions:
REMARK  status: ('A' for Active; 'I' for Inactive)
REMARK    1  A    between atoms: C4_6  and  C5_7 
REMARK    2  A    between atoms: C5_7  and  O1_8 
REMARK    3  A    between atoms: C5_7  and  C6_10 
REMARK    4  A    between atoms: C6_10  and  N2_11 
REMARK    5  A    between atoms: C10_15  and  C11_16 
REMARK    6  A    between atoms: C11_16  and  N3_17 
ROOT
HETATM    1  N3  UNL     1      64.278   2.398  29.186  1.00  0.00    -0.296 NA
HETATM    2  O2  UNL     1      65.476   2.233  29.545  1.00  0.00    -0.219 OA
ATOM      3  H2  UNL     1      66.378   2.108  29.815  1.00  0.00     0.261 HD
ENDROOT
BRANCH   1   4
HETATM    4  C11 UNL     1      63.165   2.552  28.853  1.00  0.00     0.230 C 
BRANCH   4   5
HETATM    5  C10 UNL     1      62.217   3.569  29.395  1.00  0.00     0.011 A 
HETATM    6  C9  UNL     1      62.653   4.813  29.797  1.00  0.00     0.017 A 
HETATM    7  C8  UNL     1      61.792   5.768  30.286  1.00  0.00     0.018 A 
HETATM    8  C7  UNL     1      60.456   5.465  30.377  1.00  0.00     0.090 A 
HETATM    9  N2  UNL     1      60.005   4.237  29.984  1.00  0.00    -0.363 N 
HETATM   10  C12 UNL     1      60.859   3.309  29.504  1.00  0.00     0.104 A 
BRANCH   9  11
HETATM   11  C6  UNL     1      58.581   3.999  30.106  1.00  0.00     0.165 C 
BRANCH  11  12
HETATM   12  C5  UNL     1      58.382   2.635  30.715  1.00  0.00     0.186 C 
BRANCH  12  13
HETATM   13  C4  UNL     1      58.471   2.675  32.215  1.00  0.00     0.040 A 
HETATM   14  N1  UNL     1      57.500   2.995  33.070  1.00  0.00    -0.366 N 
HETATM   15  C3  UNL     1      57.971   2.932  34.347  1.00  0.00     0.095 A 
ATOM     16  H1  UNL     1      56.548   3.249  32.809  1.00  0.00     0.165 HD
HETATM   17  C2  UNL     1      59.278   2.561  34.257  1.00  0.00    -0.045 A 
HETATM   18  C1  UNL     1      60.195   2.376  35.432  1.00  0.00     0.049 C 
HETATM   19  C13 UNL     1      59.604   2.397  32.937  1.00  0.00     0.035 A 
ENDBRANCH  12  13
BRANCH  12  20
HETATM   20  O1  UNL     1      57.175   2.055  30.381  1.00  0.00    -0.388 OA
ATOM     21  H1  UNL     1      56.731   1.825  31.189  1.00  0.00     0.210 HD
ENDBRANCH  12  20
ENDBRANCH  11  12
ENDBRANCH   9  11
ENDBRANCH   4   5
ENDBRANCH   1   4
TORSDOF 6
ENDMDL
MODEL 5
REMARK VINA RESULT: -7.272911730      2.398      4.605
REMARK  6 active torsions:
REMARK  status: ('A' for Active; 'I' for Inactive)
REMARK    1  A    between atoms: C4_6  and  C5_7 
REMARK    2  A    between atoms: C5_7  and  O1_8 
REMARK    3  A    between atoms: C5_7  and  C6_10 
REMARK    4  A    between atoms: C6_10  and  N2_11 
REMARK    5  A    between atoms: C10_15  and  C11_16 
REMARK    6  A    between atoms: C11_16  and  N3_17 
ROOT
HETATM    1  N3  UNL     1      58.884   3.710  35.810  1.00  0.00    -0.296 NA
HETATM    2  O2  UNL     1      57.863   3.001  36.024  1.00  0.00    -0.219 OA
ATOM      3  H2  UNL     1      57.095   2.467  36.187  1.00  0.00     0.261 HD
ENDROOT
BRANCH   1   4
HETATM    4  C11 UNL     1      59.833   4.368  35.610  1.00  0.00     0.230 C 
BRANCH   4   5
HETATM    5  C10 UNL     1      60.813   4.186  34.499  1.00  0.00     0.011 A 
HETATM    6  C9  UNL     1      62.112   3.800  34.747  1.00  0.00     0.017 A 
HETATM    7  C8  UNL     1      63.026   3.613  33.736  1.00  0.00     0.018 A 
HETATM    8  C7  UNL     1      62.625   3.821  32.440  1.00  0.00     0.090 A 
HETATM    9  N2  UNL     1      61.341   4.204  32.175  1.00  0.00    -0.363 N 
HETATM   10  C12 UNL     1      60.454   4.382  33.175  1.00  0.00     0.104 A 
BRANCH   9  11
HETATM   11  C6  UNL     1      60.996   4.396  30.781  1.00  0.00     0.165 C 
BRANCH  11  12
HETATM   12  C5  UNL     1      60.724   3.044  30.174  1.00  0.00     0.186 C 
BRANCH  12  13
HETATM   13  C4  UNL     1      59.252   2.798  29.993  1.00  0.00     0.040 A 
HETATM   14  N1  UNL     1      58.667   1.663  29.611  1.00  0.00    -0.366 N 
HETATM   15  C3  UNL     1      57.317   1.840  29.547  1.00  0.00     0.095 A 
ATOM     16  H1  UNL     1      59.155   0.793  29.399  1.00  0.00     0.165 HD
HETATM   17  C2  UNL     1      57.081   3.132  29.902  1.00  0.00    -0.045 A 
HETATM   18  C1  UNL     1      55.721   3.766  29.961  1.00  0.00     0.049 C 
HETATM   19  C13 UNL     1      58.275   3.741  30.183  1.00  0.00     0.035 A 
ENDBRANCH  12  13
BRANCH  12  20
HETATM   20  O1  UNL     1      61.335   2.859  28.949  1.00  0.00    -0.388 OA
ATOM     21  H1  UNL     1      60.703   3.080  28.275  1.00  0.00     0.210 HD
ENDBRANCH  12  20
ENDBRANCH  11  12
ENDBRANCH   9  11
ENDBRANCH   4   5
ENDBRANCH   1   4
TORSDOF 6
ENDMDL
