MODEL 1
REMARK VINA RESULT: -7.243791163      0.000      0.000
REMARK  9 active torsions:
REMARK  status: ('A' for Active; 'I' for Inactive)
REMARK    1  A    between atoms: C2_2  and  C4_4 
REMARK    2  A    between atoms: C4_4  and  C5_5 
REMARK    3  A    between atoms: C4_4  and  N1_13 
REMARK    4  A    between atoms: C6_6  and  C7_7 
REMARK    5  A    between atoms: N1_13  and  C13_15 
REMARK    6  A    between atoms: C13_15  and  C14_16 
REMARK    7  A    between atoms: C14_16  and  O1_17 
REMARK    8  A    between atoms: C14_16  and  C15_19 
REMARK    9  A    between atoms: C15_19  and  O2_20 
ROOT
HETATM    1  C4  UNL     1      61.712   3.882  32.361  1.00  0.00     0.164 C 
ENDROOT
BRANCH   1   2
HETATM    2  C2  UNL     1      61.764   3.435  33.778  1.00  0.00     0.012 C 
HETATM    3  C1  UNL     1      60.836   4.401  34.549  1.00  0.00     0.012 C 
HETATM    4  C3  UNL     1      63.052   3.463  34.493  1.00  0.00     0.012 C 
ENDBRANCH   1   2
BRANCH   1   5
HETATM    5  C5  UNL     1      60.340   3.503  31.892  1.00  0.00    -0.075 C 
HETATM    6  C6  UNL     1      59.230   3.218  31.515  1.00  0.00    -0.065 C 
BRANCH   6   7
HETATM    7  C7  UNL     1      57.906   2.905  31.056  1.00  0.00     0.017 A 
HETATM    8  C8  UNL     1      56.812   2.975  31.921  1.00  0.00     0.020 A 
HETATM    9  C9  UNL     1      55.531   2.678  31.495  1.00  0.00     0.001 A 
HETATM   10  C10 UNL     1      55.298   2.301  30.185  1.00  0.00     0.000 A 
HETATM   11  C11 UNL     1      56.372   2.228  29.315  1.00  0.00     0.001 A 
HETATM   12  C12 UNL     1      57.645   2.526  29.754  1.00  0.00     0.020 A 
ENDBRANCH   6   7
ENDBRANCH   1   5
BRANCH   1  13
HETATM   13  N1  UNL     1      62.611   3.327  31.441  1.00  0.00    -0.385 N 
ATOM     14  H1  UNL     1      62.658   2.311  31.357  1.00  0.00     0.160 HD
BRANCH  13  15
HETATM   15  C13 UNL     1      63.445   4.100  30.637  1.00  0.00     0.090 C 
BRANCH  15  16
HETATM   16  C14 UNL     1      63.672   3.640  29.226  1.00  0.00     0.179 C 
BRANCH  16  17
HETATM   17  O1  UNL     1      64.204   2.408  29.047  1.00  0.00    -0.388 OA
ATOM     18  H1  UNL     1      63.650   1.659  29.233  1.00  0.00     0.210 HD
ENDBRANCH  16  17
BRANCH  16  19
HETATM   19  C15 UNL     1      62.291   3.653  28.557  1.00  0.00     0.201 C 
BRANCH  19  20
HETATM   20  O2  UNL     1      61.553   2.534  28.863  1.00  0.00    -0.398 OA
ATOM     21  H2  UNL     1      60.671   2.749  29.144  1.00  0.00     0.209 HD
ENDBRANCH  19  20
ENDBRANCH  16  19
ENDBRANCH  15  16
ENDBRANCH  13  15
ENDBRANCH   1  13
TORSDOF 9
ENDMDL
MODEL 2
REMARK VINA RESULT: -7.242458598      0.021      1.118
REMARK  9 active torsions:
REMARK  status: ('A' for Active; 'I' for Inactive)
REMARK    1  A    between atoms: C2_2  and  C4_4 
REMARK    2  A    between atoms: C4_4  and  C5_5 
REMARK    3  A    between atoms: C4_4  and  N1_13 
REMARK    4  A    between atoms: C6_6  and  C7_7 
REMARK    5  A    between atoms: N1_13  and  C13_15 
REMARK    6  A    between atoms: C13_15  and  C14_16 
REMARK    7  A    between atoms: C14_16  and  O1_17 
REMARK    8  A    between atoms: C14_16  and  C15_19 
REMARK    9  A    between atoms: C15_19  and  O2_20 
ROOT
HETATM    1  C4  UNL     1      61.697   3.881  32.354  1.00  0.00     0.164 C 
ENDROOT
BRANCH   1   2
HETATM    2  C2  UNL     1      61.746   3.439  33.773  1.00  0.00     0.012 C 
HETATM    3  C1  UNL     1      60.839   4.426  34.542  1.00  0.00     0.012 C 
HETATM    4  C3  UNL     1      63.037   3.447  34.482  1.00  0.00     0.012 C 
ENDBRANCH   1   2
BRANCH   1   5
HETATM    5  C5  UNL     1      60.325   3.505  31.885  1.00  0.00    -0.075 C 
HETATM    6  C6  UNL     1      59.212   3.222  31.514  1.00  0.00    -0.065 C 
BRANCH   6   7
HETATM    7  C7  UNL     1      57.882   2.912  31.071  1.00  0.00     0.017 A 
HETATM    8  C8  UNL     1      57.635   2.540  29.748  1.00  0.00     0.020 A 
HETATM    9  C9  UNL     1      56.361   2.237  29.306  1.00  0.00     0.001 A 
HETATM   10  C10 UNL     1      55.285   2.295  30.174  1.00  0.00     0.000 A 
HETATM   11  C11 UNL     1      55.514   2.661  31.489  1.00  0.00     0.001 A 
HETATM   12  C12 UNL     1      56.790   2.961  31.916  1.00  0.00     0.020 A 
ENDBRANCH   6   7
ENDBRANCH   1   5
BRANCH   1  13
HETATM   13  N1  UNL     1      62.595   3.318  31.437  1.00  0.00    -0.385 N 
ATOM     14  H1  UNL     1      62.624   2.303  31.343  1.00  0.00     0.160 HD
BRANCH  13  15
HETATM   15  C13 UNL     1      63.450   4.083  30.647  1.00  0.00     0.090 C 
BRANCH  15  16
HETATM   16  C14 UNL     1      63.665   3.645  29.228  1.00  0.00     0.179 C 
BRANCH  16  17
HETATM   17  O1  UNL     1      64.198   2.417  29.026  1.00  0.00    -0.388 OA
ATOM     18  H1  UNL     1      65.145   2.348  29.001  1.00  0.00     0.210 HD
ENDBRANCH  16  17
BRANCH  16  19
HETATM   19  C15 UNL     1      62.277   3.664  28.573  1.00  0.00     0.201 C 
BRANCH  19  20
HETATM   20  O2  UNL     1      61.555   2.526  28.846  1.00  0.00    -0.398 OA
ATOM     21  H2  UNL     1      60.788   2.704  29.377  1.00  0.00     0.209 HD
ENDBRANCH  19  20
ENDBRANCH  16  19
ENDBRANCH  15  16
ENDBRANCH  13  15
ENDBRANCH   1  13
TORSDOF 9
ENDMDL
MODEL 3
REMARK VINA RESULT: -7.019888030      0.661      1.182
REMARK  9 active torsions:
REMARK  status: ('A' for Active; 'I' for Inactive)
REMARK    1  A    between atoms: C2_2  and  C4_4 
REMARK    2  A    between atoms: C4_4  and  C5_5 
REMARK    3  A    between atoms: C4_4  and  N1_13 
REMARK    4  A    between atoms: C6_6  and  C7_7 
REMARK    5  A    between atoms: N1_13  and  C13_15 
REMARK    6  A    between atoms: C13_15  and  C14_16 
REMARK    7  A    between atoms: C14_16  and  O1_17 
REMARK    8  A    between atoms: C14_16  and  C15_19 
REMARK    9  A    between atoms: C15_19  and  O2_20 
ROOT
HETATM    1  C4  UNL     1      61.728   4.123  32.611  1.00  0.00     0.164 C 
ENDROOT
BRANCH   1   2
HETATM    2  C2  UNL     1      61.834   3.506  33.960  1.00  0.00     0.012 C 
HETATM    3  C1  UNL     1      60.901   4.340  34.867  1.00  0.00     0.012 C 
HETATM    4  C3  UNL     1      63.141   3.487  34.639  1.00  0.00     0.012 C 
ENDBRANCH   1   2
BRANCH   1   5
HETATM    5  C5  UNL     1      60.401   3.666  32.086  1.00  0.00    -0.075 C 
HETATM    6  C6  UNL     1      59.330   3.317  31.654  1.00  0.00    -0.065 C 
BRANCH   6   7
HETATM    7  C7  UNL     1      58.057   2.921  31.119  1.00  0.00     0.017 A 
HETATM    8  C8  UNL     1      56.904   2.968  31.904  1.00  0.00     0.020 A 
HETATM    9  C9  UNL     1      55.671   2.592  31.405  1.00  0.00     0.001 A 
HETATM   10  C10 UNL     1      55.548   2.155  30.098  1.00  0.00     0.000 A 
HETATM   11  C11 UNL     1      56.683   2.103  29.307  1.00  0.00     0.001 A 
HETATM   12  C12 UNL     1      57.906   2.481  29.819  1.00  0.00     0.020 A 
ENDBRANCH   6   7
ENDBRANCH   1   5
BRANCH   1  13
HETATM   13  N1  UNL     1      62.676   3.787  31.635  1.00  0.00    -0.385 N 
ATOM     14  H1  UNL     1      63.438   3.158  31.892  1.00  0.00     0.160 HD
BRANCH  13  15
HETATM   15  C13 UNL     1      62.625   4.271  30.331  1.00  0.00     0.090 C 
BRANCH  15  16
HETATM   16  C14 UNL     1      62.427   3.275  29.225  1.00  0.00     0.179 C 
BRANCH  16  17
HETATM   17  O1  UNL     1      62.349   3.751  27.960  1.00  0.00    -0.388 OA
ATOM     18  H1  UNL     1      62.564   3.155  27.252  1.00  0.00     0.210 HD
ENDBRANCH  16  17
BRANCH  16  19
HETATM   19  C15 UNL     1      63.635   2.333  29.295  1.00  0.00     0.201 C 
BRANCH  19  20
HETATM   20  O2  UNL     1      64.830   3.011  29.246  1.00  0.00    -0.398 OA
ATOM     21  H2  UNL     1      65.011   3.363  28.382  1.00  0.00     0.209 HD
ENDBRANCH  19  20
ENDBRANCH  16  19
ENDBRANCH  15  16
ENDBRANCH  13  15
ENDBRANCH   1  13
TORSDOF 9
ENDMDL
MODEL 4
REMARK VINA RESULT: -6.925124280      2.898      6.337
REMARK  9 active torsions:
REMARK  status: ('A' for Active; 'I' for Inactive)
REMARK    1  A    between atoms: C2_2  and  C4_4 
REMARK    2  A    between atoms: C4_4  and  C5_5 
REMARK    3  A    between atoms: C4_4  and  N1_13 
REMARK    4  A    between atoms: C6_6  and  C7_7 
REMARK    5  A    between atoms: N1_13  and  C13_15 
REMARK    6  A    between atoms: C13_15  and  C14_16 
REMARK    7  A    between atoms: C14_16  and  O1_17 
REMARK    8  A    between atoms: C14_16  and  C15_19 
REMARK    9  A    between atoms: C15_19  and  O2_20 
ROOT
HETATM    1  C4  UNL     1      56.456   3.751  30.499  1.00  0.00     0.164 C 
ENDROOT
BRANCH   1   2
HETATM    2  C2  UNL     1      56.048   2.715  29.512  1.00  0.00     0.012 C 
HETATM    3  C1  UNL     1      54.793   2.044  30.114  1.00  0.00     0.012 C 
HETATM    4  C3  UNL     1      56.978   1.616  29.200  1.00  0.00     0.012 C 
ENDBRANCH   1   2
BRANCH   1   5
HETATM    5  C5  UNL     1      57.923   3.941  30.267  1.00  0.00    -0.075 C 
HETATM    6  C6  UNL     1      59.107   4.073  30.076  1.00  0.00    -0.065 C 
BRANCH   6   7
HETATM    7  C7  UNL     1      60.516   4.208  29.832  1.00  0.00     0.017 A 
HETATM    8  C8  UNL     1      61.178   5.409  30.095  1.00  0.00     0.020 A 
HETATM    9  C9  UNL     1      62.533   5.555  29.866  1.00  0.00     0.001 A 
HETATM   10  C10 UNL     1      63.277   4.502  29.366  1.00  0.00     0.000 A 
HETATM   11  C11 UNL     1      62.635   3.305  29.100  1.00  0.00     0.001 A 
HETATM   12  C12 UNL     1      61.282   3.173  29.332  1.00  0.00     0.020 A 
ENDBRANCH   6   7
ENDBRANCH   1   5
BRANCH   1  13
HETATM   13  N1  UNL     1      56.303   3.482  31.866  1.00  0.00    -0.385 N 
ATOM     14  H1  UNL     1      55.505   3.888  32.356  1.00  0.00     0.160 HD
BRANCH  13  15
HETATM   15  C13 UNL     1      57.191   2.687  32.585  1.00  0.00     0.090 C 
BRANCH  15  16
HETATM   16  C14 UNL     1      57.797   3.269  33.828  1.00  0.00     0.179 C 
BRANCH  16  17
HETATM   17  O1  UNL     1      57.439   2.723  35.015  1.00  0.00    -0.388 OA
ATOM     18  H1  UNL     1      58.109   2.650  35.684  1.00  0.00     0.210 HD
ENDBRANCH  16  17
BRANCH  16  19
HETATM   19  C15 UNL     1      59.313   3.092  33.673  1.00  0.00     0.201 C 
BRANCH  19  20
HETATM   20  O2  UNL     1      59.634   2.064  32.818  1.00  0.00    -0.398 OA
ATOM     21  H2  UNL     1      59.580   2.323  31.905  1.00  0.00     0.209 HD
ENDBRANCH  19  20
ENDBRANCH  16  19
ENDBRANCH  15  16
ENDBRANCH  13  15
ENDBRANCH   1  13
TORSDOF 9
ENDMDL
MODEL 5
REMARK VINA RESULT: -6.883097685      2.901      6.386
REMARK  9 active torsions:
REMARK  status: ('A' for Active; 'I' for Inactive)
REMARK    1  A    between atoms: C2_2  and  C4_4 
REMARK    2  A    between atoms: C4_4  and  C5_5 
REMARK    3  A    between atoms: C4_4  and  N1_13 
REMARK    4  A    between atoms: C6_6  and  C7_7 
REMARK    5  A    between atoms: N1_13  and  C13_15 
REMARK    6  A    between atoms: C13_15  and  C14_16 
REMARK    7  A    between atoms: C14_16  and  O1_17 
REMARK    8  A    between atoms: C14_16  and  C15_19 
REMARK    9  A    between atoms: C15_19  and  O2_20 
ROOT
HETATM    1  C4  UNL     1      56.474   3.725  30.540  1.00  0.00     0.164 C 
ENDROOT
BRANCH   1   2
HETATM    2  C2  UNL     1      56.054   2.709  29.538  1.00  0.00     0.012 C 
HETATM    3  C1  UNL     1      54.809   2.024  30.144  1.00  0.00     0.012 C 
HETATM    4  C3  UNL     1      56.982   1.619  29.190  1.00  0.00     0.012 C 
ENDBRANCH   1   2
BRANCH   1   5
HETATM    5  C5  UNL     1      57.936   3.929  30.287  1.00  0.00    -0.075 C 
HETATM    6  C6  UNL     1      59.118   4.073  30.091  1.00  0.00    -0.065 C 
BRANCH   6   7
HETATM    7  C7  UNL     1      60.527   4.217  29.856  1.00  0.00     0.017 A 
HETATM    8  C8  UNL     1      61.282   3.158  29.349  1.00  0.00     0.020 A 
HETATM    9  C9  UNL     1      62.639   3.281  29.116  1.00  0.00     0.001 A 
HETATM   10  C10 UNL     1      63.291   4.471  29.381  1.00  0.00     0.000 A 
HETATM   11  C11 UNL     1      62.556   5.531  29.884  1.00  0.00     0.001 A 
HETATM   12  C12 UNL     1      61.203   5.395  30.112  1.00  0.00     0.020 A 
ENDBRANCH   6   7
ENDBRANCH   1   5
BRANCH   1  13
HETATM   13  N1  UNL     1      56.348   3.425  31.903  1.00  0.00    -0.385 N 
ATOM     14  H1  UNL     1      55.517   3.749  32.399  1.00  0.00     0.160 HD
BRANCH  13  15
HETATM   15  C13 UNL     1      57.305   2.704  32.612  1.00  0.00     0.090 C 
BRANCH  15  16
HETATM   16  C14 UNL     1      57.808   3.292  33.898  1.00  0.00     0.179 C 
BRANCH  16  17
HETATM   17  O1  UNL     1      57.435   2.688  35.051  1.00  0.00    -0.388 OA
ATOM     18  H1  UNL     1      58.051   2.702  35.774  1.00  0.00     0.210 HD
ENDBRANCH  16  17
BRANCH  16  19
HETATM   19  C15 UNL     1      59.339   3.228  33.813  1.00  0.00     0.201 C 
BRANCH  19  20
HETATM   20  O2  UNL     1      59.775   2.217  32.990  1.00  0.00    -0.398 OA
ATOM     21  H2  UNL     1      60.518   2.479  32.459  1.00  0.00     0.209 HD
ENDBRANCH  19  20
ENDBRANCH  16  19
ENDBRANCH  15  16
ENDBRANCH  13  15
ENDBRANCH   1  13
TORSDOF 9
ENDMDL
