MODEL 1
REMARK VINA RESULT: -7.883395680      0.000      0.000
REMARK  5 active torsions:
REMARK  status: ('A' for Active; 'I' for Inactive)
REMARK    1  A    between atoms: C2_2  and  C4_4 
REMARK    2  A    between atoms: C4_4  and  O1_5 
REMARK    3  A    between atoms: O1_5  and  C5_6 
REMARK    4  A    between atoms: C8_9  and  C9_10 
REMARK    5  A    between atoms: C12_16  and  C13_17 
ROOT
HETATM    1  C5  UNL     1      59.152   2.589  30.577  1.00  0.00     0.082 A 
HETATM    2  C6  UNL     1      58.307   2.466  29.486  1.00  0.00     0.039 A 
HETATM    3  C7  UNL     1      56.957   2.445  29.688  1.00  0.00     0.017 A 
HETATM    4  C8  UNL     1      56.380   2.541  30.958  1.00  0.00     0.006 A 
HETATM    5  C11 UNL     1      57.252   2.662  32.007  1.00  0.00     0.032 A 
HETATM    6  C12 UNL     1      58.639   2.689  31.849  1.00  0.00     0.039 A 
ENDROOT
BRANCH   1   7
HETATM    7  O1  UNL     1      60.522   2.614  30.405  1.00  0.00    -0.346 OA
BRANCH   7   8
HETATM    8  C4  UNL     1      61.158   3.388  29.403  1.00  0.00     0.208 C 
BRANCH   8   9
HETATM    9  C2  UNL     1      61.760   4.579  30.059  1.00  0.00    -0.069 C 
HETATM   10  C1  UNL     1      61.102   5.715  30.218  1.00  0.00     0.016 C 
HETATM   11  C3  UNL     1      63.170   4.495  30.557  1.00  0.00     0.044 C 
ENDBRANCH   8   9
ENDBRANCH   7   8
ENDBRANCH   1   7
BRANCH   6  12
HETATM   12  C13 UNL     1      59.497   2.821  33.022  1.00  0.00     0.123 C 
HETATM   13  N3  UNL     1      60.230   3.876  33.192  1.00  0.00    -0.387 N 
ATOM     14  H32 UNL     1      60.223   4.637  32.513  1.00  0.00     0.157 HD
ATOM     15  H31 UNL     1      60.830   3.968  34.011  1.00  0.00     0.157 HD
HETATM   16  N4  UNL     1      59.507   1.769  33.960  1.00  0.00    -0.082 NA
ENDBRANCH   6  12
BRANCH   4  17
HETATM   17  C9  UNL     1      54.941   2.512  31.099  1.00  0.00     0.122 C 
HETATM   18  N1  UNL     1      54.180   3.683  30.916  1.00  0.00    -0.082 NA
HETATM   19  N2  UNL     1      54.349   1.417  31.390  1.00  0.00    -0.382 N 
HETATM   20  C10 UNL     1      52.916   1.303  31.548  1.00  0.00     0.147 C 
ATOM     21  H2  UNL     1      54.917   0.580  31.519  1.00  0.00     0.160 HD
ENDBRANCH   4  17
TORSDOF 5
ENDMDL
MODEL 2
REMARK VINA RESULT: -7.504866858      1.121      1.339
REMARK  5 active torsions:
REMARK  status: ('A' for Active; 'I' for Inactive)
REMARK    1  A    between atoms: C2_2  and  C4_4 
REMARK    2  A    between atoms: C4_4  and  O1_5 
REMARK    3  A    between atoms: O1_5  and  C5_6 
REMARK    4  A    between atoms: C8_9  and  C9_10 
REMARK    5  A    between atoms: C12_16  and  C13_17 
ROOT
HETATM    1  C5  UNL     1      59.311   3.095  31.543  1.00  0.00     0.082 A 
HETATM    2  C6  UNL     1      58.800   3.170  30.258  1.00  0.00     0.039 A 
HETATM    3  C7  UNL     1      57.455   3.032  30.066  1.00  0.00     0.017 A 
HETATM    4  C8  UNL     1      56.559   2.814  31.118  1.00  0.00     0.006 A 
HETATM    5  C11 UNL     1      57.108   2.747  32.370  1.00  0.00     0.032 A 
HETATM    6  C12 UNL     1      58.476   2.883  32.615  1.00  0.00     0.039 A 
ENDROOT
BRANCH   1   7
HETATM    7  O1  UNL     1      60.667   3.231  31.768  1.00  0.00    -0.346 OA
BRANCH   7   8
HETATM    8  C4  UNL     1      61.272   4.470  32.091  1.00  0.00     0.208 C 
BRANCH   8   9
HETATM    9  C2  UNL     1      61.879   5.021  30.850  1.00  0.00    -0.069 C 
HETATM   10  C1  UNL     1      61.285   5.945  30.115  1.00  0.00     0.016 C 
HETATM   11  C3  UNL     1      63.216   4.509  30.410  1.00  0.00     0.044 C 
ENDBRANCH   8   9
ENDBRANCH   7   8
ENDBRANCH   1   7
BRANCH   6  12
HETATM   12  C13 UNL     1      58.978   2.799  33.982  1.00  0.00     0.123 C 
HETATM   13  N3  UNL     1      59.750   1.825  34.346  1.00  0.00    -0.387 N 
ATOM     14  H32 UNL     1      60.025   1.096  33.688  1.00  0.00     0.157 HD
ATOM     15  H31 UNL     1      60.102   1.766  35.302  1.00  0.00     0.157 HD
HETATM   16  N4  UNL     1      58.598   3.806  34.892  1.00  0.00    -0.082 NA
ENDBRANCH   6  12
BRANCH   4  17
HETATM   17  C9  UNL     1      55.147   2.676  30.843  1.00  0.00     0.122 C 
HETATM   18  N1  UNL     1      54.615   3.084  29.604  1.00  0.00    -0.082 NA
HETATM   19  N2  UNL     1      54.367   2.181  31.727  1.00  0.00    -0.382 N 
HETATM   20  C10 UNL     1      52.945   2.008  31.530  1.00  0.00     0.147 C 
ATOM     21  H2  UNL     1      54.770   1.891  32.618  1.00  0.00     0.160 HD
ENDBRANCH   4  17
TORSDOF 5
ENDMDL
MODEL 3
REMARK VINA RESULT: -7.289707754      2.359      5.934
REMARK  5 active torsions:
REMARK  status: ('A' for Active; 'I' for Inactive)
REMARK    1  A    between atoms: C2_2  and  C4_4 
REMARK    2  A    between atoms: C4_4  and  O1_5 
REMARK    3  A    between atoms: O1_5  and  C5_6 
REMARK    4  A    between atoms: C8_9  and  C9_10 
REMARK    5  A    between atoms: C12_16  and  C13_17 
ROOT
HETATM    1  C5  UNL     1      58.090   2.716  31.700  1.00  0.00     0.082 A 
HETATM    2  C6  UNL     1      58.415   2.946  30.373  1.00  0.00     0.039 A 
HETATM    3  C7  UNL     1      59.723   3.147  30.032  1.00  0.00     0.017 A 
HETATM    4  C8  UNL     1      60.760   3.131  30.971  1.00  0.00     0.006 A 
HETATM    5  C11 UNL     1      60.392   2.900  32.269  1.00  0.00     0.032 A 
HETATM    6  C12 UNL     1      59.070   2.689  32.664  1.00  0.00     0.039 A 
ENDROOT
BRANCH   1   7
HETATM    7  O1  UNL     1      56.776   2.510  32.075  1.00  0.00    -0.346 OA
BRANCH   7   8
HETATM    8  C4  UNL     1      55.714   3.343  31.646  1.00  0.00     0.208 C 
BRANCH   8   9
HETATM    9  C2  UNL     1      54.855   2.552  30.726  1.00  0.00    -0.069 C 
HETATM   10  C1  UNL     1      54.985   2.599  29.411  1.00  0.00     0.016 C 
HETATM   11  C3  UNL     1      53.795   1.667  31.307  1.00  0.00     0.044 C 
ENDBRANCH   8   9
ENDBRANCH   7   8
ENDBRANCH   1   7
BRANCH   6  12
HETATM   12  C13 UNL     1      58.765   2.449  34.070  1.00  0.00     0.123 C 
HETATM   13  N3  UNL     1      57.776   3.054  34.648  1.00  0.00    -0.387 N 
ATOM     14  H32 UNL     1      57.188   3.711  34.134  1.00  0.00     0.157 HD
ATOM     15  H31 UNL     1      57.562   2.886  35.631  1.00  0.00     0.157 HD
HETATM   16  N4  UNL     1      59.577   1.541  34.780  1.00  0.00    -0.082 NA
ENDBRANCH   6  12
BRANCH   4  17
HETATM   17  C9  UNL     1      62.122   3.351  30.540  1.00  0.00     0.122 C 
HETATM   18  N1  UNL     1      62.799   4.538  30.884  1.00  0.00    -0.082 NA
HETATM   19  N2  UNL     1      62.724   2.466  29.842  1.00  0.00    -0.382 N 
HETATM   20  C10 UNL     1      64.085   2.609  29.372  1.00  0.00     0.147 C 
ATOM     21  H2  UNL     1      62.218   1.613  29.602  1.00  0.00     0.160 HD
ENDBRANCH   4  17
TORSDOF 5
ENDMDL
MODEL 4
REMARK VINA RESULT: -7.272120804      1.371      1.827
REMARK  5 active torsions:
REMARK  status: ('A' for Active; 'I' for Inactive)
REMARK    1  A    between atoms: C2_2  and  C4_4 
REMARK    2  A    between atoms: C4_4  and  O1_5 
REMARK    3  A    between atoms: O1_5  and  C5_6 
REMARK    4  A    between atoms: C8_9  and  C9_10 
REMARK    5  A    between atoms: C12_16  and  C13_17 
ROOT
HETATM    1  C5  UNL     1      57.618   3.094  30.550  1.00  0.00     0.082 A 
HETATM    2  C6  UNL     1      56.633   3.121  29.576  1.00  0.00     0.039 A 
HETATM    3  C7  UNL     1      55.341   2.853  29.926  1.00  0.00     0.017 A 
HETATM    4  C8  UNL     1      54.961   2.545  31.237  1.00  0.00     0.006 A 
HETATM    5  C11 UNL     1      55.967   2.529  32.166  1.00  0.00     0.032 A 
HETATM    6  C12 UNL     1      57.300   2.798  31.854  1.00  0.00     0.039 A 
ENDROOT
BRANCH   1   7
HETATM    7  O1  UNL     1      58.933   3.362  30.225  1.00  0.00    -0.346 OA
BRANCH   7   8
HETATM    8  C4  UNL     1      59.405   4.666  29.941  1.00  0.00     0.208 C 
BRANCH   8   9
HETATM    9  C2  UNL     1      60.891   4.635  29.983  1.00  0.00    -0.069 C 
HETATM   10  C1  UNL     1      61.624   5.720  30.166  1.00  0.00     0.016 C 
HETATM   11  C3  UNL     1      61.592   3.322  29.806  1.00  0.00     0.044 C 
ENDBRANCH   8   9
ENDBRANCH   7   8
ENDBRANCH   1   7
BRANCH   6  12
HETATM   12  C13 UNL     1      58.310   2.761  32.907  1.00  0.00     0.123 C 
HETATM   13  N3  UNL     1      59.489   2.273  32.678  1.00  0.00    -0.387 N 
ATOM     14  H32 UNL     1      59.737   1.905  31.760  1.00  0.00     0.157 HD
ATOM     15  H31 UNL     1      60.195   2.246  33.413  1.00  0.00     0.157 HD
HETATM   16  N4  UNL     1      57.967   3.268  34.176  1.00  0.00    -0.082 NA
ENDBRANCH   6  12
BRANCH   4  17
HETATM   17  C9  UNL     1      53.574   2.270  31.538  1.00  0.00     0.122 C 
HETATM   18  N1  UNL     1      53.080   0.951  31.497  1.00  0.00    -0.082 NA
HETATM   19  N2  UNL     1      52.783   3.226  31.844  1.00  0.00    -0.382 N 
HETATM   20  C10 UNL     1      51.384   3.036  32.158  1.00  0.00     0.147 C 
ATOM     21  H2  UNL     1      53.158   4.175  31.868  1.00  0.00     0.160 HD
ENDBRANCH   4  17
TORSDOF 5
ENDMDL
MODEL 5
REMARK VINA RESULT: -7.077544620      3.069      6.111
REMARK  5 active torsions:
REMARK  status: ('A' for Active; 'I' for Inactive)
REMARK    1  A    between atoms: C2_2  and  C4_4 
REMARK    2  A    between atoms: C4_4  and  O1_5 
REMARK    3  A    between atoms: O1_5  and  C5_6 
REMARK    4  A    between atoms: C8_9  and  C9_10 
REMARK    5  A    between atoms: C12_16  and  C13_17 
ROOT
HETATM    1  C5  UNL     1      59.734   3.480  31.459  1.00  0.00     0.082 A 
HETATM    2  C6  UNL     1      59.292   2.586  32.420  1.00  0.00     0.039 A 
HETATM    3  C7  UNL     1      59.952   2.511  33.614  1.00  0.00     0.017 A 
HETATM    4  C8  UNL     1      61.067   3.301  33.913  1.00  0.00     0.006 A 
HETATM    5  C11 UNL     1      61.468   4.170  32.934  1.00  0.00     0.032 A 
HETATM    6  C12 UNL     1      60.825   4.282  31.700  1.00  0.00     0.039 A 
ENDROOT
BRANCH   1   7
HETATM    7  O1  UNL     1      59.087   3.579  30.242  1.00  0.00    -0.346 OA
BRANCH   7   8
HETATM    8  C4  UNL     1      57.714   3.903  30.126  1.00  0.00     0.208 C 
BRANCH   8   9
HETATM    9  C2  UNL     1      57.002   2.703  29.612  1.00  0.00    -0.069 C 
HETATM   10  C1  UNL     1      57.637   1.631  29.169  1.00  0.00     0.016 C 
HETATM   11  C3  UNL     1      55.504   2.704  29.590  1.00  0.00     0.044 C 
ENDBRANCH   8   9
ENDBRANCH   7   8
ENDBRANCH   1   7
BRANCH   6  12
HETATM   12  C13 UNL     1      61.318   5.235  30.712  1.00  0.00     0.123 C 
HETATM   13  N3  UNL     1      60.567   6.204  30.292  1.00  0.00    -0.387 N 
ATOM     14  H32 UNL     1      59.617   6.323  30.642  1.00  0.00     0.157 HD
ATOM     15  H31 UNL     1      60.911   6.870  29.601  1.00  0.00     0.157 HD
HETATM   16  N4  UNL     1      62.631   5.071  30.228  1.00  0.00    -0.082 NA
ENDBRANCH   6  12
BRANCH   4  17
HETATM   17  C9  UNL     1      61.718   3.169  35.197  1.00  0.00     0.122 C 
HETATM   18  N1  UNL     1      61.385   2.109  36.063  1.00  0.00    -0.082 NA
HETATM   19  N2  UNL     1      62.604   4.017  35.556  1.00  0.00    -0.382 N 
HETATM   20  C10 UNL     1      63.301   3.955  36.822  1.00  0.00     0.147 C 
ATOM     21  H2  UNL     1      62.832   4.778  34.916  1.00  0.00     0.160 HD
ENDBRANCH   4  17
TORSDOF 5
ENDMDL
