MODEL 1
REMARK VINA RESULT: -6.001203384      0.000      0.000
REMARK  16 active torsions:
REMARK  status: ('A' for Active; 'I' for Inactive)
REMARK    1  A    between atoms: N1_2  and  C3_5 
REMARK    2  A    between atoms: C3_5  and  C4_6 
REMARK    3  A    between atoms: C4_6  and  N2_7 
REMARK    4  A    between atoms: N2_7  and  C5_9 
REMARK    5  A    between atoms: C5_9  and  C6_13 
REMARK    6  A    between atoms: C6_13  and  C7_14 
REMARK    7  A    between atoms: C6_13  and  N4_17 
REMARK    8  A    between atoms: C7_14  and  C8_15 
REMARK    9  A    between atoms: N4_17  and  C9_18 
REMARK   10  A    between atoms: N4_17  and  C13_26 
REMARK   11  A    between atoms: C9_18  and  C10_19 
REMARK   12  A    between atoms: C10_19  and  C11_20 
REMARK   13  A    between atoms: C11_20  and  C12_21 
REMARK   14  A    between atoms: C12_21  and  N5_22 
REMARK   15  A    between atoms: C13_26  and  C14_27 
REMARK   16  A    between atoms: C17_30  and  C18_31 
ROOT
HETATM    1  N4  UNL     1      27.279  23.255  14.464  1.00  0.00     0.104 N 
ENDROOT
BRANCH   1   2
HETATM    2  C6  UNL     1      26.624  23.490  15.706  1.00  0.00     0.295 C 
BRANCH   2   3
HETATM    3  C5  UNL     1      26.596  22.175  16.488  1.00  0.00     0.105 C 
HETATM    4  N3  UNL     1      27.708  21.627  16.807  1.00  0.00    -0.387 N 
ATOM      5  H32 UNL     1      27.689  20.751  17.329  1.00  0.00     0.157 HD
ATOM      6  H31 UNL     1      28.582  22.077  16.536  1.00  0.00     0.157 HD
BRANCH   3   7
HETATM    7  N2  UNL     1      25.394  21.556  16.860  1.00  0.00    -0.376 N 
ATOM      8  H2  UNL     1      24.655  22.187  17.171  1.00  0.00     0.160 HD
BRANCH   7   9
HETATM    9  C4  UNL     1      25.062  20.179  16.865  1.00  0.00     0.157 C 
BRANCH   9  10
HETATM   10  C3  UNL     1      24.545  19.639  15.547  1.00  0.00     0.330 C 
BRANCH  10  11
HETATM   11  N1  UNL     1      24.815  18.233  15.411  1.00  0.00     0.007 N 
HETATM   12  C1  UNL     1      26.076  17.848  16.014  1.00  0.00     0.355 C 
HETATM   13  C2  UNL     1      23.793  17.403  16.017  1.00  0.00     0.355 C 
HETATM   14  O1  UNL     1      24.901  17.857  14.102  1.00  0.00    -0.065 OA
ENDBRANCH  10  11
ENDBRANCH   9  10
ENDBRANCH   7   9
ENDBRANCH   3   7
ENDBRANCH   2   3
BRANCH   2  15
HETATM   15  C7  UNL     1      27.307  24.426  16.636  1.00  0.00     0.113 C 
BRANCH  15  16
HETATM   16  C8  UNL     1      26.447  25.238  17.506  1.00  0.00     0.233 C 
HETATM   17  O2  UNL     1      25.829  26.216  17.072  1.00  0.00    -0.307 OA
ENDBRANCH  15  16
ENDBRANCH   2  15
ENDBRANCH   1   2
BRANCH   1  18
HETATM   18  C9  UNL     1      27.747  24.390  13.772  1.00  0.00     0.274 C 
BRANCH  18  19
HETATM   19  C10 UNL     1      26.770  25.032  12.811  1.00  0.00     0.032 C 
BRANCH  19  20
HETATM   20  C11 UNL     1      27.541  25.353  11.542  1.00  0.00     0.029 C 
BRANCH  20  21
HETATM   21  C12 UNL     1      27.162  26.769  11.102  1.00  0.00     0.229 C 
BRANCH  21  22
HETATM   22  N5  UNL     1      27.675  27.663  12.113  1.00  0.00    -0.079 N 
ATOM     23  H53 UNL     1      27.514  27.333  13.064  1.00  0.00     0.274 HD
ATOM     24  H52 UNL     1      28.694  27.681  12.156  1.00  0.00     0.274 HD
ATOM     25  H51 UNL     1      27.262  28.577  11.927  1.00  0.00     0.274 HD
ENDBRANCH  21  22
ENDBRANCH  20  21
ENDBRANCH  19  20
ENDBRANCH  18  19
ENDBRANCH   1  18
BRANCH   1  26
HETATM   26  C13 UNL     1      26.506  22.404  13.584  1.00  0.00     0.312 C 
BRANCH  26  27
HETATM   27  C14 UNL     1      27.295  21.367  12.892  1.00  0.00    -0.030 A 
HETATM   28  C15 UNL     1      27.801  21.517  11.624  1.00  0.00     0.010 A 
HETATM   29  C16 UNL     1      28.528  20.487  11.036  1.00  0.00     0.015 A 
HETATM   30  C17 UNL     1      28.763  19.302  11.693  1.00  0.00     0.004 A 
HETATM   31  C19 UNL     1      28.261  19.125  12.979  1.00  0.00     0.015 A 
HETATM   32  C20 UNL     1      27.553  20.149  13.527  1.00  0.00     0.010 A 
BRANCH  30  33
HETATM   33  C18 UNL     1      29.534  18.237  11.042  1.00  0.00     0.120 C 
HETATM   34  N6  UNL     1      30.171  17.396  11.762  1.00  0.00    -0.387 N 
ATOM     35  H62 UNL     1      30.149  17.447  12.781  1.00  0.00     0.157 HD
ATOM     36  H61 UNL     1      30.706  16.655  11.309  1.00  0.00     0.157 HD
HETATM   37  N7  UNL     1      29.563  18.166   9.645  1.00  0.00    -0.082 NA
ENDBRANCH  30  33
ENDBRANCH  26  27
ENDBRANCH   1  26
TORSDOF 16
ENDMDL
MODEL 2
REMARK VINA RESULT: -5.874116117      2.537      5.103
REMARK  16 active torsions:
REMARK  status: ('A' for Active; 'I' for Inactive)
REMARK    1  A    between atoms: N1_2  and  C3_5 
REMARK    2  A    between atoms: C3_5  and  C4_6 
REMARK    3  A    between atoms: C4_6  and  N2_7 
REMARK    4  A    between atoms: N2_7  and  C5_9 
REMARK    5  A    between atoms: C5_9  and  C6_13 
REMARK    6  A    between atoms: C6_13  and  C7_14 
REMARK    7  A    between atoms: C6_13  and  N4_17 
REMARK    8  A    between atoms: C7_14  and  C8_15 
REMARK    9  A    between atoms: N4_17  and  C9_18 
REMARK   10  A    between atoms: N4_17  and  C13_26 
REMARK   11  A    between atoms: C9_18  and  C10_19 
REMARK   12  A    between atoms: C10_19  and  C11_20 
REMARK   13  A    between atoms: C11_20  and  C12_21 
REMARK   14  A    between atoms: C12_21  and  N5_22 
REMARK   15  A    between atoms: C13_26  and  C14_27 
REMARK   16  A    between atoms: C17_30  and  C18_31 
ROOT
HETATM    1  N4  UNL     1      27.048  22.884  17.971  1.00  0.00     0.104 N 
ENDROOT
BRANCH   1   2
HETATM    2  C6  UNL     1      25.785  23.508  17.772  1.00  0.00     0.295 C 
BRANCH   2   3
HETATM    3  C5  UNL     1      24.691  22.500  18.129  1.00  0.00     0.105 C 
HETATM    4  N3  UNL     1      24.117  22.596  19.269  1.00  0.00    -0.387 N 
ATOM      5  H32 UNL     1      23.388  21.923  19.508  1.00  0.00     0.157 HD
ATOM      6  H31 UNL     1      24.399  23.338  19.909  1.00  0.00     0.157 HD
BRANCH   3   7
HETATM    7  N2  UNL     1      24.305  21.479  17.250  1.00  0.00    -0.376 N 
ATOM      8  H2  UNL     1      23.385  21.592  16.824  1.00  0.00     0.160 HD
BRANCH   7   9
HETATM    9  C4  UNL     1      25.012  20.311  16.870  1.00  0.00     0.157 C 
BRANCH   9  10
HETATM   10  C3  UNL     1      24.809  19.879  15.432  1.00  0.00     0.330 C 
BRANCH  10  11
HETATM   11  N1  UNL     1      25.453  18.621  15.163  1.00  0.00     0.007 N 
HETATM   12  C1  UNL     1      26.852  18.777  14.813  1.00  0.00     0.355 C 
HETATM   13  C2  UNL     1      25.405  17.712  16.291  1.00  0.00     0.355 C 
HETATM   14  O1  UNL     1      24.879  17.971  14.109  1.00  0.00    -0.065 OA
ENDBRANCH  10  11
ENDBRANCH   9  10
ENDBRANCH   7   9
ENDBRANCH   3   7
ENDBRANCH   2   3
BRANCH   2  15
HETATM   15  C7  UNL     1      25.484  24.665  18.655  1.00  0.00     0.113 C 
BRANCH  15  16
HETATM   16  C8  UNL     1      25.747  26.002  18.105  1.00  0.00     0.233 C 
HETATM   17  O2  UNL     1      24.880  26.626  17.485  1.00  0.00    -0.307 OA
ENDBRANCH  15  16
ENDBRANCH   2  15
ENDBRANCH   1   2
BRANCH   1  18
HETATM   18  C9  UNL     1      27.467  22.716  19.306  1.00  0.00     0.274 C 
BRANCH  18  19
HETATM   19  C10 UNL     1      28.198  21.428  19.616  1.00  0.00     0.032 C 
BRANCH  19  20
HETATM   20  C11 UNL     1      27.142  20.387  19.947  1.00  0.00     0.029 C 
BRANCH  20  21
HETATM   21  C12 UNL     1      27.577  19.057  19.325  1.00  0.00     0.229 C 
BRANCH  21  22
HETATM   22  N5  UNL     1      28.335  19.386  18.142  1.00  0.00    -0.079 N 
ATOM     23  H53 UNL     1      28.115  20.308  17.765  1.00  0.00     0.274 HD
ATOM     24  H52 UNL     1      29.322  19.559  18.330  1.00  0.00     0.274 HD
ATOM     25  H51 UNL     1      28.176  18.629  17.477  1.00  0.00     0.274 HD
ENDBRANCH  21  22
ENDBRANCH  20  21
ENDBRANCH  19  20
ENDBRANCH  18  19
ENDBRANCH   1  18
BRANCH   1  26
HETATM   26  C13 UNL     1      28.097  23.497  17.181  1.00  0.00     0.312 C 
BRANCH  26  27
HETATM   27  C14 UNL     1      27.822  23.540  15.733  1.00  0.00    -0.030 A 
HETATM   28  C15 UNL     1      27.522  22.428  14.982  1.00  0.00     0.010 A 
HETATM   29  C16 UNL     1      27.284  22.550  13.618  1.00  0.00     0.015 A 
HETATM   30  C17 UNL     1      27.338  23.767  12.981  1.00  0.00     0.004 A 
HETATM   31  C19 UNL     1      27.639  24.909  13.718  1.00  0.00     0.015 A 
HETATM   32  C20 UNL     1      27.868  24.758  15.051  1.00  0.00     0.010 A 
BRANCH  30  33
HETATM   33  C18 UNL     1      27.082  23.858  11.539  1.00  0.00     0.120 C 
HETATM   34  N6  UNL     1      26.457  22.910  10.954  1.00  0.00    -0.387 N 
ATOM     35  H62 UNL     1      26.128  22.094  11.471  1.00  0.00     0.157 HD
ATOM     36  H61 UNL     1      26.279  22.973   9.952  1.00  0.00     0.157 HD
HETATM   37  N7  UNL     1      27.532  24.977  10.831  1.00  0.00    -0.082 NA
ENDBRANCH  30  33
ENDBRANCH  26  27
ENDBRANCH   1  26
TORSDOF 16
ENDMDL
MODEL 3
REMARK VINA RESULT: -5.757452992      2.720      5.753
REMARK  16 active torsions:
REMARK  status: ('A' for Active; 'I' for Inactive)
REMARK    1  A    between atoms: N1_2  and  C3_5 
REMARK    2  A    between atoms: C3_5  and  C4_6 
REMARK    3  A    between atoms: C4_6  and  N2_7 
REMARK    4  A    between atoms: N2_7  and  C5_9 
REMARK    5  A    between atoms: C5_9  and  C6_13 
REMARK    6  A    between atoms: C6_13  and  C7_14 
REMARK    7  A    between atoms: C6_13  and  N4_17 
REMARK    8  A    between atoms: C7_14  and  C8_15 
REMARK    9  A    between atoms: N4_17  and  C9_18 
REMARK   10  A    between atoms: N4_17  and  C13_26 
REMARK   11  A    between atoms: C9_18  and  C10_19 
REMARK   12  A    between atoms: C10_19  and  C11_20 
REMARK   13  A    between atoms: C11_20  and  C12_21 
REMARK   14  A    between atoms: C12_21  and  N5_22 
REMARK   15  A    between atoms: C13_26  and  C14_27 
REMARK   16  A    between atoms: C17_30  and  C18_31 
ROOT
HETATM    1  N4  UNL     1      27.240  24.094  13.631  1.00  0.00     0.104 N 
ENDROOT
BRANCH   1   2
HETATM    2  C6  UNL     1      27.307  22.720  13.268  1.00  0.00     0.295 C 
BRANCH   2   3
HETATM    3  C5  UNL     1      25.906  22.120  13.404  1.00  0.00     0.105 C 
HETATM    4  N3  UNL     1      25.035  22.385  12.505  1.00  0.00    -0.387 N 
ATOM      5  H32 UNL     1      24.101  21.985  12.596  1.00  0.00     0.157 HD
ATOM      6  H31 UNL     1      25.292  22.985  11.722  1.00  0.00     0.157 HD
BRANCH   3   7
HETATM    7  N2  UNL     1      25.552  21.295  14.481  1.00  0.00    -0.376 N 
ATOM      8  H2  UNL     1      25.250  21.782  15.325  1.00  0.00     0.160 HD
BRANCH   7   9
HETATM    9  C4  UNL     1      25.555  19.881  14.563  1.00  0.00     0.157 C 
BRANCH   9  10
HETATM   10  C3  UNL     1      26.927  19.247  14.670  1.00  0.00     0.330 C 
BRANCH  10  11
HETATM   11  N1  UNL     1      26.838  17.823  14.852  1.00  0.00     0.007 N 
HETATM   12  C1  UNL     1      27.397  17.389  16.117  1.00  0.00     0.355 C 
HETATM   13  C2  UNL     1      25.473  17.335  14.810  1.00  0.00     0.355 C 
HETATM   14  O1  UNL     1      27.528  17.144  13.890  1.00  0.00    -0.065 OA
ENDBRANCH  10  11
ENDBRANCH   9  10
ENDBRANCH   7   9
ENDBRANCH   3   7
ENDBRANCH   2   3
BRANCH   2  15
HETATM   15  C7  UNL     1      27.663  22.437  11.852  1.00  0.00     0.113 C 
BRANCH  15  16
HETATM   16  C8  UNL     1      28.194  21.099  11.559  1.00  0.00     0.233 C 
HETATM   17  O2  UNL     1      29.211  20.944  10.875  1.00  0.00    -0.307 OA
ENDBRANCH  15  16
ENDBRANCH   2  15
ENDBRANCH   1   2
BRANCH   1  18
HETATM   18  C9  UNL     1      27.514  25.031  12.614  1.00  0.00     0.274 C 
BRANCH  18  19
HETATM   19  C10 UNL     1      26.612  26.245  12.567  1.00  0.00     0.032 C 
BRANCH  19  20
HETATM   20  C11 UNL     1      27.293  27.270  11.677  1.00  0.00     0.029 C 
BRANCH  20  21
HETATM   21  C12 UNL     1      26.205  28.102  10.994  1.00  0.00     0.229 C 
BRANCH  21  22
HETATM   22  N5  UNL     1      26.882  28.982  10.071  1.00  0.00    -0.079 N 
ATOM     23  H53 UNL     1      26.301  29.263   9.281  1.00  0.00     0.274 HD
ATOM     24  H52 UNL     1      27.042  29.916  10.447  1.00  0.00     0.274 HD
ATOM     25  H51 UNL     1      27.739  28.505   9.792  1.00  0.00     0.274 HD
ENDBRANCH  21  22
ENDBRANCH  20  21
ENDBRANCH  19  20
ENDBRANCH  18  19
ENDBRANCH   1  18
BRANCH   1  26
HETATM   26  C13 UNL     1      28.014  24.390  14.819  1.00  0.00     0.312 C 
BRANCH  26  27
HETATM   27  C14 UNL     1      27.279  24.210  16.085  1.00  0.00    -0.030 A 
HETATM   28  C15 UNL     1      26.476  25.176  16.642  1.00  0.00     0.010 A 
HETATM   29  C16 UNL     1      25.823  24.932  17.845  1.00  0.00     0.015 A 
HETATM   30  C17 UNL     1      25.954  23.735  18.509  1.00  0.00     0.004 A 
HETATM   31  C19 UNL     1      26.761  22.740  17.967  1.00  0.00     0.015 A 
HETATM   32  C20 UNL     1      27.389  23.008  16.789  1.00  0.00     0.010 A 
BRANCH  30  33
HETATM   33  C18 UNL     1      25.251  23.514  19.777  1.00  0.00     0.120 C 
HETATM   34  N6  UNL     1      24.128  22.904  19.771  1.00  0.00    -0.387 N 
ATOM     35  H62 UNL     1      23.714  22.564  18.903  1.00  0.00     0.157 HD
ATOM     36  H61 UNL     1      23.639  22.750  20.653  1.00  0.00     0.157 HD
HETATM   37  N7  UNL     1      25.818  23.980  20.968  1.00  0.00    -0.082 NA
ENDBRANCH  30  33
ENDBRANCH  26  27
ENDBRANCH   1  26
TORSDOF 16
ENDMDL
MODEL 4
REMARK VINA RESULT: -5.666545131      2.078      2.826
REMARK  16 active torsions:
REMARK  status: ('A' for Active; 'I' for Inactive)
REMARK    1  A    between atoms: N1_2  and  C3_5 
REMARK    2  A    between atoms: C3_5  and  C4_6 
REMARK    3  A    between atoms: C4_6  and  N2_7 
REMARK    4  A    between atoms: N2_7  and  C5_9 
REMARK    5  A    between atoms: C5_9  and  C6_13 
REMARK    6  A    between atoms: C6_13  and  C7_14 
REMARK    7  A    between atoms: C6_13  and  N4_17 
REMARK    8  A    between atoms: C7_14  and  C8_15 
REMARK    9  A    between atoms: N4_17  and  C9_18 
REMARK   10  A    between atoms: N4_17  and  C13_26 
REMARK   11  A    between atoms: C9_18  and  C10_19 
REMARK   12  A    between atoms: C10_19  and  C11_20 
REMARK   13  A    between atoms: C11_20  and  C12_21 
REMARK   14  A    between atoms: C12_21  and  N5_22 
REMARK   15  A    between atoms: C13_26  and  C14_27 
REMARK   16  A    between atoms: C17_30  and  C18_31 
ROOT
HETATM    1  N4  UNL     1      27.360  23.672  14.406  1.00  0.00     0.104 N 
ENDROOT
BRANCH   1   2
HETATM    2  C6  UNL     1      26.780  23.952  15.676  1.00  0.00     0.295 C 
BRANCH   2   3
HETATM    3  C5  UNL     1      26.735  22.651  16.479  1.00  0.00     0.105 C 
HETATM    4  N3  UNL     1      27.828  22.191  16.964  1.00  0.00    -0.387 N 
ATOM      5  H32 UNL     1      27.797  21.324  17.500  1.00  0.00     0.157 HD
ATOM      6  H31 UNL     1      28.697  22.700  16.806  1.00  0.00     0.157 HD
BRANCH   3   7
HETATM    7  N2  UNL     1      25.540  21.951  16.695  1.00  0.00    -0.376 N 
ATOM      8  H2  UNL     1      25.094  21.578  15.858  1.00  0.00     0.160 HD
BRANCH   7   9
HETATM    9  C4  UNL     1      24.865  21.690  17.913  1.00  0.00     0.157 C 
BRANCH   9  10
HETATM   10  C3  UNL     1      24.735  22.880  18.842  1.00  0.00     0.330 C 
BRANCH  10  11
HETATM   11  N1  UNL     1      25.497  22.693  20.048  1.00  0.00     0.007 N 
HETATM   12  C1  UNL     1      25.960  23.946  20.612  1.00  0.00     0.355 C 
HETATM   13  C2  UNL     1      24.746  22.020  21.089  1.00  0.00     0.355 C 
HETATM   14  O1  UNL     1      26.620  21.949  19.829  1.00  0.00    -0.065 OA
ENDBRANCH  10  11
ENDBRANCH   9  10
ENDBRANCH   7   9
ENDBRANCH   3   7
ENDBRANCH   2   3
BRANCH   2  15
HETATM   15  C7  UNL     1      27.552  24.870  16.555  1.00  0.00     0.113 C 
BRANCH  15  16
HETATM   16  C8  UNL     1      26.777  25.684  17.501  1.00  0.00     0.233 C 
HETATM   17  O2  UNL     1      25.692  26.183  17.185  1.00  0.00    -0.307 OA
ENDBRANCH  15  16
ENDBRANCH   2  15
ENDBRANCH   1   2
BRANCH   1  18
HETATM   18  C9  UNL     1      27.810  24.779  13.659  1.00  0.00     0.274 C 
BRANCH  18  19
HETATM   19  C10 UNL     1      26.780  25.448  12.776  1.00  0.00     0.032 C 
BRANCH  19  20
HETATM   20  C11 UNL     1      27.383  25.545  11.385  1.00  0.00     0.029 C 
BRANCH  20  21
HETATM   21  C12 UNL     1      27.231  26.990  10.902  1.00  0.00     0.229 C 
BRANCH  21  22
HETATM   22  N5  UNL     1      26.203  27.589  11.720  1.00  0.00    -0.079 N 
ATOM     23  H53 UNL     1      25.260  27.423  11.369  1.00  0.00     0.274 HD
ATOM     24  H52 UNL     1      26.085  27.129  12.622  1.00  0.00     0.274 HD
ATOM     25  H51 UNL     1      26.437  28.579  11.798  1.00  0.00     0.274 HD
ENDBRANCH  21  22
ENDBRANCH  20  21
ENDBRANCH  19  20
ENDBRANCH  18  19
ENDBRANCH   1  18
BRANCH   1  26
HETATM   26  C13 UNL     1      26.522  22.815  13.594  1.00  0.00     0.312 C 
BRANCH  26  27
HETATM   27  C14 UNL     1      27.232  21.681  12.972  1.00  0.00    -0.030 A 
HETATM   28  C15 UNL     1      27.742  21.710  11.697  1.00  0.00     0.010 A 
HETATM   29  C16 UNL     1      28.392  20.595  11.179  1.00  0.00     0.015 A 
HETATM   30  C17 UNL     1      28.545  19.442  11.913  1.00  0.00     0.004 A 
HETATM   31  C19 UNL     1      28.037  19.387  13.207  1.00  0.00     0.015 A 
HETATM   32  C20 UNL     1      27.406  20.493  13.687  1.00  0.00     0.010 A 
BRANCH  30  33
HETATM   33  C18 UNL     1      29.235  18.284  11.333  1.00  0.00     0.120 C 
HETATM   34  N6  UNL     1      29.676  17.368  12.106  1.00  0.00    -0.387 N 
ATOM     35  H62 UNL     1      29.553  17.423  13.117  1.00  0.00     0.157 HD
ATOM     36  H61 UNL     1      30.155  16.563  11.704  1.00  0.00     0.157 HD
HETATM   37  N7  UNL     1      29.403  18.209   9.946  1.00  0.00    -0.082 NA
ENDBRANCH  30  33
ENDBRANCH  26  27
ENDBRANCH   1  26
TORSDOF 16
ENDMDL
MODEL 5
REMARK VINA RESULT: -5.644101568      2.375      5.823
REMARK  16 active torsions:
REMARK  status: ('A' for Active; 'I' for Inactive)
REMARK    1  A    between atoms: N1_2  and  C3_5 
REMARK    2  A    between atoms: C3_5  and  C4_6 
REMARK    3  A    between atoms: C4_6  and  N2_7 
REMARK    4  A    between atoms: N2_7  and  C5_9 
REMARK    5  A    between atoms: C5_9  and  C6_13 
REMARK    6  A    between atoms: C6_13  and  C7_14 
REMARK    7  A    between atoms: C6_13  and  N4_17 
REMARK    8  A    between atoms: C7_14  and  C8_15 
REMARK    9  A    between atoms: N4_17  and  C9_18 
REMARK   10  A    between atoms: N4_17  and  C13_26 
REMARK   11  A    between atoms: C9_18  and  C10_19 
REMARK   12  A    between atoms: C10_19  and  C11_20 
REMARK   13  A    between atoms: C11_20  and  C12_21 
REMARK   14  A    between atoms: C12_21  and  N5_22 
REMARK   15  A    between atoms: C13_26  and  C14_27 
REMARK   16  A    between atoms: C17_30  and  C18_31 
ROOT
HETATM    1  N4  UNL     1      26.793  20.467  14.347  1.00  0.00     0.104 N 
ENDROOT
BRANCH   1   2
HETATM    2  C6  UNL     1      27.468  21.353  15.234  1.00  0.00     0.295 C 
BRANCH   2   3
HETATM    3  C5  UNL     1      27.200  22.787  14.773  1.00  0.00     0.105 C 
HETATM    4  N3  UNL     1      26.515  23.558  15.533  1.00  0.00    -0.387 N 
ATOM      5  H32 UNL     1      26.337  24.514  15.226  1.00  0.00     0.157 HD
ATOM      6  H31 UNL     1      26.167  23.201  16.423  1.00  0.00     0.157 HD
BRANCH   3   7
HETATM    7  N2  UNL     1      27.677  23.277  13.550  1.00  0.00    -0.376 N 
ATOM      8  H2  UNL     1      28.688  23.229  13.423  1.00  0.00     0.160 HD
BRANCH   7   9
HETATM    9  C4  UNL     1      26.954  23.829  12.464  1.00  0.00     0.157 C 
BRANCH   9  10
HETATM   10  C3  UNL     1      26.591  25.293  12.614  1.00  0.00     0.330 C 
BRANCH  10  11
HETATM   11  N1  UNL     1      27.335  26.117  11.699  1.00  0.00     0.007 N 
HETATM   12  C1  UNL     1      26.582  27.275  11.258  1.00  0.00     0.355 C 
HETATM   13  C2  UNL     1      28.570  26.617  12.270  1.00  0.00     0.355 C 
HETATM   14  O1  UNL     1      27.671  25.440  10.563  1.00  0.00    -0.065 OA
ENDBRANCH  10  11
ENDBRANCH   9  10
ENDBRANCH   7   9
ENDBRANCH   3   7
ENDBRANCH   2   3
BRANCH   2  15
HETATM   15  C7  UNL     1      26.992  21.352  16.642  1.00  0.00     0.113 C 
BRANCH  15  16
HETATM   16  C8  UNL     1      28.022  21.426  17.687  1.00  0.00     0.233 C 
HETATM   17  O2  UNL     1      28.840  22.352  17.723  1.00  0.00    -0.307 OA
ENDBRANCH  15  16
ENDBRANCH   2  15
ENDBRANCH   1   2
BRANCH   1  18
HETATM   18  C9  UNL     1      25.439  20.197  14.633  1.00  0.00     0.274 C 
BRANCH  18  19
HETATM   19  C10 UNL     1      25.093  18.749  14.903  1.00  0.00     0.032 C 
BRANCH  19  20
HETATM   20  C11 UNL     1      24.337  18.712  16.220  1.00  0.00     0.029 C 
BRANCH  20  21
HETATM   21  C12 UNL     1      23.259  19.797  16.180  1.00  0.00     0.229 C 
BRANCH  21  22
HETATM   22  N5  UNL     1      21.990  19.117  16.276  1.00  0.00    -0.079 N 
ATOM     23  H53 UNL     1      21.708  18.662  15.408  1.00  0.00     0.274 HD
ATOM     24  H52 UNL     1      22.024  18.277  16.853  1.00  0.00     0.274 HD
ATOM     25  H51 UNL     1      21.316  19.808  16.608  1.00  0.00     0.274 HD
ENDBRANCH  21  22
ENDBRANCH  20  21
ENDBRANCH  19  20
ENDBRANCH  18  19
ENDBRANCH   1  18
BRANCH   1  26
HETATM   26  C13 UNL     1      27.524  19.235  14.135  1.00  0.00     0.312 C 
BRANCH  26  27
HETATM   27  C14 UNL     1      28.193  19.143  12.823  1.00  0.00    -0.030 A 
HETATM   28  C15 UNL     1      28.185  20.154  11.893  1.00  0.00     0.010 A 
HETATM   29  C16 UNL     1      28.831  19.987  10.674  1.00  0.00     0.015 A 
HETATM   30  C17 UNL     1      29.492  18.822  10.360  1.00  0.00     0.004 A 
HETATM   31  C19 UNL     1      29.515  17.782  11.284  1.00  0.00     0.015 A 
HETATM   32  C20 UNL     1      28.873  17.975  12.469  1.00  0.00     0.010 A 
BRANCH  30  33
HETATM   33  C18 UNL     1      30.162  18.680   9.063  1.00  0.00     0.120 C 
HETATM   34  N6  UNL     1      31.352  19.123   8.922  1.00  0.00    -0.387 N 
ATOM     35  H62 UNL     1      31.846  19.569   9.695  1.00  0.00     0.157 HD
ATOM     36  H61 UNL     1      31.818  19.024   8.020  1.00  0.00     0.157 HD
HETATM   37  N7  UNL     1      29.484  18.068   8.003  1.00  0.00    -0.082 NA
ENDBRANCH  30  33
ENDBRANCH  26  27
ENDBRANCH   1  26
TORSDOF 16
ENDMDL
