MODEL 1
REMARK VINA RESULT: -7.288115752      0.000      0.000
REMARK  3 active torsions:
REMARK  status: ('A' for Active; 'I' for Inactive)
REMARK       I    between atoms: N1_2  and  C3_4 
REMARK    1  A    between atoms: C3_4  and  C4_6 
REMARK    2  A    between atoms: C4_6  and  C5_7 
REMARK       I    between atoms: N2_11  and  C7_12 
REMARK       I    between atoms: C7_12  and  N4_19 
REMARK    3  A    between atoms: N3_13  and  C8_15 
ROOT
HETATM    1  C5  UNL     1      14.290  10.356   0.683  1.00  0.00     0.139 C 
HETATM    2  C6  UNL     1      13.122  11.055   0.046  1.00  0.00     0.160 C 
HETATM    3  S1  UNL     1      14.332  11.967  -0.840  1.00  0.00     0.133 S 
HETATM    4  O2  UNL     1      13.864  12.193  -2.430  1.00  0.00    -0.235 OA
HETATM    5  N2  UNL     1      14.995  10.368  -0.543  1.00  0.00    -0.123 N 
HETATM    6  C7  UNL     1      15.885   9.655  -1.402  1.00  0.00     0.698 C 
HETATM    7  N3  UNL     1      15.614   9.536  -2.632  1.00  0.00    -0.217 N 
ATOM      8  H3  UNL     1      14.743   9.976  -2.929  1.00  0.00     0.178 HD
HETATM    9  N4  UNL     1      17.070   9.102  -0.858  1.00  0.00    -0.125 N 
ATOM     10  H4  UNL     1      17.916   9.669  -0.915  1.00  0.00     0.197 HD
HETATM   11  C12 UNL     1      17.185   7.856  -0.252  1.00  0.00     0.196 C 
HETATM   12  N5  UNL     1      17.259   6.822   0.245  1.00  0.00    -0.171 NA
ENDROOT
BRANCH   7  13
HETATM   13  C8  UNL     1      16.343   8.878  -3.661  1.00  0.00     0.036 C 
HETATM   14  C9  UNL     1      15.829   9.269  -5.053  1.00  0.00     0.038 C 
HETATM   15  C10 UNL     1      17.819   9.234  -3.663  1.00  0.00     0.038 C 
HETATM   16  C11 UNL     1      16.253   7.375  -3.566  1.00  0.00     0.038 C 
ENDBRANCH   7  13
BRANCH   1  17
HETATM   17  C4  UNL     1      14.014   9.094   1.406  1.00  0.00     0.130 C 
BRANCH  17  18
HETATM   18  C3  UNL     1      14.955   8.699   2.456  1.00  0.00     0.221 C 
HETATM   19  N1  UNL     1      14.600   7.772   3.495  1.00  0.00    -0.361 N 
HETATM   20  C1  UNL     1      13.265   7.180   3.539  1.00  0.00     0.152 C 
HETATM   21  C2  UNL     1      15.556   7.405   4.517  1.00  0.00     0.152 C 
HETATM   22  O1  UNL     1      16.110   9.165   2.479  1.00  0.00    -0.273 OA
ENDBRANCH  17  18
ENDBRANCH   1  17
TORSDOF 3
ENDMDL
MODEL 2
REMARK VINA RESULT: -7.285966387      1.916      5.936
REMARK  3 active torsions:
REMARK  status: ('A' for Active; 'I' for Inactive)
REMARK       I    between atoms: N1_2  and  C3_4 
REMARK    1  A    between atoms: C3_4  and  C4_6 
REMARK    2  A    between atoms: C4_6  and  C5_7 
REMARK       I    between atoms: N2_11  and  C7_12 
REMARK       I    between atoms: C7_12  and  N4_19 
REMARK    3  A    between atoms: N3_13  and  C8_15 
ROOT
HETATM    1  C5  UNL     1      13.682  10.645  -0.271  1.00  0.00     0.139 C 
HETATM    2  C6  UNL     1      13.323  11.979   0.320  1.00  0.00     0.160 C 
HETATM    3  S1  UNL     1      12.065  11.102   1.174  1.00  0.00     0.133 S 
HETATM    4  O2  UNL     1      11.916  11.652   2.748  1.00  0.00    -0.235 OA
HETATM    5  N2  UNL     1      13.416  10.002   0.959  1.00  0.00    -0.123 N 
HETATM    6  C7  UNL     1      13.805   8.964   1.860  1.00  0.00     0.698 C 
HETATM    7  N3  UNL     1      13.946   9.218   3.091  1.00  0.00    -0.217 N 
ATOM      8  H3  UNL     1      13.763  10.185   3.359  1.00  0.00     0.178 HD
HETATM    9  N4  UNL     1      14.016   7.658   1.354  1.00  0.00    -0.125 N 
ATOM     10  H4  UNL     1      13.228   7.013   1.393  1.00  0.00     0.197 HD
HETATM   11  C12 UNL     1      15.201   7.177   0.808  1.00  0.00     0.196 C 
HETATM   12  N5  UNL     1      16.190   6.798   0.362  1.00  0.00    -0.171 NA
ENDROOT
BRANCH   7  13
HETATM   13  C8  UNL     1      14.322   8.355   4.158  1.00  0.00     0.036 C 
HETATM   14  C9  UNL     1      14.008   8.978   5.524  1.00  0.00     0.038 C 
HETATM   15  C10 UNL     1      13.579   7.030   4.139  1.00  0.00     0.038 C 
HETATM   16  C11 UNL     1      15.796   8.032   4.150  1.00  0.00     0.038 C 
ENDBRANCH   7  13
BRANCH   1  17
HETATM   17  C4  UNL     1      15.000  10.530  -0.937  1.00  0.00     0.130 C 
BRANCH  17  18
HETATM   18  C3  UNL     1      15.006  10.326  -2.386  1.00  0.00     0.221 C 
HETATM   19  N1  UNL     1      16.039   9.578  -3.051  1.00  0.00    -0.361 N 
HETATM   20  C1  UNL     1      17.135   8.985  -2.288  1.00  0.00     0.152 C 
HETATM   21  C2  UNL     1      16.014   9.396  -4.486  1.00  0.00     0.152 C 
HETATM   22  O1  UNL     1      14.102  10.804  -3.097  1.00  0.00    -0.273 OA
ENDBRANCH  17  18
ENDBRANCH   1  17
TORSDOF 3
ENDMDL
MODEL 3
REMARK VINA RESULT: -7.275958825      2.504      6.271
REMARK  3 active torsions:
REMARK  status: ('A' for Active; 'I' for Inactive)
REMARK       I    between atoms: N1_2  and  C3_4 
REMARK    1  A    between atoms: C3_4  and  C4_6 
REMARK    2  A    between atoms: C4_6  and  C5_7 
REMARK       I    between atoms: N2_11  and  C7_12 
REMARK       I    between atoms: C7_12  and  N4_19 
REMARK    3  A    between atoms: N3_13  and  C8_15 
ROOT
HETATM    1  C5  UNL     1      16.095   9.911  -0.030  1.00  0.00     0.139 C 
HETATM    2  C6  UNL     1      16.337   8.458  -0.327  1.00  0.00     0.160 C 
HETATM    3  S1  UNL     1      15.721   8.170   1.291  1.00  0.00     0.133 S 
HETATM    4  O2  UNL     1      14.737   6.817   1.324  1.00  0.00    -0.235 OA
HETATM    5  N2  UNL     1      14.906   9.594   0.666  1.00  0.00    -0.123 N 
HETATM    6  C7  UNL     1      13.567   9.992   0.962  1.00  0.00     0.698 C 
HETATM    7  N3  UNL     1      12.623   9.157   0.857  1.00  0.00    -0.217 N 
ATOM      8  H3  UNL     1      12.901   8.222   0.557  1.00  0.00     0.178 HD
HETATM    9  N4  UNL     1      13.322  11.323   1.382  1.00  0.00    -0.125 N 
ATOM     10  H4  UNL     1      13.298  11.495   2.387  1.00  0.00     0.197 HD
HETATM   11  C12 UNL     1      13.112  12.415   0.548  1.00  0.00     0.196 C 
HETATM   12  N5  UNL     1      12.940  13.306  -0.158  1.00  0.00    -0.171 NA
ENDROOT
BRANCH   7  13
HETATM   13  C8  UNL     1      11.230   9.327   1.095  1.00  0.00     0.036 C 
HETATM   14  C9  UNL     1      10.517   7.978   1.257  1.00  0.00     0.038 C 
HETATM   15  C10 UNL     1      10.936  10.092   2.373  1.00  0.00     0.038 C 
HETATM   16  C11 UNL     1      10.535  10.059  -0.026  1.00  0.00     0.038 C 
ENDBRANCH   7  13
BRANCH   1  17
HETATM   17  C4  UNL     1      16.096  10.848  -1.176  1.00  0.00     0.130 C 
BRANCH  17  18
HETATM   18  C3  UNL     1      15.366  10.443  -2.378  1.00  0.00     0.221 C 
HETATM   19  N1  UNL     1      16.019   9.831  -3.503  1.00  0.00    -0.361 N 
HETATM   20  C1  UNL     1      17.459   9.587  -3.483  1.00  0.00     0.152 C 
HETATM   21  C2  UNL     1      15.265   9.443  -4.675  1.00  0.00     0.152 C 
HETATM   22  O1  UNL     1      14.136  10.622  -2.462  1.00  0.00    -0.273 OA
ENDBRANCH  17  18
ENDBRANCH   1  17
TORSDOF 3
ENDMDL
MODEL 4
REMARK VINA RESULT: -7.149995792      1.071      1.157
REMARK  3 active torsions:
REMARK  status: ('A' for Active; 'I' for Inactive)
REMARK       I    between atoms: N1_2  and  C3_4 
REMARK    1  A    between atoms: C3_4  and  C4_6 
REMARK    2  A    between atoms: C4_6  and  C5_7 
REMARK       I    between atoms: N2_11  and  C7_12 
REMARK       I    between atoms: C7_12  and  N4_19 
REMARK    3  A    between atoms: N3_13  and  C8_15 
ROOT
HETATM    1  C5  UNL     1      14.191  10.383   0.616  1.00  0.00     0.139 C 
HETATM    2  C6  UNL     1      13.050  11.074  -0.076  1.00  0.00     0.160 C 
HETATM    3  S1  UNL     1      14.297  11.977  -0.921  1.00  0.00     0.133 S 
HETATM    4  O2  UNL     1      13.895  12.185  -2.532  1.00  0.00    -0.235 OA
HETATM    5  N2  UNL     1      14.946  10.382  -0.579  1.00  0.00    -0.123 N 
HETATM    6  C7  UNL     1      15.871   9.659  -1.393  1.00  0.00     0.698 C 
HETATM    7  N3  UNL     1      15.650   9.526  -2.632  1.00  0.00    -0.217 N 
ATOM      8  H3  UNL     1      14.793   9.963  -2.970  1.00  0.00     0.178 HD
HETATM    9  N4  UNL     1      17.032   9.112  -0.794  1.00  0.00    -0.125 N 
ATOM     10  H4  UNL     1      17.879   9.678  -0.823  1.00  0.00     0.197 HD
HETATM   11  C12 UNL     1      17.121   7.873  -0.171  1.00  0.00     0.196 C 
HETATM   12  N5  UNL     1      17.174   6.844   0.340  1.00  0.00    -0.171 NA
ENDROOT
BRANCH   7  13
HETATM   13  C8  UNL     1      16.421   8.856  -3.623  1.00  0.00     0.036 C 
HETATM   14  C9  UNL     1      15.967   9.234  -5.039  1.00  0.00     0.038 C 
HETATM   15  C10 UNL     1      17.897   9.209  -3.566  1.00  0.00     0.038 C 
HETATM   16  C11 UNL     1      16.323   7.354  -3.517  1.00  0.00     0.038 C 
ENDBRANCH   7  13
BRANCH   1  17
HETATM   17  C4  UNL     1      13.885   9.129   1.341  1.00  0.00     0.130 C 
BRANCH  17  18
HETATM   18  C3  UNL     1      13.516   9.240   2.753  1.00  0.00     0.221 C 
HETATM   19  N1  UNL     1      14.230   8.545   3.790  1.00  0.00    -0.361 N 
HETATM   20  C1  UNL     1      15.368   7.690   3.463  1.00  0.00     0.152 C 
HETATM   21  C2  UNL     1      13.836   8.679   5.176  1.00  0.00     0.152 C 
HETATM   22  O1  UNL     1      12.556   9.952   3.102  1.00  0.00    -0.273 OA
ENDBRANCH  17  18
ENDBRANCH   1  17
TORSDOF 3
ENDMDL
MODEL 5
REMARK VINA RESULT: -6.937256526      3.223      6.673
REMARK  3 active torsions:
REMARK  status: ('A' for Active; 'I' for Inactive)
REMARK       I    between atoms: N1_2  and  C3_4 
REMARK    1  A    between atoms: C3_4  and  C4_6 
REMARK    2  A    between atoms: C4_6  and  C5_7 
REMARK       I    between atoms: N2_11  and  C7_12 
REMARK       I    between atoms: C7_12  and  N4_19 
REMARK    3  A    between atoms: N3_13  and  C8_15 
ROOT
HETATM    1  C5  UNL     1      15.344   7.814   2.463  1.00  0.00     0.139 C 
HETATM    2  C6  UNL     1      15.320   6.525   3.235  1.00  0.00     0.160 C 
HETATM    3  S1  UNL     1      14.747   7.503   4.576  1.00  0.00     0.133 S 
HETATM    4  O2  UNL     1      13.551   6.704   5.430  1.00  0.00    -0.235 OA
HETATM    5  N2  UNL     1      14.155   8.241   3.097  1.00  0.00    -0.123 N 
HETATM    6  C7  UNL     1      12.920   8.942   2.944  1.00  0.00     0.698 C 
HETATM    7  N3  UNL     1      11.843   8.418   3.353  1.00  0.00    -0.217 N 
ATOM      8  H3  UNL     1      11.943   7.496   3.779  1.00  0.00     0.178 HD
HETATM    9  N4  UNL     1      12.926  10.225   2.344  1.00  0.00    -0.125 N 
ATOM     10  H4  UNL     1      12.982  11.029   2.969  1.00  0.00     0.197 HD
HETATM   11  C12 UNL     1      12.863  10.487   0.981  1.00  0.00     0.196 C 
HETATM   12  N5  UNL     1      12.809  10.684  -0.151  1.00  0.00    -0.171 NA
ENDROOT
BRANCH   7  13
HETATM   13  C8  UNL     1      10.514   8.923   3.307  1.00  0.00     0.036 C 
HETATM   14  C9  UNL     1       9.581   8.141   4.242  1.00  0.00     0.038 C 
HETATM   15  C10 UNL     1      10.413  10.370   3.756  1.00  0.00     0.038 C 
HETATM   16  C11 UNL     1       9.913   8.848   1.925  1.00  0.00     0.038 C 
ENDBRANCH   7  13
BRANCH   1  17
HETATM   17  C4  UNL     1      15.446   7.720   0.989  1.00  0.00     0.130 C 
BRANCH  17  18
HETATM   18  C3  UNL     1      16.783   7.804   0.400  1.00  0.00     0.221 C 
HETATM   19  N1  UNL     1      17.260   8.992  -0.255  1.00  0.00    -0.361 N 
HETATM   20  C1  UNL     1      16.410  10.177  -0.355  1.00  0.00     0.152 C 
HETATM   21  C2  UNL     1      18.588   9.040  -0.826  1.00  0.00     0.152 C 
HETATM   22  O1  UNL     1      17.560   6.832   0.450  1.00  0.00    -0.273 OA
ENDBRANCH  17  18
ENDBRANCH   1  17
TORSDOF 3
ENDMDL
