MODEL 1
REMARK VINA RESULT: -6.723485334      0.000      0.000
REMARK  16 active torsions:
REMARK  status: ('A' for Active; 'I' for Inactive)
REMARK    1  A    between atoms: C2_2  and  C3_3 
REMARK    2  A    between atoms: C3_3  and  C4_4 
REMARK    3  A    between atoms: C4_4  and  C5_5 
REMARK    4  A    between atoms: C4_4  and  N1_9 
REMARK    5  A    between atoms: C5_5  and  C6_6 
REMARK    6  A    between atoms: C6_6  and  S1_7 
REMARK    7  A    between atoms: N1_9  and  C8_11 
REMARK    8  A    between atoms: C9_12  and  O1_13 
REMARK    9  A    between atoms: O1_13  and  C10_14 
REMARK   10  A    between atoms: C12_17  and  C13_18 
REMARK   11  A    between atoms: C13_18  and  O3_19 
REMARK   12  A    between atoms: O3_19  and  C14_20 
REMARK   13  A    between atoms: C14_20  and  C15_21 
REMARK   14  A    between atoms: C15_21  and  C16_22 
REMARK   15  A    between atoms: C19_25  and  O4_26 
REMARK   16  A    between atoms: C20_28  and  O5_29 
ROOT
HETATM    1  C8  UNL     1      15.870  38.033  59.728  1.00  0.00     0.073 C 
HETATM    2  C9  UNL     1      16.087  36.832  60.485  1.00  0.00     0.309 C 
HETATM    3  O2  UNL     1      15.459  36.938  61.833  1.00  0.00    -0.346 OA
HETATM    4  C12 UNL     1      14.103  37.111  61.520  1.00  0.00     0.180 C 
HETATM    5  C19 UNL     1      14.017  38.609  61.386  1.00  0.00     0.183 C 
HETATM    6  C20 UNL     1      14.676  38.911  60.049  1.00  0.00     0.200 C 
ENDROOT
BRANCH   1   7
HETATM    7  N1  UNL     1      16.942  38.795  59.223  1.00  0.00    -0.360 N 
ATOM      8  H1  UNL     1      17.391  39.448  59.865  1.00  0.00     0.165 HD
BRANCH   7   9
HETATM    9  C4  UNL     1      17.440  38.735  57.934  1.00  0.00     0.006 C 
BRANCH   9  10
HETATM   10  C3  UNL     1      18.563  39.785  57.768  1.00  0.00     0.056 C 
BRANCH  10  11
HETATM   11  C2  UNL     1      19.939  39.173  57.889  1.00  0.00     0.002 C 
HETATM   12  C1  UNL     1      20.770  39.761  56.751  1.00  0.00     0.005 C 
ENDBRANCH  10  11
ENDBRANCH   9  10
BRANCH   9  13
HETATM   13  C5  UNL     1      17.670  37.552  57.128  1.00  0.00     0.008 C 
BRANCH  13  14
HETATM   14  C6  UNL     1      17.526  37.503  55.665  1.00  0.00     0.102 C 
BRANCH  14  15
HETATM   15  S1  UNL     1      16.794  35.982  55.001  1.00  0.00    -0.170 SA
HETATM   16  C7  UNL     1      16.442  34.864  56.397  1.00  0.00     0.090 C 
ENDBRANCH  14  15
ENDBRANCH  13  14
ENDBRANCH   9  13
ENDBRANCH   7   9
ENDBRANCH   1   7
BRANCH   2  17
HETATM   17  O1  UNL     1      17.356  36.517  60.886  1.00  0.00    -0.356 OA
BRANCH  17  18
HETATM   18  C10 UNL     1      18.042  35.640  60.098  1.00  0.00     0.167 C 
HETATM   19  C11 UNL     1      19.448  35.948  59.752  1.00  0.00     0.033 C 
ENDBRANCH  17  18
ENDBRANCH   2  17
BRANCH   6  20
HETATM   20  O5  UNL     1      15.083  40.227  60.085  1.00  0.00    -0.387 OA
ATOM     21  H5  UNL     1      14.470  40.727  60.611  1.00  0.00     0.210 HD
ENDBRANCH   6  20
BRANCH   5  22
HETATM   22  O4  UNL     1      14.876  39.245  62.311  1.00  0.00    -0.390 OA
ATOM     23  H4  UNL     1      14.408  39.462  63.110  1.00  0.00     0.210 HD
ENDBRANCH   5  22
BRANCH   4  24
HETATM   24  C13 UNL     1      13.152  36.421  62.396  1.00  0.00     0.202 C 
BRANCH  24  25
HETATM   25  O3  UNL     1      11.963  36.895  62.755  1.00  0.00    -0.389 OA
BRANCH  25  26
HETATM   26  C14 UNL     1      10.858  36.715  61.995  1.00  0.00     0.168 C 
BRANCH  26  27
HETATM   27  C15 UNL     1       9.658  37.503  62.543  1.00  0.00     0.030 C 
BRANCH  27  28
HETATM   28  C16 UNL     1       9.067  38.451  61.555  1.00  0.00    -0.021 C 
HETATM   29  C17 UNL     1       7.848  39.153  62.093  1.00  0.00     0.009 C 
HETATM   30  C18 UNL     1      10.105  39.485  61.159  1.00  0.00     0.009 C 
ENDBRANCH  27  28
ENDBRANCH  26  27
ENDBRANCH  25  26
ENDBRANCH  24  25
ENDBRANCH   4  24
TORSDOF 16
ENDMDL
MODEL 2
REMARK VINA RESULT: -6.584369741      2.382      4.244
REMARK  16 active torsions:
REMARK  status: ('A' for Active; 'I' for Inactive)
REMARK    1  A    between atoms: C2_2  and  C3_3 
REMARK    2  A    between atoms: C3_3  and  C4_4 
REMARK    3  A    between atoms: C4_4  and  C5_5 
REMARK    4  A    between atoms: C4_4  and  N1_9 
REMARK    5  A    between atoms: C5_5  and  C6_6 
REMARK    6  A    between atoms: C6_6  and  S1_7 
REMARK    7  A    between atoms: N1_9  and  C8_11 
REMARK    8  A    between atoms: C9_12  and  O1_13 
REMARK    9  A    between atoms: O1_13  and  C10_14 
REMARK   10  A    between atoms: C12_17  and  C13_18 
REMARK   11  A    between atoms: C13_18  and  O3_19 
REMARK   12  A    between atoms: O3_19  and  C14_20 
REMARK   13  A    between atoms: C14_20  and  C15_21 
REMARK   14  A    between atoms: C15_21  and  C16_22 
REMARK   15  A    between atoms: C19_25  and  O4_26 
REMARK   16  A    between atoms: C20_28  and  O5_29 
ROOT
HETATM    1  C8  UNL     1      18.308  38.133  58.160  1.00  0.00     0.073 C 
HETATM    2  C9  UNL     1      17.222  38.863  58.752  1.00  0.00     0.309 C 
HETATM    3  O2  UNL     1      16.111  37.942  59.127  1.00  0.00    -0.346 OA
HETATM    4  C12 UNL     1      16.727  37.092  60.056  1.00  0.00     0.180 C 
HETATM    5  C19 UNL     1      17.282  36.019  59.156  1.00  0.00     0.183 C 
HETATM    6  C20 UNL     1      18.488  36.665  58.493  1.00  0.00     0.200 C 
ENDROOT
BRANCH   1   7
HETATM    7  N1  UNL     1      18.776  38.423  56.863  1.00  0.00    -0.360 N 
ATOM      8  H1  UNL     1      18.195  38.121  56.081  1.00  0.00     0.165 HD
BRANCH   7   9
HETATM    9  C4  UNL     1      19.953  39.081  56.557  1.00  0.00     0.006 C 
BRANCH   9  10
HETATM   10  C3  UNL     1      19.693  40.605  56.510  1.00  0.00     0.056 C 
BRANCH  10  11
HETATM   11  C2  UNL     1      20.728  41.336  55.686  1.00  0.00     0.002 C 
HETATM   12  C1  UNL     1      20.410  42.823  55.824  1.00  0.00     0.005 C 
ENDBRANCH  10  11
ENDBRANCH   9  10
BRANCH   9  13
HETATM   13  C5  UNL     1      21.290  38.766  57.019  1.00  0.00     0.008 C 
BRANCH  13  14
HETATM   14  C6  UNL     1      21.934  37.454  56.862  1.00  0.00     0.102 C 
BRANCH  14  15
HETATM   15  S1  UNL     1      22.323  36.582  58.405  1.00  0.00    -0.170 SA
HETATM   16  C7  UNL     1      21.921  37.689  59.798  1.00  0.00     0.090 C 
ENDBRANCH  14  15
ENDBRANCH  13  14
ENDBRANCH   9  13
ENDBRANCH   7   9
ENDBRANCH   1   7
BRANCH   2  17
HETATM   17  O1  UNL     1      16.502  39.731  57.978  1.00  0.00    -0.356 OA
BRANCH  17  18
HETATM   18  C10 UNL     1      15.947  40.799  58.621  1.00  0.00     0.167 C 
HETATM   19  C11 UNL     1      16.674  42.089  58.609  1.00  0.00     0.033 C 
ENDBRANCH  17  18
ENDBRANCH   2  17
BRANCH   6  20
HETATM   20  O5  UNL     1      18.735  35.967  57.330  1.00  0.00    -0.387 OA
ATOM     21  H5  UNL     1      19.240  35.189  57.537  1.00  0.00     0.210 HD
ENDBRANCH   6  20
BRANCH   5  22
HETATM   22  O4  UNL     1      16.414  35.780  58.066  1.00  0.00    -0.390 OA
ATOM     23  H4  UNL     1      16.652  34.978  57.616  1.00  0.00     0.210 HD
ENDBRANCH   5  22
BRANCH   4  24
HETATM   24  C13 UNL     1      15.905  36.699  61.205  1.00  0.00     0.202 C 
BRANCH  24  25
HETATM   25  O3  UNL     1      15.131  37.522  61.905  1.00  0.00    -0.389 OA
BRANCH  25  26
HETATM   26  C14 UNL     1      13.929  37.138  62.395  1.00  0.00     0.168 C 
BRANCH  26  27
HETATM   27  C15 UNL     1      12.791  37.433  61.406  1.00  0.00     0.030 C 
BRANCH  27  28
HETATM   28  C16 UNL     1      11.472  37.651  62.065  1.00  0.00    -0.021 C 
HETATM   29  C17 UNL     1      10.642  38.688  61.353  1.00  0.00     0.009 C 
HETATM   30  C18 UNL     1      10.704  36.342  62.111  1.00  0.00     0.009 C 
ENDBRANCH  27  28
ENDBRANCH  26  27
ENDBRANCH  25  26
ENDBRANCH  24  25
ENDBRANCH   4  24
TORSDOF 16
ENDMDL
MODEL 3
REMARK VINA RESULT: -6.565223971      2.092      3.833
REMARK  16 active torsions:
REMARK  status: ('A' for Active; 'I' for Inactive)
REMARK    1  A    between atoms: C2_2  and  C3_3 
REMARK    2  A    between atoms: C3_3  and  C4_4 
REMARK    3  A    between atoms: C4_4  and  C5_5 
REMARK    4  A    between atoms: C4_4  and  N1_9 
REMARK    5  A    between atoms: C5_5  and  C6_6 
REMARK    6  A    between atoms: C6_6  and  S1_7 
REMARK    7  A    between atoms: N1_9  and  C8_11 
REMARK    8  A    between atoms: C9_12  and  O1_13 
REMARK    9  A    between atoms: O1_13  and  C10_14 
REMARK   10  A    between atoms: C12_17  and  C13_18 
REMARK   11  A    between atoms: C13_18  and  O3_19 
REMARK   12  A    between atoms: O3_19  and  C14_20 
REMARK   13  A    between atoms: C14_20  and  C15_21 
REMARK   14  A    between atoms: C15_21  and  C16_22 
REMARK   15  A    between atoms: C19_25  and  O4_26 
REMARK   16  A    between atoms: C20_28  and  O5_29 
ROOT
HETATM    1  C8  UNL     1      17.983  38.240  58.027  1.00  0.00     0.073 C 
HETATM    2  C9  UNL     1      16.979  38.930  58.788  1.00  0.00     0.309 C 
HETATM    3  O2  UNL     1      16.003  37.965  59.369  1.00  0.00    -0.346 OA
HETATM    4  C12 UNL     1      16.816  37.172  60.189  1.00  0.00     0.180 C 
HETATM    5  C19 UNL     1      17.263  36.105  59.225  1.00  0.00     0.183 C 
HETATM    6  C20 UNL     1      18.298  36.793  58.349  1.00  0.00     0.200 C 
ENDROOT
BRANCH   1   7
HETATM    7  N1  UNL     1      18.201  38.519  56.664  1.00  0.00    -0.360 N 
ATOM      8  H1  UNL     1      17.495  38.193  56.004  1.00  0.00     0.165 HD
BRANCH   7   9
HETATM    9  C4  UNL     1      19.287  39.197  56.140  1.00  0.00     0.006 C 
BRANCH   9  10
HETATM   10  C3  UNL     1      20.189  39.692  57.295  1.00  0.00     0.056 C 
BRANCH  10  11
HETATM   11  C2  UNL     1      21.527  38.988  57.315  1.00  0.00     0.002 C 
HETATM   12  C1  UNL     1      21.695  38.433  58.728  1.00  0.00     0.005 C 
ENDBRANCH  10  11
ENDBRANCH   9  10
BRANCH   9  13
HETATM   13  C5  UNL     1      20.048  38.866  54.951  1.00  0.00     0.008 C 
BRANCH  13  14
HETATM   14  C6  UNL     1      19.611  39.161  53.578  1.00  0.00     0.102 C 
BRANCH  14  15
HETATM   15  S1  UNL     1      18.865  37.774  52.679  1.00  0.00    -0.170 SA
HETATM   16  C7  UNL     1      17.150  37.573  53.267  1.00  0.00     0.090 C 
ENDBRANCH  14  15
ENDBRANCH  13  14
ENDBRANCH   9  13
ENDBRANCH   7   9
ENDBRANCH   1   7
BRANCH   2  17
HETATM   17  O1  UNL     1      16.089  39.740  58.138  1.00  0.00    -0.356 OA
BRANCH  17  18
HETATM   18  C10 UNL     1      15.478  40.698  58.893  1.00  0.00     0.167 C 
HETATM   19  C11 UNL     1      15.952  42.097  58.781  1.00  0.00     0.033 C 
ENDBRANCH  17  18
ENDBRANCH   2  17
BRANCH   6  20
HETATM   20  O5  UNL     1      18.376  36.078  57.173  1.00  0.00    -0.387 OA
ATOM     21  H5  UNL     1      18.276  35.153  57.366  1.00  0.00     0.210 HD
ENDBRANCH   6  20
BRANCH   5  22
HETATM   22  O4  UNL     1      16.233  35.794  58.309  1.00  0.00    -0.390 OA
ATOM     23  H4  UNL     1      15.498  35.387  58.754  1.00  0.00     0.210 HD
ENDBRANCH   5  22
BRANCH   4  24
HETATM   24  C13 UNL     1      16.230  36.769  61.472  1.00  0.00     0.202 C 
BRANCH  24  25
HETATM   25  O3  UNL     1      14.972  36.375  61.645  1.00  0.00    -0.389 OA
BRANCH  25  26
HETATM   26  C14 UNL     1      14.051  37.158  62.253  1.00  0.00     0.168 C 
BRANCH  26  27
HETATM   27  C15 UNL     1      12.882  37.493  61.314  1.00  0.00     0.030 C 
BRANCH  27  28
HETATM   28  C16 UNL     1      11.581  37.670  62.023  1.00  0.00    -0.021 C 
HETATM   29  C17 UNL     1      10.700  38.692  61.354  1.00  0.00     0.009 C 
HETATM   30  C18 UNL     1      10.850  36.341  62.081  1.00  0.00     0.009 C 
ENDBRANCH  27  28
ENDBRANCH  26  27
ENDBRANCH  25  26
ENDBRANCH  24  25
ENDBRANCH   4  24
TORSDOF 16
ENDMDL
MODEL 4
REMARK VINA RESULT: -6.531143574      2.466      4.455
REMARK  16 active torsions:
REMARK  status: ('A' for Active; 'I' for Inactive)
REMARK    1  A    between atoms: C2_2  and  C3_3 
REMARK    2  A    between atoms: C3_3  and  C4_4 
REMARK    3  A    between atoms: C4_4  and  C5_5 
REMARK    4  A    between atoms: C4_4  and  N1_9 
REMARK    5  A    between atoms: C5_5  and  C6_6 
REMARK    6  A    between atoms: C6_6  and  S1_7 
REMARK    7  A    between atoms: N1_9  and  C8_11 
REMARK    8  A    between atoms: C9_12  and  O1_13 
REMARK    9  A    between atoms: O1_13  and  C10_14 
REMARK   10  A    between atoms: C12_17  and  C13_18 
REMARK   11  A    between atoms: C13_18  and  O3_19 
REMARK   12  A    between atoms: O3_19  and  C14_20 
REMARK   13  A    between atoms: C14_20  and  C15_21 
REMARK   14  A    between atoms: C15_21  and  C16_22 
REMARK   15  A    between atoms: C19_25  and  O4_26 
REMARK   16  A    between atoms: C20_28  and  O5_29 
ROOT
HETATM    1  C8  UNL     1      17.934  38.252  58.265  1.00  0.00     0.073 C 
HETATM    2  C9  UNL     1      16.883  38.954  58.947  1.00  0.00     0.309 C 
HETATM    3  O2  UNL     1      15.885  37.996  59.504  1.00  0.00    -0.346 OA
HETATM    4  C12 UNL     1      16.660  37.238  60.393  1.00  0.00     0.180 C 
HETATM    5  C19 UNL     1      17.170  36.147  59.489  1.00  0.00     0.183 C 
HETATM    6  C20 UNL     1      18.245  36.819  58.650  1.00  0.00     0.200 C 
ENDROOT
BRANCH   1   7
HETATM    7  N1  UNL     1      18.223  38.491  56.907  1.00  0.00    -0.360 N 
ATOM      8  H1  UNL     1      17.477  38.312  56.235  1.00  0.00     0.165 HD
BRANCH   7   9
HETATM    9  C4  UNL     1      19.430  38.946  56.405  1.00  0.00     0.006 C 
BRANCH   9  10
HETATM   10  C3  UNL     1      19.504  38.638  54.891  1.00  0.00     0.056 C 
BRANCH  10  11
HETATM   11  C2  UNL     1      18.414  37.690  54.447  1.00  0.00     0.002 C 
HETATM   12  C1  UNL     1      17.868  38.252  53.137  1.00  0.00     0.005 C 
ENDBRANCH  10  11
ENDBRANCH   9  10
BRANCH   9  13
HETATM   13  C5  UNL     1      20.130  40.165  56.754  1.00  0.00     0.008 C 
BRANCH  13  14
HETATM   14  C6  UNL     1      21.057  40.875  55.861  1.00  0.00     0.102 C 
BRANCH  14  15
HETATM   15  S1  UNL     1      20.477  42.481  55.248  1.00  0.00    -0.170 SA
HETATM   16  C7  UNL     1      20.102  42.309  53.471  1.00  0.00     0.090 C 
ENDBRANCH  14  15
ENDBRANCH  13  14
ENDBRANCH   9  13
ENDBRANCH   7   9
ENDBRANCH   1   7
BRANCH   2  17
HETATM   17  O1  UNL     1      16.022  39.733  58.224  1.00  0.00    -0.356 OA
BRANCH  17  18
HETATM   18  C10 UNL     1      15.371  40.716  58.910  1.00  0.00     0.167 C 
HETATM   19  C11 UNL     1      15.941  42.083  58.899  1.00  0.00     0.033 C 
ENDBRANCH  17  18
ENDBRANCH   2  17
BRANCH   6  20
HETATM   20  O5  UNL     1      18.394  36.069  57.503  1.00  0.00    -0.387 OA
ATOM     21  H5  UNL     1      18.380  36.648  56.750  1.00  0.00     0.210 HD
ENDBRANCH   6  20
BRANCH   5  22
HETATM   22  O4  UNL     1      16.195  35.795  58.528  1.00  0.00    -0.390 OA
ATOM     23  H4  UNL     1      15.655  35.079  58.843  1.00  0.00     0.210 HD
ENDBRANCH   5  22
BRANCH   4  24
HETATM   24  C13 UNL     1      16.008  36.869  61.654  1.00  0.00     0.202 C 
BRANCH  24  25
HETATM   25  O3  UNL     1      15.113  37.614  62.296  1.00  0.00    -0.389 OA
BRANCH  25  26
HETATM   26  C14 UNL     1      13.896  37.135  62.644  1.00  0.00     0.168 C 
BRANCH  26  27
HETATM   27  C15 UNL     1      12.843  37.418  61.562  1.00  0.00     0.030 C 
BRANCH  27  28
HETATM   28  C16 UNL     1      11.474  37.644  62.108  1.00  0.00    -0.021 C 
HETATM   29  C17 UNL     1      10.714  38.688  61.333  1.00  0.00     0.009 C 
HETATM   30  C18 UNL     1      10.697  36.340  62.086  1.00  0.00     0.009 C 
ENDBRANCH  27  28
ENDBRANCH  26  27
ENDBRANCH  25  26
ENDBRANCH  24  25
ENDBRANCH   4  24
TORSDOF 16
ENDMDL
MODEL 5
REMARK VINA RESULT: -6.530645114      1.586      3.067
REMARK  16 active torsions:
REMARK  status: ('A' for Active; 'I' for Inactive)
REMARK    1  A    between atoms: C2_2  and  C3_3 
REMARK    2  A    between atoms: C3_3  and  C4_4 
REMARK    3  A    between atoms: C4_4  and  C5_5 
REMARK    4  A    between atoms: C4_4  and  N1_9 
REMARK    5  A    between atoms: C5_5  and  C6_6 
REMARK    6  A    between atoms: C6_6  and  S1_7 
REMARK    7  A    between atoms: N1_9  and  C8_11 
REMARK    8  A    between atoms: C9_12  and  O1_13 
REMARK    9  A    between atoms: O1_13  and  C10_14 
REMARK   10  A    between atoms: C12_17  and  C13_18 
REMARK   11  A    between atoms: C13_18  and  O3_19 
REMARK   12  A    between atoms: O3_19  and  C14_20 
REMARK   13  A    between atoms: C14_20  and  C15_21 
REMARK   14  A    between atoms: C15_21  and  C16_22 
REMARK   15  A    between atoms: C19_25  and  O4_26 
REMARK   16  A    between atoms: C20_28  and  O5_29 
ROOT
HETATM    1  C8  UNL     1      16.979  38.327  58.878  1.00  0.00     0.073 C 
HETATM    2  C9  UNL     1      16.136  39.338  59.451  1.00  0.00     0.309 C 
HETATM    3  O2  UNL     1      15.039  38.719  60.248  1.00  0.00    -0.346 OA
HETATM    4  C12 UNL     1      15.744  38.017  61.235  1.00  0.00     0.180 C 
HETATM    5  C19 UNL     1      15.969  36.691  60.556  1.00  0.00     0.183 C 
HETATM    6  C20 UNL     1      17.065  36.966  59.539  1.00  0.00     0.200 C 
ENDROOT
BRANCH   1   7
HETATM    7  N1  UNL     1      17.182  38.233  57.488  1.00  0.00    -0.360 N 
ATOM      8  H1  UNL     1      16.432  37.818  56.935  1.00  0.00     0.165 HD
BRANCH   7   9
HETATM    9  C4  UNL     1      18.310  38.654  56.804  1.00  0.00     0.006 C 
BRANCH   9  10
HETATM   10  C3  UNL     1      19.278  39.349  57.790  1.00  0.00     0.056 C 
BRANCH  10  11
HETATM   11  C2  UNL     1      20.720  38.980  57.528  1.00  0.00     0.002 C 
HETATM   12  C1  UNL     1      21.244  38.363  58.822  1.00  0.00     0.005 C 
ENDBRANCH  10  11
ENDBRANCH   9  10
BRANCH   9  13
HETATM   13  C5  UNL     1      19.010  37.961  55.741  1.00  0.00     0.008 C 
BRANCH  13  14
HETATM   14  C6  UNL     1      18.822  36.541  55.410  1.00  0.00     0.102 C 
BRANCH  14  15
HETATM   15  S1  UNL     1      17.364  36.160  54.400  1.00  0.00    -0.170 SA
HETATM   16  C7  UNL     1      16.416  34.849  55.243  1.00  0.00     0.090 C 
ENDBRANCH  14  15
ENDBRANCH  13  14
ENDBRANCH   9  13
ENDBRANCH   7   9
ENDBRANCH   1   7
BRANCH   2  17
HETATM   17  O1  UNL     1      15.365  40.109  58.626  1.00  0.00    -0.356 OA
BRANCH  17  18
HETATM   18  C10 UNL     1      15.472  41.460  58.783  1.00  0.00     0.167 C 
HETATM   19  C11 UNL     1      16.793  42.095  58.571  1.00  0.00     0.033 C 
ENDBRANCH  17  18
ENDBRANCH   2  17
BRANCH   6  20
HETATM   20  O5  UNL     1      16.974  35.989  58.571  1.00  0.00    -0.387 OA
ATOM     21  H5  UNL     1      17.531  35.258  58.814  1.00  0.00     0.210 HD
ENDBRANCH   6  20
BRANCH   5  22
HETATM   22  O4  UNL     1      14.863  36.351  59.743  1.00  0.00    -0.390 OA
ATOM     23  H4  UNL     1      15.002  35.511  59.321  1.00  0.00     0.210 HD
ENDBRANCH   5  22
BRANCH   4  24
HETATM   24  C13 UNL     1      15.154  38.036  62.578  1.00  0.00     0.202 C 
BRANCH  24  25
HETATM   25  O3  UNL     1      13.861  38.202  62.840  1.00  0.00    -0.389 OA
BRANCH  25  26
HETATM   26  C14 UNL     1      12.930  37.290  62.478  1.00  0.00     0.168 C 
BRANCH  26  27
HETATM   27  C15 UNL     1      11.850  37.907  61.576  1.00  0.00     0.030 C 
BRANCH  27  28
HETATM   28  C16 UNL     1      10.521  37.243  61.700  1.00  0.00    -0.021 C 
HETATM   29  C17 UNL     1      10.538  36.108  62.691  1.00  0.00     0.009 C 
HETATM   30  C18 UNL     1       9.480  38.263  62.127  1.00  0.00     0.009 C 
ENDBRANCH  27  28
ENDBRANCH  26  27
ENDBRANCH  25  26
ENDBRANCH  24  25
ENDBRANCH   4  24
TORSDOF 16
ENDMDL
