MODEL 1
REMARK VINA RESULT: -9.456145683      0.000      0.000
REMARK  6 active torsions:
REMARK  status: ('A' for Active; 'I' for Inactive)
REMARK       I    between atoms: C1_2  and  N1_3 
REMARK       I    between atoms: C1_2  and  N2_13 
REMARK    1  A    between atoms: N1_3  and  C2_5 
REMARK    2  A    between atoms: C19_25  and  N3_26 
REMARK    3  A    between atoms: C23_36  and  N7_37 
REMARK    4  A    between atoms: N7_37  and  C24_39 
REMARK    5  A    between atoms: C28_44  and  C29_45 
REMARK    6  A    between atoms: C29_45  and  O5_46 
ROOT
HETATM    1  O1  UNL     1      41.220 -45.925  71.881  1.00  0.00    -0.247 OA
HETATM    2  C1  UNL     1      40.183 -46.473  71.426  1.00  0.00     0.318 C 
HETATM    3  N1  UNL     1      38.953 -46.153  72.045  1.00  0.00    -0.338 N 
ATOM      4  H1  UNL     1      38.092 -46.582  71.705  1.00  0.00     0.164 HD
HETATM    5  N2  UNL     1      40.319 -47.365  70.340  1.00  0.00    -0.334 N 
HETATM    6  C10 UNL     1      41.626 -47.648  69.787  1.00  0.00     0.130 C 
HETATM    7  C11 UNL     1      41.586 -47.445  68.289  1.00  0.00     0.061 C 
HETATM    8  C12 UNL     1      40.622 -48.468  67.751  1.00  0.00     0.098 C 
HETATM    9  C13 UNL     1      39.269 -48.095  68.274  1.00  0.00     0.061 C 
HETATM   10  C14 UNL     1      39.172 -48.002  69.777  1.00  0.00     0.130 C 
HETATM   11  O2  UNL     1      40.948 -49.699  68.268  1.00  0.00    -0.375 OA
HETATM   12  C15 UNL     1      40.129 -50.739  67.860  1.00  0.00     0.195 C 
HETATM   13  C16 UNL     1      39.800 -50.743  66.412  1.00  0.00     0.195 C 
HETATM   14  O3  UNL     1      39.955 -49.593  65.726  1.00  0.00    -0.372 OA
HETATM   15  C17 UNL     1      40.596 -48.539  66.269  1.00  0.00     0.124 C 
HETATM   16  C18 UNL     1      39.907 -47.251  65.744  1.00  0.00     0.098 C 
HETATM   17  C19 UNL     1      40.306 -47.355  64.300  1.00  0.00     0.232 C 
HETATM   18  O4  UNL     1      41.417 -48.158  64.229  1.00  0.00    -0.356 OA
HETATM   19  C28 UNL     1      41.898 -48.348  65.558  1.00  0.00     0.185 C 
ENDROOT
BRANCH  19  20
HETATM   20  C29 UNL     1      42.788 -49.535  65.456  1.00  0.00     0.199 C 
BRANCH  20  21
HETATM   21  O5  UNL     1      43.473 -49.875  66.614  1.00  0.00    -0.398 OA
ATOM     22  H5  UNL     1      43.114 -50.605  67.106  1.00  0.00     0.209 HD
ENDBRANCH  20  21
ENDBRANCH  19  20
BRANCH  17  23
HETATM   23  N3  UNL     1      40.590 -46.111  63.658  1.00  0.00    -0.309 N 
HETATM   24  C20 UNL     1      41.760 -45.447  63.486  1.00  0.00     0.187 A 
HETATM   25  N4  UNL     1      41.550 -44.303  62.817  1.00  0.00    -0.336 N 
HETATM   26  C21 UNL     1      40.255 -44.206  62.548  1.00  0.00     0.138 A 
ATOM     27  H4  UNL     1      42.265 -43.624  62.559  1.00  0.00     0.168 HD
HETATM   28  N5  UNL     1      39.592 -43.237  61.900  1.00  0.00    -0.337 N 
HETATM   29  C27 UNL     1      39.659 -45.331  63.072  1.00  0.00     0.126 A 
HETATM   30  C22 UNL     1      38.257 -43.363  61.748  1.00  0.00     0.183 A 
ATOM     31  H5  UNL     1      40.085 -42.424  61.531  1.00  0.00     0.168 HD
HETATM   32  N6  UNL     1      37.632 -44.452  62.249  1.00  0.00    -0.337 N 
HETATM   33  C23 UNL     1      38.271 -45.433  62.898  1.00  0.00     0.133 A 
ATOM     34  H6  UNL     1      36.623 -44.531  62.125  1.00  0.00     0.168 HD
BRANCH  33  35
HETATM   35  N7  UNL     1      37.669 -46.435  63.356  1.00  0.00    -0.370 N 
ATOM     36  H7  UNL     1      37.723 -46.520  64.371  1.00  0.00     0.161 HD
BRANCH  35  37
HETATM   37  C24 UNL     1      36.932 -47.468  62.732  1.00  0.00     0.083 A 
HETATM   38  C25 UNL     1      36.948 -47.764  61.291  1.00  0.00     0.027 A 
HETATM   39  C26 UNL     1      37.722 -48.655  62.210  1.00  0.00     0.027 A 
ENDBRANCH  35  37
ENDBRANCH  33  35
ENDBRANCH  17  23
BRANCH   3  40
HETATM   40  C2  UNL     1      38.898 -45.209  73.176  1.00  0.00     0.086 C 
HETATM   41  C3  UNL     1      38.925 -43.835  72.634  1.00  0.00     0.025 C 
HETATM   42  C4  UNL     1      38.372 -42.774  73.580  1.00  0.00     0.002 C 
HETATM   43  C5  UNL     1      36.917 -42.574  73.222  1.00  0.00     0.000 C 
HETATM   44  C6  UNL     1      36.089 -43.132  74.363  1.00  0.00     0.000 C 
HETATM   45  C7  UNL     1      35.452 -44.443  74.009  1.00  0.00     0.000 C 
HETATM   46  C8  UNL     1      36.399 -45.430  73.382  1.00  0.00     0.002 C 
HETATM   47  C9  UNL     1      37.715 -45.535  74.044  1.00  0.00     0.025 C 
ENDBRANCH   3  40
TORSDOF 6
ENDMDL
MODEL 2
REMARK VINA RESULT: -8.806593177      1.898      3.175
REMARK  6 active torsions:
REMARK  status: ('A' for Active; 'I' for Inactive)
REMARK       I    between atoms: C1_2  and  N1_3 
REMARK       I    between atoms: C1_2  and  N2_13 
REMARK    1  A    between atoms: N1_3  and  C2_5 
REMARK    2  A    between atoms: C19_25  and  N3_26 
REMARK    3  A    between atoms: C23_36  and  N7_37 
REMARK    4  A    between atoms: N7_37  and  C24_39 
REMARK    5  A    between atoms: C28_44  and  C29_45 
REMARK    6  A    between atoms: C29_45  and  O5_46 
ROOT
HETATM    1  O1  UNL     1      40.914 -45.341  70.723  1.00  0.00    -0.247 OA
HETATM    2  C1  UNL     1      40.752 -46.414  70.088  1.00  0.00     0.318 C 
HETATM    3  N1  UNL     1      40.053 -47.457  70.740  1.00  0.00    -0.338 N 
ATOM      4  H1  UNL     1      39.906 -48.343  70.257  1.00  0.00     0.164 HD
HETATM    5  N2  UNL     1      41.277 -46.505  68.782  1.00  0.00    -0.334 N 
HETATM    6  C10 UNL     1      41.999 -45.390  68.206  1.00  0.00     0.130 C 
HETATM    7  C11 UNL     1      41.416 -45.069  66.848  1.00  0.00     0.061 C 
HETATM    8  C12 UNL     1      41.664 -46.278  65.987  1.00  0.00     0.098 C 
HETATM    9  C13 UNL     1      40.837 -47.387  66.560  1.00  0.00     0.061 C 
HETATM   10  C14 UNL     1      41.108 -47.696  68.012  1.00  0.00     0.130 C 
HETATM   11  O2  UNL     1      42.987 -46.638  66.098  1.00  0.00    -0.375 OA
HETATM   12  C15 UNL     1      43.352 -47.751  65.359  1.00  0.00     0.195 C 
HETATM   13  C16 UNL     1      42.816 -47.784  63.974  1.00  0.00     0.195 C 
HETATM   14  O3  UNL     1      41.751 -47.010  63.692  1.00  0.00    -0.372 OA
HETATM   15  C17 UNL     1      41.322 -46.071  64.557  1.00  0.00     0.124 C 
HETATM   16  C18 UNL     1      39.775 -46.001  64.445  1.00  0.00     0.098 C 
HETATM   17  C19 UNL     1      39.675 -45.442  63.055  1.00  0.00     0.232 C 
HETATM   18  O4  UNL     1      40.864 -44.819  62.767  1.00  0.00    -0.356 OA
HETATM   19  C28 UNL     1      41.604 -44.719  63.982  1.00  0.00     0.185 C 
ENDROOT
BRANCH  19  20
HETATM   20  C29 UNL     1      42.999 -44.456  63.538  1.00  0.00     0.199 C 
BRANCH  20  21
HETATM   21  O5  UNL     1      43.887 -44.079  64.534  1.00  0.00    -0.398 OA
ATOM     22  H5  UNL     1      44.771 -43.881  64.246  1.00  0.00     0.209 HD
ENDBRANCH  20  21
ENDBRANCH  19  20
BRANCH  17  23
HETATM   23  N3  UNL     1      38.604 -44.521  62.847  1.00  0.00    -0.309 N 
HETATM   24  C20 UNL     1      38.617 -43.190  62.583  1.00  0.00     0.187 A 
HETATM   25  N4  UNL     1      37.362 -42.731  62.462  1.00  0.00    -0.336 N 
HETATM   26  C21 UNL     1      36.524 -43.742  62.644  1.00  0.00     0.138 A 
ATOM     27  H4  UNL     1      37.097 -41.767  62.264  1.00  0.00     0.168 HD
HETATM   28  N5  UNL     1      35.184 -43.753  62.616  1.00  0.00    -0.337 N 
HETATM   29  C27 UNL     1      37.298 -44.855  62.884  1.00  0.00     0.126 A 
HETATM   30  C22 UNL     1      34.545 -44.920  62.834  1.00  0.00     0.183 A 
ATOM     31  H5  UNL     1      34.659 -42.896  62.433  1.00  0.00     0.168 HD
HETATM   32  N6  UNL     1      35.267 -46.037  63.074  1.00  0.00    -0.337 N 
HETATM   33  C23 UNL     1      36.606 -46.054  63.108  1.00  0.00     0.133 A 
ATOM     34  H6  UNL     1      34.768 -46.911  63.237  1.00  0.00     0.168 HD
BRANCH  33  35
HETATM   35  N7  UNL     1      37.256 -47.103  63.334  1.00  0.00    -0.370 N 
ATOM     36  H7  UNL     1      37.896 -47.030  64.126  1.00  0.00     0.161 HD
BRANCH  35  37
HETATM   37  C24 UNL     1      37.271 -48.368  62.702  1.00  0.00     0.083 A 
HETATM   38  C25 UNL     1      37.374 -48.584  61.249  1.00  0.00     0.027 A 
HETATM   39  C26 UNL     1      38.588 -48.814  62.092  1.00  0.00     0.027 A 
ENDBRANCH  35  37
ENDBRANCH  33  35
ENDBRANCH  17  23
BRANCH   3  40
HETATM   40  C2  UNL     1      39.535 -47.280  72.109  1.00  0.00     0.086 C 
HETATM   41  C3  UNL     1      40.223 -46.124  72.720  1.00  0.00     0.025 C 
HETATM   42  C4  UNL     1      39.478 -45.494  73.891  1.00  0.00     0.002 C 
HETATM   43  C5  UNL     1      38.666 -44.346  73.336  1.00  0.00     0.000 C 
HETATM   44  C6  UNL     1      37.205 -44.739  73.424  1.00  0.00     0.000 C 
HETATM   45  C7  UNL     1      36.636 -45.100  72.084  1.00  0.00     0.000 C 
HETATM   46  C8  UNL     1      37.494 -46.051  71.295  1.00  0.00     0.002 C 
HETATM   47  C9  UNL     1      38.035 -47.187  72.069  1.00  0.00     0.025 C 
ENDBRANCH   3  40
TORSDOF 6
ENDMDL
MODEL 3
REMARK VINA RESULT: -8.575547841      2.551      3.330
REMARK  6 active torsions:
REMARK  status: ('A' for Active; 'I' for Inactive)
REMARK       I    between atoms: C1_2  and  N1_3 
REMARK       I    between atoms: C1_2  and  N2_13 
REMARK    1  A    between atoms: N1_3  and  C2_5 
REMARK    2  A    between atoms: C19_25  and  N3_26 
REMARK    3  A    between atoms: C23_36  and  N7_37 
REMARK    4  A    between atoms: N7_37  and  C24_39 
REMARK    5  A    between atoms: C28_44  and  C29_45 
REMARK    6  A    between atoms: C29_45  and  O5_46 
ROOT
HETATM    1  O1  UNL     1      41.214 -42.103  72.163  1.00  0.00    -0.247 OA
HETATM    2  C1  UNL     1      40.140 -42.562  71.696  1.00  0.00     0.318 C 
HETATM    3  N1  UNL     1      38.952 -41.844  71.966  1.00  0.00    -0.338 N 
ATOM      4  H1  UNL     1      38.062 -42.190  71.607  1.00  0.00     0.164 HD
HETATM    5  N2  UNL     1      40.194 -43.756  70.944  1.00  0.00    -0.334 N 
HETATM    6  C10 UNL     1      41.456 -44.433  70.739  1.00  0.00     0.130 C 
HETATM    7  C11 UNL     1      41.643 -44.701  69.263  1.00  0.00     0.061 C 
HETATM    8  C12 UNL     1      40.539 -45.642  68.863  1.00  0.00     0.098 C 
HETATM    9  C13 UNL     1      39.257 -44.882  69.005  1.00  0.00     0.061 C 
HETATM   10  C14 UNL     1      39.006 -44.312  70.380  1.00  0.00     0.130 C 
HETATM   11  O2  UNL     1      40.508 -46.691  69.752  1.00  0.00    -0.375 OA
HETATM   12  C15 UNL     1      39.525 -47.635  69.505  1.00  0.00     0.195 C 
HETATM   13  C16 UNL     1      39.379 -48.027  68.080  1.00  0.00     0.195 C 
HETATM   14  O3  UNL     1      39.877 -47.196  67.143  1.00  0.00    -0.372 OA
HETATM   15  C17 UNL     1      40.674 -46.164  67.479  1.00  0.00     0.124 C 
HETATM   16  C18 UNL     1      40.370 -44.997  66.501  1.00  0.00     0.098 C 
HETATM   17  C19 UNL     1      40.904 -45.616  65.241  1.00  0.00     0.232 C 
HETATM   18  O4  UNL     1      41.799 -46.593  65.600  1.00  0.00    -0.356 OA
HETATM   19  C28 UNL     1      42.061 -46.447  66.994  1.00  0.00     0.185 C 
ENDROOT
BRANCH  19  20
HETATM   20  C29 UNL     1      42.658 -47.750  67.390  1.00  0.00     0.199 C 
BRANCH  20  21
HETATM   21  O5  UNL     1      42.367 -48.823  66.560  1.00  0.00    -0.398 OA
ATOM     22  H5  UNL     1      43.067 -49.095  65.977  1.00  0.00     0.209 HD
ENDBRANCH  20  21
ENDBRANCH  19  20
BRANCH  17  23
HETATM   23  N3  UNL     1      41.542 -44.707  64.343  1.00  0.00    -0.309 N 
HETATM   24  C20 UNL     1      42.764 -44.122  64.393  1.00  0.00     0.187 A 
HETATM   25  N4  UNL     1      42.944 -43.333  63.322  1.00  0.00    -0.336 N 
HETATM   26  C21 UNL     1      41.854 -43.392  62.569  1.00  0.00     0.138 A 
ATOM     27  H4  UNL     1      43.777 -42.781  63.121  1.00  0.00     0.168 HD
HETATM   28  N5  UNL     1      41.586 -42.772  61.411  1.00  0.00    -0.337 N 
HETATM   29  C27 UNL     1      40.982 -44.247  63.206  1.00  0.00     0.126 A 
HETATM   30  C22 UNL     1      40.391 -42.993  60.825  1.00  0.00     0.183 A 
ATOM     31  H5  UNL     1      42.270 -42.148  60.983  1.00  0.00     0.168 HD
HETATM   32  N6  UNL     1      39.506 -43.825  61.417  1.00  0.00    -0.337 N 
HETATM   33  C23 UNL     1      39.749 -44.456  62.573  1.00  0.00     0.133 A 
ATOM     34  H6  UNL     1      38.607 -43.981  60.961  1.00  0.00     0.168 HD
BRANCH  33  35
HETATM   35  N7  UNL     1      38.910 -45.224  63.105  1.00  0.00    -0.370 N 
ATOM     36  H7  UNL     1      38.695 -44.992  64.075  1.00  0.00     0.161 HD
BRANCH  35  37
HETATM   37  C24 UNL     1      38.208 -46.350  62.617  1.00  0.00     0.083 A 
HETATM   38  C25 UNL     1      37.788 -47.501  63.432  1.00  0.00     0.027 A 
HETATM   39  C26 UNL     1      36.757 -46.490  63.043  1.00  0.00     0.027 A 
ENDBRANCH  35  37
ENDBRANCH  33  35
ENDBRANCH  17  23
BRANCH   3  40
HETATM   40  C2  UNL     1      38.983 -40.602  72.761  1.00  0.00     0.086 C 
HETATM   41  C3  UNL     1      39.403 -39.496  71.877  1.00  0.00     0.025 C 
HETATM   42  C4  UNL     1      39.005 -38.110  72.370  1.00  0.00     0.002 C 
HETATM   43  C5  UNL     1      37.696 -37.759  71.702  1.00  0.00     0.000 C 
HETATM   44  C6  UNL     1      36.623 -37.766  72.774  1.00  0.00     0.000 C 
HETATM   45  C7  UNL     1      35.742 -38.977  72.681  1.00  0.00     0.000 C 
HETATM   46  C8  UNL     1      36.498 -40.270  72.542  1.00  0.00     0.002 C 
HETATM   47  C9  UNL     1      37.658 -40.412  73.445  1.00  0.00     0.025 C 
ENDBRANCH   3  40
TORSDOF 6
ENDMDL
MODEL 4
REMARK VINA RESULT: -8.511518935      1.396      1.659
REMARK  6 active torsions:
REMARK  status: ('A' for Active; 'I' for Inactive)
REMARK       I    between atoms: C1_2  and  N1_3 
REMARK       I    between atoms: C1_2  and  N2_13 
REMARK    1  A    between atoms: N1_3  and  C2_5 
REMARK    2  A    between atoms: C19_25  and  N3_26 
REMARK    3  A    between atoms: C23_36  and  N7_37 
REMARK    4  A    between atoms: N7_37  and  C24_39 
REMARK    5  A    between atoms: C28_44  and  C29_45 
REMARK    6  A    between atoms: C29_45  and  O5_46 
ROOT
HETATM    1  O1  UNL     1      42.229 -45.985  72.255  1.00  0.00    -0.247 OA
HETATM    2  C1  UNL     1      41.057 -46.103  71.812  1.00  0.00     0.318 C 
HETATM    3  N1  UNL     1      40.028 -45.426  72.505  1.00  0.00    -0.338 N 
ATOM      4  H1  UNL     1      39.065 -45.501  72.176  1.00  0.00     0.164 HD
HETATM    5  N2  UNL     1      40.853 -46.899  70.664  1.00  0.00    -0.334 N 
HETATM    6  C10 UNL     1      41.968 -47.573  70.035  1.00  0.00     0.130 C 
HETATM    7  C11 UNL     1      41.974 -47.253  68.557  1.00  0.00     0.061 C 
HETATM    8  C12 UNL     1      40.703 -47.833  67.997  1.00  0.00     0.098 C 
HETATM    9  C13 UNL     1      39.575 -47.056  68.603  1.00  0.00     0.061 C 
HETATM   10  C14 UNL     1      39.545 -47.053  70.112  1.00  0.00     0.130 C 
HETATM   11  O2  UNL     1      40.589 -49.138  68.415  1.00  0.00    -0.375 OA
HETATM   12  C15 UNL     1      39.451 -49.794  67.976  1.00  0.00     0.195 C 
HETATM   13  C16 UNL     1      39.114 -49.571  66.547  1.00  0.00     0.195 C 
HETATM   14  O3  UNL     1      39.648 -48.497  65.933  1.00  0.00    -0.372 OA
HETATM   15  C17 UNL     1      40.626 -47.775  66.515  1.00  0.00     0.124 C 
HETATM   16  C18 UNL     1      40.420 -46.291  66.108  1.00  0.00     0.098 C 
HETATM   17  C19 UNL     1      40.731 -46.414  64.644  1.00  0.00     0.232 C 
HETATM   18  O4  UNL     1      41.490 -47.545  64.471  1.00  0.00    -0.356 OA
HETATM   19  C28 UNL     1      41.899 -47.992  65.761  1.00  0.00     0.185 C 
ENDROOT
BRANCH  19  20
HETATM   20  C29 UNL     1      42.317 -49.403  65.541  1.00  0.00     0.199 C 
BRANCH  20  21
HETATM   21  O5  UNL     1      41.754 -50.033  64.441  1.00  0.00    -0.398 OA
ATOM     22  H5  UNL     1      41.646 -49.493  63.667  1.00  0.00     0.209 HD
ENDBRANCH  20  21
ENDBRANCH  19  20
BRANCH  17  23
HETATM   23  N3  UNL     1      41.418 -45.300  64.075  1.00  0.00    -0.309 N 
HETATM   24  C20 UNL     1      42.614 -44.741  64.387  1.00  0.00     0.187 A 
HETATM   25  N4  UNL     1      42.864 -43.700  63.578  1.00  0.00    -0.336 N 
HETATM   26  C21 UNL     1      41.847 -43.566  62.739  1.00  0.00     0.138 A 
ATOM     27  H4  UNL     1      43.695 -43.110  63.605  1.00  0.00     0.168 HD
HETATM   28  N5  UNL     1      41.663 -42.668  61.761  1.00  0.00    -0.337 N 
HETATM   29  C27 UNL     1      40.947 -44.562  63.049  1.00  0.00     0.126 A 
HETATM   30  C22 UNL     1      40.531 -42.734  61.030  1.00  0.00     0.183 A 
ATOM     31  H5  UNL     1      42.363 -41.950  61.574  1.00  0.00     0.168 HD
HETATM   32  N6  UNL     1      39.621 -43.697  61.303  1.00  0.00    -0.337 N 
HETATM   33  C23 UNL     1      39.781 -44.606  62.273  1.00  0.00     0.133 A 
ATOM     34  H6  UNL     1      38.771 -43.732  60.741  1.00  0.00     0.168 HD
BRANCH  33  35
HETATM   35  N7  UNL     1      38.922 -45.490  62.508  1.00  0.00    -0.370 N 
ATOM     36  H7  UNL     1      39.217 -46.432  62.250  1.00  0.00     0.161 HD
BRANCH  35  37
HETATM   37  C24 UNL     1      37.622 -45.429  63.063  1.00  0.00     0.083 A 
HETATM   38  C25 UNL     1      36.408 -45.040  62.329  1.00  0.00     0.027 A 
HETATM   39  C26 UNL     1      36.634 -46.491  62.612  1.00  0.00     0.027 A 
ENDBRANCH  35  37
ENDBRANCH  33  35
ENDBRANCH  17  23
BRANCH   3  40
HETATM   40  C2  UNL     1      40.328 -44.612  73.698  1.00  0.00     0.086 C 
HETATM   41  C3  UNL     1      40.331 -43.189  73.299  1.00  0.00     0.025 C 
HETATM   42  C4  UNL     1      40.114 -42.212  74.449  1.00  0.00     0.002 C 
HETATM   43  C5  UNL     1      38.637 -41.895  74.490  1.00  0.00     0.000 C 
HETATM   44  C6  UNL     1      38.070 -42.531  75.745  1.00  0.00     0.000 C 
HETATM   45  C7  UNL     1      37.263 -43.758  75.440  1.00  0.00     0.000 C 
HETATM   46  C8  UNL     1      37.945 -44.718  74.504  1.00  0.00     0.002 C 
HETATM   47  C9  UNL     1      39.371 -44.968  74.801  1.00  0.00     0.025 C 
ENDBRANCH   3  40
TORSDOF 6
ENDMDL
MODEL 5
REMARK VINA RESULT: -8.449281092      2.390      2.758
REMARK  6 active torsions:
REMARK  status: ('A' for Active; 'I' for Inactive)
REMARK       I    between atoms: C1_2  and  N1_3 
REMARK       I    between atoms: C1_2  and  N2_13 
REMARK    1  A    between atoms: N1_3  and  C2_5 
REMARK    2  A    between atoms: C19_25  and  N3_26 
REMARK    3  A    between atoms: C23_36  and  N7_37 
REMARK    4  A    between atoms: N7_37  and  C24_39 
REMARK    5  A    between atoms: C28_44  and  C29_45 
REMARK    6  A    between atoms: C29_45  and  O5_46 
ROOT
HETATM    1  O1  UNL     1      44.256 -46.389  70.567  1.00  0.00    -0.247 OA
HETATM    2  C1  UNL     1      43.160 -47.004  70.634  1.00  0.00     0.318 C 
HETATM    3  N1  UNL     1      42.458 -46.951  71.860  1.00  0.00    -0.338 N 
ATOM      4  H1  UNL     1      41.568 -47.441  71.951  1.00  0.00     0.164 HD
HETATM    5  N2  UNL     1      42.713 -47.700  69.490  1.00  0.00    -0.334 N 
HETATM    6  C10 UNL     1      43.514 -47.716  68.285  1.00  0.00     0.130 C 
HETATM    7  C11 UNL     1      42.654 -47.304  67.111  1.00  0.00     0.061 C 
HETATM    8  C12 UNL     1      41.591 -48.362  66.978  1.00  0.00     0.098 C 
HETATM    9  C13 UNL     1      40.732 -48.260  68.200  1.00  0.00     0.061 C 
HETATM   10  C14 UNL     1      41.469 -48.402  69.509  1.00  0.00     0.130 C 
HETATM   11  O2  UNL     1      42.193 -49.598  66.987  1.00  0.00    -0.375 OA
HETATM   12  C15 UNL     1      41.323 -50.671  66.880  1.00  0.00     0.195 C 
HETATM   13  C16 UNL     1      40.256 -50.509  65.859  1.00  0.00     0.195 C 
HETATM   14  O3  UNL     1      39.968 -49.262  65.439  1.00  0.00    -0.372 OA
HETATM   15  C17 UNL     1      40.761 -48.219  65.755  1.00  0.00     0.124 C 
HETATM   16  C18 UNL     1      39.850 -46.976  65.942  1.00  0.00     0.098 C 
HETATM   17  C19 UNL     1      39.398 -46.813  64.519  1.00  0.00     0.232 C 
HETATM   18  O4  UNL     1      40.319 -47.435  63.713  1.00  0.00    -0.356 OA
HETATM   19  C28 UNL     1      41.454 -47.748  64.516  1.00  0.00     0.185 C 
ENDROOT
BRANCH  19  20
HETATM   20  C29 UNL     1      42.188 -48.773  63.726  1.00  0.00     0.199 C 
BRANCH  20  21
HETATM   21  O5  UNL     1      41.445 -49.430  62.755  1.00  0.00    -0.398 OA
ATOM     22  H5  UNL     1      40.502 -49.409  62.874  1.00  0.00     0.209 HD
ENDBRANCH  20  21
ENDBRANCH  19  20
BRANCH  17  23
HETATM   23  N3  UNL     1      39.239 -45.461  64.086  1.00  0.00    -0.309 N 
HETATM   24  C20 UNL     1      40.056 -44.386  64.212  1.00  0.00     0.187 A 
HETATM   25  N4  UNL     1      39.492 -43.307  63.648  1.00  0.00    -0.336 N 
HETATM   26  C21 UNL     1      38.314 -43.659  63.153  1.00  0.00     0.138 A 
ATOM     27  H4  UNL     1      39.901 -42.374  63.606  1.00  0.00     0.168 HD
HETATM   28  N5  UNL     1      37.406 -42.914  62.506  1.00  0.00    -0.337 N 
HETATM   29  C27 UNL     1      38.157 -44.999  63.427  1.00  0.00     0.126 A 
HETATM   30  C22 UNL     1      36.266 -43.505  62.093  1.00  0.00     0.183 A 
ATOM     31  H5  UNL     1      37.574 -41.923  62.329  1.00  0.00     0.168 HD
HETATM   32  N6  UNL     1      36.071 -44.819  62.342  1.00  0.00    -0.337 N 
HETATM   33  C23 UNL     1      36.961 -45.585  62.986  1.00  0.00     0.133 A 
ATOM     34  H6  UNL     1      35.203 -45.249  62.023  1.00  0.00     0.168 HD
BRANCH  33  35
HETATM   35  N7  UNL     1      36.759 -46.804  63.207  1.00  0.00    -0.370 N 
ATOM     36  H7  UNL     1      36.768 -47.051  64.197  1.00  0.00     0.161 HD
BRANCH  35  37
HETATM   37  C24 UNL     1      36.520 -47.900  62.346  1.00  0.00     0.083 A 
HETATM   38  C25 UNL     1      36.998 -48.002  60.957  1.00  0.00     0.027 A 
HETATM   39  C26 UNL     1      37.711 -48.783  62.015  1.00  0.00     0.027 A 
ENDBRANCH  35  37
ENDBRANCH  33  35
ENDBRANCH  17  23
BRANCH   3  40
HETATM   40  C2  UNL     1      42.996 -46.198  73.008  1.00  0.00     0.086 C 
HETATM   41  C3  UNL     1      42.742 -44.761  72.779  1.00  0.00     0.025 C 
HETATM   42  C4  UNL     1      42.758 -43.909  74.044  1.00  0.00     0.002 C 
HETATM   43  C5  UNL     1      41.327 -43.788  74.516  1.00  0.00     0.000 C 
HETATM   44  C6  UNL     1      41.204 -44.583  75.801  1.00  0.00     0.000 C 
HETATM   45  C7  UNL     1      40.473 -45.877  75.594  1.00  0.00     0.000 C 
HETATM   46  C8  UNL     1      40.959 -46.669  74.411  1.00  0.00     0.002 C 
HETATM   47  C9  UNL     1      42.428 -46.756  74.283  1.00  0.00     0.025 C 
ENDBRANCH   3  40
TORSDOF 6
ENDMDL
