MODEL 1
REMARK VINA RESULT: -9.079737964      0.000      0.000
REMARK  9 active torsions:
REMARK  status: ('A' for Active; 'I' for Inactive)
REMARK    1  A    between atoms: O1_2  and  C2_3 
REMARK    2  A    between atoms: C6_9  and  C7_10 
REMARK    3  A    between atoms: C7_10  and  C8_11 
REMARK    4  A    between atoms: C8_11  and  C9_12 
REMARK    5  A    between atoms: C9_12  and  C10_13 
REMARK    6  A    between atoms: C9_12  and  C24_41 
REMARK    7  A    between atoms: C12_17  and  C13_18 
REMARK    8  A    between atoms: N6_28  and  C17_30 
REMARK    9  A    between atoms: C17_30  and  C18_31 
ROOT
HETATM    1  C10 UNL     1      39.814 -46.837  66.058  1.00  0.00     0.190 A 
HETATM    2  N2  UNL     1      40.246 -45.835  66.953  1.00  0.00    -0.342 N 
ATOM      3  H2  UNL     1      40.751 -45.031  66.582  1.00  0.00     0.167 HD
HETATM    4  C11 UNL     1      40.023 -45.896  68.242  1.00  0.00     0.124 A 
HETATM    5  C12 UNL     1      39.308 -47.013  68.839  1.00  0.00     0.100 A 
HETATM    6  N7  UNL     1      38.873 -48.024  67.934  1.00  0.00    -0.256 N 
ATOM      7  H7  UNL     1      38.366 -48.836  68.284  1.00  0.00     0.195 HD
HETATM    8  O2  UNL     1      39.134 -47.907  66.599  1.00  0.00    -0.218 OA
ENDROOT
BRANCH   1   9
HETATM    9  C9  UNL     1      40.027 -46.797  64.774  1.00  0.00     0.081 C 
BRANCH   9  10
HETATM   10  C8  UNL     1      41.315 -46.425  64.275  1.00  0.00    -0.055 C 
BRANCH  10  11
HETATM   11  C7  UNL     1      42.386 -46.090  63.838  1.00  0.00    -0.043 C 
BRANCH  11  12
HETATM   12  C6  UNL     1      43.644 -45.663  63.301  1.00  0.00     0.088 A 
HETATM   13  C5  UNL     1      44.778 -46.427  63.254  1.00  0.00     0.041 A 
HETATM   14  C4  UNL     1      45.971 -45.988  62.725  1.00  0.00     0.036 A 
HETATM   15  C3  UNL     1      46.015 -44.691  62.213  1.00  0.00     0.080 A 
HETATM   16  N1  UNL     1      46.973 -43.951  61.636  1.00  0.00    -0.319 N 
HETATM   17  C30 UNL     1      44.871 -43.912  62.257  1.00  0.00     0.136 A 
HETATM   18  C2  UNL     1      46.490 -42.743  61.316  1.00  0.00     0.225 A 
ATOM     19  H1  UNL     1      47.930 -44.261  61.467  1.00  0.00     0.169 HD
HETATM   20  N9  UNL     1      45.192 -42.737  61.705  1.00  0.00    -0.306 N 
ATOM     21  H9  UNL     1      44.552 -41.951  61.593  1.00  0.00     0.171 HD
HETATM   22  N8  UNL     1      43.749 -44.405  62.784  1.00  0.00    -0.334 N 
ATOM     23  H8  UNL     1      42.923 -43.808  62.801  1.00  0.00     0.168 HD
BRANCH  18  24
HETATM   24  O1  UNL     1      47.147 -41.662  60.698  1.00  0.00    -0.327 OA
HETATM   25  C1  UNL     1      47.808 -40.729  61.517  1.00  0.00     0.213 C 
ENDBRANCH  18  24
ENDBRANCH  11  12
ENDBRANCH  10  11
ENDBRANCH   9  10
BRANCH   9  26
HETATM   26  C24 UNL     1      38.961 -47.116  63.826  1.00  0.00    -0.013 A 
HETATM   27  C25 UNL     1      39.011 -48.333  63.157  1.00  0.00     0.013 A 
HETATM   28  C26 UNL     1      38.069 -48.727  62.242  1.00  0.00     0.001 A 
HETATM   29  C27 UNL     1      37.018 -47.884  61.960  1.00  0.00     0.000 A 
HETATM   30  C28 UNL     1      36.958 -46.677  62.615  1.00  0.00     0.001 A 
HETATM   31  C29 UNL     1      37.906 -46.287  63.533  1.00  0.00     0.013 A 
ENDBRANCH   9  26
ENDBRANCH   1   9
BRANCH   5  32
HETATM   32  C13 UNL     1      39.064 -47.110  70.147  1.00  0.00     0.107 A 
HETATM   33  N3  UNL     1      38.958 -48.294  70.787  1.00  0.00    -0.295 N 
HETATM   34  N4  UNL     1      38.714 -48.056  72.068  1.00  0.00    -0.291 N 
ATOM     35  H3  UNL     1      39.051 -49.215  70.358  1.00  0.00     0.187 HD
HETATM   36  C14 UNL     1      38.662 -46.735  72.254  1.00  0.00     0.121 A 
ATOM     37  H4  UNL     1      38.588 -48.764  72.791  1.00  0.00     0.187 HD
HETATM   38  C15 UNL     1      38.876 -46.070  71.074  1.00  0.00     0.100 A 
HETATM   39  S1  UNL     1      38.411 -45.430  73.464  1.00  0.00    -0.033 SA
HETATM   40  N5  UNL     1      38.860 -44.827  71.088  1.00  0.00    -0.332 N 
HETATM   41  C16 UNL     1      38.630 -44.135  72.264  1.00  0.00     0.147 A 
ATOM     42  H5  UNL     1      39.017 -44.311  70.223  1.00  0.00     0.168 HD
HETATM   43  N6  UNL     1      38.582 -42.897  72.481  1.00  0.00    -0.366 N 
ATOM     44  H6  UNL     1      38.399 -42.533  73.416  1.00  0.00     0.162 HD
BRANCH  43  45
HETATM   45  C17 UNL     1      38.797 -42.002  71.350  1.00  0.00     0.160 C 
BRANCH  45  46
HETATM   46  C18 UNL     1      38.272 -40.662  71.587  1.00  0.00    -0.041 A 
HETATM   47  C19 UNL     1      36.986 -40.484  72.028  1.00  0.00     0.009 A 
HETATM   48  C20 UNL     1      36.464 -39.227  72.262  1.00  0.00     0.001 A 
HETATM   49  C21 UNL     1      37.240 -38.122  72.049  1.00  0.00     0.000 A 
HETATM   50  C22 UNL     1      38.545 -38.271  71.602  1.00  0.00     0.001 A 
HETATM   51  C23 UNL     1      39.055 -39.557  71.372  1.00  0.00     0.009 A 
ENDBRANCH  45  46
ENDBRANCH  43  45
ENDBRANCH   5  32
TORSDOF 9
ENDMDL
MODEL 2
REMARK VINA RESULT: -8.903254612      4.140     10.633
REMARK  9 active torsions:
REMARK  status: ('A' for Active; 'I' for Inactive)
REMARK    1  A    between atoms: O1_2  and  C2_3 
REMARK    2  A    between atoms: C6_9  and  C7_10 
REMARK    3  A    between atoms: C7_10  and  C8_11 
REMARK    4  A    between atoms: C8_11  and  C9_12 
REMARK    5  A    between atoms: C9_12  and  C10_13 
REMARK    6  A    between atoms: C9_12  and  C24_41 
REMARK    7  A    between atoms: C12_17  and  C13_18 
REMARK    8  A    between atoms: N6_28  and  C17_30 
REMARK    9  A    between atoms: C17_30  and  C18_31 
ROOT
HETATM    1  C10 UNL     1      39.436 -47.704  66.416  1.00  0.00     0.190 A 
HETATM    2  N2  UNL     1      38.960 -48.111  65.152  1.00  0.00    -0.342 N 
ATOM      3  H2  UNL     1      38.696 -49.087  65.019  1.00  0.00     0.167 HD
HETATM    4  C11 UNL     1      38.845 -47.286  64.141  1.00  0.00     0.124 A 
HETATM    5  C12 UNL     1      39.203 -45.882  64.262  1.00  0.00     0.100 A 
HETATM    6  N7  UNL     1      39.683 -45.472  65.539  1.00  0.00    -0.256 N 
ATOM      7  H7  UNL     1      39.953 -44.501  65.693  1.00  0.00     0.195 HD
HETATM    8  O2  UNL     1      39.782 -46.378  66.556  1.00  0.00    -0.218 OA
ENDROOT
BRANCH   1   9
HETATM    9  C9  UNL     1      39.560 -48.508  67.433  1.00  0.00     0.081 C 
BRANCH   9  10
HETATM   10  C8  UNL     1      39.382 -48.010  68.762  1.00  0.00    -0.055 C 
BRANCH  10  11
HETATM   11  C7  UNL     1      39.215 -47.566  69.869  1.00  0.00    -0.043 C 
BRANCH  11  12
HETATM   12  C6  UNL     1      39.003 -47.008  71.172  1.00  0.00     0.088 A 
HETATM   13  C5  UNL     1      39.980 -46.805  72.108  1.00  0.00     0.041 A 
HETATM   14  C4  UNL     1      39.744 -46.260  73.350  1.00  0.00     0.036 A 
HETATM   15  C3  UNL     1      38.432 -45.899  73.661  1.00  0.00     0.080 A 
HETATM   16  N1  UNL     1      37.848 -45.355  74.739  1.00  0.00    -0.319 N 
HETATM   17  C30 UNL     1      37.439 -46.101  72.719  1.00  0.00     0.136 A 
HETATM   18  C2  UNL     1      36.535 -45.205  74.522  1.00  0.00     0.225 A 
ATOM     19  H1  UNL     1      38.333 -45.094  75.597  1.00  0.00     0.169 HD
HETATM   20  N9  UNL     1      36.300 -45.670  73.271  1.00  0.00    -0.306 N 
ATOM     21  H9  UNL     1      35.387 -45.688  72.816  1.00  0.00     0.171 HD
HETATM   22  N8  UNL     1      37.742 -46.634  71.533  1.00  0.00    -0.334 N 
ATOM     23  H8  UNL     1      36.989 -46.769  70.860  1.00  0.00     0.168 HD
BRANCH  18  24
HETATM   24  O1  UNL     1      35.551 -44.678  75.380  1.00  0.00    -0.327 OA
HETATM   25  C1  UNL     1      34.323 -45.356  75.481  1.00  0.00     0.213 C 
ENDBRANCH  18  24
ENDBRANCH  11  12
ENDBRANCH  10  11
ENDBRANCH   9  10
BRANCH   9  26
HETATM   26  C24 UNL     1      39.892 -49.919  67.240  1.00  0.00    -0.013 A 
HETATM   27  C25 UNL     1      39.075 -50.879  67.823  1.00  0.00     0.013 A 
HETATM   28  C26 UNL     1      39.301 -52.226  67.712  1.00  0.00     0.001 A 
HETATM   29  C27 UNL     1      40.388 -52.664  66.991  1.00  0.00     0.000 A 
HETATM   30  C28 UNL     1      41.205 -51.724  66.409  1.00  0.00     0.001 A 
HETATM   31  C29 UNL     1      40.972 -50.373  66.524  1.00  0.00     0.013 A 
ENDBRANCH   9  26
ENDBRANCH   1   9
BRANCH   5  32
HETATM   32  C13 UNL     1      39.100 -45.012  63.255  1.00  0.00     0.107 A 
HETATM   33  N3  UNL     1      37.933 -44.749  62.630  1.00  0.00    -0.295 N 
HETATM   34  N4  UNL     1      38.161 -43.850  61.682  1.00  0.00    -0.291 N 
ATOM     35  H3  UNL     1      37.030 -45.169  62.849  1.00  0.00     0.187 HD
HETATM   36  C14 UNL     1      39.458 -43.536  61.694  1.00  0.00     0.121 A 
ATOM     37  H4  UNL     1      37.461 -43.462  61.049  1.00  0.00     0.187 HD
HETATM   38  C15 UNL     1      40.118 -44.238  62.670  1.00  0.00     0.100 A 
HETATM   39  S1  UNL     1      40.736 -42.537  60.920  1.00  0.00    -0.033 SA
HETATM   40  N5  UNL     1      41.340 -44.050  62.806  1.00  0.00    -0.332 N 
HETATM   41  C16 UNL     1      42.013 -43.157  61.992  1.00  0.00     0.147 A 
ATOM     42  H5  UNL     1      41.851 -44.560  63.527  1.00  0.00     0.168 HD
HETATM   43  N6  UNL     1      43.227 -42.829  61.978  1.00  0.00    -0.366 N 
ATOM     44  H6  UNL     1      43.581 -42.147  61.307  1.00  0.00     0.162 HD
BRANCH  43  45
HETATM   45  C17 UNL     1      44.111 -43.457  62.954  1.00  0.00     0.160 C 
BRANCH  45  46
HETATM   46  C18 UNL     1      45.363 -42.731  63.127  1.00  0.00    -0.041 A 
HETATM   47  C19 UNL     1      45.577 -41.544  62.475  1.00  0.00     0.009 A 
HETATM   48  C20 UNL     1      46.754 -40.834  62.621  1.00  0.00     0.001 A 
HETATM   49  C21 UNL     1      47.739 -41.319  63.435  1.00  0.00     0.000 A 
HETATM   50  C22 UNL     1      47.550 -42.518  64.108  1.00  0.00     0.001 A 
HETATM   51  C23 UNL     1      46.349 -43.222  63.944  1.00  0.00     0.009 A 
ENDBRANCH  45  46
ENDBRANCH  43  45
ENDBRANCH   5  32
TORSDOF 9
ENDMDL
MODEL 3
REMARK VINA RESULT: -8.721904316      1.224      1.618
REMARK  9 active torsions:
REMARK  status: ('A' for Active; 'I' for Inactive)
REMARK    1  A    between atoms: O1_2  and  C2_3 
REMARK    2  A    between atoms: C6_9  and  C7_10 
REMARK    3  A    between atoms: C7_10  and  C8_11 
REMARK    4  A    between atoms: C8_11  and  C9_12 
REMARK    5  A    between atoms: C9_12  and  C10_13 
REMARK    6  A    between atoms: C9_12  and  C24_41 
REMARK    7  A    between atoms: C12_17  and  C13_18 
REMARK    8  A    between atoms: N6_28  and  C17_30 
REMARK    9  A    between atoms: C17_30  and  C18_31 
ROOT
HETATM    1  C10 UNL     1      39.938 -45.729  65.929  1.00  0.00     0.190 A 
HETATM    2  N2  UNL     1      40.007 -47.049  66.424  1.00  0.00    -0.342 N 
ATOM      3  H2  UNL     1      40.156 -47.812  65.764  1.00  0.00     0.167 HD
HETATM    4  C11 UNL     1      39.889 -47.334  67.697  1.00  0.00     0.124 A 
HETATM    5  C12 UNL     1      39.677 -46.295  68.692  1.00  0.00     0.100 A 
HETATM    6  N7  UNL     1      39.608 -44.963  68.191  1.00  0.00    -0.256 N 
ATOM      7  H7  UNL     1      39.460 -44.184  68.834  1.00  0.00     0.195 HD
HETATM    8  O2  UNL     1      39.738 -44.726  66.853  1.00  0.00    -0.218 OA
ENDROOT
BRANCH   1   9
HETATM    9  C9  UNL     1      40.052 -45.425  64.668  1.00  0.00     0.081 C 
BRANCH   9  10
HETATM   10  C8  UNL     1      41.349 -45.237  64.094  1.00  0.00    -0.055 C 
BRANCH  10  11
HETATM   11  C7  UNL     1      42.454 -45.090  63.638  1.00  0.00    -0.043 C 
BRANCH  11  12
HETATM   12  C6  UNL     1      43.781 -44.907  63.128  1.00  0.00     0.088 A 
HETATM   13  C5  UNL     1      44.728 -45.891  63.033  1.00  0.00     0.041 A 
HETATM   14  C4  UNL     1      45.993 -45.683  62.532  1.00  0.00     0.036 A 
HETATM   15  C3  UNL     1      46.317 -44.396  62.103  1.00  0.00     0.080 A 
HETATM   16  N1  UNL     1      47.418 -43.842  61.573  1.00  0.00    -0.319 N 
HETATM   17  C30 UNL     1      45.364 -43.397  62.196  1.00  0.00     0.136 A 
HETATM   18  C2  UNL     1      47.205 -42.542  61.329  1.00  0.00     0.225 A 
ATOM     19  H1  UNL     1      48.289 -44.337  61.384  1.00  0.00     0.169 HD
HETATM   20  N9  UNL     1      45.933 -42.285  61.719  1.00  0.00    -0.306 N 
ATOM     21  H9  UNL     1      45.476 -41.375  61.657  1.00  0.00     0.171 HD
HETATM   22  N8  UNL     1      44.156 -43.672  62.691  1.00  0.00    -0.334 N 
ATOM     23  H8  UNL     1      43.475 -42.915  62.746  1.00  0.00     0.168 HD
BRANCH  18  24
HETATM   24  O1  UNL     1      48.085 -41.589  60.780  1.00  0.00    -0.327 OA
HETATM   25  C1  UNL     1      49.359 -42.019  60.370  1.00  0.00     0.213 C 
ENDBRANCH  18  24
ENDBRANCH  11  12
ENDBRANCH  10  11
ENDBRANCH   9  10
BRANCH   9  26
HETATM   26  C24 UNL     1      38.869 -45.261  63.825  1.00  0.00    -0.013 A 
HETATM   27  C25 UNL     1      38.572 -43.994  63.340  1.00  0.00     0.013 A 
HETATM   28  C26 UNL     1      37.483 -43.728  62.550  1.00  0.00     0.001 A 
HETATM   29  C27 UNL     1      36.633 -44.758  62.215  1.00  0.00     0.000 A 
HETATM   30  C28 UNL     1      36.917 -46.017  62.689  1.00  0.00     0.001 A 
HETATM   31  C29 UNL     1      38.012 -46.277  63.481  1.00  0.00     0.013 A 
ENDBRANCH   9  26
ENDBRANCH   1   9
BRANCH   5  32
HETATM   32  C13 UNL     1      39.550 -46.546  69.997  1.00  0.00     0.107 A 
HETATM   33  N3  UNL     1      39.443 -47.795  70.495  1.00  0.00    -0.295 N 
HETATM   34  N4  UNL     1      39.331 -47.710  71.814  1.00  0.00    -0.291 N 
ATOM     35  H3  UNL     1      39.447 -48.658  69.951  1.00  0.00     0.187 HD
HETATM   36  C14 UNL     1      39.366 -46.422  72.163  1.00  0.00     0.121 A 
ATOM     37  H4  UNL     1      39.235 -48.497  72.455  1.00  0.00     0.187 HD
HETATM   38  C15 UNL     1      39.504 -45.623  71.057  1.00  0.00     0.100 A 
HETATM   39  S1  UNL     1      39.297 -45.270  73.541  1.00  0.00    -0.033 SA
HETATM   40  N5  UNL     1      39.554 -44.392  71.223  1.00  0.00    -0.332 N 
HETATM   41  C16 UNL     1      39.471 -43.844  72.490  1.00  0.00     0.147 A 
ATOM     42  H5  UNL     1      39.658 -43.778  70.415  1.00  0.00     0.168 HD
HETATM   43  N6  UNL     1      39.508 -42.643  72.860  1.00  0.00    -0.366 N 
ATOM     44  H6  UNL     1      39.432 -42.391  73.845  1.00  0.00     0.162 HD
BRANCH  43  45
HETATM   45  C17 UNL     1      39.665 -41.622  71.829  1.00  0.00     0.160 C 
BRANCH  45  46
HETATM   46  C18 UNL     1      38.600 -40.626  71.860  1.00  0.00    -0.041 A 
HETATM   47  C19 UNL     1      37.350 -40.954  72.318  1.00  0.00     0.009 A 
HETATM   48  C20 UNL     1      36.324 -40.030  72.359  1.00  0.00     0.001 A 
HETATM   49  C21 UNL     1      36.548 -38.751  71.934  1.00  0.00     0.000 A 
HETATM   50  C22 UNL     1      37.803 -38.390  71.465  1.00  0.00     0.001 A 
HETATM   51  C23 UNL     1      38.830 -39.344  71.433  1.00  0.00     0.009 A 
ENDBRANCH  45  46
ENDBRANCH  43  45
ENDBRANCH   5  32
TORSDOF 9
ENDMDL
MODEL 4
REMARK VINA RESULT: -8.700143832      3.401      4.893
REMARK  9 active torsions:
REMARK  status: ('A' for Active; 'I' for Inactive)
REMARK    1  A    between atoms: O1_2  and  C2_3 
REMARK    2  A    between atoms: C6_9  and  C7_10 
REMARK    3  A    between atoms: C7_10  and  C8_11 
REMARK    4  A    between atoms: C8_11  and  C9_12 
REMARK    5  A    between atoms: C9_12  and  C10_13 
REMARK    6  A    between atoms: C9_12  and  C24_41 
REMARK    7  A    between atoms: C12_17  and  C13_18 
REMARK    8  A    between atoms: N6_28  and  C17_30 
REMARK    9  A    between atoms: C17_30  and  C18_31 
ROOT
HETATM    1  C10 UNL     1      39.771 -47.163  65.806  1.00  0.00     0.190 A 
HETATM    2  N2  UNL     1      39.422 -48.370  66.448  1.00  0.00    -0.342 N 
ATOM      3  H2  UNL     1      39.306 -49.210  65.881  1.00  0.00     0.167 HD
HETATM    4  C11 UNL     1      39.241 -48.456  67.742  1.00  0.00     0.124 A 
HETATM    5  C12 UNL     1      39.392 -47.298  68.609  1.00  0.00     0.100 A 
HETATM    6  N7  UNL     1      39.744 -46.080  67.960  1.00  0.00    -0.256 N 
ATOM      7  H7  UNL     1      39.865 -45.228  68.507  1.00  0.00     0.195 HD
HETATM    8  O2  UNL     1      39.920 -46.051  66.606  1.00  0.00    -0.218 OA
ENDROOT
BRANCH   1   9
HETATM    9  C9  UNL     1      39.954 -47.056  64.521  1.00  0.00     0.081 C 
BRANCH   9  10
HETATM   10  C8  UNL     1      41.220 -46.621  64.015  1.00  0.00    -0.055 C 
BRANCH  10  11
HETATM   11  C7  UNL     1      42.285 -46.232  63.610  1.00  0.00    -0.043 C 
BRANCH  11  12
HETATM   12  C6  UNL     1      43.567 -45.775  63.162  1.00  0.00     0.088 A 
HETATM   13  C5  UNL     1      44.722 -46.507  63.207  1.00  0.00     0.041 A 
HETATM   14  C4  UNL     1      45.938 -46.039  62.763  1.00  0.00     0.036 A 
HETATM   15  C3  UNL     1      45.984 -44.746  62.241  1.00  0.00     0.080 A 
HETATM   16  N1  UNL     1      46.962 -43.985  61.728  1.00  0.00    -0.319 N 
HETATM   17  C30 UNL     1      44.820 -44.000  62.192  1.00  0.00     0.136 A 
HETATM   18  C2  UNL     1      46.470 -42.794  61.360  1.00  0.00     0.225 A 
ATOM     19  H1  UNL     1      47.936 -44.270  61.632  1.00  0.00     0.169 HD
HETATM   20  N9  UNL     1      45.147 -42.821  61.653  1.00  0.00    -0.306 N 
ATOM     21  H9  UNL     1      44.496 -42.054  61.486  1.00  0.00     0.171 HD
HETATM   22  N8  UNL     1      43.675 -44.519  62.641  1.00  0.00    -0.334 N 
ATOM     23  H8  UNL     1      42.834 -43.946  62.591  1.00  0.00     0.168 HD
BRANCH  18  24
HETATM   24  O1  UNL     1      47.142 -41.700  60.780  1.00  0.00    -0.327 OA
HETATM   25  C1  UNL     1      47.741 -40.759  61.635  1.00  0.00     0.213 C 
ENDBRANCH  18  24
ENDBRANCH  11  12
ENDBRANCH  10  11
ENDBRANCH   9  10
BRANCH   9  26
HETATM   26  C24 UNL     1      38.878 -47.364  63.581  1.00  0.00    -0.013 A 
HETATM   27  C25 UNL     1      37.849 -46.445  63.426  1.00  0.00     0.013 A 
HETATM   28  C26 UNL     1      36.788 -46.639  62.579  1.00  0.00     0.001 A 
HETATM   29  C27 UNL     1      36.727 -47.799  61.840  1.00  0.00     0.000 A 
HETATM   30  C28 UNL     1      37.740 -48.717  61.984  1.00  0.00     0.001 A 
HETATM   31  C29 UNL     1      38.802 -48.516  62.836  1.00  0.00     0.013 A 
ENDBRANCH   9  26
ENDBRANCH   1   9
BRANCH   5  32
HETATM   32  C13 UNL     1      39.214 -47.346  69.931  1.00  0.00     0.107 A 
HETATM   33  N3  UNL     1      38.053 -47.730  70.501  1.00  0.00    -0.295 N 
HETATM   34  N4  UNL     1      38.194 -47.670  71.818  1.00  0.00    -0.291 N 
ATOM     35  H3  UNL     1      37.210 -48.019  70.003  1.00  0.00     0.187 HD
HETATM   36  C14 UNL     1      39.431 -47.252  72.096  1.00  0.00     0.121 A 
ATOM     37  H4  UNL     1      37.477 -47.905  72.505  1.00  0.00     0.187 HD
HETATM   38  C15 UNL     1      40.137 -47.026  70.942  1.00  0.00     0.100 A 
HETATM   39  S1  UNL     1      40.584 -46.845  73.413  1.00  0.00    -0.033 SA
HETATM   40  N5  UNL     1      41.313 -46.632  71.039  1.00  0.00    -0.332 N 
HETATM   41  C16 UNL     1      41.890 -46.426  72.280  1.00  0.00     0.147 A 
ATOM     42  H5  UNL     1      41.858 -46.458  70.195  1.00  0.00     0.168 HD
HETATM   43  N6  UNL     1      43.049 -46.043  72.582  1.00  0.00    -0.366 N 
ATOM     44  H6  UNL     1      43.332 -45.936  73.556  1.00  0.00     0.162 HD
BRANCH  43  45
HETATM   45  C17 UNL     1      43.974 -45.757  71.491  1.00  0.00     0.160 C 
BRANCH  45  46
HETATM   46  C18 UNL     1      44.786 -46.911  71.126  1.00  0.00    -0.041 A 
HETATM   47  C19 UNL     1      45.385 -47.676  72.094  1.00  0.00     0.009 A 
HETATM   48  C20 UNL     1      46.159 -48.776  71.777  1.00  0.00     0.001 A 
HETATM   49  C21 UNL     1      46.341 -49.121  70.467  1.00  0.00     0.000 A 
HETATM   50  C22 UNL     1      45.748 -48.364  69.466  1.00  0.00     0.001 A 
HETATM   51  C23 UNL     1      44.966 -47.252  69.810  1.00  0.00     0.009 A 
ENDBRANCH  45  46
ENDBRANCH  43  45
ENDBRANCH   5  32
TORSDOF 9
ENDMDL
MODEL 5
REMARK VINA RESULT: -8.646300999      3.280      5.741
REMARK  9 active torsions:
REMARK  status: ('A' for Active; 'I' for Inactive)
REMARK    1  A    between atoms: O1_2  and  C2_3 
REMARK    2  A    between atoms: C6_9  and  C7_10 
REMARK    3  A    between atoms: C7_10  and  C8_11 
REMARK    4  A    between atoms: C8_11  and  C9_12 
REMARK    5  A    between atoms: C9_12  and  C10_13 
REMARK    6  A    between atoms: C9_12  and  C24_41 
REMARK    7  A    between atoms: C12_17  and  C13_18 
REMARK    8  A    between atoms: N6_28  and  C17_30 
REMARK    9  A    between atoms: C17_30  and  C18_31 
ROOT
HETATM    1  C10 UNL     1      39.978 -46.679  66.046  1.00  0.00     0.190 A 
HETATM    2  N2  UNL     1      39.755 -47.835  66.824  1.00  0.00    -0.342 N 
ATOM      3  H2  UNL     1      39.709 -48.740  66.356  1.00  0.00     0.167 HD
HETATM    4  C11 UNL     1      39.603 -47.793  68.124  1.00  0.00     0.124 A 
HETATM    5  C12 UNL     1      39.657 -46.537  68.856  1.00  0.00     0.100 A 
HETATM    6  N7  UNL     1      39.883 -45.371  68.069  1.00  0.00    -0.256 N 
ATOM      7  H7  UNL     1      39.932 -44.456  68.517  1.00  0.00     0.195 HD
HETATM    8  O2  UNL     1      40.033 -45.477  66.716  1.00  0.00    -0.218 OA
ENDROOT
BRANCH   1   9
HETATM    9  C9  UNL     1      40.129 -46.699  64.752  1.00  0.00     0.081 C 
BRANCH   9  10
HETATM   10  C8  UNL     1      41.373 -46.292  64.174  1.00  0.00    -0.055 C 
BRANCH  10  11
HETATM   11  C7  UNL     1      42.432 -45.948  63.716  1.00  0.00    -0.043 C 
BRANCH  11  12
HETATM   12  C6  UNL     1      43.708 -45.541  63.205  1.00  0.00     0.088 A 
HETATM   13  C5  UNL     1      44.829 -46.324  63.177  1.00  0.00     0.041 A 
HETATM   14  C4  UNL     1      46.039 -45.904  62.673  1.00  0.00     0.036 A 
HETATM   15  C3  UNL     1      46.115 -44.606  62.166  1.00  0.00     0.080 A 
HETATM   16  N1  UNL     1      47.097 -43.880  61.611  1.00  0.00    -0.319 N 
HETATM   17  C30 UNL     1      44.984 -43.808  62.191  1.00  0.00     0.136 A 
HETATM   18  C2  UNL     1      46.640 -42.663  61.286  1.00  0.00     0.225 A 
ATOM     19  H1  UNL     1      48.051 -44.207  61.458  1.00  0.00     0.169 HD
HETATM   20  N9  UNL     1      45.335 -42.637  61.650  1.00  0.00    -0.306 N 
ATOM     21  H9  UNL     1      44.711 -41.839  61.529  1.00  0.00     0.171 HD
HETATM   22  N8  UNL     1      43.843 -44.283  62.695  1.00  0.00    -0.334 N 
ATOM     23  H8  UNL     1      43.028 -43.672  62.699  1.00  0.00     0.168 HD
BRANCH  18  24
HETATM   24  O1  UNL     1      47.328 -41.591  60.685  1.00  0.00    -0.327 OA
HETATM   25  C1  UNL     1      47.883 -40.606  61.520  1.00  0.00     0.213 C 
ENDBRANCH  18  24
ENDBRANCH  11  12
ENDBRANCH  10  11
ENDBRANCH   9  10
BRANCH   9  26
HETATM   26  C24 UNL     1      39.040 -47.122  63.875  1.00  0.00    -0.013 A 
HETATM   27  C25 UNL     1      38.053 -46.200  63.549  1.00  0.00     0.013 A 
HETATM   28  C26 UNL     1      36.985 -46.495  62.743  1.00  0.00     0.001 A 
HETATM   29  C27 UNL     1      36.870 -47.765  62.224  1.00  0.00     0.000 A 
HETATM   30  C28 UNL     1      37.839 -48.687  62.539  1.00  0.00     0.001 A 
HETATM   31  C29 UNL     1      38.910 -48.384  63.349  1.00  0.00     0.013 A 
ENDBRANCH   9  26
ENDBRANCH   1   9
BRANCH   5  32
HETATM   32  C13 UNL     1      39.506 -46.454  70.179  1.00  0.00     0.107 A 
HETATM   33  N3  UNL     1      38.363 -46.036  70.761  1.00  0.00    -0.295 N 
HETATM   34  N4  UNL     1      38.529 -46.065  72.077  1.00  0.00    -0.291 N 
ATOM     35  H3  UNL     1      37.515 -45.747  70.273  1.00  0.00     0.187 HD
HETATM   36  C14 UNL     1      39.765 -46.496  72.341  1.00  0.00     0.121 A 
ATOM     37  H4  UNL     1      37.830 -45.802  72.771  1.00  0.00     0.187 HD
HETATM   38  C15 UNL     1      40.444 -46.763  71.181  1.00  0.00     0.100 A 
HETATM   39  S1  UNL     1      40.941 -46.876  73.646  1.00  0.00    -0.033 SA
HETATM   40  N5  UNL     1      41.614 -47.178  71.265  1.00  0.00    -0.332 N 
HETATM   41  C16 UNL     1      42.212 -47.362  72.499  1.00  0.00     0.147 A 
ATOM     42  H5  UNL     1      42.138 -47.384  70.415  1.00  0.00     0.168 HD
HETATM   43  N6  UNL     1      43.364 -47.772  72.789  1.00  0.00    -0.366 N 
ATOM     44  H6  UNL     1      43.666 -47.855  73.760  1.00  0.00     0.162 HD
BRANCH  43  45
HETATM   45  C17 UNL     1      44.254 -48.127  71.688  1.00  0.00     0.160 C 
BRANCH  45  46
HETATM   46  C18 UNL     1      44.807 -49.469  71.823  1.00  0.00    -0.041 A 
HETATM   47  C19 UNL     1      46.047 -49.767  71.320  1.00  0.00     0.009 A 
HETATM   48  C20 UNL     1      46.596 -51.030  71.435  1.00  0.00     0.001 A 
HETATM   49  C21 UNL     1      45.893 -52.018  72.065  1.00  0.00     0.000 A 
HETATM   50  C22 UNL     1      44.635 -51.746  72.584  1.00  0.00     0.001 A 
HETATM   51  C23 UNL     1      44.097 -50.457  72.456  1.00  0.00     0.009 A 
ENDBRANCH  45  46
ENDBRANCH  43  45
ENDBRANCH   5  32
TORSDOF 9
ENDMDL
