MODEL 1
REMARK VINA RESULT: -6.518834975      0.000      0.000
REMARK  2 active torsions:
REMARK  status: ('A' for Active; 'I' for Inactive)
REMARK    1  A    between atoms: C2_2  and  C3_3 
REMARK    2  A    between atoms: C2_2  and  C4_5 
ROOT
HETATM    1  C4  UNL     1      30.204  37.244  36.771  1.00  0.00     0.103 C 
HETATM    2  S1  UNL     1      32.019  37.400  36.348  1.00  0.00    -0.153 SA
HETATM    3  C5  UNL     1      32.449  35.858  37.193  1.00  0.00     0.118 C 
HETATM    4  C6  UNL     1      31.446  35.847  38.288  1.00  0.00     0.013 A 
HETATM    5  C7  UNL     1      30.302  36.548  38.068  1.00  0.00     0.036 A 
HETATM    6  N1  UNL     1      29.385  36.534  39.052  1.00  0.00    -0.335 N 
ATOM      7  H1  UNL     1      28.516  37.051  38.916  1.00  0.00     0.168 HD
HETATM    8  C8  UNL     1      29.564  35.867  40.216  1.00  0.00     0.177 A 
HETATM    9  S2  UNL     1      28.401  35.892  41.384  1.00  0.00    -0.040 SA
HETATM   10  N2  UNL     1      30.684  35.177  40.442  1.00  0.00    -0.324 N 
ATOM     11  H2  UNL     1      30.814  34.676  41.321  1.00  0.00     0.169 HD
HETATM   12  C9  UNL     1      31.634  35.151  39.501  1.00  0.00     0.111 A 
HETATM   13  S3  UNL     1      33.031  34.303  39.757  1.00  0.00    -0.060 SA
ENDROOT
BRANCH   1  14
HETATM   14  C2  UNL     1      29.658  38.608  36.751  1.00  0.00     0.015 C 
HETATM   15  C1  UNL     1      30.033  39.546  37.832  1.00  0.00     0.012 C 
BRANCH  14  16
HETATM   16  C3  UNL     1      28.211  38.680  36.361  1.00  0.00     0.120 C 
HETATM   17 CL1  UNL     1      27.275  38.727  37.912  1.00  0.00    -0.130 Cl
ENDBRANCH  14  16
ENDBRANCH   1  14
TORSDOF 2
ENDMDL
MODEL 2
REMARK VINA RESULT: -6.353451758      2.655      4.230
REMARK  2 active torsions:
REMARK  status: ('A' for Active; 'I' for Inactive)
REMARK    1  A    between atoms: C2_2  and  C3_3 
REMARK    2  A    between atoms: C2_2  and  C4_5 
ROOT
HETATM    1  C4  UNL     1      32.673  36.929  38.618  1.00  0.00     0.103 C 
HETATM    2  S1  UNL     1      32.581  37.139  36.762  1.00  0.00    -0.153 SA
HETATM    3  C5  UNL     1      31.119  38.203  36.857  1.00  0.00     0.118 C 
HETATM    4  C6  UNL     1      30.444  37.649  38.058  1.00  0.00     0.013 A 
HETATM    5  C7  UNL     1      31.239  37.007  38.956  1.00  0.00     0.036 A 
HETATM    6  N1  UNL     1      30.636  36.511  40.051  1.00  0.00    -0.335 N 
ATOM      7  H1  UNL     1      31.206  36.025  40.744  1.00  0.00     0.168 HD
HETATM    8  C8  UNL     1      29.307  36.629  40.277  1.00  0.00     0.177 A 
HETATM    9  S2  UNL     1      28.629  35.997  41.640  1.00  0.00    -0.040 SA
HETATM   10  N2  UNL     1      28.519  37.256  39.401  1.00  0.00    -0.324 N 
ATOM     11  H2  UNL     1      27.518  37.341  39.576  1.00  0.00     0.169 HD
HETATM   12  C9  UNL     1      29.058  37.771  38.292  1.00  0.00     0.111 A 
HETATM   13  S3  UNL     1      28.103  38.554  37.191  1.00  0.00    -0.060 SA
ENDROOT
BRANCH   1  14
HETATM   14  C2  UNL     1      33.376  35.661  38.854  1.00  0.00     0.015 C 
HETATM   15  C1  UNL     1      34.802  35.550  38.474  1.00  0.00     0.012 C 
BRANCH  14  16
HETATM   16  C3  UNL     1      32.564  34.442  38.525  1.00  0.00     0.120 C 
HETATM   17 CL1  UNL     1      32.509  33.453  40.043  1.00  0.00    -0.130 Cl
ENDBRANCH  14  16
ENDBRANCH   1  14
TORSDOF 2
ENDMDL
MODEL 3
REMARK VINA RESULT: -6.164300355      0.972      1.329
REMARK  2 active torsions:
REMARK  status: ('A' for Active; 'I' for Inactive)
REMARK    1  A    between atoms: C2_2  and  C3_3 
REMARK    2  A    between atoms: C2_2  and  C4_5 
ROOT
HETATM    1  C4  UNL     1      29.975  37.087  36.751  1.00  0.00     0.103 C 
HETATM    2  S1  UNL     1      31.767  37.301  36.262  1.00  0.00    -0.153 SA
HETATM    3  C5  UNL     1      32.294  35.831  37.181  1.00  0.00     0.118 C 
HETATM    4  C6  UNL     1      31.325  35.839  38.306  1.00  0.00     0.013 A 
HETATM    5  C7  UNL     1      30.143  36.473  38.082  1.00  0.00     0.036 A 
HETATM    6  N1  UNL     1      29.257  36.476  39.095  1.00  0.00    -0.335 N 
ATOM      7  H1  UNL     1      28.360  36.943  38.957  1.00  0.00     0.168 HD
HETATM    8  C8  UNL     1      29.500  35.887  40.288  1.00  0.00     0.177 A 
HETATM    9  S2  UNL     1      28.372  35.927  41.489  1.00  0.00    -0.040 SA
HETATM   10  N2  UNL     1      30.658  35.263  40.517  1.00  0.00    -0.324 N 
ATOM     11  H2  UNL     1      30.836  34.821  41.419  1.00  0.00     0.169 HD
HETATM   12  C9  UNL     1      31.580  35.225  39.550  1.00  0.00     0.111 A 
HETATM   13  S3  UNL     1      33.023  34.458  39.809  1.00  0.00    -0.060 SA
ENDROOT
BRANCH   1  14
HETATM   14  C2  UNL     1      29.364  38.421  36.671  1.00  0.00     0.015 C 
HETATM   15  C1  UNL     1      28.296  38.662  35.677  1.00  0.00     0.012 C 
BRANCH  14  16
HETATM   16  C3  UNL     1      30.347  39.549  36.793  1.00  0.00     0.120 C 
HETATM   17 CL1  UNL     1      30.475  39.913  38.563  1.00  0.00    -0.130 Cl
ENDBRANCH  14  16
ENDBRANCH   1  14
TORSDOF 2
ENDMDL
MODEL 4
REMARK VINA RESULT: -6.092799867      2.435      3.879
REMARK  2 active torsions:
REMARK  status: ('A' for Active; 'I' for Inactive)
REMARK    1  A    between atoms: C2_2  and  C3_3 
REMARK    2  A    between atoms: C2_2  and  C4_5 
ROOT
HETATM    1  C4  UNL     1      27.744  36.621  38.688  1.00  0.00     0.103 C 
HETATM    2  S1  UNL     1      27.544  38.322  37.939  1.00  0.00    -0.153 SA
HETATM    3  C5  UNL     1      28.884  38.063  36.748  1.00  0.00     0.118 C 
HETATM    4  C6  UNL     1      29.780  37.166  37.523  1.00  0.00     0.013 A 
HETATM    5  C7  UNL     1      29.195  36.428  38.505  1.00  0.00     0.036 A 
HETATM    6  N1  UNL     1      30.000  35.607  39.204  1.00  0.00    -0.335 N 
ATOM      7  H1  UNL     1      29.590  35.041  39.947  1.00  0.00     0.168 HD
HETATM    8  C8  UNL     1      31.327  35.499  38.966  1.00  0.00     0.177 A 
HETATM    9  S2  UNL     1      32.258  34.473  39.860  1.00  0.00    -0.040 SA
HETATM   10  N2  UNL     1      31.909  36.219  38.005  1.00  0.00    -0.324 N 
ATOM     11  H2  UNL     1      32.911  36.133  37.830  1.00  0.00     0.169 HD
HETATM   12  C9  UNL     1      31.164  37.054  37.274  1.00  0.00     0.111 A 
HETATM   13  S3  UNL     1      31.862  37.958  36.077  1.00  0.00    -0.060 SA
ENDROOT
BRANCH   1  14
HETATM   14  C2  UNL     1      27.221  36.710  40.058  1.00  0.00     0.015 C 
HETATM   15  C1  UNL     1      27.517  35.619  41.011  1.00  0.00     0.012 C 
BRANCH  14  16
HETATM   16  C3  UNL     1      25.812  37.223  40.140  1.00  0.00     0.120 C 
HETATM   17 CL1  UNL     1      25.296  36.992  41.862  1.00  0.00    -0.130 Cl
ENDBRANCH  14  16
ENDBRANCH   1  14
TORSDOF 2
ENDMDL
MODEL 5
REMARK VINA RESULT: -6.021224115      1.927      3.515
REMARK  2 active torsions:
REMARK  status: ('A' for Active; 'I' for Inactive)
REMARK    1  A    between atoms: C2_2  and  C3_3 
REMARK    2  A    between atoms: C2_2  and  C4_5 
ROOT
HETATM    1  C4  UNL     1      28.621  36.514  38.953  1.00  0.00     0.103 C 
HETATM    2  S1  UNL     1      28.788  38.253  38.286  1.00  0.00    -0.153 SA
HETATM    3  C5  UNL     1      30.046  37.772  37.076  1.00  0.00     0.118 C 
HETATM    4  C6  UNL     1      30.729  36.671  37.802  1.00  0.00     0.013 A 
HETATM    5  C7  UNL     1      29.999  36.028  38.752  1.00  0.00     0.036 A 
HETATM    6  N1  UNL     1      30.609  35.023  39.406  1.00  0.00    -0.335 N 
ATOM      7  H1  UNL     1      30.086  34.521  40.124  1.00  0.00     0.168 HD
HETATM    8  C8  UNL     1      31.884  34.647  39.154  1.00  0.00     0.177 A 
HETATM    9  S2  UNL     1      32.574  33.407  39.992  1.00  0.00    -0.040 SA
HETATM   10  N2  UNL     1      32.609  35.273  38.224  1.00  0.00    -0.324 N 
ATOM     11  H2  UNL     1      33.570  34.986  38.039  1.00  0.00     0.169 HD
HETATM   12  C9  UNL     1      32.059  36.281  37.538  1.00  0.00     0.111 A 
HETATM   13  S3  UNL     1      32.937  37.072  36.380  1.00  0.00    -0.060 SA
ENDROOT
BRANCH   1  14
HETATM   14  C2  UNL     1      28.124  36.648  40.330  1.00  0.00     0.015 C 
HETATM   15  C1  UNL     1      29.090  36.598  41.449  1.00  0.00     0.012 C 
BRANCH  14  16
HETATM   16  C3  UNL     1      26.850  35.898  40.593  1.00  0.00     0.120 C 
HETATM   17 CL1  UNL     1      25.503  37.049  40.213  1.00  0.00    -0.130 Cl
ENDBRANCH  14  16
ENDBRANCH   1  14
TORSDOF 2
ENDMDL
