MODEL 1
REMARK VINA RESULT: -8.235399491      0.000      0.000
REMARK  10 active torsions:
REMARK  status: ('A' for Active; 'I' for Inactive)
REMARK    1  A    between atoms: C2_2  and  O1_3 
REMARK    2  A    between atoms: C2_2  and  C3_5 
REMARK    3  A    between atoms: C3_5  and  O2_6 
REMARK    4  A    between atoms: C3_5  and  C4_8 
REMARK    5  A    between atoms: C4_8  and  O3_9 
REMARK    6  A    between atoms: C4_8  and  C5_11 
REMARK    7  A    between atoms: C6_13  and  N1_14 
REMARK    8  A    between atoms: N3_21  and  N4_22 
REMARK    9  A    between atoms: C9_25  and  O7_27 
REMARK   10  A    between atoms: C11_29  and  O8_30 
ROOT
HETATM    1  C5  UNL     1       2.752  13.236  20.653  1.00  0.00     0.187 C 
HETATM    2  O4  UNL     1       2.897  13.042  22.024  1.00  0.00    -0.351 OA
HETATM    3  C6  UNL     1       3.131  11.677  22.159  1.00  0.00     0.288 C 
HETATM    4  C9  UNL     1       2.275  10.978  21.133  1.00  0.00     0.128 C 
HETATM    5  C10 UNL     1       1.100  10.263  21.732  1.00  0.00     0.053 C 
HETATM    6  C11 UNL     1       1.829  12.132  20.255  1.00  0.00     0.188 C 
ENDROOT
BRANCH   3   7
HETATM    7  N1  UNL     1       2.917  11.218  23.490  1.00  0.00    -0.184 N 
HETATM    8  C7  UNL     1       3.353  10.055  23.993  1.00  0.00     0.349 A 
HETATM    9  O5  UNL     1       4.030   9.161  23.378  1.00  0.00    -0.245 OA
HETATM   10  N2  UNL     1       2.950   9.988  25.274  1.00  0.00    -0.256 N 
HETATM   11  C8  UNL     1       2.270  11.109  25.547  1.00  0.00     0.364 A 
ATOM     12  H2  UNL     1       3.131   9.221  25.922  1.00  0.00     0.175 HD
HETATM   13  O6  UNL     1       1.744  11.386  26.664  1.00  0.00    -0.243 OA
HETATM   14  N3  UNL     1       2.259  11.862  24.432  1.00  0.00    -0.140 N 
BRANCH  14  15
HETATM   15  N4  UNL     1       1.620  13.112  24.386  1.00  0.00    -0.319 N 
ATOM     16  H42 UNL     1       0.679  13.224  24.009  1.00  0.00     0.179 HD
ATOM     17  H41 UNL     1       1.956  14.026  24.690  1.00  0.00     0.179 HD
ENDBRANCH  14  15
ENDBRANCH   3   7
BRANCH   4  18
HETATM   18  O7  UNL     1       3.054  10.069  20.454  1.00  0.00    -0.383 OA
ATOM     19  H7  UNL     1       3.340  10.464  19.638  1.00  0.00     0.210 HD
ENDBRANCH   4  18
BRANCH   1  20
HETATM   20  C4  UNL     1       2.203  14.602  20.430  1.00  0.00     0.181 C 
BRANCH  20  21
HETATM   21  C3  UNL     1       1.270  15.052  21.531  1.00  0.00     0.177 C 
BRANCH  21  22
HETATM   22  C2  UNL     1       1.845  16.239  22.280  1.00  0.00     0.145 C 
HETATM   23  C1  UNL     1       0.728  16.995  22.994  1.00  0.00     0.042 C 
BRANCH  22  24
HETATM   24  O1  UNL     1       2.736  15.793  23.254  1.00  0.00    -0.393 OA
ATOM     25  H1  UNL     1       3.615  15.928  22.919  1.00  0.00     0.210 HD
ENDBRANCH  22  24
ENDBRANCH  21  22
BRANCH  21  26
HETATM   26  O2  UNL     1       0.039  15.444  21.007  1.00  0.00    -0.390 OA
ATOM     27  H2  UNL     1      -0.639  15.041  21.537  1.00  0.00     0.210 HD
ENDBRANCH  21  26
ENDBRANCH  20  21
BRANCH  20  28
HETATM   28  O3  UNL     1       3.151  15.574  20.193  1.00  0.00    -0.390 OA
ATOM     29  H3  UNL     1       3.798  15.250  19.577  1.00  0.00     0.210 HD
ENDBRANCH  20  28
ENDBRANCH   1  20
BRANCH   6  30
HETATM   30  O8  UNL     1       0.486  12.437  20.481  1.00  0.00    -0.390 OA
ATOM     31  H8  UNL     1       0.174  13.154  19.943  1.00  0.00     0.210 HD
ENDBRANCH   6  30
TORSDOF 10
ENDMDL
MODEL 2
REMARK VINA RESULT: -7.968850582      1.103      1.678
REMARK  10 active torsions:
REMARK  status: ('A' for Active; 'I' for Inactive)
REMARK    1  A    between atoms: C2_2  and  O1_3 
REMARK    2  A    between atoms: C2_2  and  C3_5 
REMARK    3  A    between atoms: C3_5  and  O2_6 
REMARK    4  A    between atoms: C3_5  and  C4_8 
REMARK    5  A    between atoms: C4_8  and  O3_9 
REMARK    6  A    between atoms: C4_8  and  C5_11 
REMARK    7  A    between atoms: C6_13  and  N1_14 
REMARK    8  A    between atoms: N3_21  and  N4_22 
REMARK    9  A    between atoms: C9_25  and  O7_27 
REMARK   10  A    between atoms: C11_29  and  O8_30 
ROOT
HETATM    1  C5  UNL     1       2.747  13.237  20.718  1.00  0.00     0.187 C 
HETATM    2  O4  UNL     1       2.863  13.072  22.097  1.00  0.00    -0.351 OA
HETATM    3  C6  UNL     1       3.104  11.712  22.264  1.00  0.00     0.288 C 
HETATM    4  C9  UNL     1       2.275  10.986  21.234  1.00  0.00     0.128 C 
HETATM    5  C10 UNL     1       1.092  10.275  21.820  1.00  0.00     0.053 C 
HETATM    6  C11 UNL     1       1.842  12.119  20.323  1.00  0.00     0.188 C 
ENDROOT
BRANCH   3   7
HETATM    7  N1  UNL     1       2.862  11.279  23.599  1.00  0.00    -0.184 N 
HETATM    8  C7  UNL     1       2.171  11.957  24.526  1.00  0.00     0.349 A 
HETATM    9  O5  UNL     1       1.612  13.099  24.380  1.00  0.00    -0.245 OA
HETATM   10  N2  UNL     1       2.166  11.222  25.651  1.00  0.00    -0.256 N 
HETATM   11  C8  UNL     1       2.854  10.099  25.407  1.00  0.00     0.364 A 
ATOM     12  H2  UNL     1       1.718  11.473  26.532  1.00  0.00     0.175 HD
HETATM   13  O6  UNL     1       3.052   9.171  26.245  1.00  0.00    -0.243 OA
HETATM   14  N3  UNL     1       3.278  10.148  24.131  1.00  0.00    -0.140 N 
BRANCH  14  15
HETATM   15  N4  UNL     1       4.035   9.112  23.560  1.00  0.00    -0.319 N 
ATOM     16  H42 UNL     1       4.368   9.155  22.597  1.00  0.00     0.179 HD
ATOM     17  H41 UNL     1       4.347   8.231  23.968  1.00  0.00     0.179 HD
ENDBRANCH  14  15
ENDBRANCH   3   7
BRANCH   4  18
HETATM   18  O7  UNL     1       3.076  10.070  20.591  1.00  0.00    -0.383 OA
ATOM     19  H7  UNL     1       3.953  10.128  20.949  1.00  0.00     0.210 HD
ENDBRANCH   4  18
BRANCH   1  20
HETATM   20  C4  UNL     1       2.194  14.595  20.455  1.00  0.00     0.181 C 
BRANCH  20  21
HETATM   21  C3  UNL     1       1.246  15.067  21.535  1.00  0.00     0.177 C 
BRANCH  21  22
HETATM   22  C2  UNL     1       1.827  16.246  22.292  1.00  0.00     0.145 C 
HETATM   23  C1  UNL     1       0.716  17.000  23.015  1.00  0.00     0.042 C 
BRANCH  22  24
HETATM   24  O1  UNL     1       2.720  15.789  23.259  1.00  0.00    -0.393 OA
ATOM     25  H1  UNL     1       2.762  14.843  23.184  1.00  0.00     0.210 HD
ENDBRANCH  22  24
ENDBRANCH  21  22
BRANCH  21  26
HETATM   26  O2  UNL     1       0.034  15.480  20.983  1.00  0.00    -0.390 OA
ATOM     27  H2  UNL     1      -0.616  15.462  21.675  1.00  0.00     0.210 HD
ENDBRANCH  21  26
ENDBRANCH  20  21
BRANCH  20  28
HETATM   28  O3  UNL     1       3.140  15.565  20.205  1.00  0.00    -0.390 OA
ATOM     29  H3  UNL     1       4.006  15.177  20.196  1.00  0.00     0.210 HD
ENDBRANCH  20  28
ENDBRANCH   1  20
BRANCH   6  30
HETATM   30  O8  UNL     1       0.492  12.418  20.513  1.00  0.00    -0.390 OA
ATOM     31  H8  UNL     1       0.355  13.250  20.950  1.00  0.00     0.210 HD
ENDBRANCH   6  30
TORSDOF 10
ENDMDL
MODEL 3
REMARK VINA RESULT: -7.752370906      4.822      9.162
REMARK  10 active torsions:
REMARK  status: ('A' for Active; 'I' for Inactive)
REMARK    1  A    between atoms: C2_2  and  O1_3 
REMARK    2  A    between atoms: C2_2  and  C3_5 
REMARK    3  A    between atoms: C3_5  and  O2_6 
REMARK    4  A    between atoms: C3_5  and  C4_8 
REMARK    5  A    between atoms: C4_8  and  O3_9 
REMARK    6  A    between atoms: C4_8  and  C5_11 
REMARK    7  A    between atoms: C6_13  and  N1_14 
REMARK    8  A    between atoms: N3_21  and  N4_22 
REMARK    9  A    between atoms: C9_25  and  O7_27 
REMARK   10  A    between atoms: C11_29  and  O8_30 
ROOT
HETATM    1  C5  UNL     1       6.222   6.845  25.927  1.00  0.00     0.187 C 
HETATM    2  O4  UNL     1       5.862   7.043  24.596  1.00  0.00    -0.351 OA
HETATM    3  C6  UNL     1       5.534   8.394  24.522  1.00  0.00     0.288 C 
HETATM    4  C9  UNL     1       4.840   8.751  25.813  1.00  0.00     0.128 C 
HETATM    5  C10 UNL     1       3.364   8.963  25.652  1.00  0.00     0.053 C 
HETATM    6  C11 UNL     1       5.133   7.538  26.675  1.00  0.00     0.188 C 
ENDROOT
BRANCH   3   7
HETATM    7  N1  UNL     1       4.773   8.705  23.360  1.00  0.00    -0.184 N 
HETATM    8  C7  UNL     1       4.314   9.921  23.031  1.00  0.00     0.349 A 
HETATM    9  O5  UNL     1       4.476  11.004  23.693  1.00  0.00    -0.245 OA
HETATM   10  N2  UNL     1       3.646   9.806  21.871  1.00  0.00    -0.256 N 
HETATM   11  C8  UNL     1       3.699   8.521  21.497  1.00  0.00     0.364 A 
ATOM     12  H2  UNL     1       3.183  10.561  21.366  1.00  0.00     0.175 HD
HETATM   13  O6  UNL     1       3.174   8.047  20.446  1.00  0.00    -0.243 OA
HETATM   14  N3  UNL     1       4.401   7.852  22.428  1.00  0.00    -0.140 N 
BRANCH  14  15
HETATM   15  N4  UNL     1       4.640   6.471  22.330  1.00  0.00    -0.319 N 
ATOM     16  H42 UNL     1       4.320   5.816  23.042  1.00  0.00     0.179 HD
ATOM     17  H41 UNL     1       5.125   5.944  21.604  1.00  0.00     0.179 HD
ENDBRANCH  14  15
ENDBRANCH   3   7
BRANCH   4  18
HETATM   18  O7  UNL     1       5.406   9.901  26.314  1.00  0.00    -0.383 OA
ATOM     19  H7  UNL     1       5.729   9.725  27.190  1.00  0.00     0.210 HD
ENDBRANCH   4  18
BRANCH   1  20
HETATM   20  C4  UNL     1       6.301   5.379  26.176  1.00  0.00     0.181 C 
BRANCH  20  21
HETATM   21  C3  UNL     1       7.432   4.711  25.427  1.00  0.00     0.177 C 
BRANCH  21  22
HETATM   22  C2  UNL     1       7.767   3.363  26.037  1.00  0.00     0.145 C 
HETATM   23  C1  UNL     1       7.231   2.242  25.151  1.00  0.00     0.042 C 
BRANCH  22  24
HETATM   24  O1  UNL     1       9.150   3.212  26.110  1.00  0.00    -0.393 OA
ATOM     25  H1  UNL     1       9.461   3.007  25.236  1.00  0.00     0.210 HD
ENDBRANCH  22  24
ENDBRANCH  21  22
BRANCH  21  26
HETATM   26  O2  UNL     1       7.083   4.493  24.095  1.00  0.00    -0.390 OA
ATOM     27  H2  UNL     1       7.364   5.252  23.598  1.00  0.00     0.210 HD
ENDBRANCH  21  26
ENDBRANCH  20  21
BRANCH  20  28
HETATM   28  O3  UNL     1       6.343   5.020  27.505  1.00  0.00    -0.390 OA
ATOM     29  H3  UNL     1       6.990   5.545  27.961  1.00  0.00     0.210 HD
ENDBRANCH  20  28
ENDBRANCH   1  20
BRANCH   6  30
HETATM   30  O8  UNL     1       3.990   6.750  26.825  1.00  0.00    -0.390 OA
ATOM     31  H8  UNL     1       3.197   7.193  26.550  1.00  0.00     0.210 HD
ENDBRANCH   6  30
TORSDOF 10
ENDMDL
MODEL 4
REMARK VINA RESULT: -7.495542127      1.031      1.077
REMARK  10 active torsions:
REMARK  status: ('A' for Active; 'I' for Inactive)
REMARK    1  A    between atoms: C2_2  and  O1_3 
REMARK    2  A    between atoms: C2_2  and  C3_5 
REMARK    3  A    between atoms: C3_5  and  O2_6 
REMARK    4  A    between atoms: C3_5  and  C4_8 
REMARK    5  A    between atoms: C4_8  and  O3_9 
REMARK    6  A    between atoms: C4_8  and  C5_11 
REMARK    7  A    between atoms: C6_13  and  N1_14 
REMARK    8  A    between atoms: N3_21  and  N4_22 
REMARK    9  A    between atoms: C9_25  and  O7_27 
REMARK   10  A    between atoms: C11_29  and  O8_30 
ROOT
HETATM    1  C5  UNL     1       2.712  13.492  21.193  1.00  0.00     0.187 C 
HETATM    2  O4  UNL     1       3.045  12.944  22.430  1.00  0.00    -0.351 OA
HETATM    3  C6  UNL     1       3.299  11.603  22.158  1.00  0.00     0.288 C 
HETATM    4  C9  UNL     1       2.312  11.171  21.103  1.00  0.00     0.128 C 
HETATM    5  C10 UNL     1       1.232  10.276  21.634  1.00  0.00     0.053 C 
HETATM    6  C11 UNL     1       1.748  12.499  20.636  1.00  0.00     0.188 C 
ENDROOT
BRANCH   3   7
HETATM    7  N1  UNL     1       3.269  10.797  23.332  1.00  0.00    -0.184 N 
HETATM    8  C7  UNL     1       3.869   9.606  23.475  1.00  0.00     0.349 A 
HETATM    9  O5  UNL     1       4.565   8.989  22.596  1.00  0.00    -0.245 OA
HETATM   10  N2  UNL     1       3.609   9.165  24.718  1.00  0.00    -0.256 N 
HETATM   11  C8  UNL     1       2.853  10.086  25.327  1.00  0.00     0.364 A 
ATOM     12  H2  UNL     1       3.931   8.287  25.123  1.00  0.00     0.175 HD
HETATM   13  O6  UNL     1       2.419  10.002  26.514  1.00  0.00    -0.243 OA
HETATM   14  N3  UNL     1       2.651  11.092  24.457  1.00  0.00    -0.140 N 
BRANCH  14  15
HETATM   15  N4  UNL     1       1.890  12.224  24.792  1.00  0.00    -0.319 N 
ATOM     16  H42 UNL     1       1.735  12.985  24.131  1.00  0.00     0.179 HD
ATOM     17  H41 UNL     1       1.414  12.454  25.664  1.00  0.00     0.179 HD
ENDBRANCH  14  15
ENDBRANCH   3   7
BRANCH   4  18
HETATM   18  O7  UNL     1       2.993  10.509  20.107  1.00  0.00    -0.383 OA
ATOM     19  H7  UNL     1       2.463   9.779  19.809  1.00  0.00     0.210 HD
ENDBRANCH   4  18
BRANCH   1  20
HETATM   20  C4  UNL     1       2.135  14.845  21.422  1.00  0.00     0.181 C 
BRANCH  20  21
HETATM   21  C3  UNL     1       1.978  15.182  22.888  1.00  0.00     0.177 C 
BRANCH  21  22
HETATM   22  C2  UNL     1       1.798  16.674  23.087  1.00  0.00     0.145 C 
HETATM   23  C1  UNL     1       0.853  16.934  24.257  1.00  0.00     0.042 C 
BRANCH  22  24
HETATM   24  O1  UNL     1       3.024  17.257  23.404  1.00  0.00    -0.393 OA
ATOM     25  H1  UNL     1       3.623  17.064  22.692  1.00  0.00     0.210 HD
ENDBRANCH  22  24
ENDBRANCH  21  22
BRANCH  21  26
HETATM   26  O2  UNL     1       0.857  14.549  23.423  1.00  0.00    -0.390 OA
ATOM     27  H2  UNL     1       0.140  14.675  22.814  1.00  0.00     0.210 HD
ENDBRANCH  21  26
ENDBRANCH  20  21
BRANCH  20  28
HETATM   28  O3  UNL     1       2.790  15.870  20.774  1.00  0.00    -0.390 OA
ATOM     29  H3  UNL     1       2.815  15.697  19.840  1.00  0.00     0.210 HD
ENDBRANCH  20  28
ENDBRANCH   1  20
BRANCH   6  30
HETATM   30  O8  UNL     1       0.447  12.679  21.110  1.00  0.00    -0.390 OA
ATOM     31  H8  UNL     1       0.032  11.865  21.369  1.00  0.00     0.210 HD
ENDBRANCH   6  30
TORSDOF 10
ENDMDL
MODEL 5
REMARK VINA RESULT: -7.447021434      1.523      2.044
REMARK  10 active torsions:
REMARK  status: ('A' for Active; 'I' for Inactive)
REMARK    1  A    between atoms: C2_2  and  O1_3 
REMARK    2  A    between atoms: C2_2  and  C3_5 
REMARK    3  A    between atoms: C3_5  and  O2_6 
REMARK    4  A    between atoms: C3_5  and  C4_8 
REMARK    5  A    between atoms: C4_8  and  O3_9 
REMARK    6  A    between atoms: C4_8  and  C5_11 
REMARK    7  A    between atoms: C6_13  and  N1_14 
REMARK    8  A    between atoms: N3_21  and  N4_22 
REMARK    9  A    between atoms: C9_25  and  O7_27 
REMARK   10  A    between atoms: C11_29  and  O8_30 
ROOT
HETATM    1  C5  UNL     1       2.686  13.692  22.447  1.00  0.00     0.187 C 
HETATM    2  O4  UNL     1       3.147  12.850  23.456  1.00  0.00    -0.351 OA
HETATM    3  C6  UNL     1       3.358  11.630  22.822  1.00  0.00     0.288 C 
HETATM    4  C9  UNL     1       2.257  11.465  21.804  1.00  0.00     0.128 C 
HETATM    5  C10 UNL     1       1.235  10.441  22.201  1.00  0.00     0.053 C 
HETATM    6  C11 UNL     1       1.657  12.856  21.760  1.00  0.00     0.188 C 
ENDROOT
BRANCH   3   7
HETATM    7  N1  UNL     1       3.451  10.548  23.744  1.00  0.00    -0.184 N 
HETATM    8  C7  UNL     1       4.023   9.361  23.497  1.00  0.00     0.349 A 
HETATM    9  O5  UNL     1       4.579   8.992  22.406  1.00  0.00    -0.245 OA
HETATM   10  N2  UNL     1       3.909   8.614  24.609  1.00  0.00    -0.256 N 
HETATM   11  C8  UNL     1       3.268   9.348  25.528  1.00  0.00     0.364 A 
ATOM     12  H2  UNL     1       4.249   7.661  24.731  1.00  0.00     0.175 HD
HETATM   13  O6  UNL     1       2.987   8.961  26.701  1.00  0.00    -0.243 OA
HETATM   14  N3  UNL     1       2.992  10.544  24.978  1.00  0.00    -0.140 N 
BRANCH  14  15
HETATM   15  N4  UNL     1       2.319  11.551  25.689  1.00  0.00    -0.319 N 
ATOM     16  H42 UNL     1       1.967  12.391  25.231  1.00  0.00     0.179 HD
ATOM     17  H41 UNL     1       2.092  11.608  26.682  1.00  0.00     0.179 HD
ENDBRANCH  14  15
ENDBRANCH   3   7
BRANCH   4  18
HETATM   18  O7  UNL     1       2.819  11.095  20.604  1.00  0.00    -0.383 OA
ATOM     19  H7  UNL     1       3.763  11.063  20.707  1.00  0.00     0.210 HD
ENDBRANCH   4  18
BRANCH   1  20
HETATM   20  C4  UNL     1       2.149  14.929  23.078  1.00  0.00     0.181 C 
BRANCH  20  21
HETATM   21  C3  UNL     1       1.602  15.917  22.073  1.00  0.00     0.177 C 
BRANCH  21  22
HETATM   22  C2  UNL     1       0.183  16.321  22.424  1.00  0.00     0.145 C 
HETATM   23  C1  UNL     1       0.174  17.723  23.026  1.00  0.00     0.042 C 
BRANCH  22  24
HETATM   24  O1  UNL     1      -0.595  16.358  21.269  1.00  0.00    -0.393 OA
ATOM     25  H1  UNL     1      -0.941  15.484  21.130  1.00  0.00     0.210 HD
ENDBRANCH  22  24
ENDBRANCH  21  22
BRANCH  21  26
HETATM   26  O2  UNL     1       2.374  17.077  22.048  1.00  0.00    -0.390 OA
ATOM     27  H2  UNL     1       3.050  16.957  21.392  1.00  0.00     0.210 HD
ENDBRANCH  21  26
ENDBRANCH  20  21
BRANCH  20  28
HETATM   28  O3  UNL     1       1.222  14.713  24.075  1.00  0.00    -0.390 OA
ATOM     29  H3  UNL     1       1.666  14.514  24.890  1.00  0.00     0.210 HD
ENDBRANCH  20  28
ENDBRANCH   1  20
BRANCH   6  30
HETATM   30  O8  UNL     1       0.418  12.882  22.403  1.00  0.00    -0.390 OA
ATOM     31  H8  UNL     1       0.430  12.448  23.247  1.00  0.00     0.210 HD
ENDBRANCH   6  30
TORSDOF 10
ENDMDL
