MODEL 1
REMARK VINA RESULT: -8.720527504      0.000      0.000
REMARK  8 active torsions:
REMARK  status: ('A' for Active; 'I' for Inactive)
REMARK    1  A    between atoms: O1_2  and  C2_3 
REMARK    2  A    between atoms: C4_5  and  C5_6 
REMARK    3  A    between atoms: C5_6  and  O2_7 
REMARK    4  A    between atoms: N1_9  and  C6_10 
REMARK    5  A    between atoms: C8_12  and  C9_13 
REMARK    6  A    between atoms: N3_16  and  C10_17 
REMARK    7  A    between atoms: C13_20  and  N4_21 
REMARK    8  A    between atoms: C15_28  and  N6_29 
ROOT
HETATM    1  C6  UNL     1       4.793  28.547  55.430  1.00  0.00     0.059 A 
HETATM    2  C7  UNL     1       5.942  28.099  54.822  1.00  0.00     0.063 A 
HETATM    3  C8  UNL     1       7.205  28.499  55.277  1.00  0.00     0.067 A 
HETATM    4  N5  UNL     1       7.263  29.334  56.325  1.00  0.00    -0.339 N 
ATOM      5  H5  UNL     1       8.180  29.628  56.660  1.00  0.00     0.167 HD
HETATM    6  C15 UNL     1       6.175  29.805  56.958  1.00  0.00     0.128 A 
HETATM    7  C22 UNL     1       4.924  29.394  56.489  1.00  0.00     0.104 A 
HETATM    8 CL1  UNL     1       3.545  30.018  57.311  1.00  0.00    -0.078 Cl
ENDROOT
BRANCH   1   9
HETATM    9  N1  UNL     1       3.483  28.148  54.986  1.00  0.00    -0.367 N 
HETATM   10  C4  UNL     1       2.807  28.774  53.908  1.00  0.00     0.111 C 
HETATM   11  C3  UNL     1       2.039  27.768  53.120  1.00  0.00     0.065 C 
HETATM   12  C2  UNL     1       1.053  26.976  53.928  1.00  0.00     0.196 C 
HETATM   13  C24 UNL     1       1.566  26.564  55.267  1.00  0.00     0.284 C 
HETATM   14  C23 UNL     1       2.863  27.066  55.701  1.00  0.00     0.205 C 
HETATM   15  F2  UNL     1       1.557  25.161  55.376  1.00  0.00    -0.202 F 
HETATM   16  F3  UNL     1       0.597  26.953  56.208  1.00  0.00    -0.202 F 
BRANCH  10  17
HETATM   17  C5  UNL     1       1.853  29.890  54.355  1.00  0.00     0.189 C 
BRANCH  17  18
HETATM   18  O2  UNL     1       1.310  30.393  53.157  1.00  0.00    -0.399 OA
ATOM     19  H2  UNL     1       1.463  31.329  53.201  1.00  0.00     0.209 HD
ENDBRANCH  17  18
ENDBRANCH  10  17
BRANCH  12  20
HETATM   20  O1  UNL     1      -0.137  27.691  54.001  1.00  0.00    -0.385 OA
HETATM   21  C1  UNL     1      -0.808  27.588  52.791  1.00  0.00     0.202 C 
ENDBRANCH  12  20
ENDBRANCH   1   9
BRANCH   3  22
HETATM   22  C9  UNL     1       8.400  28.001  54.609  1.00  0.00     0.117 A 
HETATM   23  N2  UNL     1       9.042  28.490  53.540  1.00  0.00    -0.291 N 
HETATM   24  N3  UNL     1      10.090  27.736  53.255  1.00  0.00    -0.270 N 
ATOM     25  H2  UNL     1       8.763  29.323  53.020  1.00  0.00     0.187 HD
HETATM   26  C13 UNL     1      10.148  26.731  54.145  1.00  0.00     0.158 A 
HETATM   27  C14 UNL     1       9.093  26.881  55.006  1.00  0.00     0.191 A 
HETATM   28  F1  UNL     1       8.774  26.073  56.070  1.00  0.00    -0.199 F 
BRANCH  24  29
HETATM   29  C10 UNL     1      11.058  27.897  52.183  1.00  0.00     0.102 C 
HETATM   30  C11 UNL     1      12.436  28.211  52.758  1.00  0.00     0.034 C 
HETATM   31  C12 UNL     1      10.585  29.010  51.261  1.00  0.00     0.034 C 
ENDBRANCH  24  29
BRANCH  26  32
HETATM   32  N4  UNL     1      11.027  25.778  54.207  1.00  0.00    -0.382 N 
ATOM     33  H42 UNL     1      10.809  24.791  54.340  1.00  0.00     0.157 HD
ATOM     34  H41 UNL     1      12.041  25.861  54.134  1.00  0.00     0.157 HD
ENDBRANCH  26  32
ENDBRANCH   3  22
BRANCH   6  35
HETATM   35  N6  UNL     1       6.288  30.691  58.067  1.00  0.00    -0.363 N 
HETATM   36  C16 UNL     1       6.448  30.367  59.471  1.00  0.00     0.132 C 
HETATM   37  C17 UNL     1       7.146  31.525  60.120  1.00  0.00     0.036 C 
HETATM   38  C18 UNL     1       6.319  32.120  61.267  1.00  0.00     0.035 C 
HETATM   39  C20 UNL     1       7.127  32.644  59.128  1.00  0.00     0.145 C 
HETATM   40  C19 UNL     1       6.608  33.594  61.086  1.00  0.00     0.168 C 
HETATM   41  O3  UNL     1       6.580  33.752  59.724  1.00  0.00    -0.384 OA
HETATM   42  C21 UNL     1       6.261  32.137  57.984  1.00  0.00     0.157 C 
ENDBRANCH   6  35
TORSDOF 8
ENDMDL
MODEL 2
REMARK VINA RESULT: -8.641976161      1.320      1.901
REMARK  8 active torsions:
REMARK  status: ('A' for Active; 'I' for Inactive)
REMARK    1  A    between atoms: O1_2  and  C2_3 
REMARK    2  A    between atoms: C4_5  and  C5_6 
REMARK    3  A    between atoms: C5_6  and  O2_7 
REMARK    4  A    between atoms: N1_9  and  C6_10 
REMARK    5  A    between atoms: C8_12  and  C9_13 
REMARK    6  A    between atoms: N3_16  and  C10_17 
REMARK    7  A    between atoms: C13_20  and  N4_21 
REMARK    8  A    between atoms: C15_28  and  N6_29 
ROOT
HETATM    1  C6  UNL     1       4.493  28.533  55.689  1.00  0.00     0.059 A 
HETATM    2  C7  UNL     1       5.627  28.108  55.036  1.00  0.00     0.063 A 
HETATM    3  C8  UNL     1       6.897  28.544  55.434  1.00  0.00     0.067 A 
HETATM    4  N5  UNL     1       6.978  29.389  56.472  1.00  0.00    -0.339 N 
ATOM      5  H5  UNL     1       7.901  29.709  56.765  1.00  0.00     0.167 HD
HETATM    6  C15 UNL     1       5.906  29.838  57.147  1.00  0.00     0.128 A 
HETATM    7  C22 UNL     1       4.648  29.391  56.735  1.00  0.00     0.104 A 
HETATM    8 CL1  UNL     1       3.290  29.987  57.611  1.00  0.00    -0.078 Cl
ENDROOT
BRANCH   1   9
HETATM    9  N1  UNL     1       3.177  28.096  55.305  1.00  0.00    -0.367 N 
HETATM   10  C4  UNL     1       2.662  26.813  55.627  1.00  0.00     0.111 C 
HETATM   11  C3  UNL     1       1.207  26.900  55.940  1.00  0.00     0.065 C 
HETATM   12  C2  UNL     1       0.376  27.506  54.846  1.00  0.00     0.196 C 
HETATM   13  C24 UNL     1       1.016  28.682  54.188  1.00  0.00     0.284 C 
HETATM   14  C23 UNL     1       2.382  29.030  54.554  1.00  0.00     0.205 C 
HETATM   15  F2  UNL     1       0.198  29.818  54.333  1.00  0.00    -0.202 F 
HETATM   16  F3  UNL     1       0.969  28.443  52.803  1.00  0.00    -0.202 F 
BRANCH  10  17
HETATM   17  C5  UNL     1       2.871  25.779  54.513  1.00  0.00     0.189 C 
BRANCH  17  18
HETATM   18  O2  UNL     1       2.225  24.619  54.982  1.00  0.00    -0.399 OA
ATOM     19  H2  UNL     1       2.271  24.009  54.254  1.00  0.00     0.209 HD
ENDBRANCH  17  18
ENDBRANCH  10  17
BRANCH  12  20
HETATM   20  O1  UNL     1       0.030  26.504  53.947  1.00  0.00    -0.385 OA
HETATM   21  C1  UNL     1      -1.092  25.835  54.417  1.00  0.00     0.202 C 
ENDBRANCH  12  20
ENDBRANCH   1   9
BRANCH   3  22
HETATM   22  C9  UNL     1       8.075  28.071  54.718  1.00  0.00     0.117 A 
HETATM   23  N2  UNL     1       8.629  28.537  53.591  1.00  0.00    -0.291 N 
HETATM   24  N3  UNL     1       9.695  27.820  53.279  1.00  0.00    -0.270 N 
ATOM     25  H2  UNL     1       8.279  29.329  53.051  1.00  0.00     0.187 HD
HETATM   26  C13 UNL     1       9.855  26.864  54.209  1.00  0.00     0.158 A 
HETATM   27  C14 UNL     1       8.845  27.005  55.124  1.00  0.00     0.191 A 
HETATM   28  F1  UNL     1       8.628  26.236  56.241  1.00  0.00    -0.199 F 
BRANCH  24  29
HETATM   29  C10 UNL     1      10.590  27.975  52.144  1.00  0.00     0.102 C 
HETATM   30  C11 UNL     1      12.021  28.200  52.626  1.00  0.00     0.034 C 
HETATM   31  C12 UNL     1      10.109  29.142  51.297  1.00  0.00     0.034 C 
ENDBRANCH  24  29
BRANCH  26  32
HETATM   32  N4  UNL     1      10.782  25.958  54.262  1.00  0.00    -0.382 N 
ATOM     33  H42 UNL     1      11.558  25.878  53.604  1.00  0.00     0.157 HD
ATOM     34  H41 UNL     1      10.882  25.208  54.945  1.00  0.00     0.157 HD
ENDBRANCH  26  32
ENDBRANCH   3  22
BRANCH   6  35
HETATM   35  N6  UNL     1       6.044  30.736  58.244  1.00  0.00    -0.363 N 
HETATM   36  C16 UNL     1       6.295  30.429  59.639  1.00  0.00     0.132 C 
HETATM   37  C17 UNL     1       6.979  31.620  60.241  1.00  0.00     0.036 C 
HETATM   38  C18 UNL     1       6.193  32.188  61.430  1.00  0.00     0.035 C 
HETATM   39  C20 UNL     1       6.859  32.729  59.246  1.00  0.00     0.145 C 
HETATM   40  C19 UNL     1       6.410  33.671  61.225  1.00  0.00     0.168 C 
HETATM   41  O3  UNL     1       6.301  33.818  59.867  1.00  0.00    -0.384 OA
HETATM   42  C21 UNL     1       5.953  32.179  58.155  1.00  0.00     0.157 C 
ENDBRANCH   6  35
TORSDOF 8
ENDMDL
MODEL 3
REMARK VINA RESULT: -8.610781903      2.315      6.534
REMARK  8 active torsions:
REMARK  status: ('A' for Active; 'I' for Inactive)
REMARK    1  A    between atoms: O1_2  and  C2_3 
REMARK    2  A    between atoms: C4_5  and  C5_6 
REMARK    3  A    between atoms: C5_6  and  O2_7 
REMARK    4  A    between atoms: N1_9  and  C6_10 
REMARK    5  A    between atoms: C8_12  and  C9_13 
REMARK    6  A    between atoms: N3_16  and  C10_17 
REMARK    7  A    between atoms: C13_20  and  N4_21 
REMARK    8  A    between atoms: C15_28  and  N6_29 
ROOT
HETATM    1  C6  UNL     1       5.710  29.527  56.683  1.00  0.00     0.059 A 
HETATM    2  C7  UNL     1       6.891  29.164  56.079  1.00  0.00     0.063 A 
HETATM    3  C8  UNL     1       6.917  28.207  55.056  1.00  0.00     0.067 A 
HETATM    4  N5  UNL     1       5.754  27.654  54.680  1.00  0.00    -0.339 N 
ATOM      5  H5  UNL     1       5.769  26.958  53.936  1.00  0.00     0.167 HD
HETATM    6  C15 UNL     1       4.571  27.969  55.234  1.00  0.00     0.128 A 
HETATM    7  C22 UNL     1       4.566  28.926  56.253  1.00  0.00     0.104 A 
HETATM    8 CL1  UNL     1       3.039  29.306  56.951  1.00  0.00    -0.078 Cl
ENDROOT
BRANCH   1   9
HETATM    9  N1  UNL     1       5.655  30.511  57.732  1.00  0.00    -0.367 N 
HETATM   10  C4  UNL     1       5.106  31.807  57.550  1.00  0.00     0.111 C 
HETATM   11  C3  UNL     1       4.382  32.242  58.778  1.00  0.00     0.065 C 
HETATM   12  C2  UNL     1       5.220  32.231  60.024  1.00  0.00     0.196 C 
HETATM   13  C24 UNL     1       6.120  31.046  60.132  1.00  0.00     0.284 C 
HETATM   14  C23 UNL     1       6.200  30.126  59.005  1.00  0.00     0.205 C 
HETATM   15  F2  UNL     1       5.819  30.318  61.299  1.00  0.00    -0.202 F 
HETATM   16  F3  UNL     1       7.408  31.541  60.401  1.00  0.00    -0.202 F 
BRANCH  10  17
HETATM   17  C5  UNL     1       6.156  32.866  57.189  1.00  0.00     0.189 C 
BRANCH  17  18
HETATM   18  O2  UNL     1       5.423  34.062  57.062  1.00  0.00    -0.399 OA
ATOM     19  H2  UNL     1       5.680  34.580  57.816  1.00  0.00     0.209 HD
ENDBRANCH  17  18
ENDBRANCH  10  17
BRANCH  12  20
HETATM   20  O1  UNL     1       5.902  33.439  60.109  1.00  0.00    -0.385 OA
HETATM   21  C1  UNL     1       5.046  34.417  60.594  1.00  0.00     0.202 C 
ENDBRANCH  12  20
ENDBRANCH   1   9
BRANCH   3  22
HETATM   22  C9  UNL     1       8.188  27.849  54.440  1.00  0.00     0.117 A 
HETATM   23  N2  UNL     1       8.789  28.373  53.364  1.00  0.00    -0.291 N 
HETATM   24  N3  UNL     1       9.937  27.758  53.140  1.00  0.00    -0.270 N 
ATOM     25  H2  UNL     1       8.415  29.137  52.799  1.00  0.00     0.187 HD
HETATM   26  C13 UNL     1      10.105  26.811  54.078  1.00  0.00     0.158 A 
HETATM   27  C14 UNL     1       9.014  26.852  54.906  1.00  0.00     0.191 A 
HETATM   28  F1  UNL     1       8.776  26.056  55.999  1.00  0.00    -0.199 F 
BRANCH  24  29
HETATM   29  C10 UNL     1      10.905  28.003  52.084  1.00  0.00     0.102 C 
HETATM   30  C11 UNL     1      12.278  28.294  52.683  1.00  0.00     0.034 C 
HETATM   31  C12 UNL     1      10.421  29.169  51.238  1.00  0.00     0.034 C 
ENDBRANCH  24  29
BRANCH  26  32
HETATM   32  N4  UNL     1      11.103  25.991  54.205  1.00  0.00    -0.382 N 
ATOM     33  H42 UNL     1      11.860  25.884  53.530  1.00  0.00     0.157 HD
ATOM     34  H41 UNL     1      11.284  25.346  54.974  1.00  0.00     0.157 HD
ENDBRANCH  26  32
ENDBRANCH   3  22
BRANCH   6  35
HETATM   35  N6  UNL     1       3.363  27.353  54.800  1.00  0.00    -0.363 N 
HETATM   36  C16 UNL     1       2.341  27.886  53.919  1.00  0.00     0.132 C 
HETATM   37  C17 UNL     1       1.660  26.719  53.269  1.00  0.00     0.036 C 
HETATM   38  C18 UNL     1       0.152  26.708  53.552  1.00  0.00     0.035 C 
HETATM   39  C20 UNL     1       2.110  25.498  54.006  1.00  0.00     0.145 C 
HETATM   40  C19 UNL     1      -0.092  25.224  53.716  1.00  0.00     0.168 C 
HETATM   41  O3  UNL     1       1.003  24.805  54.427  1.00  0.00    -0.384 OA
HETATM   42  C21 UNL     1       2.921  26.026  55.179  1.00  0.00     0.157 C 
ENDBRANCH   6  35
TORSDOF 8
ENDMDL
MODEL 4
REMARK VINA RESULT: -8.578254231      2.288      6.726
REMARK  8 active torsions:
REMARK  status: ('A' for Active; 'I' for Inactive)
REMARK    1  A    between atoms: O1_2  and  C2_3 
REMARK    2  A    between atoms: C4_5  and  C5_6 
REMARK    3  A    between atoms: C5_6  and  O2_7 
REMARK    4  A    between atoms: N1_9  and  C6_10 
REMARK    5  A    between atoms: C8_12  and  C9_13 
REMARK    6  A    between atoms: N3_16  and  C10_17 
REMARK    7  A    between atoms: C13_20  and  N4_21 
REMARK    8  A    between atoms: C15_28  and  N6_29 
ROOT
HETATM    1  C6  UNL     1       5.879  29.550  56.871  1.00  0.00     0.059 A 
HETATM    2  C7  UNL     1       7.035  29.142  56.248  1.00  0.00     0.063 A 
HETATM    3  C8  UNL     1       6.999  28.250  55.168  1.00  0.00     0.067 A 
HETATM    4  N5  UNL     1       5.802  27.805  54.757  1.00  0.00    -0.339 N 
ATOM      5  H5  UNL     1       5.772  27.156  53.971  1.00  0.00     0.167 HD
HETATM    6  C15 UNL     1       4.641  28.168  55.327  1.00  0.00     0.128 A 
HETATM    7  C22 UNL     1       4.698  29.058  56.403  1.00  0.00     0.104 A 
HETATM    8 CL1  UNL     1       3.197  29.503  57.122  1.00  0.00    -0.078 Cl
ENDROOT
BRANCH   1   9
HETATM    9  N1  UNL     1       5.887  30.469  57.979  1.00  0.00    -0.367 N 
HETATM   10  C4  UNL     1       6.298  30.102  59.286  1.00  0.00     0.111 C 
HETATM   11  C3  UNL     1       7.032  31.225  59.936  1.00  0.00     0.065 C 
HETATM   12  C2  UNL     1       6.258  32.510  60.003  1.00  0.00     0.196 C 
HETATM   13  C24 UNL     1       5.485  32.811  58.764  1.00  0.00     0.284 C 
HETATM   14  C23 UNL     1       5.442  31.809  57.707  1.00  0.00     0.205 C 
HETATM   15  F2  UNL     1       5.909  34.037  58.218  1.00  0.00    -0.202 F 
HETATM   16  F3  UNL     1       4.168  33.093  59.169  1.00  0.00    -0.202 F 
BRANCH  10  17
HETATM   17  C5  UNL     1       5.134  29.679  60.192  1.00  0.00     0.189 C 
BRANCH  17  18
HETATM   18  O2  UNL     1       5.733  29.416  61.439  1.00  0.00    -0.399 OA
ATOM     19  H2  UNL     1       5.662  30.235  61.915  1.00  0.00     0.209 HD
ENDBRANCH  17  18
ENDBRANCH  10  17
BRANCH  12  20
HETATM   20  O1  UNL     1       5.466  32.489  61.145  1.00  0.00    -0.385 OA
HETATM   21  C1  UNL     1       6.242  32.815  62.248  1.00  0.00     0.202 C 
ENDBRANCH  12  20
ENDBRANCH   1   9
BRANCH   3  22
HETATM   22  C9  UNL     1       8.245  27.841  54.533  1.00  0.00     0.117 A 
HETATM   23  N2  UNL     1       8.871  28.367  53.472  1.00  0.00    -0.291 N 
HETATM   24  N3  UNL     1       9.981  27.695  53.221  1.00  0.00    -0.270 N 
ATOM     25  H2  UNL     1       8.539  29.170  52.936  1.00  0.00     0.187 HD
HETATM   26  C13 UNL     1      10.098  26.708  54.125  1.00  0.00     0.158 A 
HETATM   27  C14 UNL     1       9.014  26.783  54.960  1.00  0.00     0.191 A 
HETATM   28  F1  UNL     1       8.735  25.964  56.026  1.00  0.00    -0.199 F 
BRANCH  24  29
HETATM   29  C10 UNL     1      10.958  27.921  52.168  1.00  0.00     0.102 C 
HETATM   30  C11 UNL     1      12.324  28.234  52.774  1.00  0.00     0.034 C 
HETATM   31  C12 UNL     1      10.475  29.064  51.290  1.00  0.00     0.034 C 
ENDBRANCH  24  29
BRANCH  26  32
HETATM   32  N4  UNL     1      11.047  25.829  54.218  1.00  0.00    -0.382 N 
ATOM     33  H42 UNL     1      12.039  26.049  54.312  1.00  0.00     0.157 HD
ATOM     34  H41 UNL     1      10.958  24.813  54.214  1.00  0.00     0.157 HD
ENDBRANCH  26  32
ENDBRANCH   3  22
BRANCH   6  35
HETATM   35  N6  UNL     1       3.395  27.667  54.855  1.00  0.00    -0.363 N 
HETATM   36  C16 UNL     1       2.488  28.260  53.891  1.00  0.00     0.132 C 
HETATM   37  C17 UNL     1       1.713  27.141  53.260  1.00  0.00     0.036 C 
HETATM   38  C18 UNL     1       0.201  27.314  53.454  1.00  0.00     0.035 C 
HETATM   39  C20 UNL     1       1.982  25.921  54.082  1.00  0.00     0.145 C 
HETATM   40  C19 UNL     1      -0.218  25.878  53.678  1.00  0.00     0.168 C 
HETATM   41  O3  UNL     1       0.783  25.380  54.471  1.00  0.00    -0.384 OA
HETATM   42  C21 UNL     1       2.786  26.421  55.273  1.00  0.00     0.157 C 
ENDBRANCH   6  35
TORSDOF 8
ENDMDL
MODEL 5
REMARK VINA RESULT: -7.742104403      2.369      6.212
REMARK  8 active torsions:
REMARK  status: ('A' for Active; 'I' for Inactive)
REMARK    1  A    between atoms: O1_2  and  C2_3 
REMARK    2  A    between atoms: C4_5  and  C5_6 
REMARK    3  A    between atoms: C5_6  and  O2_7 
REMARK    4  A    between atoms: N1_9  and  C6_10 
REMARK    5  A    between atoms: C8_12  and  C9_13 
REMARK    6  A    between atoms: N3_16  and  C10_17 
REMARK    7  A    between atoms: C13_20  and  N4_21 
REMARK    8  A    between atoms: C15_28  and  N6_29 
ROOT
HETATM    1  C6  UNL     1       4.767  28.804  55.982  1.00  0.00     0.059 A 
HETATM    2  C7  UNL     1       4.947  29.554  57.120  1.00  0.00     0.063 A 
HETATM    3  C8  UNL     1       6.231  29.887  57.572  1.00  0.00     0.067 A 
HETATM    4  N5  UNL     1       7.282  29.453  56.861  1.00  0.00    -0.339 N 
ATOM      5  H5  UNL     1       8.218  29.694  57.186  1.00  0.00     0.167 HD
HETATM    6  C15 UNL     1       7.167  28.717  55.742  1.00  0.00     0.128 A 
HETATM    7  C22 UNL     1       5.878  28.395  55.308  1.00  0.00     0.104 A 
HETATM    8 CL1  UNL     1       5.757  27.445  53.877  1.00  0.00    -0.078 Cl
ENDROOT
BRANCH   1   9
HETATM    9  N1  UNL     1       3.460  28.452  55.493  1.00  0.00    -0.367 N 
HETATM   10  C4  UNL     1       2.875  29.051  54.347  1.00  0.00     0.111 C 
HETATM   11  C3  UNL     1       2.089  28.044  53.578  1.00  0.00     0.065 C 
HETATM   12  C2  UNL     1       1.020  27.357  54.376  1.00  0.00     0.196 C 
HETATM   13  C24 UNL     1       1.442  26.996  55.761  1.00  0.00     0.284 C 
HETATM   14  C23 UNL     1       2.743  27.450  56.234  1.00  0.00     0.205 C 
HETATM   15  F2  UNL     1       1.345  25.605  55.947  1.00  0.00    -0.202 F 
HETATM   16  F3  UNL     1       0.451  27.493  56.626  1.00  0.00    -0.202 F 
BRANCH  10  17
HETATM   17  C5  UNL     1       1.967  30.242  54.681  1.00  0.00     0.189 C 
BRANCH  17  18
HETATM   18  O2  UNL     1       1.458  30.658  53.436  1.00  0.00    -0.399 OA
ATOM     19  H2  UNL     1       2.164  31.159  53.044  1.00  0.00     0.209 HD
ENDBRANCH  17  18
ENDBRANCH  10  17
BRANCH  12  20
HETATM   20  O1  UNL     1      -0.128  28.140  54.346  1.00  0.00    -0.385 OA
HETATM   21  C1  UNL     1      -0.795  27.930  53.147  1.00  0.00     0.202 C 
ENDBRANCH  12  20
ENDBRANCH   1   9
BRANCH   3  22
HETATM   22  C9  UNL     1       6.382  30.685  58.782  1.00  0.00     0.117 A 
HETATM   23  N2  UNL     1       7.052  31.829  58.968  1.00  0.00    -0.291 N 
HETATM   24  N3  UNL     1       6.934  32.226  60.223  1.00  0.00    -0.270 N 
ATOM     25  H2  UNL     1       7.579  32.322  58.246  1.00  0.00     0.187 HD
HETATM   26  C13 UNL     1       6.174  31.336  60.883  1.00  0.00     0.158 A 
HETATM   27  C14 UNL     1       5.816  30.358  59.993  1.00  0.00     0.191 A 
HETATM   28  F1  UNL     1       5.040  29.254  60.247  1.00  0.00    -0.199 F 
BRANCH  24  29
HETATM   29  C10 UNL     1       7.497  33.407  60.857  1.00  0.00     0.102 C 
HETATM   30  C11 UNL     1       6.575  34.606  60.654  1.00  0.00     0.034 C 
HETATM   31  C12 UNL     1       8.873  33.670  60.265  1.00  0.00     0.034 C 
ENDBRANCH  24  29
BRANCH  26  32
HETATM   32  N4  UNL     1       5.825  31.367  62.133  1.00  0.00    -0.382 N 
ATOM     33  H42 UNL     1       5.902  32.183  62.740  1.00  0.00     0.157 HD
ATOM     34  H41 UNL     1       5.431  30.607  62.688  1.00  0.00     0.157 HD
ENDBRANCH  26  32
ENDBRANCH   3  22
BRANCH   6  35
HETATM   35  N6  UNL     1       8.315  28.279  55.022  1.00  0.00    -0.363 N 
HETATM   36  C16 UNL     1       9.411  27.449  55.484  1.00  0.00     0.132 C 
HETATM   37  C17 UNL     1       9.982  26.755  54.284  1.00  0.00     0.036 C 
HETATM   38  C18 UNL     1      11.472  27.070  54.099  1.00  0.00     0.035 C 
HETATM   39  C20 UNL     1       9.386  27.419  53.084  1.00  0.00     0.145 C 
HETATM   40  C19 UNL     1      11.553  27.164  52.591  1.00  0.00     0.168 C 
HETATM   41  O3  UNL     1      10.401  27.828  52.258  1.00  0.00    -0.384 OA
HETATM   42  C21 UNL     1       8.603  28.600  53.639  1.00  0.00     0.157 C 
ENDBRANCH   6  35
TORSDOF 8
ENDMDL
