MODEL 1
REMARK VINA RESULT: -7.894360586      0.000      0.000
REMARK  8 active torsions:
REMARK  status: ('A' for Active; 'I' for Inactive)
REMARK    1  A    between atoms: C2_2  and  S1_3 
REMARK    2  A    between atoms: C2_2  and  C15_21 
REMARK    3  A    between atoms: S1_3  and  C3_4 
REMARK    4  A    between atoms: C5_6  and  C6_7 
REMARK    5  A    between atoms: C6_7  and  N1_8 
REMARK    6  A    between atoms: N1_8  and  C7_11 
REMARK    7  A    between atoms: C15_21  and  O2_22 
REMARK    8  A    between atoms: N2_24  and  O3_26 
ROOT
HETATM    1  C3  UNL     1      16.436   5.930  14.067  1.00  0.00     0.018 C 
HETATM    2  C4  UNL     1      16.676   5.237  15.394  1.00  0.00     0.033 C 
HETATM    3  C5  UNL     1      15.673   6.283  15.913  1.00  0.00    -0.009 C 
HETATM    4  C10 UNL     1      16.461   7.542  15.732  1.00  0.00     0.018 C 
HETATM    5  C11 UNL     1      16.834   7.377  14.247  1.00  0.00     0.005 C 
HETATM    6  C12 UNL     1      15.758   8.091  13.481  1.00  0.00     0.007 C 
HETATM    7  C13 UNL     1      14.514   7.304  13.916  1.00  0.00     0.007 C 
HETATM    8  C14 UNL     1      14.988   6.063  14.586  1.00  0.00     0.015 C 
ENDROOT
BRANCH   1   9
HETATM    9  S1  UNL     1      16.738   5.131  12.573  1.00  0.00    -0.145 SA
BRANCH   9  10
HETATM   10  C2  UNL     1      16.046   3.520  12.289  1.00  0.00     0.120 C 
HETATM   11  C1  UNL     1      16.893   2.467  12.970  1.00  0.00     0.030 C 
BRANCH  10  12
HETATM   12  C15 UNL     1      16.103   3.227  10.817  1.00  0.00     0.149 C 
HETATM   13  N2  UNL     1      15.727   2.084  10.362  1.00  0.00    -0.250 N 
ATOM     14  H2  UNL     1      15.390   1.378  11.016  1.00  0.00     0.196 HD
BRANCH  12  15
HETATM   15  O2  UNL     1      16.557   4.175   9.922  1.00  0.00    -0.347 OA
ATOM     16  H2  UNL     1      16.267   4.171   9.018  1.00  0.00     0.219 HD
ENDBRANCH  12  15
BRANCH  13  17
HETATM   17  O3  UNL     1      15.766   1.787   9.034  1.00  0.00    -0.288 OA
ATOM     18  H3  UNL     1      15.589   2.439   8.367  1.00  0.00     0.244 HD
ENDBRANCH  13  17
ENDBRANCH  10  12
ENDBRANCH   9  10
ENDBRANCH   1   9
BRANCH   3  19
HETATM   19  C6  UNL     1      15.007   6.008  17.167  1.00  0.00     0.243 C 
BRANCH  19  20
HETATM   20  N1  UNL     1      15.596   4.855  17.821  1.00  0.00    -0.063 N 
ATOM     21  H12 UNL     1      16.418   4.519  17.320  1.00  0.00     0.277 HD
ATOM     22  H11 UNL     1      16.041   5.111  18.702  1.00  0.00     0.277 HD
BRANCH  20  23
HETATM   23  C7  UNL     1      14.617   3.794  18.009  1.00  0.00     0.269 C 
HETATM   24  C8  UNL     1      15.304   2.441  17.779  1.00  0.00     0.209 C 
HETATM   25  O1  UNL     1      14.958   2.515  16.429  1.00  0.00    -0.352 OA
HETATM   26  C9  UNL     1      13.916   3.349  16.758  1.00  0.00     0.339 C 
HETATM   27  F1  UNL     1      12.761   2.647  17.059  1.00  0.00    -0.217 F 
ENDBRANCH  20  23
ENDBRANCH  19  20
ENDBRANCH   3  19
TORSDOF 8
ENDMDL
MODEL 2
REMARK VINA RESULT: -7.756610373      3.503      6.377
REMARK  8 active torsions:
REMARK  status: ('A' for Active; 'I' for Inactive)
REMARK    1  A    between atoms: C2_2  and  S1_3 
REMARK    2  A    between atoms: C2_2  and  C15_21 
REMARK    3  A    between atoms: S1_3  and  C3_4 
REMARK    4  A    between atoms: C5_6  and  C6_7 
REMARK    5  A    between atoms: C6_7  and  N1_8 
REMARK    6  A    between atoms: N1_8  and  C7_11 
REMARK    7  A    between atoms: C15_21  and  O2_22 
REMARK    8  A    between atoms: N2_24  and  O3_26 
ROOT
HETATM    1  C3  UNL     1      16.146   6.168  14.580  1.00  0.00     0.018 C 
HETATM    2  C4  UNL     1      16.639   5.986  13.158  1.00  0.00     0.033 C 
HETATM    3  C5  UNL     1      16.858   7.507  13.233  1.00  0.00    -0.009 C 
HETATM    4  C10 UNL     1      15.445   7.990  13.330  1.00  0.00     0.018 C 
HETATM    5  C11 UNL     1      14.983   7.133  14.524  1.00  0.00     0.005 C 
HETATM    6  C12 UNL     1      15.222   7.977  15.741  1.00  0.00     0.007 C 
HETATM    7  C13 UNL     1      16.740   8.190  15.660  1.00  0.00     0.007 C 
HETATM    8  C14 UNL     1      17.269   7.226  14.658  1.00  0.00     0.015 C 
ENDROOT
BRANCH   1   9
HETATM    9  S1  UNL     1      16.128   4.859  15.697  1.00  0.00    -0.145 SA
BRANCH   9  10
HETATM   10  C2  UNL     1      14.717   4.630  16.751  1.00  0.00     0.120 C 
HETATM   11  C1  UNL     1      15.005   5.189  18.127  1.00  0.00     0.030 C 
BRANCH  10  12
HETATM   12  C15 UNL     1      14.487   3.156  16.929  1.00  0.00     0.149 C 
HETATM   13  N2  UNL     1      15.480   2.343  17.007  1.00  0.00    -0.250 N 
ATOM     14  H2  UNL     1      16.428   2.714  16.946  1.00  0.00     0.196 HD
BRANCH  12  15
HETATM   15  O2  UNL     1      13.208   2.643  17.014  1.00  0.00    -0.347 OA
ATOM     16  H2  UNL     1      12.919   1.955  16.427  1.00  0.00     0.219 HD
ENDBRANCH  12  15
BRANCH  13  17
HETATM   17  O3  UNL     1      15.306   1.003  17.169  1.00  0.00    -0.288 OA
ATOM     18  H3  UNL     1      15.973   0.451  17.559  1.00  0.00     0.244 HD
ENDBRANCH  13  17
ENDBRANCH  10  12
ENDBRANCH   9  10
ENDBRANCH   1   9
BRANCH   3  19
HETATM   19  C6  UNL     1      17.771   8.099  12.281  1.00  0.00     0.243 C 
BRANCH  19  20
HETATM   20  N1  UNL     1      17.098   9.094  11.468  1.00  0.00    -0.063 N 
ATOM     21  H12 UNL     1      16.131   9.226  11.764  1.00  0.00     0.277 HD
ATOM     22  H11 UNL     1      17.451  10.032  11.659  1.00  0.00     0.277 HD
BRANCH  20  23
HETATM   23  C7  UNL     1      17.184   8.770  10.053  1.00  0.00     0.269 C 
HETATM   24  C8  UNL     1      15.776   8.831   9.445  1.00  0.00     0.209 C 
HETATM   25  O1  UNL     1      15.610   7.477   9.740  1.00  0.00    -0.352 OA
HETATM   26  C9  UNL     1      16.976   7.321   9.719  1.00  0.00     0.339 C 
HETATM   27  F1  UNL     1      17.448   7.030   8.451  1.00  0.00    -0.217 F 
ENDBRANCH  20  23
ENDBRANCH  19  20
ENDBRANCH   3  19
TORSDOF 8
ENDMDL
MODEL 3
REMARK VINA RESULT: -7.729016436      2.269      3.133
REMARK  8 active torsions:
REMARK  status: ('A' for Active; 'I' for Inactive)
REMARK    1  A    between atoms: C2_2  and  S1_3 
REMARK    2  A    between atoms: C2_2  and  C15_21 
REMARK    3  A    between atoms: S1_3  and  C3_4 
REMARK    4  A    between atoms: C5_6  and  C6_7 
REMARK    5  A    between atoms: C6_7  and  N1_8 
REMARK    6  A    between atoms: N1_8  and  C7_11 
REMARK    7  A    between atoms: C15_21  and  O2_22 
REMARK    8  A    between atoms: N2_24  and  O3_26 
ROOT
HETATM    1  C3  UNL     1      15.779   7.438  13.897  1.00  0.00     0.018 C 
HETATM    2  C4  UNL     1      14.805   6.370  14.354  1.00  0.00     0.033 C 
HETATM    3  C5  UNL     1      15.659   6.398  15.635  1.00  0.00    -0.009 C 
HETATM    4  C10 UNL     1      16.956   5.859  15.119  1.00  0.00     0.018 C 
HETATM    5  C11 UNL     1      17.159   6.822  13.935  1.00  0.00     0.005 C 
HETATM    6  C12 UNL     1      17.987   7.952  14.472  1.00  0.00     0.007 C 
HETATM    7  C13 UNL     1      17.070   8.489  15.580  1.00  0.00     0.007 C 
HETATM    8  C14 UNL     1      15.728   7.883  15.375  1.00  0.00     0.015 C 
ENDROOT
BRANCH   1   9
HETATM    9  S1  UNL     1      15.365   8.554  12.654  1.00  0.00    -0.145 SA
BRANCH   9  10
HETATM   10  C2  UNL     1      16.483   8.802  11.296  1.00  0.00     0.120 C 
HETATM   11  C1  UNL     1      16.108  10.059  10.542  1.00  0.00     0.030 C 
BRANCH  10  12
HETATM   12  C15 UNL     1      16.325   7.662  10.331  1.00  0.00     0.149 C 
HETATM   13  N2  UNL     1      17.200   6.721  10.281  1.00  0.00    -0.250 N 
ATOM     14  H2  UNL     1      18.005   6.760  10.906  1.00  0.00     0.196 HD
BRANCH  12  15
HETATM   15  O2  UNL     1      15.240   7.598   9.480  1.00  0.00    -0.347 OA
ATOM     16  H2  UNL     1      14.449   7.138   9.733  1.00  0.00     0.219 HD
ENDBRANCH  12  15
BRANCH  13  17
HETATM   17  O3  UNL     1      17.087   5.674   9.418  1.00  0.00    -0.288 OA
ATOM     18  H3  UNL     1      17.203   4.775   9.700  1.00  0.00     0.244 HD
ENDBRANCH  13  17
ENDBRANCH  10  12
ENDBRANCH   9  10
ENDBRANCH   1   9
BRANCH   3  19
HETATM   19  C6  UNL     1      15.070   5.864  16.843  1.00  0.00     0.243 C 
BRANCH  19  20
HETATM   20  N1  UNL     1      15.749   4.651  17.256  1.00  0.00    -0.063 N 
ATOM     21  H12 UNL     1      16.311   4.261  16.500  1.00  0.00     0.277 HD
ATOM     22  H11 UNL     1      16.495   4.849  17.922  1.00  0.00     0.277 HD
BRANCH  20  23
HETATM   23  C7  UNL     1      14.811   3.671  17.783  1.00  0.00     0.269 C 
HETATM   24  C8  UNL     1      15.419   2.271  17.628  1.00  0.00     0.209 C 
HETATM   25  O1  UNL     1      14.815   2.168  16.374  1.00  0.00    -0.352 OA
HETATM   26  C9  UNL     1      13.871   3.084  16.771  1.00  0.00     0.339 C 
HETATM   27  F1  UNL     1      12.787   2.483  17.390  1.00  0.00    -0.217 F 
ENDBRANCH  20  23
ENDBRANCH  19  20
ENDBRANCH   3  19
TORSDOF 8
ENDMDL
MODEL 4
REMARK VINA RESULT: -7.682361478      1.784      2.099
REMARK  8 active torsions:
REMARK  status: ('A' for Active; 'I' for Inactive)
REMARK    1  A    between atoms: C2_2  and  S1_3 
REMARK    2  A    between atoms: C2_2  and  C15_21 
REMARK    3  A    between atoms: S1_3  and  C3_4 
REMARK    4  A    between atoms: C5_6  and  C6_7 
REMARK    5  A    between atoms: C6_7  and  N1_8 
REMARK    6  A    between atoms: N1_8  and  C7_11 
REMARK    7  A    between atoms: C15_21  and  O2_22 
REMARK    8  A    between atoms: N2_24  and  O3_26 
ROOT
HETATM    1  C3  UNL     1      17.701   6.767  13.776  1.00  0.00     0.018 C 
HETATM    2  C4  UNL     1      17.284   5.748  14.818  1.00  0.00     0.033 C 
HETATM    3  C5  UNL     1      16.032   6.637  14.922  1.00  0.00    -0.009 C 
HETATM    4  C10 UNL     1      16.621   7.887  15.495  1.00  0.00     0.018 C 
HETATM    5  C11 UNL     1      17.746   8.111  14.467  1.00  0.00     0.005 C 
HETATM    6  C12 UNL     1      17.162   9.016  13.422  1.00  0.00     0.007 C 
HETATM    7  C13 UNL     1      15.994   8.161  12.912  1.00  0.00     0.007 C 
HETATM    8  C14 UNL     1      16.196   6.782  13.429  1.00  0.00     0.015 C 
ENDROOT
BRANCH   1   9
HETATM    9  S1  UNL     1      18.855   6.383  12.559  1.00  0.00    -0.145 SA
BRANCH   9  10
HETATM   10  C2  UNL     1      18.306   5.654  11.035  1.00  0.00     0.120 C 
HETATM   11  C1  UNL     1      17.524   6.668  10.230  1.00  0.00     0.030 C 
BRANCH  10  12
HETATM   12  C15 UNL     1      17.354   4.536  11.354  1.00  0.00     0.149 C 
HETATM   13  N2  UNL     1      16.225   4.444  10.746  1.00  0.00    -0.250 N 
ATOM     14  H2  UNL     1      15.985   5.142  10.042  1.00  0.00     0.196 HD
BRANCH  12  15
HETATM   15  O2  UNL     1      17.669   3.586  12.305  1.00  0.00    -0.347 OA
ATOM     16  H2  UNL     1      17.305   3.632  13.180  1.00  0.00     0.219 HD
ENDBRANCH  12  15
BRANCH  13  17
HETATM   17  O3  UNL     1      15.341   3.445  11.012  1.00  0.00    -0.288 OA
ATOM     18  H3  UNL     1      15.182   3.134  11.895  1.00  0.00     0.244 HD
ENDBRANCH  13  17
ENDBRANCH  10  12
ENDBRANCH   9  10
ENDBRANCH   1   9
BRANCH   3  19
HETATM   19  C6  UNL     1      14.844   6.052  15.503  1.00  0.00     0.243 C 
BRANCH  19  20
HETATM   20  N1  UNL     1      14.966   5.959  16.945  1.00  0.00    -0.063 N 
ATOM     21  H12 UNL     1      15.942   5.979  17.240  1.00  0.00     0.277 HD
ATOM     22  H11 UNL     1      14.644   6.811  17.404  1.00  0.00     0.277 HD
BRANCH  20  23
HETATM   23  C7  UNL     1      14.279   4.784  17.461  1.00  0.00     0.269 C 
HETATM   24  C8  UNL     1      15.148   4.141  18.551  1.00  0.00     0.209 C 
HETATM   25  O1  UNL     1      15.755   3.351  17.573  1.00  0.00    -0.352 OA
HETATM   26  C9  UNL     1      14.636   3.492  16.786  1.00  0.00     0.339 C 
HETATM   27  F1  UNL     1      13.689   2.517  17.047  1.00  0.00    -0.217 F 
ENDBRANCH  20  23
ENDBRANCH  19  20
ENDBRANCH   3  19
TORSDOF 8
ENDMDL
MODEL 5
REMARK VINA RESULT: -7.655386440      2.705      3.543
REMARK  8 active torsions:
REMARK  status: ('A' for Active; 'I' for Inactive)
REMARK    1  A    between atoms: C2_2  and  S1_3 
REMARK    2  A    between atoms: C2_2  and  C15_21 
REMARK    3  A    between atoms: S1_3  and  C3_4 
REMARK    4  A    between atoms: C5_6  and  C6_7 
REMARK    5  A    between atoms: C6_7  and  N1_8 
REMARK    6  A    between atoms: N1_8  and  C7_11 
REMARK    7  A    between atoms: C15_21  and  O2_22 
REMARK    8  A    between atoms: N2_24  and  O3_26 
ROOT
HETATM    1  C3  UNL     1      15.631   7.484  14.019  1.00  0.00     0.018 C 
HETATM    2  C4  UNL     1      14.703   6.388  14.503  1.00  0.00     0.033 C 
HETATM    3  C5  UNL     1      15.626   6.401  15.734  1.00  0.00    -0.009 C 
HETATM    4  C10 UNL     1      16.902   5.898  15.134  1.00  0.00     0.018 C 
HETATM    5  C11 UNL     1      17.021   6.893  13.964  1.00  0.00     0.005 C 
HETATM    6  C12 UNL     1      17.859   8.025  14.483  1.00  0.00     0.007 C 
HETATM    7  C13 UNL     1      16.997   8.518  15.653  1.00  0.00     0.007 C 
HETATM    8  C14 UNL     1      15.655   7.893  15.509  1.00  0.00     0.015 C 
ENDROOT
BRANCH   1   9
HETATM    9  S1  UNL     1      15.129   8.622  12.830  1.00  0.00    -0.145 SA
BRANCH   9  10
HETATM   10  C2  UNL     1      16.202   8.986  11.462  1.00  0.00     0.120 C 
HETATM   11  C1  UNL     1      16.179  10.469  11.168  1.00  0.00     0.030 C 
BRANCH  10  12
HETATM   12  C15 UNL     1      15.666   8.300  10.237  1.00  0.00     0.149 C 
HETATM   13  N2  UNL     1      14.906   8.930   9.414  1.00  0.00    -0.250 N 
ATOM     14  H2  UNL     1      14.672   9.905   9.604  1.00  0.00     0.196 HD
BRANCH  12  15
HETATM   15  O2  UNL     1      15.976   6.981   9.970  1.00  0.00    -0.347 OA
ATOM     16  H2  UNL     1      16.877   6.707   9.850  1.00  0.00     0.219 HD
ENDBRANCH  12  15
BRANCH  13  17
HETATM   17  O3  UNL     1      14.404   8.339   8.296  1.00  0.00    -0.288 OA
ATOM     18  H3  UNL     1      14.215   8.831   7.506  1.00  0.00     0.244 HD
ENDBRANCH  13  17
ENDBRANCH  10  12
ENDBRANCH   9  10
ENDBRANCH   1   9
BRANCH   3  19
HETATM   19  C6  UNL     1      15.116   5.827  16.959  1.00  0.00     0.243 C 
BRANCH  19  20
HETATM   20  N1  UNL     1      15.786   4.577  17.264  1.00  0.00    -0.063 N 
ATOM     21  H12 UNL     1      16.281   4.211  16.451  1.00  0.00     0.277 HD
ATOM     22  H11 UNL     1      16.584   4.722  17.882  1.00  0.00     0.277 HD
BRANCH  20  23
HETATM   23  C7  UNL     1      14.859   3.597  17.809  1.00  0.00     0.269 C 
HETATM   24  C8  UNL     1      15.429   2.192  17.572  1.00  0.00     0.209 C 
HETATM   25  O1  UNL     1      14.754   2.144  16.352  1.00  0.00    -0.352 OA
HETATM   26  C9  UNL     1      13.852   3.063  16.832  1.00  0.00     0.339 C 
HETATM   27  F1  UNL     1      12.793   2.461  17.490  1.00  0.00    -0.217 F 
ENDBRANCH  20  23
ENDBRANCH  19  20
ENDBRANCH   3  19
TORSDOF 8
ENDMDL
