MODEL 1
REMARK VINA RESULT: -5.830367331      0.000      0.000
REMARK  5 active torsions:
REMARK  status: ('A' for Active; 'I' for Inactive)
REMARK    1  A    between atoms: N1_2  and  C2_3 
REMARK    2  A    between atoms: N1_2  and  C9_15 
REMARK    3  A    between atoms: C2_3  and  C3_4 
REMARK    4  A    between atoms: C9_15  and  C10_16 
REMARK    5  A    between atoms: C9_15  and  C11_20 
ROOT
HETATM    1  C3  UNL     1      18.322  45.652  15.893  1.00  0.00     0.120 C 
HETATM    2  C4  UNL     1      17.518  46.693  15.156  1.00  0.00     0.258 C 
HETATM    3  N2  UNL     1      17.514  47.977  15.778  1.00  0.00    -0.071 N 
ATOM      4  H21 UNL     1      17.032  47.994  16.677  1.00  0.00     0.277 HD
ATOM      5  H22 UNL     1      16.917  48.658  15.307  1.00  0.00     0.277 HD
HETATM    6  C5  UNL     1      18.922  48.384  15.857  1.00  0.00     0.261 C 
HETATM    7  C6  UNL     1      19.682  47.453  16.781  1.00  0.00     0.042 C 
HETATM    8  C7  UNL     1      21.146  47.883  16.694  1.00  0.00     0.039 C 
HETATM    9  C8  UNL     1      19.234  47.684  18.206  1.00  0.00     0.039 C 
HETATM   10  N3  UNL     1      19.535  46.097  16.461  1.00  0.00    -0.404 N 
ATOM     11  H3  UNL     1      20.296  45.440  16.636  1.00  0.00     0.154 HD
ENDROOT
BRANCH   1  12
HETATM   12  C2  UNL     1      18.547  44.543  14.854  1.00  0.00     0.144 C 
BRANCH  12  13
HETATM   13  N1  UNL     1      18.241  43.328  15.518  1.00  0.00    -0.398 N 
HETATM   14  C1  UNL     1      19.294  42.640  16.129  1.00  0.00     0.144 C 
BRANCH  13  15
HETATM   15  C9  UNL     1      17.162  42.572  14.999  1.00  0.00     0.219 C 
BRANCH  15  16
HETATM   16  C10 UNL     1      16.858  42.992  13.621  1.00  0.00     0.089 C 
HETATM   17  N4  UNL     1      16.014  42.320  12.938  1.00  0.00    -0.409 N 
ATOM     18  H42 UNL     1      15.564  41.506  13.357  1.00  0.00     0.155 HD
ATOM     19  H41 UNL     1      15.803  42.612  11.984  1.00  0.00     0.155 HD
ENDBRANCH  15  16
BRANCH  15  20
HETATM   20  C11 UNL     1      15.958  42.627  15.849  1.00  0.00     0.201 C 
HETATM   21  O1  UNL     1      14.969  41.922  15.534  1.00  0.00    -0.646 OA
HETATM   22  O2  UNL     1      15.894  43.438  16.985  1.00  0.00    -0.646 OA
ENDBRANCH  15  20
ENDBRANCH  13  15
ENDBRANCH  12  13
ENDBRANCH   1  12
TORSDOF 5
ENDMDL
MODEL 2
REMARK VINA RESULT: -5.718407884      2.769      5.798
REMARK  5 active torsions:
REMARK  status: ('A' for Active; 'I' for Inactive)
REMARK    1  A    between atoms: N1_2  and  C2_3 
REMARK    2  A    between atoms: N1_2  and  C9_15 
REMARK    3  A    between atoms: C2_3  and  C3_4 
REMARK    4  A    between atoms: C9_15  and  C10_16 
REMARK    5  A    between atoms: C9_15  and  C11_20 
ROOT
HETATM    1  C3  UNL     1      17.724  44.991  15.812  1.00  0.00     0.120 C 
HETATM    2  C4  UNL     1      18.007  45.032  14.331  1.00  0.00     0.258 C 
HETATM    3  N2  UNL     1      18.236  43.752  13.744  1.00  0.00    -0.071 N 
ATOM      4  H21 UNL     1      19.091  43.301  14.069  1.00  0.00     0.277 HD
ATOM      5  H22 UNL     1      18.488  43.795  12.756  1.00  0.00     0.277 HD
HETATM    6  C5  UNL     1      17.021  42.971  14.008  1.00  0.00     0.261 C 
HETATM    7  C6  UNL     1      16.860  42.746  15.499  1.00  0.00     0.042 C 
HETATM    8  C7  UNL     1      15.514  42.043  15.670  1.00  0.00     0.039 C 
HETATM    9  C8  UNL     1      17.927  41.791  15.979  1.00  0.00     0.039 C 
HETATM   10  N3  UNL     1      16.913  43.924  16.256  1.00  0.00    -0.404 N 
ATOM     11  H3  UNL     1      16.373  44.009  17.117  1.00  0.00     0.154 HD
ENDROOT
BRANCH   1  12
HETATM   12  C2  UNL     1      17.089  46.358  16.113  1.00  0.00     0.144 C 
BRANCH  12  13
HETATM   13  N1  UNL     1      18.039  47.054  16.904  1.00  0.00    -0.398 N 
HETATM   14  C1  UNL     1      18.122  46.723  18.259  1.00  0.00     0.144 C 
BRANCH  13  15
HETATM   15  C9  UNL     1      18.329  48.387  16.523  1.00  0.00     0.219 C 
BRANCH  15  16
HETATM   16  C10 UNL     1      17.406  48.830  15.464  1.00  0.00     0.089 C 
HETATM   17  N4  UNL     1      17.698  49.869  14.782  1.00  0.00    -0.409 N 
ATOM     18  H42 UNL     1      18.562  50.374  14.980  1.00  0.00     0.155 HD
ATOM     19  H41 UNL     1      17.059  50.176  14.048  1.00  0.00     0.155 HD
ENDBRANCH  15  16
BRANCH  15  20
HETATM   20  C11 UNL     1      19.734  48.578  16.117  1.00  0.00     0.201 C 
HETATM   21  O1  UNL     1      20.390  47.578  15.736  1.00  0.00    -0.646 OA
HETATM   22  O2  UNL     1      20.345  49.834  16.148  1.00  0.00    -0.646 OA
ENDBRANCH  15  20
ENDBRANCH  13  15
ENDBRANCH  12  13
ENDBRANCH   1  12
TORSDOF 5
ENDMDL
MODEL 3
REMARK VINA RESULT: -5.703142851      1.200      1.502
REMARK  5 active torsions:
REMARK  status: ('A' for Active; 'I' for Inactive)
REMARK    1  A    between atoms: N1_2  and  C2_3 
REMARK    2  A    between atoms: N1_2  and  C9_15 
REMARK    3  A    between atoms: C2_3  and  C3_4 
REMARK    4  A    between atoms: C9_15  and  C10_16 
REMARK    5  A    between atoms: C9_15  and  C11_20 
ROOT
HETATM    1  C3  UNL     1      17.782  46.735  15.995  1.00  0.00     0.120 C 
HETATM    2  C4  UNL     1      17.343  48.058  15.420  1.00  0.00     0.258 C 
HETATM    3  N2  UNL     1      17.871  49.195  16.100  1.00  0.00    -0.071 N 
ATOM      4  H21 UNL     1      17.523  49.299  17.053  1.00  0.00     0.277 HD
ATOM      5  H22 UNL     1      17.519  50.084  15.744  1.00  0.00     0.277 HD
HETATM    6  C5  UNL     1      19.331  49.064  16.017  1.00  0.00     0.261 C 
HETATM    7  C6  UNL     1      19.789  47.841  16.788  1.00  0.00     0.042 C 
HETATM    8  C7  UNL     1      21.291  47.728  16.534  1.00  0.00     0.039 C 
HETATM    9  C8  UNL     1      19.604  48.084  18.268  1.00  0.00     0.039 C 
HETATM   10  N3  UNL     1      19.125  46.663  16.423  1.00  0.00    -0.404 N 
ATOM     11  H3  UNL     1      19.607  45.765  16.465  1.00  0.00     0.154 HD
ENDROOT
BRANCH   1  12
HETATM   12  C2  UNL     1      17.479  45.720  14.881  1.00  0.00     0.144 C 
BRANCH  12  13
HETATM   13  N1  UNL     1      16.811  44.642  15.517  1.00  0.00    -0.398 N 
HETATM   14  C1  UNL     1      16.329  44.852  16.812  1.00  0.00     0.144 C 
BRANCH  13  15
HETATM   15  C9  UNL     1      17.229  43.337  15.164  1.00  0.00     0.219 C 
BRANCH  15  16
HETATM   16  C10 UNL     1      17.411  43.233  13.706  1.00  0.00     0.089 C 
HETATM   17  N4  UNL     1      16.557  42.578  13.018  1.00  0.00    -0.409 N 
ATOM     18  H42 UNL     1      15.766  42.138  13.488  1.00  0.00     0.155 HD
ATOM     19  H41 UNL     1      16.683  42.507  12.009  1.00  0.00     0.155 HD
ENDBRANCH  15  16
BRANCH  15  20
HETATM   20  C11 UNL     1      16.322  42.285  15.661  1.00  0.00     0.201 C 
HETATM   21  O1  UNL     1      16.786  41.403  16.423  1.00  0.00    -0.646 OA
HETATM   22  O2  UNL     1      14.971  42.251  15.307  1.00  0.00    -0.646 OA
ENDBRANCH  15  20
ENDBRANCH  13  15
ENDBRANCH  12  13
ENDBRANCH   1  12
TORSDOF 5
ENDMDL
MODEL 4
REMARK VINA RESULT: -5.671187254      2.048      2.653
REMARK  5 active torsions:
REMARK  status: ('A' for Active; 'I' for Inactive)
REMARK    1  A    between atoms: N1_2  and  C2_3 
REMARK    2  A    between atoms: N1_2  and  C9_15 
REMARK    3  A    between atoms: C2_3  and  C3_4 
REMARK    4  A    between atoms: C9_15  and  C10_16 
REMARK    5  A    between atoms: C9_15  and  C11_20 
ROOT
HETATM    1  C3  UNL     1      17.630  46.161  17.219  1.00  0.00     0.120 C 
HETATM    2  C4  UNL     1      17.554  46.775  18.593  1.00  0.00     0.258 C 
HETATM    3  N2  UNL     1      18.349  47.949  18.754  1.00  0.00    -0.071 N 
ATOM      4  H21 UNL     1      19.352  47.773  18.701  1.00  0.00     0.277 HD
ATOM      5  H22 UNL     1      18.341  48.322  19.704  1.00  0.00     0.277 HD
HETATM    6  C5  UNL     1      17.863  48.898  17.745  1.00  0.00     0.261 C 
HETATM    7  C6  UNL     1      18.143  48.367  16.353  1.00  0.00     0.042 C 
HETATM    8  C7  UNL     1      17.491  49.359  15.391  1.00  0.00     0.039 C 
HETATM    9  C8  UNL     1      19.630  48.405  16.092  1.00  0.00     0.039 C 
HETATM   10  N3  UNL     1      17.664  47.068  16.138  1.00  0.00    -0.404 N 
ATOM     11  H3  UNL     1      17.345  46.782  15.212  1.00  0.00     0.154 HD
ENDROOT
BRANCH   1  12
HETATM   12  C2  UNL     1      16.406  45.234  17.151  1.00  0.00     0.144 C 
BRANCH  12  13
HETATM   13  N1  UNL     1      16.885  44.005  16.631  1.00  0.00    -0.398 N 
HETATM   14  C1  UNL     1      18.178  43.611  16.984  1.00  0.00     0.144 C 
BRANCH  13  15
HETATM   15  C9  UNL     1      16.392  43.615  15.362  1.00  0.00     0.219 C 
BRANCH  15  16
HETATM   16  C10 UNL     1      15.827  42.257  15.425  1.00  0.00     0.089 C 
HETATM   17  N4  UNL     1      14.929  41.917  14.584  1.00  0.00    -0.409 N 
ATOM     18  H42 UNL     1      14.617  42.590  13.883  1.00  0.00     0.155 HD
ATOM     19  H41 UNL     1      14.538  40.976  14.628  1.00  0.00     0.155 HD
ENDBRANCH  15  16
BRANCH  15  20
HETATM   20  C11 UNL     1      17.403  43.720  14.293  1.00  0.00     0.201 C 
HETATM   21  O1  UNL     1      17.684  42.693  13.629  1.00  0.00    -0.646 OA
HETATM   22  O2  UNL     1      18.049  44.926  14.007  1.00  0.00    -0.646 OA
ENDBRANCH  15  20
ENDBRANCH  13  15
ENDBRANCH  12  13
ENDBRANCH   1  12
TORSDOF 5
ENDMDL
MODEL 5
REMARK VINA RESULT: -5.484007771      1.386      1.642
REMARK  5 active torsions:
REMARK  status: ('A' for Active; 'I' for Inactive)
REMARK    1  A    between atoms: N1_2  and  C2_3 
REMARK    2  A    between atoms: N1_2  and  C9_15 
REMARK    3  A    between atoms: C2_3  and  C3_4 
REMARK    4  A    between atoms: C9_15  and  C10_16 
REMARK    5  A    between atoms: C9_15  and  C11_20 
ROOT
HETATM    1  C3  UNL     1      18.467  46.808  16.480  1.00  0.00     0.120 C 
HETATM    2  C4  UNL     1      17.679  47.455  15.369  1.00  0.00     0.258 C 
HETATM    3  N2  UNL     1      17.366  48.828  15.597  1.00  0.00    -0.071 N 
ATOM      4  H21 UNL     1      16.721  48.977  16.373  1.00  0.00     0.277 HD
ATOM      5  H22 UNL     1      16.780  49.240  14.870  1.00  0.00     0.277 HD
HETATM    6  C5  UNL     1      18.657  49.506  15.766  1.00  0.00     0.261 C 
HETATM    7  C6  UNL     1      19.351  49.002  17.017  1.00  0.00     0.042 C 
HETATM    8  C7  UNL     1      20.724  49.671  17.029  1.00  0.00     0.039 C 
HETATM    9  C8  UNL     1      18.605  49.493  18.235  1.00  0.00     0.039 C 
HETATM   10  N3  UNL     1      19.468  47.607  17.073  1.00  0.00    -0.404 N 
ATOM     11  H3  UNL     1      20.268  47.174  17.536  1.00  0.00     0.154 HD
ENDROOT
BRANCH   1  12
HETATM   12  C2  UNL     1      19.049  45.538  15.840  1.00  0.00     0.144 C 
BRANCH  12  13
HETATM   13  N1  UNL     1      18.334  44.457  16.415  1.00  0.00    -0.398 N 
HETATM   14  C1  UNL     1      18.850  43.886  17.583  1.00  0.00     0.144 C 
BRANCH  13  15
HETATM   15  C9  UNL     1      17.618  43.622  15.525  1.00  0.00     0.219 C 
BRANCH  15  16
HETATM   16  C10 UNL     1      17.920  43.982  14.129  1.00  0.00     0.089 C 
HETATM   17  N4  UNL     1      17.705  43.126  13.206  1.00  0.00    -0.409 N 
ATOM     18  H42 UNL     1      17.329  42.209  13.449  1.00  0.00     0.155 HD
ATOM     19  H41 UNL     1      17.914  43.375  12.239  1.00  0.00     0.155 HD
ENDBRANCH  15  16
BRANCH  15  20
HETATM   20  C11 UNL     1      16.163  43.628  15.771  1.00  0.00     0.201 C 
HETATM   21  O1  UNL     1      15.677  44.553  16.466  1.00  0.00    -0.646 OA
HETATM   22  O2  UNL     1      15.324  42.638  15.254  1.00  0.00    -0.646 OA
ENDBRANCH  15  20
ENDBRANCH  13  15
ENDBRANCH  12  13
ENDBRANCH   1  12
TORSDOF 5
ENDMDL
