MODEL 1
REMARK VINA RESULT: -6.221578635      0.000      0.000
REMARK  8 active torsions:
REMARK  status: ('A' for Active; 'I' for Inactive)
REMARK    1  A    between atoms: C2_2  and  C3_3 
REMARK    2  A    between atoms: C3_3  and  C4_4 
REMARK    3  A    between atoms: C4_4  and  C5_5 
REMARK    4  A    between atoms: C5_5  and  C6_6 
REMARK    5  A    between atoms: C6_6  and  C7_7 
REMARK    6  A    between atoms: C8_8  and  C9_9 
REMARK    7  A    between atoms: C9_9  and  O1_10 
REMARK    8  A    between atoms: C11_14  and  O3_15 
ROOT
HETATM    1  C7  UNL     1      38.343  41.726  -3.750  1.00  0.00     0.024 C 
HETATM    2  C8  UNL     1      37.465  42.710  -4.343  1.00  0.00     0.150 C 
HETATM    3  O2  UNL     1      37.045  43.576  -3.317  1.00  0.00    -0.375 OA
HETATM    4  C10 UNL     1      37.982  43.504  -2.319  1.00  0.00     0.156 C 
HETATM    5  C11 UNL     1      37.422  43.767  -0.947  1.00  0.00     0.152 C 
HETATM    6  C12 UNL     1      36.418  42.637  -0.796  1.00  0.00     0.022 A 
HETATM    7  C13 UNL     1      36.885  41.358  -0.185  1.00  0.00     0.013 A 
HETATM    8  C14 UNL     1      36.985  41.486  -1.649  1.00  0.00    -0.001 A 
HETATM    9  C15 UNL     1      38.243  41.998  -2.249  1.00  0.00     0.028 C 
ENDROOT
BRANCH   1  10
HETATM   10  C6  UNL     1      38.156  40.285  -4.071  1.00  0.00     0.007 C 
BRANCH  10  11
HETATM   11  C5  UNL     1      39.533  39.642  -4.112  1.00  0.00     0.000 C 
BRANCH  11  12
HETATM   12  C4  UNL     1      39.667  38.541  -3.084  1.00  0.00     0.000 C 
BRANCH  12  13
HETATM   13  C3  UNL     1      38.352  38.043  -2.591  1.00  0.00    -0.000 C 
BRANCH  13  14
HETATM   14  C2  UNL     1      38.439  37.838  -1.093  1.00  0.00    -0.005 C 
HETATM   15  C1  UNL     1      39.545  36.893  -0.741  1.00  0.00     0.005 C 
ENDBRANCH  13  14
ENDBRANCH  12  13
ENDBRANCH  11  12
ENDBRANCH  10  11
ENDBRANCH   1  10
BRANCH   2  16
HETATM   16  C9  UNL     1      36.250  42.269  -5.076  1.00  0.00     0.196 C 
BRANCH  16  17
HETATM   17  O1  UNL     1      35.479  43.246  -5.630  1.00  0.00    -0.398 OA
ATOM     18  H1  UNL     1      34.813  42.968  -6.248  1.00  0.00     0.209 HD
ENDBRANCH  16  17
ENDBRANCH   2  16
BRANCH   5  19
HETATM   19  O3  UNL     1      38.466  43.542  -0.031  1.00  0.00    -0.393 OA
ATOM     20  H3  UNL     1      38.833  44.392   0.181  1.00  0.00     0.210 HD
ENDBRANCH   5  19
TORSDOF 8
ENDMDL
MODEL 2
REMARK VINA RESULT: -6.049679191      1.258      1.745
REMARK  8 active torsions:
REMARK  status: ('A' for Active; 'I' for Inactive)
REMARK    1  A    between atoms: C2_2  and  C3_3 
REMARK    2  A    between atoms: C3_3  and  C4_4 
REMARK    3  A    between atoms: C4_4  and  C5_5 
REMARK    4  A    between atoms: C5_5  and  C6_6 
REMARK    5  A    between atoms: C6_6  and  C7_7 
REMARK    6  A    between atoms: C8_8  and  C9_9 
REMARK    7  A    between atoms: C9_9  and  O1_10 
REMARK    8  A    between atoms: C11_14  and  O3_15 
ROOT
HETATM    1  C7  UNL     1      38.340  41.742  -3.747  1.00  0.00     0.024 C 
HETATM    2  C8  UNL     1      37.473  42.724  -4.363  1.00  0.00     0.150 C 
HETATM    3  O2  UNL     1      37.066  43.619  -3.357  1.00  0.00    -0.375 OA
HETATM    4  C10 UNL     1      38.003  43.559  -2.358  1.00  0.00     0.156 C 
HETATM    5  C11 UNL     1      37.449  43.861  -0.992  1.00  0.00     0.152 C 
HETATM    6  C12 UNL     1      36.432  42.748  -0.813  1.00  0.00     0.022 A 
HETATM    7  C13 UNL     1      36.883  41.479  -0.172  1.00  0.00     0.013 A 
HETATM    8  C14 UNL     1      36.982  41.571  -1.639  1.00  0.00    -0.001 A 
HETATM    9  C15 UNL     1      38.246  42.052  -2.253  1.00  0.00     0.028 C 
ENDROOT
BRANCH   1  10
HETATM   10  C6  UNL     1      38.133  40.297  -4.034  1.00  0.00     0.007 C 
BRANCH  10  11
HETATM   11  C5  UNL     1      39.323  39.543  -3.462  1.00  0.00     0.000 C 
BRANCH  11  12
HETATM   12  C4  UNL     1      39.945  38.621  -4.488  1.00  0.00     0.000 C 
BRANCH  12  13
HETATM   13  C3  UNL     1      41.434  38.612  -4.433  1.00  0.00    -0.000 C 
BRANCH  13  14
HETATM   14  C2  UNL     1      41.870  38.628  -2.982  1.00  0.00    -0.005 C 
HETATM   15  C1  UNL     1      43.326  38.955  -2.860  1.00  0.00     0.005 C 
ENDBRANCH  13  14
ENDBRANCH  12  13
ENDBRANCH  11  12
ENDBRANCH  10  11
ENDBRANCH   1  10
BRANCH   2  16
HETATM   16  C9  UNL     1      36.251  42.281  -5.082  1.00  0.00     0.196 C 
BRANCH  16  17
HETATM   17  O1  UNL     1      35.487  43.256  -5.650  1.00  0.00    -0.398 OA
ATOM     18  H1  UNL     1      34.554  43.227  -5.471  1.00  0.00     0.209 HD
ENDBRANCH  16  17
ENDBRANCH   2  16
BRANCH   5  19
HETATM   19  O3  UNL     1      38.492  43.645  -0.073  1.00  0.00    -0.393 OA
ATOM     20  H3  UNL     1      39.263  44.074  -0.426  1.00  0.00     0.210 HD
ENDBRANCH   5  19
TORSDOF 8
ENDMDL
MODEL 3
REMARK VINA RESULT: -5.773061574      6.397      9.724
REMARK  8 active torsions:
REMARK  status: ('A' for Active; 'I' for Inactive)
REMARK    1  A    between atoms: C2_2  and  C3_3 
REMARK    2  A    between atoms: C3_3  and  C4_4 
REMARK    3  A    between atoms: C4_4  and  C5_5 
REMARK    4  A    between atoms: C5_5  and  C6_6 
REMARK    5  A    between atoms: C6_6  and  C7_7 
REMARK    6  A    between atoms: C8_8  and  C9_9 
REMARK    7  A    between atoms: C9_9  and  O1_10 
REMARK    8  A    between atoms: C11_14  and  O3_15 
ROOT
HETATM    1  C7  UNL     1      32.992  41.208  -8.583  1.00  0.00     0.024 C 
HETATM    2  C8  UNL     1      33.989  41.989  -7.884  1.00  0.00     0.150 C 
HETATM    3  O2  UNL     1      34.024  43.263  -8.480  1.00  0.00    -0.375 OA
HETATM    4  C10 UNL     1      32.812  43.455  -9.092  1.00  0.00     0.156 C 
HETATM    5  C11 UNL     1      32.881  44.360 -10.293  1.00  0.00     0.152 C 
HETATM    6  C12 UNL     1      33.809  43.589 -11.214  1.00  0.00     0.022 A 
HETATM    7  C13 UNL     1      33.203  42.624 -12.178  1.00  0.00     0.013 A 
HETATM    8  C14 UNL     1      33.587  42.108 -10.853  1.00  0.00    -0.001 A 
HETATM    9  C15 UNL     1      32.584  42.096  -9.758  1.00  0.00     0.028 C 
ENDROOT
BRANCH   1  10
HETATM   10  C6  UNL     1      33.314  39.821  -9.015  1.00  0.00     0.007 C 
BRANCH  10  11
HETATM   11  C5  UNL     1      32.069  38.975  -8.806  1.00  0.00     0.000 C 
BRANCH  11  12
HETATM   12  C4  UNL     1      31.433  38.581 -10.120  1.00  0.00     0.000 C 
BRANCH  12  13
HETATM   13  C3  UNL     1      29.947  38.681 -10.100  1.00  0.00    -0.000 C 
BRANCH  13  14
HETATM   14  C2  UNL     1      29.546  40.082 -10.513  1.00  0.00    -0.005 C 
HETATM   15  C1  UNL     1      30.113  40.433 -11.854  1.00  0.00     0.005 C 
ENDBRANCH  13  14
ENDBRANCH  12  13
ENDBRANCH  11  12
ENDBRANCH  10  11
ENDBRANCH   1  10
BRANCH   2  16
HETATM   16  C9  UNL     1      35.390  41.498  -7.807  1.00  0.00     0.196 C 
BRANCH  16  17
HETATM   17  O1  UNL     1      36.330  42.392  -7.391  1.00  0.00    -0.398 OA
ATOM     18  H1  UNL     1      37.239  42.134  -7.491  1.00  0.00     0.209 HD
ENDBRANCH  16  17
ENDBRANCH   2  16
BRANCH   5  19
HETATM   19  O3  UNL     1      31.599  44.364 -10.874  1.00  0.00    -0.393 OA
ATOM     20  H3  UNL     1      31.450  45.241 -11.204  1.00  0.00     0.210 HD
ENDBRANCH   5  19
TORSDOF 8
ENDMDL
MODEL 4
REMARK VINA RESULT: -5.760864625      6.228      9.110
REMARK  8 active torsions:
REMARK  status: ('A' for Active; 'I' for Inactive)
REMARK    1  A    between atoms: C2_2  and  C3_3 
REMARK    2  A    between atoms: C3_3  and  C4_4 
REMARK    3  A    between atoms: C4_4  and  C5_5 
REMARK    4  A    between atoms: C5_5  and  C6_6 
REMARK    5  A    between atoms: C6_6  and  C7_7 
REMARK    6  A    between atoms: C8_8  and  C9_9 
REMARK    7  A    between atoms: C9_9  and  O1_10 
REMARK    8  A    between atoms: C11_14  and  O3_15 
ROOT
HETATM    1  C7  UNL     1      33.126  41.088  -8.443  1.00  0.00     0.024 C 
HETATM    2  C8  UNL     1      34.088  41.902  -7.732  1.00  0.00     0.150 C 
HETATM    3  O2  UNL     1      34.070  43.183  -8.312  1.00  0.00    -0.375 OA
HETATM    4  C10 UNL     1      32.854  43.332  -8.927  1.00  0.00     0.156 C 
HETATM    5  C11 UNL     1      32.888  44.253 -10.116  1.00  0.00     0.152 C 
HETATM    6  C12 UNL     1      33.851  43.533 -11.044  1.00  0.00     0.022 A 
HETATM    7  C13 UNL     1      33.288  42.555 -12.020  1.00  0.00     0.013 A 
HETATM    8  C14 UNL     1      33.690  42.040 -10.700  1.00  0.00    -0.001 A 
HETATM    9  C15 UNL     1      32.684  41.972  -9.609  1.00  0.00     0.028 C 
ENDROOT
BRANCH   1  10
HETATM   10  C6  UNL     1      33.508  39.721  -8.891  1.00  0.00     0.007 C 
BRANCH  10  11
HETATM   11  C5  UNL     1      32.836  38.730  -7.955  1.00  0.00     0.000 C 
BRANCH  11  12
HETATM   12  C4  UNL     1      31.670  38.034  -8.623  1.00  0.00     0.000 C 
BRANCH  12  13
HETATM   13  C3  UNL     1      31.050  36.985  -7.764  1.00  0.00    -0.000 C 
BRANCH  13  14
HETATM   14  C2  UNL     1      29.694  36.626  -8.335  1.00  0.00    -0.005 C 
HETATM   15  C1  UNL     1      29.465  37.307  -9.650  1.00  0.00     0.005 C 
ENDBRANCH  13  14
ENDBRANCH  12  13
ENDBRANCH  11  12
ENDBRANCH  10  11
ENDBRANCH   1  10
BRANCH   2  16
HETATM   16  C9  UNL     1      35.508  41.470  -7.656  1.00  0.00     0.196 C 
BRANCH  16  17
HETATM   17  O1  UNL     1      36.418  42.416  -7.293  1.00  0.00    -0.398 OA
ATOM     18  H1  UNL     1      36.976  42.211  -6.552  1.00  0.00     0.209 HD
ENDBRANCH  16  17
ENDBRANCH   2  16
BRANCH   5  19
HETATM   19  O3  UNL     1      31.609  44.210 -10.702  1.00  0.00    -0.393 OA
ATOM     20  H3  UNL     1      31.156  43.468 -10.318  1.00  0.00     0.210 HD
ENDBRANCH   5  19
TORSDOF 8
ENDMDL
MODEL 5
REMARK VINA RESULT: -5.746689228      1.378      2.016
REMARK  8 active torsions:
REMARK  status: ('A' for Active; 'I' for Inactive)
REMARK    1  A    between atoms: C2_2  and  C3_3 
REMARK    2  A    between atoms: C3_3  and  C4_4 
REMARK    3  A    between atoms: C4_4  and  C5_5 
REMARK    4  A    between atoms: C5_5  and  C6_6 
REMARK    5  A    between atoms: C6_6  and  C7_7 
REMARK    6  A    between atoms: C8_8  and  C9_9 
REMARK    7  A    between atoms: C9_9  and  O1_10 
REMARK    8  A    between atoms: C11_14  and  O3_15 
ROOT
HETATM    1  C7  UNL     1      38.331  41.593  -3.761  1.00  0.00     0.024 C 
HETATM    2  C8  UNL     1      37.385  42.400  -4.500  1.00  0.00     0.150 C 
HETATM    3  O2  UNL     1      36.900  43.391  -3.627  1.00  0.00    -0.375 OA
HETATM    4  C10 UNL     1      37.837  43.553  -2.640  1.00  0.00     0.156 C 
HETATM    5  C11 UNL     1      37.256  43.998  -1.325  1.00  0.00     0.152 C 
HETATM    6  C12 UNL     1      36.337  42.839  -0.980  1.00  0.00     0.022 A 
HETATM    7  C13 UNL     1      36.893  41.716  -0.171  1.00  0.00     0.013 A 
HETATM    8  C14 UNL     1      36.988  41.607  -1.636  1.00  0.00    -0.001 A 
HETATM    9  C15 UNL     1      38.208  42.102  -2.325  1.00  0.00     0.028 C 
ENDROOT
BRANCH   1  10
HETATM   10  C6  UNL     1      38.250  40.110  -3.838  1.00  0.00     0.007 C 
BRANCH  10  11
HETATM   11  C5  UNL     1      39.586  39.554  -3.373  1.00  0.00     0.000 C 
BRANCH  11  12
HETATM   12  C4  UNL     1      40.241  38.707  -4.441  1.00  0.00     0.000 C 
BRANCH  12  13
HETATM   13  C3  UNL     1      39.262  37.911  -5.235  1.00  0.00    -0.000 C 
BRANCH  13  14
HETATM   14  C2  UNL     1      40.022  36.948  -6.124  1.00  0.00    -0.005 C 
HETATM   15  C1  UNL     1      41.501  37.138  -5.984  1.00  0.00     0.005 C 
ENDBRANCH  13  14
ENDBRANCH  12  13
ENDBRANCH  11  12
ENDBRANCH  10  11
ENDBRANCH   1  10
BRANCH   2  16
HETATM   16  C9  UNL     1      36.207  41.757  -5.138  1.00  0.00     0.196 C 
BRANCH  16  17
HETATM   17  O1  UNL     1      35.052  42.480  -5.161  1.00  0.00    -0.398 OA
ATOM     18  H1  UNL     1      34.265  42.019  -5.426  1.00  0.00     0.209 HD
ENDBRANCH  16  17
ENDBRANCH   2  16
BRANCH   5  19
HETATM   19  O3  UNL     1      38.311  44.004  -0.394  1.00  0.00    -0.393 OA
ATOM     20  H3  UNL     1      38.534  44.914  -0.237  1.00  0.00     0.210 HD
ENDBRANCH   5  19
TORSDOF 8
ENDMDL
