MODEL 1
REMARK VINA RESULT: -6.695846355      0.000      0.000
REMARK  12 active torsions:
REMARK  status: ('A' for Active; 'I' for Inactive)
REMARK    1  A    between atoms: O1_2  and  C2_3 
REMARK    2  A    between atoms: C2_3  and  C3_5 
REMARK    3  A    between atoms: C3_5  and  O3_6 
REMARK    4  A    between atoms: C3_5  and  N1_15 
REMARK    5  A    between atoms: O3_6  and  C4_7 
REMARK    6  A    between atoms: C4_7  and  C5_8 
REMARK    7  A    between atoms: C5_8  and  C6_11 
REMARK    8  A    between atoms: C12_18  and  C13_19 
REMARK    9  A    between atoms: C12_18  and  C16_23 
REMARK   10  A    between atoms: C13_19  and  N2_20 
REMARK   11  A    between atoms: C16_23  and  O4_24 
REMARK   12  A    between atoms: N3_26  and  O5_28 
ROOT
HETATM    1  N1  UNL     1      17.134 -14.203  21.369  1.00  0.00     0.127 N 
HETATM    2  C10 UNL     1      15.889 -14.882  21.430  1.00  0.00     0.277 C 
HETATM    3  C11 UNL     1      14.810 -13.917  21.839  1.00  0.00     0.050 C 
HETATM    4  C12 UNL     1      14.692 -12.840  20.790  1.00  0.00     0.056 C 
HETATM    5  C17 UNL     1      16.034 -12.073  20.889  1.00  0.00     0.050 C 
HETATM    6  C18 UNL     1      17.033 -12.829  21.719  1.00  0.00     0.277 C 
ENDROOT
BRANCH   1   7
HETATM    7  C3  UNL     1      18.228 -14.915  21.974  1.00  0.00     0.459 C 
BRANCH   7   8
HETATM    8  C2  UNL     1      19.336 -15.074  20.972  1.00  0.00     0.318 C 
HETATM    9  O2  UNL     1      20.109 -16.063  20.993  1.00  0.00    -0.260 OA
BRANCH   8  10
HETATM   10  O1  UNL     1      19.539 -14.125  19.985  1.00  0.00    -0.323 OA
HETATM   11  C1  UNL     1      20.376 -12.991  20.148  1.00  0.00     0.213 C 
ENDBRANCH   8  10
ENDBRANCH   7   8
BRANCH   7  12
HETATM   12  O3  UNL     1      18.759 -14.302  23.083  1.00  0.00    -0.347 OA
BRANCH  12  13
HETATM   13  C4  UNL     1      18.874 -15.235  24.103  1.00  0.00     0.214 C 
BRANCH  13  14
HETATM   14  C5  UNL     1      20.267 -15.504  24.560  1.00  0.00     0.141 C 
HETATM   15 CL1  UNL     1      21.440 -14.469  23.718  1.00  0.00    -0.099 Cl
HETATM   16 CL2  UNL     1      20.728 -17.199  24.186  1.00  0.00    -0.099 Cl
BRANCH  14  17
HETATM   17  C6  UNL     1      20.417 -15.266  26.040  1.00  0.00    -0.014 C 
HETATM   18  C7  UNL     1      20.620 -13.806  26.356  1.00  0.00     0.018 C 
HETATM   19  C8  UNL     1      19.195 -15.740  26.808  1.00  0.00     0.018 C 
HETATM   20  C9  UNL     1      21.613 -16.006  26.595  1.00  0.00     0.018 C 
ENDBRANCH  14  17
ENDBRANCH  13  14
ENDBRANCH  12  13
ENDBRANCH   7  12
ENDBRANCH   1   7
BRANCH   4  21
HETATM   21  C13 UNL     1      14.588 -13.442  19.439  1.00  0.00     0.289 C 
BRANCH  21  22
HETATM   22  N2  UNL     1      15.487 -12.992  18.426  1.00  0.00     0.081 N 
HETATM   23  C14 UNL     1      14.626 -12.323  17.403  1.00  0.00     0.309 C 
HETATM   24  C15 UNL     1      16.125 -14.060  17.666  1.00  0.00     0.309 C 
ENDBRANCH  21  22
ENDBRANCH   4  21
BRANCH   4  25
HETATM   25  C16 UNL     1      13.603 -11.950  21.212  1.00  0.00     0.146 C 
HETATM   26  N3  UNL     1      13.119 -11.105  20.368  1.00  0.00    -0.250 N 
ATOM     27  H3  UNL     1      13.510 -11.079  19.426  1.00  0.00     0.196 HD
BRANCH  25  28
HETATM   28  O4  UNL     1      13.108 -12.020  22.494  1.00  0.00    -0.347 OA
ATOM     29  H4  UNL     1      12.235 -11.699  22.687  1.00  0.00     0.219 HD
ENDBRANCH  25  28
BRANCH  26  30
HETATM   30  O5  UNL     1      12.100 -10.235  20.682  1.00  0.00    -0.288 OA
ATOM     31  H5  UNL     1      11.190 -10.409  20.470  1.00  0.00     0.244 HD
ENDBRANCH  26  30
ENDBRANCH   4  25
TORSDOF 12
ENDMDL
MODEL 2
REMARK VINA RESULT: -6.645544605      1.233      1.371
REMARK  12 active torsions:
REMARK  status: ('A' for Active; 'I' for Inactive)
REMARK    1  A    between atoms: O1_2  and  C2_3 
REMARK    2  A    between atoms: C2_3  and  C3_5 
REMARK    3  A    between atoms: C3_5  and  O3_6 
REMARK    4  A    between atoms: C3_5  and  N1_15 
REMARK    5  A    between atoms: O3_6  and  C4_7 
REMARK    6  A    between atoms: C4_7  and  C5_8 
REMARK    7  A    between atoms: C5_8  and  C6_11 
REMARK    8  A    between atoms: C12_18  and  C13_19 
REMARK    9  A    between atoms: C12_18  and  C16_23 
REMARK   10  A    between atoms: C13_19  and  N2_20 
REMARK   11  A    between atoms: C16_23  and  O4_24 
REMARK   12  A    between atoms: N3_26  and  O5_28 
ROOT
HETATM    1  N1  UNL     1      17.066 -14.696  21.447  1.00  0.00     0.127 N 
HETATM    2  C10 UNL     1      16.255 -15.709  20.872  1.00  0.00     0.277 C 
HETATM    3  C11 UNL     1      14.814 -15.459  21.225  1.00  0.00     0.050 C 
HETATM    4  C12 UNL     1      14.386 -14.140  20.632  1.00  0.00     0.056 C 
HETATM    5  C17 UNL     1      15.221 -13.092  21.409  1.00  0.00     0.050 C 
HETATM    6  C18 UNL     1      16.319 -13.748  22.198  1.00  0.00     0.277 C 
ENDROOT
BRANCH   1   7
HETATM    7  C3  UNL     1      18.261 -15.183  22.083  1.00  0.00     0.459 C 
BRANCH   7   8
HETATM    8  C2  UNL     1      19.374 -15.241  21.076  1.00  0.00     0.318 C 
HETATM    9  O2  UNL     1      20.212 -16.176  21.071  1.00  0.00    -0.260 OA
BRANCH   8  10
HETATM   10  O1  UNL     1      19.511 -14.256  20.112  1.00  0.00    -0.323 OA
HETATM   11  C1  UNL     1      20.294 -13.087  20.292  1.00  0.00     0.213 C 
ENDBRANCH   8  10
ENDBRANCH   7   8
BRANCH   7  12
HETATM   12  O3  UNL     1      18.697 -14.415  23.136  1.00  0.00    -0.347 OA
BRANCH  12  13
HETATM   13  C4  UNL     1      18.833 -15.221  24.256  1.00  0.00     0.214 C 
BRANCH  13  14
HETATM   14  C5  UNL     1      20.239 -15.509  24.661  1.00  0.00     0.141 C 
HETATM   15 CL1  UNL     1      21.389 -14.450  23.818  1.00  0.00    -0.099 Cl
HETATM   16 CL2  UNL     1      20.682 -17.192  24.218  1.00  0.00    -0.099 Cl
BRANCH  14  17
HETATM   17  C6  UNL     1      20.435 -15.320  26.143  1.00  0.00    -0.014 C 
HETATM   18  C7  UNL     1      20.642 -13.870  26.502  1.00  0.00     0.018 C 
HETATM   19  C8  UNL     1      19.240 -15.826  26.933  1.00  0.00     0.018 C 
HETATM   20  C9  UNL     1      21.651 -16.073  26.634  1.00  0.00     0.018 C 
ENDBRANCH  14  17
ENDBRANCH  13  14
ENDBRANCH  12  13
ENDBRANCH   7  12
ENDBRANCH   1   7
BRANCH   4  21
HETATM   21  C13 UNL     1      14.756 -14.072  19.198  1.00  0.00     0.289 C 
BRANCH  21  22
HETATM   22  N2  UNL     1      15.439 -12.911  18.728  1.00  0.00     0.081 N 
HETATM   23  C14 UNL     1      14.597 -12.381  17.613  1.00  0.00     0.309 C 
HETATM   24  C15 UNL     1      16.714 -13.181  18.074  1.00  0.00     0.309 C 
ENDBRANCH  21  22
ENDBRANCH   4  21
BRANCH   4  25
HETATM   25  C16 UNL     1      12.967 -13.960  20.966  1.00  0.00     0.146 C 
HETATM   26  N3  UNL     1      12.641 -13.643  22.171  1.00  0.00    -0.250 N 
ATOM     27  H3  UNL     1      13.382 -13.524  22.862  1.00  0.00     0.196 HD
BRANCH  25  28
HETATM   28  O4  UNL     1      12.002 -14.131  20.001  1.00  0.00    -0.347 OA
ATOM     29  H4  UNL     1      11.363 -14.829  20.083  1.00  0.00     0.219 HD
ENDBRANCH  25  28
BRANCH  26  30
HETATM   30  O5  UNL     1      11.336 -13.456  22.567  1.00  0.00    -0.288 OA
ATOM     31  H5  UNL     1      11.052 -13.549  23.470  1.00  0.00     0.244 HD
ENDBRANCH  26  30
ENDBRANCH   4  25
TORSDOF 12
ENDMDL
MODEL 3
REMARK VINA RESULT: -6.571788009      1.351      1.804
REMARK  12 active torsions:
REMARK  status: ('A' for Active; 'I' for Inactive)
REMARK    1  A    between atoms: O1_2  and  C2_3 
REMARK    2  A    between atoms: C2_3  and  C3_5 
REMARK    3  A    between atoms: C3_5  and  O3_6 
REMARK    4  A    between atoms: C3_5  and  N1_15 
REMARK    5  A    between atoms: O3_6  and  C4_7 
REMARK    6  A    between atoms: C4_7  and  C5_8 
REMARK    7  A    between atoms: C5_8  and  C6_11 
REMARK    8  A    between atoms: C12_18  and  C13_19 
REMARK    9  A    between atoms: C12_18  and  C16_23 
REMARK   10  A    between atoms: C13_19  and  N2_20 
REMARK   11  A    between atoms: C16_23  and  O4_24 
REMARK   12  A    between atoms: N3_26  and  O5_28 
ROOT
HETATM    1  N1  UNL     1      16.047 -14.559  21.574  1.00  0.00     0.127 N 
HETATM    2  C10 UNL     1      14.685 -14.925  21.421  1.00  0.00     0.277 C 
HETATM    3  C11 UNL     1      13.811 -13.727  21.681  1.00  0.00     0.050 C 
HETATM    4  C12 UNL     1      14.116 -12.666  20.655  1.00  0.00     0.056 C 
HETATM    5  C17 UNL     1      15.568 -12.235  20.984  1.00  0.00     0.050 C 
HETATM    6  C18 UNL     1      16.217 -13.195  21.941  1.00  0.00     0.277 C 
ENDROOT
BRANCH   1   7
HETATM    7  C3  UNL     1      16.833 -15.501  22.325  1.00  0.00     0.459 C 
BRANCH   7   8
HETATM    8  C2  UNL     1      17.859 -16.127  21.423  1.00  0.00     0.318 C 
HETATM    9  O2  UNL     1      18.842 -15.477  20.990  1.00  0.00    -0.260 OA
BRANCH   8  10
HETATM   10  O1  UNL     1      17.749 -17.453  21.039  1.00  0.00    -0.323 OA
HETATM   11  C1  UNL     1      16.589 -18.239  21.258  1.00  0.00     0.213 C 
ENDBRANCH   8  10
ENDBRANCH   7   8
BRANCH   7  12
HETATM   12  O3  UNL     1      17.502 -14.957  23.395  1.00  0.00    -0.347 OA
BRANCH  12  13
HETATM   13  C4  UNL     1      17.968 -15.982  24.205  1.00  0.00     0.214 C 
BRANCH  13  14
HETATM   14  C5  UNL     1      19.367 -15.816  24.693  1.00  0.00     0.141 C 
HETATM   15 CL1  UNL     1      19.936 -14.147  24.484  1.00  0.00    -0.099 Cl
HETATM   16 CL2  UNL     1      20.484 -16.855  23.745  1.00  0.00    -0.099 Cl
BRANCH  14  17
HETATM   17  C6  UNL     1      19.485 -16.167  26.154  1.00  0.00    -0.014 C 
HETATM   18  C7  UNL     1      20.052 -15.027  26.961  1.00  0.00     0.018 C 
HETATM   19  C8  UNL     1      18.137 -16.531  26.752  1.00  0.00     0.018 C 
HETATM   20  C9  UNL     1      20.404 -17.351  26.360  1.00  0.00     0.018 C 
ENDBRANCH  14  17
ENDBRANCH  13  14
ENDBRANCH  12  13
ENDBRANCH   7  12
ENDBRANCH   1   7
BRANCH   4  21
HETATM   21  C13 UNL     1      14.091 -13.241  19.289  1.00  0.00     0.289 C 
BRANCH  21  22
HETATM   22  N2  UNL     1      15.231 -13.053  18.452  1.00  0.00     0.081 N 
HETATM   23  C14 UNL     1      14.722 -12.327  17.248  1.00  0.00     0.309 C 
HETATM   24  C15 UNL     1      15.777 -14.280  17.886  1.00  0.00     0.309 C 
ENDBRANCH  21  22
ENDBRANCH   4  21
BRANCH   4  25
HETATM   25  C16 UNL     1      13.214 -11.539  20.923  1.00  0.00     0.146 C 
HETATM   26  N3  UNL     1      12.873 -10.762  19.954  1.00  0.00    -0.250 N 
ATOM     27  H3  UNL     1      13.243 -10.954  19.023  1.00  0.00     0.196 HD
BRANCH  25  28
HETATM   28  O4  UNL     1      12.741 -11.319  22.197  1.00  0.00    -0.347 OA
ATOM     29  H4  UNL     1      12.322 -12.022  22.679  1.00  0.00     0.219 HD
ENDBRANCH  25  28
BRANCH  26  30
HETATM   30  O5  UNL     1      12.033  -9.685  20.120  1.00  0.00    -0.288 OA
ATOM     31  H5  UNL     1      12.335  -8.835  20.418  1.00  0.00     0.244 HD
ENDBRANCH  26  30
ENDBRANCH   4  25
TORSDOF 12
ENDMDL
MODEL 4
REMARK VINA RESULT: -6.533774657      2.245      3.032
REMARK  12 active torsions:
REMARK  status: ('A' for Active; 'I' for Inactive)
REMARK    1  A    between atoms: O1_2  and  C2_3 
REMARK    2  A    between atoms: C2_3  and  C3_5 
REMARK    3  A    between atoms: C3_5  and  O3_6 
REMARK    4  A    between atoms: C3_5  and  N1_15 
REMARK    5  A    between atoms: O3_6  and  C4_7 
REMARK    6  A    between atoms: C4_7  and  C5_8 
REMARK    7  A    between atoms: C5_8  and  C6_11 
REMARK    8  A    between atoms: C12_18  and  C13_19 
REMARK    9  A    between atoms: C12_18  and  C16_23 
REMARK   10  A    between atoms: C13_19  and  N2_20 
REMARK   11  A    between atoms: C16_23  and  O4_24 
REMARK   12  A    between atoms: N3_26  and  O5_28 
ROOT
HETATM    1  N1  UNL     1      18.610 -16.326  22.012  1.00  0.00     0.127 N 
HETATM    2  C10 UNL     1      17.506 -15.990  22.838  1.00  0.00     0.277 C 
HETATM    3  C11 UNL     1      17.219 -14.518  22.720  1.00  0.00     0.050 C 
HETATM    4  C12 UNL     1      16.836 -14.206  21.295  1.00  0.00     0.056 C 
HETATM    5  C17 UNL     1      18.133 -14.471  20.492  1.00  0.00     0.050 C 
HETATM    6  C18 UNL     1      19.148 -15.203  21.324  1.00  0.00     0.277 C 
ENDROOT
BRANCH   1   7
HETATM    7  C3  UNL     1      19.578 -17.187  22.637  1.00  0.00     0.459 C 
BRANCH   7   8
HETATM    8  C2  UNL     1      20.057 -18.205  21.642  1.00  0.00     0.318 C 
HETATM    9  O2  UNL     1      19.347 -19.183  21.304  1.00  0.00    -0.260 OA
BRANCH   8  10
HETATM   10  O1  UNL     1      21.309 -18.093  21.061  1.00  0.00    -0.323 OA
HETATM   11  C1  UNL     1      22.173 -19.197  20.842  1.00  0.00     0.213 C 
ENDBRANCH   8  10
ENDBRANCH   7   8
BRANCH   7  12
HETATM   12  O3  UNL     1      20.684 -16.536  23.127  1.00  0.00    -0.347 OA
BRANCH  12  13
HETATM   13  C4  UNL     1      20.916 -16.957  24.428  1.00  0.00     0.214 C 
BRANCH  13  14
HETATM   14  C5  UNL     1      21.480 -15.919  25.338  1.00  0.00     0.141 C 
HETATM   15 CL1  UNL     1      22.619 -14.856  24.486  1.00  0.00    -0.099 Cl
HETATM   16 CL2  UNL     1      22.407 -16.694  26.667  1.00  0.00    -0.099 Cl
BRANCH  14  17
HETATM   17  C6  UNL     1      20.395 -15.056  25.929  1.00  0.00    -0.014 C 
HETATM   18  C7  UNL     1      19.977 -13.955  24.987  1.00  0.00     0.018 C 
HETATM   19  C8  UNL     1      19.157 -15.870  26.267  1.00  0.00     0.018 C 
HETATM   20  C9  UNL     1      20.859 -14.392  27.205  1.00  0.00     0.018 C 
ENDBRANCH  14  17
ENDBRANCH  13  14
ENDBRANCH  12  13
ENDBRANCH   7  12
ENDBRANCH   1   7
BRANCH   4  21
HETATM   21  C13 UNL     1      15.787 -15.142  20.824  1.00  0.00     0.289 C 
BRANCH  21  22
HETATM   22  N2  UNL     1      15.924 -15.715  19.524  1.00  0.00     0.081 N 
HETATM   23  C14 UNL     1      14.901 -15.027  18.679  1.00  0.00     0.309 C 
HETATM   24  C15 UNL     1      15.531 -17.116  19.436  1.00  0.00     0.309 C 
ENDBRANCH  21  22
ENDBRANCH   4  21
BRANCH   4  25
HETATM   25  C16 UNL     1      16.526 -12.771  21.240  1.00  0.00     0.146 C 
HETATM   26  N3  UNL     1      15.295 -12.393  21.234  1.00  0.00    -0.250 N 
ATOM     27  H3  UNL     1      14.566 -13.106  21.269  1.00  0.00     0.196 HD
BRANCH  25  28
HETATM   28  O4  UNL     1      17.543 -11.845  21.193  1.00  0.00    -0.347 OA
ATOM     29  H4  UNL     1      17.547 -11.174  20.521  1.00  0.00     0.219 HD
ENDBRANCH  25  28
BRANCH  26  30
HETATM   30  O5  UNL     1      14.919 -11.070  21.183  1.00  0.00    -0.288 OA
ATOM     31  H5  UNL     1      14.324 -10.678  21.812  1.00  0.00     0.244 HD
ENDBRANCH  26  30
ENDBRANCH   4  25
TORSDOF 12
ENDMDL
MODEL 5
REMARK VINA RESULT: -6.480537245      1.779      2.460
REMARK  12 active torsions:
REMARK  status: ('A' for Active; 'I' for Inactive)
REMARK    1  A    between atoms: O1_2  and  C2_3 
REMARK    2  A    between atoms: C2_3  and  C3_5 
REMARK    3  A    between atoms: C3_5  and  O3_6 
REMARK    4  A    between atoms: C3_5  and  N1_15 
REMARK    5  A    between atoms: O3_6  and  C4_7 
REMARK    6  A    between atoms: C4_7  and  C5_8 
REMARK    7  A    between atoms: C5_8  and  C6_11 
REMARK    8  A    between atoms: C12_18  and  C13_19 
REMARK    9  A    between atoms: C12_18  and  C16_23 
REMARK   10  A    between atoms: C13_19  and  N2_20 
REMARK   11  A    between atoms: C16_23  and  O4_24 
REMARK   12  A    between atoms: N3_26  and  O5_28 
ROOT
HETATM    1  N1  UNL     1      16.561 -14.821  21.406  1.00  0.00     0.127 N 
HETATM    2  C10 UNL     1      15.856 -13.753  22.022  1.00  0.00     0.277 C 
HETATM    3  C11 UNL     1      15.441 -12.756  20.974  1.00  0.00     0.050 C 
HETATM    4  C12 UNL     1      14.501 -13.426  20.004  1.00  0.00     0.056 C 
HETATM    5  C17 UNL     1      15.387 -14.477  19.290  1.00  0.00     0.050 C 
HETATM    6  C18 UNL     1      16.699 -14.657  20.001  1.00  0.00     0.277 C 
ENDROOT
BRANCH   1   7
HETATM    7  C3  UNL     1      17.757 -15.219  22.100  1.00  0.00     0.459 C 
BRANCH   7   8
HETATM    8  C2  UNL     1      18.960 -14.772  21.319  1.00  0.00     0.318 C 
HETATM    9  O2  UNL     1      19.811 -15.590  20.892  1.00  0.00    -0.260 OA
BRANCH   8  10
HETATM   10  O1  UNL     1      19.167 -13.431  21.042  1.00  0.00    -0.323 OA
HETATM   11  C1  UNL     1      20.235 -12.952  20.241  1.00  0.00     0.213 C 
ENDBRANCH   8  10
ENDBRANCH   7   8
BRANCH   7  12
HETATM   12  O3  UNL     1      17.875 -14.704  23.369  1.00  0.00    -0.347 OA
BRANCH  12  13
HETATM   13  C4  UNL     1      18.204 -15.730  24.243  1.00  0.00     0.214 C 
BRANCH  13  14
HETATM   14  C5  UNL     1      19.596 -15.685  24.774  1.00  0.00     0.141 C 
HETATM   15 CL1  UNL     1      20.312 -14.071  24.588  1.00  0.00    -0.099 Cl
HETATM   16 CL2  UNL     1      20.648 -16.815  23.857  1.00  0.00    -0.099 Cl
BRANCH  14  17
HETATM   17  C6  UNL     1      19.639 -16.047  26.237  1.00  0.00    -0.014 C 
HETATM   18  C7  UNL     1      18.277 -16.417  26.764  1.00  0.00     0.018 C 
HETATM   19  C8  UNL     1      20.570 -17.219  26.494  1.00  0.00     0.018 C 
HETATM   20  C9  UNL     1      20.134 -14.887  27.072  1.00  0.00     0.018 C 
ENDBRANCH  14  17
ENDBRANCH  13  14
ENDBRANCH  12  13
ENDBRANCH   7  12
ENDBRANCH   1   7
BRANCH   4  21
HETATM   21  C13 UNL     1      13.422 -14.134  20.734  1.00  0.00     0.289 C 
BRANCH  21  22
HETATM   22  N2  UNL     1      13.186 -15.508  20.431  1.00  0.00     0.081 N 
HETATM   23  C14 UNL     1      11.910 -15.529  19.653  1.00  0.00     0.309 C 
HETATM   24  C15 UNL     1      12.876 -16.338  21.589  1.00  0.00     0.309 C 
ENDBRANCH  21  22
ENDBRANCH   4  21
BRANCH   4  25
HETATM   25  C16 UNL     1      14.093 -12.406  19.030  1.00  0.00     0.146 C 
HETATM   26  N3  UNL     1      14.648 -12.389  17.868  1.00  0.00    -0.250 N 
ATOM     27  H3  UNL     1      15.360 -13.090  17.657  1.00  0.00     0.196 HD
BRANCH  25  28
HETATM   28  O4  UNL     1      13.129 -11.481  19.359  1.00  0.00    -0.347 OA
ATOM     29  H4  UNL     1      12.225 -11.752  19.469  1.00  0.00     0.219 HD
ENDBRANCH  25  28
BRANCH  26  30
HETATM   30  O5  UNL     1      14.324 -11.469  16.897  1.00  0.00    -0.288 OA
ATOM     31  H5  UNL     1      13.490 -11.470  16.442  1.00  0.00     0.244 HD
ENDBRANCH  26  30
ENDBRANCH   4  25
TORSDOF 12
ENDMDL
