MODEL 1
REMARK VINA RESULT: -9.006716902      0.000      0.000
REMARK  5 active torsions:
REMARK  status: ('A' for Active; 'I' for Inactive)
REMARK    1  A    between atoms: C6_7  and  N1_8 
REMARK       I    between atoms: N1_8  and  C7_10 
REMARK       I    between atoms: C7_10  and  N2_12 
REMARK    2  A    between atoms: N3_15  and  C10_16 
REMARK    3  A    between atoms: C10_16  and  O2_17 
REMARK    4  A    between atoms: C10_16  and  N4_19 
REMARK    5  A    between atoms: C13_22  and  C14_23 
ROOT
HETATM    1  N1  UNL     1      23.091   0.397  21.566  1.00  0.00    -0.338 N 
ATOM      2  H1  UNL     1      22.899   1.354  21.859  1.00  0.00     0.164 HD
HETATM    3  C7  UNL     1      23.838   0.173  20.379  1.00  0.00     0.319 C 
HETATM    4  O1  UNL     1      24.060  -1.024  20.043  1.00  0.00    -0.247 OA
HETATM    5  N2  UNL     1      24.306   1.251  19.618  1.00  0.00    -0.326 N 
HETATM    6  C8  UNL     1      25.068   0.980  18.414  1.00  0.00     0.148 C 
HETATM    7  C9  UNL     1      26.005   2.147  18.117  1.00  0.00     0.147 C 
HETATM    8  N3  UNL     1      25.306   3.427  18.085  1.00  0.00    -0.339 N 
HETATM    9  C17 UNL     1      24.017   3.490  18.754  1.00  0.00     0.110 C 
HETATM   10  C18 UNL     1      23.487   4.790  19.186  1.00  0.00     0.027 C 
HETATM   11  C19 UNL     1      24.181   5.414  20.362  1.00  0.00     0.002 C 
HETATM   12  C20 UNL     1      24.310   4.445  21.526  1.00  0.00     0.002 C 
HETATM   13  C21 UNL     1      25.038   3.217  20.944  1.00  0.00     0.027 C 
HETATM   14  C22 UNL     1      24.061   2.596  19.985  1.00  0.00     0.112 C 
ENDROOT
BRANCH   8  15
HETATM   15  C10 UNL     1      25.874   4.503  17.433  1.00  0.00     0.217 C 
BRANCH  15  16
HETATM   16  O2  UNL     1      27.165   4.412  17.247  1.00  0.00    -0.332 OA
ATOM     17  H2  UNL     1      27.507   4.964  16.553  1.00  0.00     0.220 HD
ENDBRANCH  15  16
BRANCH  15  18
HETATM   18  N4  UNL     1      25.348   5.675  16.931  1.00  0.00    -0.344 N 
HETATM   19  C11 UNL     1      25.817   6.989  17.558  1.00  0.00     0.154 C 
HETATM   20  C12 UNL     1      24.640   7.883  17.713  1.00  0.00     0.005 C 
HETATM   21  C13 UNL     1      23.867   8.051  16.617  1.00  0.00     0.025 C 
HETATM   22  C15 UNL     1      24.330   7.302  15.417  1.00  0.00     0.063 C 
HETATM   23  C16 UNL     1      24.408   5.812  15.865  1.00  0.00     0.131 C 
BRANCH  21  24
HETATM   24  C14 UNL     1      22.661   8.909  16.613  1.00  0.00     0.413 C 
HETATM   25  F2  UNL     1      22.894  10.139  17.197  1.00  0.00    -0.166 F 
HETATM   26  F3  UNL     1      21.621   8.329  17.307  1.00  0.00    -0.166 F 
HETATM   27  F4  UNL     1      22.238   9.043  15.295  1.00  0.00    -0.166 F 
ENDBRANCH  21  24
ENDBRANCH  15  18
ENDBRANCH   8  15
BRANCH   1  28
HETATM   28  C6  UNL     1      22.590  -0.713  22.378  1.00  0.00     0.089 C 
HETATM   29  C5  UNL     1      21.309  -0.237  23.031  1.00  0.00     0.025 C 
HETATM   30  C4  UNL     1      21.653   0.476  24.336  1.00  0.00     0.005 C 
HETATM   31  C3  UNL     1      22.231  -0.488  25.336  1.00  0.00     0.043 C 
HETATM   32  C2  UNL     1      23.085  -1.545  24.687  1.00  0.00     0.102 C 
HETATM   33  C1  UNL     1      22.333  -2.827  24.427  1.00  0.00     0.051 C 
HETATM   34  F1  UNL     1      24.137  -1.841  25.531  1.00  0.00    -0.243 F 
HETATM   35  C23 UNL     1      23.676  -0.971  23.424  1.00  0.00     0.068 C 
ENDBRANCH   1  28
TORSDOF 5
ENDMDL
MODEL 2
REMARK VINA RESULT: -8.353576696      5.399      8.039
REMARK  5 active torsions:
REMARK  status: ('A' for Active; 'I' for Inactive)
REMARK    1  A    between atoms: C6_7  and  N1_8 
REMARK       I    between atoms: N1_8  and  C7_10 
REMARK       I    between atoms: C7_10  and  N2_12 
REMARK    2  A    between atoms: N3_15  and  C10_16 
REMARK    3  A    between atoms: C10_16  and  O2_17 
REMARK    4  A    between atoms: C10_16  and  N4_19 
REMARK    5  A    between atoms: C13_22  and  C14_23 
ROOT
HETATM    1  N1  UNL     1      20.567   6.319  24.096  1.00  0.00    -0.338 N 
ATOM      2  H1  UNL     1      20.997   6.613  23.219  1.00  0.00     0.164 HD
HETATM    3  C7  UNL     1      20.784   4.997  24.565  1.00  0.00     0.319 C 
HETATM    4  O1  UNL     1      20.238   4.663  25.653  1.00  0.00    -0.247 OA
HETATM    5  N2  UNL     1      21.580   4.104  23.835  1.00  0.00    -0.326 N 
HETATM    6  C8  UNL     1      21.779   2.763  24.350  1.00  0.00     0.148 C 
HETATM    7  C9  UNL     1      23.106   2.204  23.844  1.00  0.00     0.147 C 
HETATM    8  N3  UNL     1      23.229   2.292  22.393  1.00  0.00    -0.339 N 
HETATM    9  C17 UNL     1      22.371   3.250  21.716  1.00  0.00     0.110 C 
HETATM   10  C18 UNL     1      22.745   3.747  20.386  1.00  0.00     0.027 C 
HETATM   11  C19 UNL     1      23.909   4.696  20.353  1.00  0.00     0.002 C 
HETATM   12  C20 UNL     1      23.745   5.831  21.351  1.00  0.00     0.002 C 
HETATM   13  C21 UNL     1      23.537   5.138  22.712  1.00  0.00     0.027 C 
HETATM   14  C22 UNL     1      22.195   4.468  22.613  1.00  0.00     0.112 C 
ENDROOT
BRANCH   8  15
HETATM   15  C10 UNL     1      24.129   1.482  21.730  1.00  0.00     0.217 C 
BRANCH  15  16
HETATM   16  O2  UNL     1      25.094   1.011  22.474  1.00  0.00    -0.332 OA
ATOM     17  H2  UNL     1      24.843   0.294  23.045  1.00  0.00     0.220 HD
ENDBRANCH  15  16
BRANCH  15  18
HETATM   18  N4  UNL     1      24.218   1.063  20.419  1.00  0.00    -0.344 N 
HETATM   19  C11 UNL     1      23.213   0.012  19.941  1.00  0.00     0.154 C 
HETATM   20  C12 UNL     1      23.931  -0.975  19.093  1.00  0.00     0.005 C 
HETATM   21  C13 UNL     1      24.698  -0.468  18.102  1.00  0.00     0.025 C 
HETATM   22  C15 UNL     1      24.696   1.019  18.022  1.00  0.00     0.063 C 
HETATM   23  C16 UNL     1      25.147   1.509  19.430  1.00  0.00     0.131 C 
BRANCH  21  24
HETATM   24  C14 UNL     1      25.473  -1.321  17.175  1.00  0.00     0.413 C 
HETATM   25  F2  UNL     1      25.797  -2.541  17.736  1.00  0.00    -0.166 F 
HETATM   26  F3  UNL     1      26.660  -0.724  16.806  1.00  0.00    -0.166 F 
HETATM   27  F4  UNL     1      24.725  -1.477  16.013  1.00  0.00    -0.166 F 
ENDBRANCH  21  24
ENDBRANCH  15  18
ENDBRANCH   8  15
BRANCH   1  28
HETATM   28  C6  UNL     1      19.738   7.271  24.839  1.00  0.00     0.089 C 
HETATM   29  C5  UNL     1      19.665   8.533  24.007  1.00  0.00     0.025 C 
HETATM   30  C4  UNL     1      20.864   9.418  24.339  1.00  0.00     0.005 C 
HETATM   31  C3  UNL     1      20.784   9.915  25.757  1.00  0.00     0.043 C 
HETATM   32  C2  UNL     1      20.187   8.895  26.690  1.00  0.00     0.102 C 
HETATM   33  C1  UNL     1      18.709   9.102  26.917  1.00  0.00     0.051 C 
HETATM   34  F1  UNL     1      20.816   8.997  27.915  1.00  0.00    -0.243 F 
HETATM   35  C23 UNL     1      20.487   7.520  26.149  1.00  0.00     0.068 C 
ENDBRANCH   1  28
TORSDOF 5
ENDMDL
MODEL 3
REMARK VINA RESULT: -8.308023254      3.998      6.869
REMARK  5 active torsions:
REMARK  status: ('A' for Active; 'I' for Inactive)
REMARK    1  A    between atoms: C6_7  and  N1_8 
REMARK       I    between atoms: N1_8  and  C7_10 
REMARK       I    between atoms: C7_10  and  N2_12 
REMARK    2  A    between atoms: N3_15  and  C10_16 
REMARK    3  A    between atoms: C10_16  and  O2_17 
REMARK    4  A    between atoms: C10_16  and  N4_19 
REMARK    5  A    between atoms: C13_22  and  C14_23 
ROOT
HETATM    1  N1  UNL     1      26.455  -0.311  17.226  1.00  0.00    -0.338 N 
ATOM      2  H1  UNL     1      26.646   0.689  17.183  1.00  0.00     0.164 HD
HETATM    3  C7  UNL     1      25.503  -0.795  18.162  1.00  0.00     0.319 C 
HETATM    4  O1  UNL     1      25.289  -2.039  18.191  1.00  0.00    -0.247 OA
HETATM    5  N2  UNL     1      24.833   0.089  19.017  1.00  0.00    -0.326 N 
HETATM    6  C8  UNL     1      23.866  -0.445  19.957  1.00  0.00     0.148 C 
HETATM    7  C9  UNL     1      22.824   0.619  20.290  1.00  0.00     0.147 C 
HETATM    8  N3  UNL     1      23.428   1.872  20.729  1.00  0.00    -0.339 N 
HETATM    9  C17 UNL     1      24.817   2.095  20.366  1.00  0.00     0.110 C 
HETATM   10  C18 UNL     1      25.347   3.465  20.329  1.00  0.00     0.027 C 
HETATM   11  C19 UNL     1      24.863   4.316  19.191  1.00  0.00     0.002 C 
HETATM   12  C20 UNL     1      25.022   3.617  17.850  1.00  0.00     0.002 C 
HETATM   13  C21 UNL     1      24.266   2.283  18.005  1.00  0.00     0.027 C 
HETATM   14  C22 UNL     1      25.068   1.485  18.994  1.00  0.00     0.112 C 
ENDROOT
BRANCH   8  15
HETATM   15  C10 UNL     1      22.681   2.776  21.458  1.00  0.00     0.217 C 
BRANCH  15  16
HETATM   16  O2  UNL     1      21.784   2.240  22.243  1.00  0.00    -0.332 OA
ATOM     17  H2  UNL     1      21.894   1.308  22.395  1.00  0.00     0.220 HD
ENDBRANCH  15  16
BRANCH  15  18
HETATM   18  N4  UNL     1      22.690   4.153  21.527  1.00  0.00    -0.344 N 
HETATM   19  C11 UNL     1      23.333   4.798  22.757  1.00  0.00     0.154 C 
HETATM   20  C12 UNL     1      22.481   5.936  23.191  1.00  0.00     0.005 C 
HETATM   21  C13 UNL     1      22.132   6.824  22.234  1.00  0.00     0.025 C 
HETATM   22  C15 UNL     1      22.668   6.511  20.880  1.00  0.00     0.063 C 
HETATM   23  C16 UNL     1      22.171   5.069  20.562  1.00  0.00     0.131 C 
BRANCH  21  24
HETATM   24  C14 UNL     1      21.288   8.007  22.510  1.00  0.00     0.413 C 
HETATM   25  F2  UNL     1      21.814   8.801  23.510  1.00  0.00    -0.166 F 
HETATM   26  F3  UNL     1      20.021   7.645  22.913  1.00  0.00    -0.166 F 
HETATM   27  F4  UNL     1      21.144   8.714  21.321  1.00  0.00    -0.166 F 
ENDBRANCH  21  24
ENDBRANCH  15  18
ENDBRANCH   8  15
BRANCH   1  28
HETATM   28  C6  UNL     1      27.170  -1.215  16.322  1.00  0.00     0.089 C 
HETATM   29  C5  UNL     1      28.533  -0.603  16.076  1.00  0.00     0.025 C 
HETATM   30  C4  UNL     1      28.434   0.378  14.911  1.00  0.00     0.005 C 
HETATM   31  C3  UNL     1      28.126  -0.345  13.628  1.00  0.00     0.043 C 
HETATM   32  C2  UNL     1      27.209  -1.521  13.838  1.00  0.00     0.102 C 
HETATM   33  C1  UNL     1      27.953  -2.827  13.973  1.00  0.00     0.051 C 
HETATM   34  F1  UNL     1      26.372  -1.628  12.745  1.00  0.00    -0.243 F 
HETATM   35  C23 UNL     1      26.340  -1.241  15.037  1.00  0.00     0.068 C 
ENDBRANCH   1  28
TORSDOF 5
ENDMDL
MODEL 4
REMARK VINA RESULT: -8.081455455      5.555      7.840
REMARK  5 active torsions:
REMARK  status: ('A' for Active; 'I' for Inactive)
REMARK    1  A    between atoms: C6_7  and  N1_8 
REMARK       I    between atoms: N1_8  and  C7_10 
REMARK       I    between atoms: C7_10  and  N2_12 
REMARK    2  A    between atoms: N3_15  and  C10_16 
REMARK    3  A    between atoms: C10_16  and  O2_17 
REMARK    4  A    between atoms: C10_16  and  N4_19 
REMARK    5  A    between atoms: C13_22  and  C14_23 
ROOT
HETATM    1  N1  UNL     1      20.648   6.158  24.729  1.00  0.00    -0.338 N 
ATOM      2  H1  UNL     1      20.906   6.683  23.894  1.00  0.00     0.164 HD
HETATM    3  C7  UNL     1      21.082   4.813  24.862  1.00  0.00     0.319 C 
HETATM    4  O1  UNL     1      20.747   4.189  25.908  1.00  0.00    -0.247 OA
HETATM    5  N2  UNL     1      21.855   4.211  23.861  1.00  0.00    -0.326 N 
HETATM    6  C8  UNL     1      22.281   2.836  24.037  1.00  0.00     0.148 C 
HETATM    7  C9  UNL     1      23.571   2.588  23.261  1.00  0.00     0.147 C 
HETATM    8  N3  UNL     1      23.465   2.988  21.862  1.00  0.00    -0.339 N 
HETATM    9  C17 UNL     1      22.411   3.930  21.525  1.00  0.00     0.110 C 
HETATM   10  C18 UNL     1      22.522   4.737  20.303  1.00  0.00     0.027 C 
HETATM   11  C19 UNL     1      23.553   5.829  20.340  1.00  0.00     0.002 C 
HETATM   12  C20 UNL     1      23.413   6.701  21.578  1.00  0.00     0.002 C 
HETATM   13  C21 UNL     1      23.491   5.722  22.765  1.00  0.00     0.027 C 
HETATM   14  C22 UNL     1      22.235   4.901  22.685  1.00  0.00     0.112 C 
ENDROOT
BRANCH   8  15
HETATM   15  C10 UNL     1      24.341   2.467  20.931  1.00  0.00     0.217 C 
BRANCH  15  16
HETATM   16  O2  UNL     1      25.519   3.033  20.910  1.00  0.00    -0.332 OA
ATOM     17  H2  UNL     1      26.224   2.475  20.603  1.00  0.00     0.220 HD
ENDBRANCH  15  16
BRANCH  15  18
HETATM   18  N4  UNL     1      24.224   1.454  20.003  1.00  0.00    -0.344 N 
HETATM   19  C11 UNL     1      24.310   0.013  20.510  1.00  0.00     0.154 C 
HETATM   20  C12 UNL     1      25.131  -0.774  19.553  1.00  0.00     0.005 C 
HETATM   21  C13 UNL     1      24.788  -0.679  18.250  1.00  0.00     0.025 C 
HETATM   22  C15 UNL     1      23.626   0.213  17.983  1.00  0.00     0.063 C 
HETATM   23  C16 UNL     1      24.014   1.592  18.597  1.00  0.00     0.131 C 
BRANCH  21  24
HETATM   24  C14 UNL     1      25.508  -1.401  17.179  1.00  0.00     0.413 C 
HETATM   25  F2  UNL     1      26.634  -0.721  16.756  1.00  0.00    -0.166 F 
HETATM   26  F3  UNL     1      24.714  -1.588  16.068  1.00  0.00    -0.166 F 
HETATM   27  F4  UNL     1      25.829  -2.667  17.659  1.00  0.00    -0.166 F 
ENDBRANCH  21  24
ENDBRANCH  15  18
ENDBRANCH   8  15
BRANCH   1  28
HETATM   28  C6  UNL     1      19.838   6.809  25.760  1.00  0.00     0.089 C 
HETATM   29  C5  UNL     1      19.322   8.101  25.163  1.00  0.00     0.025 C 
HETATM   30  C4  UNL     1      20.360   9.198  25.380  1.00  0.00     0.005 C 
HETATM   31  C3  UNL     1      20.511   9.512  26.844  1.00  0.00     0.043 C 
HETATM   32  C2  UNL     1      20.362   8.289  27.711  1.00  0.00     0.102 C 
HETATM   33  C1  UNL     1      18.965   8.124  28.259  1.00  0.00     0.051 C 
HETATM   34  F1  UNL     1      21.222   8.403  28.785  1.00  0.00    -0.243 F 
HETATM   35  C23 UNL     1      20.801   7.085  26.916  1.00  0.00     0.068 C 
ENDBRANCH   1  28
TORSDOF 5
ENDMDL
MODEL 5
REMARK VINA RESULT: -8.060200590      3.559      4.776
REMARK  5 active torsions:
REMARK  status: ('A' for Active; 'I' for Inactive)
REMARK    1  A    between atoms: C6_7  and  N1_8 
REMARK       I    between atoms: N1_8  and  C7_10 
REMARK       I    between atoms: C7_10  and  N2_12 
REMARK    2  A    between atoms: N3_15  and  C10_16 
REMARK    3  A    between atoms: C10_16  and  O2_17 
REMARK    4  A    between atoms: C10_16  and  N4_19 
REMARK    5  A    between atoms: C13_22  and  C14_23 
ROOT
HETATM    1  N1  UNL     1      22.006   1.708  24.667  1.00  0.00    -0.338 N 
ATOM      2  H1  UNL     1      22.721   1.813  23.948  1.00  0.00     0.164 HD
HETATM    3  C7  UNL     1      21.187   2.820  24.997  1.00  0.00     0.319 C 
HETATM    4  O1  UNL     1      20.311   2.658  25.891  1.00  0.00    -0.247 OA
HETATM    5  N2  UNL     1      21.356   4.047  24.344  1.00  0.00    -0.326 N 
HETATM    6  C8  UNL     1      20.497   5.158  24.708  1.00  0.00     0.148 C 
HETATM    7  C9  UNL     1      20.360   6.117  23.529  1.00  0.00     0.147 C 
HETATM    8  N3  UNL     1      21.653   6.534  22.998  1.00  0.00    -0.339 N 
HETATM    9  C17 UNL     1      22.795   5.691  23.309  1.00  0.00     0.110 C 
HETATM   10  C18 UNL     1      23.990   5.745  22.457  1.00  0.00     0.027 C 
HETATM   11  C19 UNL     1      23.844   5.126  21.096  1.00  0.00     0.002 C 
HETATM   12  C20 UNL     1      23.269   3.720  21.170  1.00  0.00     0.002 C 
HETATM   13  C21 UNL     1      21.942   3.872  21.939  1.00  0.00     0.027 C 
HETATM   14  C22 UNL     1      22.337   4.240  23.341  1.00  0.00     0.112 C 
ENDROOT
BRANCH   8  15
HETATM   15  C10 UNL     1      21.745   7.686  22.243  1.00  0.00     0.217 C 
BRANCH  15  16
HETATM   16  O2  UNL     1      22.098   8.752  22.910  1.00  0.00    -0.332 OA
ATOM     17  H2  UNL     1      22.794   8.614  23.542  1.00  0.00     0.220 HD
ENDBRANCH  15  16
BRANCH  15  18
HETATM   18  N4  UNL     1      21.536   7.944  20.904  1.00  0.00    -0.344 N 
HETATM   19  C11 UNL     1      22.075   6.929  19.894  1.00  0.00     0.154 C 
HETATM   20  C12 UNL     1      22.676   7.673  18.755  1.00  0.00     0.005 C 
HETATM   21  C13 UNL     1      21.910   8.638  18.199  1.00  0.00     0.025 C 
HETATM   22  C15 UNL     1      20.570   8.798  18.827  1.00  0.00     0.063 C 
HETATM   23  C16 UNL     1      20.850   9.061  20.337  1.00  0.00     0.131 C 
BRANCH  21  24
HETATM   24  C14 UNL     1      22.368   9.464  17.060  1.00  0.00     0.413 C 
HETATM   25  F2  UNL     1      22.174   8.833  15.847  1.00  0.00    -0.166 F 
HETATM   26  F3  UNL     1      23.712   9.754  17.149  1.00  0.00    -0.166 F 
HETATM   27  F4  UNL     1      21.691  10.678  17.116  1.00  0.00    -0.166 F 
ENDBRANCH  21  24
ENDBRANCH  15  18
ENDBRANCH   8  15
BRANCH   1  28
HETATM   28  C6  UNL     1      21.850   0.414  25.335  1.00  0.00     0.089 C 
HETATM   29  C5  UNL     1      22.916   0.342  26.408  1.00  0.00     0.025 C 
HETATM   30  C4  UNL     1      24.202  -0.205  25.795  1.00  0.00     0.005 C 
HETATM   31  C3  UNL     1      24.023  -1.636  25.366  1.00  0.00     0.043 C 
HETATM   32  C2  UNL     1      22.639  -1.909  24.840  1.00  0.00     0.102 C 
HETATM   33  C1  UNL     1      21.717  -2.486  25.886  1.00  0.00     0.051 C 
HETATM   34  F1  UNL     1      22.731  -2.827  23.812  1.00  0.00    -0.243 F 
HETATM   35  C23 UNL     1      22.093  -0.634  24.249  1.00  0.00     0.068 C 
ENDBRANCH   1  28
TORSDOF 5
ENDMDL
