MODEL 1
REMARK VINA RESULT: -8.264307488      0.000      0.000
REMARK  5 active torsions:
REMARK  status: ('A' for Active; 'I' for Inactive)
REMARK    1  A    between atoms: N1_7  and  C6_8 
REMARK    2  A    between atoms: C6_8  and  O1_9 
REMARK    3  A    between atoms: C6_8  and  N2_11 
REMARK       I    between atoms: N3_17  and  C12_18 
REMARK       I    between atoms: C12_18  and  N4_20 
REMARK    4  A    between atoms: N4_20  and  C13_22 
REMARK    5  A    between atoms: C16_25  and  C17_26 
ROOT
HETATM    1  N2  UNL     1      25.224  -0.306  18.096  1.00  0.00    -0.347 N 
HETATM    2  C7  UNL     1      25.489  -0.626  19.471  1.00  0.00     0.127 C 
HETATM    3  C8  UNL     1      24.282  -0.483  20.331  1.00  0.00     0.029 C 
HETATM    4  C9  UNL     1      23.613   0.878  20.109  1.00  0.00    -0.035 C 
HETATM    5  C10 UNL     1      24.481   2.012  20.527  1.00  0.00     0.029 C 
HETATM    6  C11 UNL     1      24.250   2.213  22.037  1.00  0.00     0.128 C 
HETATM    7  N3  UNL     1      22.968   2.892  22.085  1.00  0.00    -0.334 N 
HETATM    8  C12 UNL     1      22.843   4.103  22.818  1.00  0.00     0.322 C 
HETATM    9  O2  UNL     1      23.842   4.540  23.393  1.00  0.00    -0.247 OA
HETATM   10  N4  UNL     1      21.591   4.729  22.842  1.00  0.00    -0.309 N 
ATOM     11  H4  UNL     1      20.830   4.281  22.333  1.00  0.00     0.170 HD
HETATM   12  C20 UNL     1      21.894   2.271  21.351  1.00  0.00     0.128 C 
HETATM   13  C21 UNL     1      22.300   0.902  20.880  1.00  0.00     0.029 C 
HETATM   14  C22 UNL     1      23.284   0.973  18.633  1.00  0.00     0.029 C 
HETATM   15  C23 UNL     1      24.614   1.066  17.883  1.00  0.00     0.127 C 
ENDROOT
BRANCH   1  16
HETATM   16  C6  UNL     1      25.362  -1.052  16.957  1.00  0.00     0.217 C 
BRANCH  16  17
HETATM   17  N1  UNL     1      26.544  -1.616  16.438  1.00  0.00    -0.340 N 
HETATM   18  C2  UNL     1      27.904  -1.130  16.754  1.00  0.00     0.086 C 
HETATM   19  C1  UNL     1      28.043   0.345  16.611  1.00  0.00     0.032 C 
HETATM   20  C3  UNL     1      28.787  -1.846  15.799  1.00  0.00     0.064 C 
HETATM   21  C4  UNL     1      27.910  -2.358  14.691  1.00  0.00     0.190 C 
HETATM   22  F1  UNL     1      27.560  -1.310  13.831  1.00  0.00    -0.248 F 
HETATM   23  C5  UNL     1      26.635  -2.674  15.471  1.00  0.00     0.164 C 
ENDBRANCH  16  17
BRANCH  16  24
HETATM   24  O1  UNL     1      24.290  -1.283  16.245  1.00  0.00    -0.332 OA
ATOM     25  H1  UNL     1      24.378  -1.986  15.612  1.00  0.00     0.220 HD
ENDBRANCH  16  24
ENDBRANCH   1  16
BRANCH  10  26
HETATM   26  C13 UNL     1      21.307   5.917  23.511  1.00  0.00     0.036 A 
HETATM   27  C14 UNL     1      21.385   7.192  23.022  1.00  0.00     0.030 A 
HETATM   28  C15 UNL     1      21.047   8.299  23.813  1.00  0.00     0.018 A 
HETATM   29  C16 UNL     1      20.626   8.163  25.109  1.00  0.00     0.048 A 
HETATM   30  C18 UNL     1      20.548   6.885  25.607  1.00  0.00     0.018 A 
HETATM   31  C19 UNL     1      20.874   5.794  24.843  1.00  0.00     0.030 A 
BRANCH  29  32
HETATM   32  C17 UNL     1      20.264   9.337  25.960  1.00  0.00     0.417 C 
HETATM   33  F2  UNL     1      18.896   9.563  25.891  1.00  0.00    -0.166 F 
HETATM   34  F3  UNL     1      20.951  10.429  25.438  1.00  0.00    -0.166 F 
HETATM   35  F4  UNL     1      20.610   9.130  27.268  1.00  0.00    -0.166 F 
ENDBRANCH  29  32
ENDBRANCH  10  26
TORSDOF 5
ENDMDL
MODEL 2
REMARK VINA RESULT: -8.058643260      1.923      2.570
REMARK  5 active torsions:
REMARK  status: ('A' for Active; 'I' for Inactive)
REMARK    1  A    between atoms: N1_7  and  C6_8 
REMARK    2  A    between atoms: C6_8  and  O1_9 
REMARK    3  A    between atoms: C6_8  and  N2_11 
REMARK       I    between atoms: N3_17  and  C12_18 
REMARK       I    between atoms: C12_18  and  N4_20 
REMARK    4  A    between atoms: N4_20  and  C13_22 
REMARK    5  A    between atoms: C16_25  and  C17_26 
ROOT
HETATM    1  N2  UNL     1      26.308   1.559  18.205  1.00  0.00    -0.347 N 
HETATM    2  C7  UNL     1      24.902   1.391  17.968  1.00  0.00     0.127 C 
HETATM    3  C8  UNL     1      24.176   2.691  17.904  1.00  0.00     0.029 C 
HETATM    4  C9  UNL     1      24.520   3.565  19.116  1.00  0.00    -0.035 C 
HETATM    5  C10 UNL     1      24.060   2.966  20.397  1.00  0.00     0.029 C 
HETATM    6  C11 UNL     1      22.591   3.392  20.584  1.00  0.00     0.128 C 
HETATM    7  N3  UNL     1      22.702   4.772  21.017  1.00  0.00    -0.334 N 
HETATM    8  C12 UNL     1      22.034   5.191  22.200  1.00  0.00     0.322 C 
HETATM    9  O2  UNL     1      21.378   4.355  22.824  1.00  0.00    -0.247 OA
HETATM   10  N4  UNL     1      22.163   6.530  22.586  1.00  0.00    -0.309 N 
ATOM     11  H4  UNL     1      22.730   7.139  21.996  1.00  0.00     0.170 HD
HETATM   12  C20 UNL     1      23.516   5.631  20.195  1.00  0.00     0.128 C 
HETATM   13  C21 UNL     1      23.889   4.937  18.915  1.00  0.00     0.029 C 
HETATM   14  C22 UNL     1      26.024   3.745  19.118  1.00  0.00     0.029 C 
HETATM   15  C23 UNL     1      26.637   2.380  19.438  1.00  0.00     0.127 C 
ENDROOT
BRANCH   1  16
HETATM   16  C6  UNL     1      27.397   1.167  17.474  1.00  0.00     0.217 C 
BRANCH  16  17
HETATM   17  N1  UNL     1      27.692  -0.126  17.002  1.00  0.00    -0.340 N 
HETATM   18  C2  UNL     1      28.626  -0.411  15.892  1.00  0.00     0.086 C 
HETATM   19  C1  UNL     1      28.376   0.430  14.690  1.00  0.00     0.032 C 
HETATM   20  C3  UNL     1      28.421  -1.850  15.592  1.00  0.00     0.064 C 
HETATM   21  C4  UNL     1      27.100  -2.239  16.193  1.00  0.00     0.190 C 
HETATM   22  F1  UNL     1      26.051  -1.758  15.402  1.00  0.00    -0.248 F 
HETATM   23  C5  UNL     1      27.093  -1.356  17.440  1.00  0.00     0.164 C 
ENDBRANCH  16  17
BRANCH  16  24
HETATM   24  O1  UNL     1      28.283   2.077  17.164  1.00  0.00    -0.332 OA
ATOM     25  H1  UNL     1      27.963   2.971  17.199  1.00  0.00     0.220 HD
ENDBRANCH  16  24
ENDBRANCH   1  16
BRANCH  10  26
HETATM   26  C13 UNL     1      21.575   7.094  23.716  1.00  0.00     0.036 A 
HETATM   27  C14 UNL     1      21.288   6.482  24.905  1.00  0.00     0.030 A 
HETATM   28  C15 UNL     1      20.707   7.186  25.968  1.00  0.00     0.018 A 
HETATM   29  C16 UNL     1      20.397   8.517  25.872  1.00  0.00     0.048 A 
HETATM   30  C18 UNL     1      20.682   9.138  24.680  1.00  0.00     0.018 A 
HETATM   31  C19 UNL     1      21.251   8.460  23.633  1.00  0.00     0.030 A 
BRANCH  29  32
HETATM   32  C17 UNL     1      19.778   9.278  27.000  1.00  0.00     0.417 C 
HETATM   33  F2  UNL     1      18.588   9.856  26.578  1.00  0.00    -0.166 F 
HETATM   34  F3  UNL     1      20.687  10.270  27.353  1.00  0.00    -0.166 F 
HETATM   35  F4  UNL     1      19.516   8.461  28.066  1.00  0.00    -0.166 F 
ENDBRANCH  29  32
ENDBRANCH  10  26
TORSDOF 5
ENDMDL
MODEL 3
REMARK VINA RESULT: -7.953403465      1.588      1.980
REMARK  5 active torsions:
REMARK  status: ('A' for Active; 'I' for Inactive)
REMARK    1  A    between atoms: N1_7  and  C6_8 
REMARK    2  A    between atoms: C6_8  and  O1_9 
REMARK    3  A    between atoms: C6_8  and  N2_11 
REMARK       I    between atoms: N3_17  and  C12_18 
REMARK       I    between atoms: C12_18  and  N4_20 
REMARK    4  A    between atoms: N4_20  and  C13_22 
REMARK    5  A    between atoms: C16_25  and  C17_26 
ROOT
HETATM    1  N2  UNL     1      26.453   1.333  18.511  1.00  0.00    -0.347 N 
HETATM    2  C7  UNL     1      25.512   0.492  19.198  1.00  0.00     0.127 C 
HETATM    3  C8  UNL     1      24.138   1.066  19.207  1.00  0.00     0.029 C 
HETATM    4  C9  UNL     1      24.160   2.523  19.683  1.00  0.00    -0.035 C 
HETATM    5  C10 UNL     1      24.606   2.651  21.097  1.00  0.00     0.029 C 
HETATM    6  C11 UNL     1      23.357   2.447  21.976  1.00  0.00     0.128 C 
HETATM    7  N3  UNL     1      22.659   3.712  21.853  1.00  0.00    -0.334 N 
HETATM    8  C12 UNL     1      22.265   4.412  23.026  1.00  0.00     0.322 C 
HETATM    9  O2  UNL     1      22.536   3.912  24.119  1.00  0.00    -0.247 OA
HETATM   10  N4  UNL     1      21.591   5.629  22.868  1.00  0.00    -0.309 N 
ATOM     11  H4  UNL     1      21.416   5.952  21.917  1.00  0.00     0.170 HD
HETATM   12  C20 UNL     1      22.424   4.180  20.510  1.00  0.00     0.128 C 
HETATM   13  C21 UNL     1      22.764   3.107  19.513  1.00  0.00     0.029 C 
HETATM   14  C22 UNL     1      25.092   3.276  18.758  1.00  0.00     0.029 C 
HETATM   15  C23 UNL     1      26.506   2.758  19.028  1.00  0.00     0.127 C 
ENDROOT
BRANCH   1  16
HETATM   16  C6  UNL     1      27.255   1.088  17.430  1.00  0.00     0.217 C 
BRANCH  16  17
HETATM   17  N1  UNL     1      27.637  -0.164  16.911  1.00  0.00    -0.340 N 
HETATM   18  C2  UNL     1      28.654  -0.349  15.854  1.00  0.00     0.086 C 
HETATM   19  C1  UNL     1      28.448   0.547  14.684  1.00  0.00     0.032 C 
HETATM   20  C3  UNL     1      28.532  -1.777  15.464  1.00  0.00     0.064 C 
HETATM   21  C4  UNL     1      27.192  -2.250  15.952  1.00  0.00     0.190 C 
HETATM   22  F1  UNL     1      26.177  -1.768  15.116  1.00  0.00    -0.248 F 
HETATM   23  C5  UNL     1      27.063  -1.440  17.240  1.00  0.00     0.164 C 
ENDBRANCH  16  17
BRANCH  16  24
HETATM   24  O1  UNL     1      27.739   2.116  16.784  1.00  0.00    -0.332 OA
ATOM     25  H1  UNL     1      27.240   2.374  16.017  1.00  0.00     0.220 HD
ENDBRANCH  16  24
ENDBRANCH   1  16
BRANCH  10  26
HETATM   26  C13 UNL     1      21.143   6.433  23.913  1.00  0.00     0.036 A 
HETATM   27  C14 UNL     1      20.609   6.034  25.108  1.00  0.00     0.030 A 
HETATM   28  C15 UNL     1      20.216   6.964  26.079  1.00  0.00     0.018 A 
HETATM   29  C16 UNL     1      20.343   8.314  25.884  1.00  0.00     0.048 A 
HETATM   30  C18 UNL     1      20.877   8.722  24.686  1.00  0.00     0.018 A 
HETATM   31  C19 UNL     1      21.266   7.822  23.728  1.00  0.00     0.030 A 
BRANCH  29  32
HETATM   32  C17 UNL     1      19.926   9.314  26.914  1.00  0.00     0.417 C 
HETATM   33  F2  UNL     1      18.665   9.808  26.605  1.00  0.00    -0.166 F 
HETATM   34  F3  UNL     1      20.861  10.342  26.867  1.00  0.00    -0.166 F 
HETATM   35  F4  UNL     1      19.885   8.755  28.163  1.00  0.00    -0.166 F 
ENDBRANCH  29  32
ENDBRANCH  10  26
TORSDOF 5
ENDMDL
MODEL 4
REMARK VINA RESULT: -7.880635597      1.178      1.713
REMARK  5 active torsions:
REMARK  status: ('A' for Active; 'I' for Inactive)
REMARK    1  A    between atoms: N1_7  and  C6_8 
REMARK    2  A    between atoms: C6_8  and  O1_9 
REMARK    3  A    between atoms: C6_8  and  N2_11 
REMARK       I    between atoms: N3_17  and  C12_18 
REMARK       I    between atoms: C12_18  and  N4_20 
REMARK    4  A    between atoms: N4_20  and  C13_22 
REMARK    5  A    between atoms: C16_25  and  C17_26 
ROOT
HETATM    1  N2  UNL     1      25.121  -0.647  18.542  1.00  0.00    -0.347 N 
HETATM    2  C7  UNL     1      25.204  -1.297  19.820  1.00  0.00     0.127 C 
HETATM    3  C8  UNL     1      23.916  -1.251  20.566  1.00  0.00     0.029 C 
HETATM    4  C9  UNL     1      23.364   0.179  20.611  1.00  0.00    -0.035 C 
HETATM    5  C10 UNL     1      24.247   1.104  21.372  1.00  0.00     0.029 C 
HETATM    6  C11 UNL     1      23.854   0.971  22.856  1.00  0.00     0.128 C 
HETATM    7  N3  UNL     1      22.621   1.730  22.939  1.00  0.00    -0.334 N 
HETATM    8  C12 UNL     1      22.488   2.746  23.924  1.00  0.00     0.322 C 
HETATM    9  O2  UNL     1      23.439   2.948  24.682  1.00  0.00    -0.247 OA
HETATM   10  N4  UNL     1      21.283   3.457  23.974  1.00  0.00    -0.309 N 
ATOM     11  H4  UNL     1      20.560   3.208  23.300  1.00  0.00     0.170 HD
HETATM   12  C20 UNL     1      21.602   1.393  21.976  1.00  0.00     0.128 C 
HETATM   13  C21 UNL     1      21.974   0.140  21.234  1.00  0.00     0.029 C 
HETATM   14  C22 UNL     1      23.215   0.640  19.177  1.00  0.00     0.029 C 
HETATM   15  C23 UNL     1      24.627   0.786  18.605  1.00  0.00     0.127 C 
ENDROOT
BRANCH   1  16
HETATM   16  C6  UNL     1      25.343  -1.119  17.277  1.00  0.00     0.217 C 
BRANCH  16  17
HETATM   17  N1  UNL     1      26.564  -1.551  16.725  1.00  0.00    -0.340 N 
HETATM   18  C2  UNL     1      27.871  -0.916  16.998  1.00  0.00     0.086 C 
HETATM   19  C1  UNL     1      27.841   0.565  16.848  1.00  0.00     0.032 C 
HETATM   20  C3  UNL     1      28.800  -1.536  16.020  1.00  0.00     0.064 C 
HETATM   21  C4  UNL     1      27.953  -2.148  14.940  1.00  0.00     0.190 C 
HETATM   22  F1  UNL     1      27.464  -1.150  14.088  1.00  0.00    -0.248 F 
HETATM   23  C5  UNL     1      26.744  -2.598  15.758  1.00  0.00     0.164 C 
ENDBRANCH  16  17
BRANCH  16  24
HETATM   24  O1  UNL     1      24.322  -1.185  16.463  1.00  0.00    -0.332 OA
ATOM     25  H1  UNL     1      24.552  -1.222  15.541  1.00  0.00     0.220 HD
ENDBRANCH  16  24
ENDBRANCH   1  16
BRANCH  10  26
HETATM   26  C13 UNL     1      20.998   4.480  24.877  1.00  0.00     0.036 A 
HETATM   27  C14 UNL     1      20.602   4.360  26.180  1.00  0.00     0.030 A 
HETATM   28  C15 UNL     1      20.368   5.488  26.979  1.00  0.00     0.018 A 
HETATM   29  C16 UNL     1      20.521   6.761  26.498  1.00  0.00     0.048 A 
HETATM   30  C18 UNL     1      20.917   6.888  25.188  1.00  0.00     0.018 A 
HETATM   31  C19 UNL     1      21.151   5.793  24.398  1.00  0.00     0.030 A 
BRANCH  29  32
HETATM   32  C17 UNL     1      20.273   7.970  27.341  1.00  0.00     0.417 C 
HETATM   33  F2  UNL     1      20.686   9.109  26.662  1.00  0.00    -0.166 F 
HETATM   34  F3  UNL     1      21.032   7.808  28.496  1.00  0.00    -0.166 F 
HETATM   35  F4  UNL     1      18.946   8.099  27.649  1.00  0.00    -0.166 F 
ENDBRANCH  29  32
ENDBRANCH  10  26
TORSDOF 5
ENDMDL
MODEL 5
REMARK VINA RESULT: -7.814294998      1.359      1.834
REMARK  5 active torsions:
REMARK  status: ('A' for Active; 'I' for Inactive)
REMARK    1  A    between atoms: N1_7  and  C6_8 
REMARK    2  A    between atoms: C6_8  and  O1_9 
REMARK    3  A    between atoms: C6_8  and  N2_11 
REMARK       I    between atoms: N3_17  and  C12_18 
REMARK       I    between atoms: C12_18  and  N4_20 
REMARK    4  A    between atoms: N4_20  and  C13_22 
REMARK    5  A    between atoms: C16_25  and  C17_26 
ROOT
HETATM    1  N2  UNL     1      26.511   0.555  18.272  1.00  0.00    -0.347 N 
HETATM    2  C7  UNL     1      25.630  -0.224  19.097  1.00  0.00     0.127 C 
HETATM    3  C8  UNL     1      24.244   0.319  19.119  1.00  0.00     0.029 C 
HETATM    4  C9  UNL     1      24.252   1.820  19.432  1.00  0.00    -0.035 C 
HETATM    5  C10 UNL     1      24.769   2.112  20.796  1.00  0.00     0.029 C 
HETATM    6  C11 UNL     1      23.574   1.981  21.760  1.00  0.00     0.128 C 
HETATM    7  N3  UNL     1      22.836   3.210  21.539  1.00  0.00    -0.334 N 
HETATM    8  C12 UNL     1      22.486   4.027  22.648  1.00  0.00     0.322 C 
HETATM    9  O2  UNL     1      22.828   3.657  23.773  1.00  0.00    -0.247 OA
HETATM   10  N4  UNL     1      21.774   5.205  22.396  1.00  0.00    -0.309 N 
ATOM     11  H4  UNL     1      21.540   5.417  21.427  1.00  0.00     0.170 HD
HETATM   12  C20 UNL     1      22.519   3.522  20.168  1.00  0.00     0.128 C 
HETATM   13  C21 UNL     1      22.834   2.353  19.276  1.00  0.00     0.029 C 
HETATM   14  C22 UNL     1      25.114   2.486  18.379  1.00  0.00     0.029 C 
HETATM   15  C23 UNL     1      26.553   2.029  18.626  1.00  0.00     0.127 C 
ENDROOT
BRANCH   1  16
HETATM   16  C6  UNL     1      27.261   0.209  17.180  1.00  0.00     0.217 C 
BRANCH  16  17
HETATM   17  N1  UNL     1      26.959  -0.760  16.204  1.00  0.00    -0.340 N 
HETATM   18  C2  UNL     1      26.325  -2.063  16.495  1.00  0.00     0.086 C 
HETATM   19  C1  UNL     1      26.974  -2.788  17.622  1.00  0.00     0.032 C 
HETATM   20  C3  UNL     1      26.442  -2.827  15.228  1.00  0.00     0.064 C 
HETATM   21  C4  UNL     1      27.506  -2.155  14.408  1.00  0.00     0.190 C 
HETATM   22  F1  UNL     1      28.774  -2.477  14.908  1.00  0.00    -0.248 F 
HETATM   23  C5  UNL     1      27.282  -0.697  14.806  1.00  0.00     0.164 C 
ENDBRANCH  16  17
BRANCH  16  24
HETATM   24  O1  UNL     1      28.396   0.831  16.998  1.00  0.00    -0.332 OA
ATOM     25  H1  UNL     1      29.072   0.617  17.631  1.00  0.00     0.220 HD
ENDBRANCH  16  24
ENDBRANCH   1  16
BRANCH  10  26
HETATM   26  C13 UNL     1      21.360   6.111  23.371  1.00  0.00     0.036 A 
HETATM   27  C14 UNL     1      20.746   5.836  24.562  1.00  0.00     0.030 A 
HETATM   28  C15 UNL     1      20.401   6.857  25.458  1.00  0.00     0.018 A 
HETATM   29  C16 UNL     1      20.659   8.176  25.189  1.00  0.00     0.048 A 
HETATM   30  C18 UNL     1      21.274   8.458  23.993  1.00  0.00     0.018 A 
HETATM   31  C19 UNL     1      21.617   7.468  23.109  1.00  0.00     0.030 A 
BRANCH  29  32
HETATM   32  C17 UNL     1      20.295   9.271  26.138  1.00  0.00     0.417 C 
HETATM   33  F2  UNL     1      18.931   9.521  26.065  1.00  0.00    -0.166 F 
HETATM   34  F3  UNL     1      21.004  10.397  25.732  1.00  0.00    -0.166 F 
HETATM   35  F4  UNL     1      20.612   8.939  27.427  1.00  0.00    -0.166 F 
ENDBRANCH  29  32
ENDBRANCH  10  26
TORSDOF 5
ENDMDL
