MODEL 1
REMARK VINA RESULT: -8.806172876      0.000      0.000
REMARK  9 active torsions:
REMARK  status: ('A' for Active; 'I' for Inactive)
REMARK    1  A    between atoms: C2_2  and  N1_3 
REMARK       I    between atoms: N1_3  and  C3_5 
REMARK       I    between atoms: C3_5  and  N2_6 
REMARK       I    between atoms: C3_5  and  N8_28 
REMARK    2  A    between atoms: N2_6  and  C4_8 
REMARK    3  A    between atoms: C4_8  and  C5_9 
REMARK    4  A    between atoms: C5_9  and  C6_10 
REMARK    5  A    between atoms: C6_10  and  N3_11 
REMARK    6  A    between atoms: N3_11  and  C7_13 
REMARK    7  A    between atoms: C10_22  and  S1_23 
REMARK       I    between atoms: N8_28  and  C13_30 
REMARK    8  A    between atoms: C13_30  and  C14_32 
REMARK    9  A    between atoms: C14_32  and  C15_33 
ROOT
HETATM    1  C5  UNL     1      10.953  22.483  15.565  1.00  0.00     0.040 C 
ENDROOT
BRANCH   1   2
HETATM    2  C4  UNL     1      11.496  23.869  15.909  1.00  0.00     0.139 C 
BRANCH   2   3
HETATM    3  N2  UNL     1      10.528  24.725  16.511  1.00  0.00    -0.226 N 
HETATM    4  C3  UNL     1      10.867  25.694  17.516  1.00  0.00     0.676 C 
HETATM    5  N1  UNL     1      11.351  26.810  17.097  1.00  0.00    -0.227 N 
HETATM    6  N8  UNL     1      10.677  25.430  18.899  1.00  0.00    -0.160 N 
ATOM      7  H1  UNL     1      11.481  26.983  16.101  1.00  0.00     0.177 HD
HETATM    8  C13 UNL     1      10.145  24.204  19.375  1.00  0.00     0.236 C 
ATOM      9  H8  UNL     1      10.934  26.149  19.575  1.00  0.00     0.187 HD
HETATM   10  O1  UNL     1       9.829  23.319  18.542  1.00  0.00    -0.273 OA
ATOM     11  H2  UNL     1       9.554  24.647  16.215  1.00  0.00     0.177 HD
BRANCH   5  12
HETATM   12  C2  UNL     1      11.704  27.806  18.071  1.00  0.00     0.133 C 
HETATM   13  C1  UNL     1      13.199  28.021  17.987  1.00  0.00     0.027 C 
ENDBRANCH   5  12
BRANCH   8  14
HETATM   14  C14 UNL     1       9.963  23.965  20.809  1.00  0.00     0.112 C 
BRANCH  14  15
HETATM   15  C15 UNL     1       8.842  24.835  21.380  1.00  0.00    -0.043 C 
HETATM   16  C16 UNL     1       7.951  25.336  20.256  1.00  0.00     0.015 C 
HETATM   17  C17 UNL     1       8.016  23.982  22.291  1.00  0.00     0.015 C 
HETATM   18  C18 UNL     1       9.423  25.989  22.166  1.00  0.00     0.015 C 
ENDBRANCH  14  15
ENDBRANCH   8  14
ENDBRANCH   2   3
ENDBRANCH   1   2
BRANCH   1  19
HETATM   19  C6  UNL     1      11.425  22.145  14.172  1.00  0.00     0.123 C 
BRANCH  19  20
HETATM   20  N3  UNL     1      10.985  20.856  13.729  1.00  0.00    -0.374 N 
ATOM     21  H3  UNL     1      11.439  20.002  14.055  1.00  0.00     0.161 HD
BRANCH  20  22
HETATM   22  C7  UNL     1       9.990  20.812  12.902  1.00  0.00     0.133 A 
HETATM   23  N4  UNL     1       9.293  21.898  12.541  1.00  0.00    -0.337 N 
HETATM   24  C8  UNL     1       8.261  21.814  11.669  1.00  0.00     0.183 A 
ATOM     25  H4  UNL     1       9.545  22.806  12.930  1.00  0.00     0.168 HD
HETATM   26  N5  UNL     1       7.954  20.602  11.174  1.00  0.00    -0.337 N 
HETATM   27  C9  UNL     1       8.609  19.471  11.492  1.00  0.00     0.139 A 
ATOM     28  H5  UNL     1       7.176  20.536  10.518  1.00  0.00     0.168 HD
HETATM   29  N6  UNL     1       8.516  18.179  11.158  1.00  0.00    -0.321 N 
HETATM   30  C12 UNL     1       9.667  19.563  12.387  1.00  0.00     0.123 A 
HETATM   31  C10 UNL     1       9.454  17.452  11.790  1.00  0.00     0.146 A 
ATOM     32  H6  UNL     1       7.826  17.797  10.510  1.00  0.00     0.169 HD
HETATM   33  N7  UNL     1      10.153  18.316  12.541  1.00  0.00    -0.331 N 
ATOM     34  H7  UNL     1      10.938  18.066  13.142  1.00  0.00     0.168 HD
BRANCH  31  35
HETATM   35  S1  UNL     1       9.699  15.668  11.635  1.00  0.00    -0.098 SA
HETATM   36  C11 UNL     1       8.318  14.952  10.666  1.00  0.00     0.099 C 
ENDBRANCH  31  35
ENDBRANCH  20  22
ENDBRANCH  19  20
ENDBRANCH   1  19
TORSDOF 9
ENDMDL
MODEL 2
REMARK VINA RESULT: -8.552472368      1.116      1.438
REMARK  9 active torsions:
REMARK  status: ('A' for Active; 'I' for Inactive)
REMARK    1  A    between atoms: C2_2  and  N1_3 
REMARK       I    between atoms: N1_3  and  C3_5 
REMARK       I    between atoms: C3_5  and  N2_6 
REMARK       I    between atoms: C3_5  and  N8_28 
REMARK    2  A    between atoms: N2_6  and  C4_8 
REMARK    3  A    between atoms: C4_8  and  C5_9 
REMARK    4  A    between atoms: C5_9  and  C6_10 
REMARK    5  A    between atoms: C6_10  and  N3_11 
REMARK    6  A    between atoms: N3_11  and  C7_13 
REMARK    7  A    between atoms: C10_22  and  S1_23 
REMARK       I    between atoms: N8_28  and  C13_30 
REMARK    8  A    between atoms: C13_30  and  C14_32 
REMARK    9  A    between atoms: C14_32  and  C15_33 
ROOT
HETATM    1  C5  UNL     1      10.615  22.656  13.768  1.00  0.00     0.040 C 
ENDROOT
BRANCH   1   2
HETATM    2  C4  UNL     1      10.842  22.815  15.270  1.00  0.00     0.139 C 
BRANCH   2   3
HETATM    3  N2  UNL     1      10.286  24.014  15.806  1.00  0.00    -0.226 N 
HETATM    4  C3  UNL     1      11.084  25.017  16.455  1.00  0.00     0.676 C 
HETATM    5  N1  UNL     1      11.704  25.844  15.687  1.00  0.00    -0.227 N 
HETATM    6  N8  UNL     1      11.183  25.089  17.870  1.00  0.00    -0.160 N 
ATOM      7  H1  UNL     1      11.622  25.777  14.673  1.00  0.00     0.177 HD
HETATM    8  C13 UNL     1      10.505  24.186  18.729  1.00  0.00     0.236 C 
ATOM      9  H8  UNL     1      11.762  25.818  18.285  1.00  0.00     0.187 HD
HETATM   10  O1  UNL     1       9.791  23.287  18.218  1.00  0.00    -0.273 OA
ATOM     11  H2  UNL     1       9.280  24.167  15.724  1.00  0.00     0.177 HD
BRANCH   5  12
HETATM   12  C2  UNL     1      12.513  26.862  16.298  1.00  0.00     0.133 C 
HETATM   13  C1  UNL     1      13.958  26.555  15.974  1.00  0.00     0.027 C 
ENDBRANCH   5  12
BRANCH   8  14
HETATM   14  C14 UNL     1      10.629  24.288  20.185  1.00  0.00     0.112 C 
BRANCH  14  15
HETATM   15  C15 UNL     1       9.384  24.925  20.805  1.00  0.00    -0.043 C 
HETATM   16  C16 UNL     1       8.705  23.934  21.735  1.00  0.00     0.015 C 
HETATM   17  C17 UNL     1       9.824  26.104  21.614  1.00  0.00     0.015 C 
HETATM   18  C18 UNL     1       8.437  25.387  19.721  1.00  0.00     0.015 C 
ENDBRANCH  14  15
ENDBRANCH   8  14
ENDBRANCH   2   3
ENDBRANCH   1   2
BRANCH   1  19
HETATM   19  C6  UNL     1      11.392  21.444  13.318  1.00  0.00     0.123 C 
BRANCH  19  20
HETATM   20  N3  UNL     1      10.633  20.232  13.394  1.00  0.00    -0.374 N 
ATOM     21  H3  UNL     1      10.855  19.512  14.083  1.00  0.00     0.161 HD
BRANCH  20  22
HETATM   22  C7  UNL     1       9.655  20.082  12.559  1.00  0.00     0.133 A 
HETATM   23  N4  UNL     1       8.843  21.085  12.198  1.00  0.00    -0.337 N 
HETATM   24  C8  UNL     1       7.832  20.891  11.318  1.00  0.00     0.183 A 
ATOM     25  H4  UNL     1       8.990  22.014  12.593  1.00  0.00     0.168 HD
HETATM   26  N5  UNL     1       7.667  19.655  10.816  1.00  0.00    -0.337 N 
HETATM   27  C9  UNL     1       8.442  18.603  11.133  1.00  0.00     0.139 A 
ATOM     28  H5  UNL     1       6.906  19.506  10.153  1.00  0.00     0.168 HD
HETATM   29  N6  UNL     1       8.496  17.310  10.793  1.00  0.00    -0.321 N 
HETATM   30  C12 UNL     1       9.477  18.807  12.036  1.00  0.00     0.123 A 
HETATM   31  C10 UNL     1       9.505  16.689  11.428  1.00  0.00     0.146 A 
ATOM     32  H6  UNL     1       7.858  16.857  10.138  1.00  0.00     0.169 HD
HETATM   33  N7  UNL     1      10.098  17.622  12.188  1.00  0.00    -0.331 N 
ATOM     34  H7  UNL     1      10.902  17.458  12.793  1.00  0.00     0.168 HD
BRANCH  31  35
HETATM   35  S1  UNL     1       9.949  14.945  11.267  1.00  0.00    -0.098 SA
HETATM   36  C11 UNL     1       8.642  14.076  10.321  1.00  0.00     0.099 C 
ENDBRANCH  31  35
ENDBRANCH  20  22
ENDBRANCH  19  20
ENDBRANCH   1  19
TORSDOF 9
ENDMDL
MODEL 3
REMARK VINA RESULT: -8.428745327      4.888      7.294
REMARK  9 active torsions:
REMARK  status: ('A' for Active; 'I' for Inactive)
REMARK    1  A    between atoms: C2_2  and  N1_3 
REMARK       I    between atoms: N1_3  and  C3_5 
REMARK       I    between atoms: C3_5  and  N2_6 
REMARK       I    between atoms: C3_5  and  N8_28 
REMARK    2  A    between atoms: N2_6  and  C4_8 
REMARK    3  A    between atoms: C4_8  and  C5_9 
REMARK    4  A    between atoms: C5_9  and  C6_10 
REMARK    5  A    between atoms: C6_10  and  N3_11 
REMARK    6  A    between atoms: N3_11  and  C7_13 
REMARK    7  A    between atoms: C10_22  and  S1_23 
REMARK       I    between atoms: N8_28  and  C13_30 
REMARK    8  A    between atoms: C13_30  and  C14_32 
REMARK    9  A    between atoms: C14_32  and  C15_33 
ROOT
HETATM    1  C5  UNL     1      11.278  21.847  12.671  1.00  0.00     0.040 C 
ENDROOT
BRANCH   1   2
HETATM    2  C4  UNL     1      12.075  22.875  13.472  1.00  0.00     0.139 C 
BRANCH   2   3
HETATM    3  N2  UNL     1      13.484  22.653  13.438  1.00  0.00    -0.226 N 
HETATM    4  C3  UNL     1      14.436  23.727  13.378  1.00  0.00     0.676 C 
HETATM    5  N1  UNL     1      14.721  24.305  14.493  1.00  0.00    -0.227 N 
HETATM    6  N8  UNL     1      15.031  24.127  12.152  1.00  0.00    -0.160 N 
ATOM      7  H1  UNL     1      14.285  24.005  15.364  1.00  0.00     0.177 HD
HETATM    8  C13 UNL     1      14.727  23.499  10.917  1.00  0.00     0.236 C 
ATOM      9  H8  UNL     1      15.701  24.896  12.160  1.00  0.00     0.187 HD
HETATM   10  O1  UNL     1      13.901  22.553  10.907  1.00  0.00    -0.273 OA
ATOM     11  H2  UNL     1      13.829  21.693  13.459  1.00  0.00     0.177 HD
BRANCH   5  12
HETATM   12  C2  UNL     1      15.669  25.384  14.476  1.00  0.00     0.133 C 
HETATM   13  C1  UNL     1      15.090  26.518  15.292  1.00  0.00     0.027 C 
ENDBRANCH   5  12
BRANCH   8  14
HETATM   14  C14 UNL     1      15.358  23.938   9.670  1.00  0.00     0.112 C 
BRANCH  14  15
HETATM   15  C15 UNL     1      16.103  22.788   8.989  1.00  0.00    -0.043 C 
HETATM   16  C16 UNL     1      15.117  21.892   8.260  1.00  0.00     0.015 C 
HETATM   17  C17 UNL     1      17.038  23.378   7.981  1.00  0.00     0.015 C 
HETATM   18  C18 UNL     1      16.897  22.003  10.008  1.00  0.00     0.015 C 
ENDBRANCH  14  15
ENDBRANCH   8  14
ENDBRANCH   2   3
ENDBRANCH   1   2
BRANCH   1  19
HETATM   19  C6  UNL     1      10.662  20.884  13.655  1.00  0.00     0.123 C 
BRANCH  19  20
HETATM   20  N3  UNL     1      10.429  19.586  13.097  1.00  0.00    -0.374 N 
ATOM     21  H3  UNL     1      11.009  18.787  13.356  1.00  0.00     0.161 HD
BRANCH  20  22
HETATM   22  C7  UNL     1       9.456  19.460  12.251  1.00  0.00     0.133 A 
HETATM   23  N4  UNL     1       8.630  20.467  11.936  1.00  0.00    -0.337 N 
HETATM   24  C8  UNL     1       7.626  20.300  11.043  1.00  0.00     0.183 A 
ATOM     25  H4  UNL     1       8.761  21.378  12.376  1.00  0.00     0.168 HD
HETATM   26  N5  UNL     1       7.481  19.088  10.481  1.00  0.00    -0.337 N 
HETATM   27  C9  UNL     1       8.272  18.034  10.750  1.00  0.00     0.139 A 
ATOM     28  H5  UNL     1       6.725  18.959   9.808  1.00  0.00     0.168 HD
HETATM   29  N6  UNL     1       8.347  16.760  10.348  1.00  0.00    -0.321 N 
HETATM   30  C12 UNL     1       9.300  18.210  11.667  1.00  0.00     0.123 A 
HETATM   31  C10 UNL     1       9.363  16.124  10.957  1.00  0.00     0.146 A 
ATOM     32  H6  UNL     1       7.719  16.329   9.670  1.00  0.00     0.169 HD
HETATM   33  N7  UNL     1       9.939  17.029  11.764  1.00  0.00    -0.331 N 
ATOM     34  H7  UNL     1      10.744  16.848  12.364  1.00  0.00     0.168 HD
BRANCH  31  35
HETATM   35  S1  UNL     1       9.836  14.397  10.713  1.00  0.00    -0.098 SA
HETATM   36  C11 UNL     1       8.330  13.398  10.412  1.00  0.00     0.099 C 
ENDBRANCH  31  35
ENDBRANCH  20  22
ENDBRANCH  19  20
ENDBRANCH   1  19
TORSDOF 9
ENDMDL
MODEL 4
REMARK VINA RESULT: -8.354631391      1.414      1.686
REMARK  9 active torsions:
REMARK  status: ('A' for Active; 'I' for Inactive)
REMARK    1  A    between atoms: C2_2  and  N1_3 
REMARK       I    between atoms: N1_3  and  C3_5 
REMARK       I    between atoms: C3_5  and  N2_6 
REMARK       I    between atoms: C3_5  and  N8_28 
REMARK    2  A    between atoms: N2_6  and  C4_8 
REMARK    3  A    between atoms: C4_8  and  C5_9 
REMARK    4  A    between atoms: C5_9  and  C6_10 
REMARK    5  A    between atoms: C6_10  and  N3_11 
REMARK    6  A    between atoms: N3_11  and  C7_13 
REMARK    7  A    between atoms: C10_22  and  S1_23 
REMARK       I    between atoms: N8_28  and  C13_30 
REMARK    8  A    between atoms: C13_30  and  C14_32 
REMARK    9  A    between atoms: C14_32  and  C15_33 
ROOT
HETATM    1  C5  UNL     1      11.109  22.488  14.522  1.00  0.00     0.040 C 
ENDROOT
BRANCH   1   2
HETATM    2  C4  UNL     1       9.888  23.362  14.236  1.00  0.00     0.139 C 
BRANCH   2   3
HETATM    3  N2  UNL     1       9.845  24.553  15.019  1.00  0.00    -0.226 N 
HETATM    4  C3  UNL     1      11.007  25.095  15.669  1.00  0.00     0.676 C 
HETATM    5  N1  UNL     1      11.796  25.801  14.938  1.00  0.00    -0.227 N 
HETATM    6  N8  UNL     1      11.266  24.861  17.046  1.00  0.00    -0.160 N 
ATOM      7  H1  UNL     1      11.594  25.959  13.951  1.00  0.00     0.177 HD
HETATM    8  C13 UNL     1      10.405  24.086  17.864  1.00  0.00     0.236 C 
ATOM      9  H8  UNL     1      12.104  25.267  17.463  1.00  0.00     0.187 HD
HETATM   10  O1  UNL     1       9.373  23.586  17.351  1.00  0.00    -0.273 OA
ATOM     11  H2  UNL     1       8.955  25.040  15.122  1.00  0.00     0.177 HD
BRANCH   5  12
HETATM   12  C2  UNL     1      12.969  26.362  15.551  1.00  0.00     0.133 C 
HETATM   13  C1  UNL     1      14.172  25.643  14.981  1.00  0.00     0.027 C 
ENDBRANCH   5  12
BRANCH   8  14
HETATM   14  C14 UNL     1      10.703  23.864  19.281  1.00  0.00     0.112 C 
BRANCH  14  15
HETATM   15  C15 UNL     1      10.066  24.943  20.158  1.00  0.00    -0.043 C 
HETATM   16  C16 UNL     1       8.695  25.310  19.615  1.00  0.00     0.015 C 
HETATM   17  C17 UNL     1       9.891  24.375  21.532  1.00  0.00     0.015 C 
HETATM   18  C18 UNL     1      10.964  26.158  20.230  1.00  0.00     0.015 C 
ENDBRANCH  14  15
ENDBRANCH   8  14
ENDBRANCH   2   3
ENDBRANCH   1   2
BRANCH   1  19
HETATM   19  C6  UNL     1      11.361  21.646  13.296  1.00  0.00     0.123 C 
BRANCH  19  20
HETATM   20  N3  UNL     1      10.694  20.379  13.340  1.00  0.00    -0.374 N 
ATOM     21  H3  UNL     1      11.001  19.643  13.976  1.00  0.00     0.161 HD
BRANCH  20  22
HETATM   22  C7  UNL     1       9.689  20.201  12.544  1.00  0.00     0.133 A 
HETATM   23  N4  UNL     1       8.865  21.192  12.176  1.00  0.00    -0.337 N 
HETATM   24  C8  UNL     1       7.825  20.968  11.337  1.00  0.00     0.183 A 
ATOM     25  H4  UNL     1       9.024  22.133  12.534  1.00  0.00     0.168 HD
HETATM   26  N5  UNL     1       7.644  19.715  10.884  1.00  0.00    -0.337 N 
HETATM   27  C9  UNL     1       8.430  18.675  11.210  1.00  0.00     0.139 A 
ATOM     28  H5  UNL     1       6.861  19.544  10.252  1.00  0.00     0.168 HD
HETATM   29  N6  UNL     1       8.473  17.371  10.913  1.00  0.00    -0.321 N 
HETATM   30  C12 UNL     1       9.494  18.909  12.071  1.00  0.00     0.123 A 
HETATM   31  C10 UNL     1       9.503  16.771  11.535  1.00  0.00     0.146 A 
ATOM     32  H6  UNL     1       7.814  16.896  10.296  1.00  0.00     0.169 HD
HETATM   33  N7  UNL     1      10.121  17.730  12.242  1.00  0.00    -0.331 N 
ATOM     34  H7  UNL     1      10.945  17.586  12.825  1.00  0.00     0.168 HD
BRANCH  31  35
HETATM   35  S1  UNL     1       9.943  15.022  11.418  1.00  0.00    -0.098 SA
HETATM   36  C11 UNL     1       8.755  14.176  10.309  1.00  0.00     0.099 C 
ENDBRANCH  31  35
ENDBRANCH  20  22
ENDBRANCH  19  20
ENDBRANCH   1  19
TORSDOF 9
ENDMDL
MODEL 5
REMARK VINA RESULT: -8.228858713      4.733      7.183
REMARK  9 active torsions:
REMARK  status: ('A' for Active; 'I' for Inactive)
REMARK    1  A    between atoms: C2_2  and  N1_3 
REMARK       I    between atoms: N1_3  and  C3_5 
REMARK       I    between atoms: C3_5  and  N2_6 
REMARK       I    between atoms: C3_5  and  N8_28 
REMARK    2  A    between atoms: N2_6  and  C4_8 
REMARK    3  A    between atoms: C4_8  and  C5_9 
REMARK    4  A    between atoms: C5_9  and  C6_10 
REMARK    5  A    between atoms: C6_10  and  N3_11 
REMARK    6  A    between atoms: N3_11  and  C7_13 
REMARK    7  A    between atoms: C10_22  and  S1_23 
REMARK       I    between atoms: N8_28  and  C13_30 
REMARK    8  A    between atoms: C13_30  and  C14_32 
REMARK    9  A    between atoms: C14_32  and  C15_33 
ROOT
HETATM    1  C5  UNL     1      11.567  22.516  13.238  1.00  0.00     0.040 C 
ENDROOT
BRANCH   1   2
HETATM    2  C4  UNL     1      12.572  23.224  14.145  1.00  0.00     0.139 C 
BRANCH   2   3
HETATM    3  N2  UNL     1      13.930  22.916  13.838  1.00  0.00    -0.226 N 
HETATM    4  C3  UNL     1      14.900  23.925  13.515  1.00  0.00     0.676 C 
HETATM    5  N1  UNL     1      15.438  24.543  14.508  1.00  0.00    -0.227 N 
HETATM    6  N8  UNL     1      15.246  24.223  12.170  1.00  0.00    -0.160 N 
ATOM      7  H1  UNL     1      15.178  24.317  15.468  1.00  0.00     0.177 HD
HETATM    8  C13 UNL     1      14.662  23.550  11.067  1.00  0.00     0.236 C 
ATOM      9  H8  UNL     1      15.939  24.949  11.991  1.00  0.00     0.187 HD
HETATM   10  O1  UNL     1      13.807  22.656  11.287  1.00  0.00    -0.273 OA
ATOM     11  H2  UNL     1      14.225  21.939  13.849  1.00  0.00     0.177 HD
BRANCH   5  12
HETATM   12  C2  UNL     1      16.413  25.560  14.228  1.00  0.00     0.133 C 
HETATM   13  C1  UNL     1      16.050  26.782  15.043  1.00  0.00     0.027 C 
ENDBRANCH   5  12
BRANCH   8  14
HETATM   14  C14 UNL     1      15.041  23.882   9.691  1.00  0.00     0.112 C 
BRANCH  14  15
HETATM   15  C15 UNL     1      15.917  22.790   9.076  1.00  0.00    -0.043 C 
HETATM   16  C16 UNL     1      16.665  22.048  10.171  1.00  0.00     0.015 C 
HETATM   17  C17 UNL     1      15.019  21.818   8.377  1.00  0.00     0.015 C 
HETATM   18  C18 UNL     1      16.879  23.391   8.076  1.00  0.00     0.015 C 
ENDBRANCH  14  15
ENDBRANCH   8  14
ENDBRANCH   2   3
ENDBRANCH   1   2
BRANCH   1  19
HETATM   19  C6  UNL     1      10.856  21.478  14.071  1.00  0.00     0.123 C 
BRANCH  19  20
HETATM   20  N3  UNL     1      10.699  20.227  13.393  1.00  0.00    -0.374 N 
ATOM     21  H3  UNL     1      11.354  19.459  13.543  1.00  0.00     0.161 HD
BRANCH  20  22
HETATM   22  C7  UNL     1       9.698  20.104  12.582  1.00  0.00     0.133 A 
HETATM   23  N4  UNL     1       8.907  21.130  12.240  1.00  0.00    -0.337 N 
HETATM   24  C8  UNL     1       7.870  20.964  11.384  1.00  0.00     0.183 A 
ATOM     25  H4  UNL     1       9.089  22.055  12.630  1.00  0.00     0.168 HD
HETATM   26  N5  UNL     1       7.657  19.734  10.887  1.00  0.00    -0.337 N 
HETATM   27  C9  UNL     1       8.409  18.660  11.187  1.00  0.00     0.139 A 
ATOM     28  H5  UNL     1       6.876  19.606  10.243  1.00  0.00     0.168 HD
HETATM   29  N6  UNL     1       8.418  17.366  10.847  1.00  0.00    -0.321 N 
HETATM   30  C12 UNL     1       9.471  18.835  12.065  1.00  0.00     0.123 A 
HETATM   31  C10 UNL     1       9.423  16.716  11.459  1.00  0.00     0.146 A 
ATOM     32  H6  UNL     1       7.751  16.931  10.208  1.00  0.00     0.169 HD
HETATM   33  N7  UNL     1      10.061  17.633  12.203  1.00  0.00    -0.331 N 
ATOM     34  H7  UNL     1      10.875  17.446  12.789  1.00  0.00     0.168 HD
BRANCH  31  35
HETATM   35  S1  UNL     1       9.813  14.960  11.288  1.00  0.00    -0.098 SA
HETATM   36  C11 UNL     1       8.505  14.146  10.296  1.00  0.00     0.099 C 
ENDBRANCH  31  35
ENDBRANCH  20  22
ENDBRANCH  19  20
ENDBRANCH   1  19
TORSDOF 9
ENDMDL
