MODEL 1
REMARK VINA RESULT: -6.588610991      0.000      0.000
REMARK  18 active torsions:
REMARK  status: ('A' for Active; 'I' for Inactive)
REMARK    1  A    between atoms: N1_2  and  C3_4 
REMARK    2  A    between atoms: C3_4  and  C4_5 
REMARK    3  A    between atoms: C4_5  and  C5_6 
REMARK    4  A    between atoms: C5_6  and  C6_7 
REMARK    5  A    between atoms: C6_7  and  C7_8 
REMARK    6  A    between atoms: C7_8  and  O1_9 
REMARK    7  A    between atoms: O1_9  and  C8_10 
REMARK    8  A    between atoms: C10_12  and  N2_13 
REMARK    9  A    between atoms: N2_13  and  C11_15 
REMARK   10  A    between atoms: C11_15  and  C12_16 
REMARK   11  A    between atoms: C12_16  and  C13_17 
REMARK   12  A    between atoms: C13_17  and  N3_18 
REMARK   13  A    between atoms: C15_25  and  N7_26 
REMARK   14  A    between atoms: N7_26  and  C16_28 
REMARK   15  A    between atoms: C16_28  and  C17_29 
REMARK   16  A    between atoms: C17_29  and  C18_30 
REMARK   17  A    between atoms: C18_30  and  C19_31 
REMARK   18  A    between atoms: C19_31  and  N8_32 
ROOT
HETATM    1  C8  UNL     1     -10.504  53.272  35.993  1.00  0.00     0.161 A 
HETATM    2  C9  UNL     1     -10.584  53.903  34.782  1.00  0.00     0.105 A 
HETATM    3  C10 UNL     1     -11.624  54.790  34.463  1.00  0.00     0.120 A 
HETATM    4  N6  UNL     1     -12.551  55.000  35.404  1.00  0.00    -0.177 N 
ATOM      5  H6  UNL     1     -13.318  55.640  35.200  1.00  0.00     0.185 HD
HETATM    6  C15 UNL     1     -12.513  54.397  36.621  1.00  0.00     0.681 A 
HETATM    7  N9  UNL     1     -11.506  53.564  36.878  1.00  0.00    -0.171 N 
ATOM      8  H9  UNL     1     -11.480  53.114  37.793  1.00  0.00     0.186 HD
ENDROOT
BRANCH   3   9
HETATM    9  N2  UNL     1     -11.712  55.392  33.331  1.00  0.00    -0.376 N 
ATOM     10  H2  UNL     1     -12.579  55.354  32.796  1.00  0.00     0.161 HD
BRANCH   9  11
HETATM   11  C11 UNL     1     -10.574  56.124  32.822  1.00  0.00     0.123 C 
BRANCH  11  12
HETATM   12  C12 UNL     1     -10.959  57.531  32.407  1.00  0.00     0.039 C 
BRANCH  12  13
HETATM   13  C13 UNL     1      -9.682  58.330  32.180  1.00  0.00     0.123 C 
BRANCH  13  14
HETATM   14  N3  UNL     1      -9.825  59.721  32.482  1.00  0.00    -0.367 N 
HETATM   15  C14 UNL     1      -9.659  60.582  31.534  1.00  0.00     0.196 C 
HETATM   16  N4  UNL     1      -9.342  60.257  30.204  1.00  0.00    -0.067 NA
HETATM   17  N5  UNL     1      -9.819  61.949  31.923  1.00  0.00    -0.067 NA
ATOM     18  H3  UNL     1     -10.054  60.026  33.428  1.00  0.00     0.161 HD
ENDBRANCH  13  14
ENDBRANCH  12  13
ENDBRANCH  11  12
ENDBRANCH   9  11
ENDBRANCH   3   9
BRANCH   1  19
HETATM   19  O1  UNL     1      -9.524  52.410  36.335  1.00  0.00    -0.335 OA
BRANCH  19  20
HETATM   20  C7  UNL     1      -8.295  52.086  35.819  1.00  0.00     0.177 C 
BRANCH  20  21
HETATM   21  C6  UNL     1      -7.193  52.553  36.704  1.00  0.00     0.027 C 
BRANCH  21  22
HETATM   22  C5  UNL     1      -5.901  51.776  36.569  1.00  0.00     0.004 C 
BRANCH  22  23
HETATM   23  C4  UNL     1      -4.761  52.761  36.506  1.00  0.00     0.030 C 
BRANCH  23  24
HETATM   24  C3  UNL     1      -4.597  53.379  37.883  1.00  0.00     0.271 C 
BRANCH  24  25
HETATM   25  N1  UNL     1      -4.499  54.835  37.783  1.00  0.00     0.080 N 
HETATM   26  C1  UNL     1      -5.564  55.440  38.565  1.00  0.00     0.309 C 
HETATM   27  C2  UNL     1      -4.567  55.262  36.394  1.00  0.00     0.309 C 
ENDBRANCH  24  25
ENDBRANCH  23  24
ENDBRANCH  22  23
ENDBRANCH  21  22
ENDBRANCH  20  21
ENDBRANCH  19  20
ENDBRANCH   1  19
BRANCH   6  28
HETATM   28  N7  UNL     1     -13.439  54.643  37.488  1.00  0.00    -0.226 N 
ATOM     29  H7  UNL     1     -13.695  55.623  37.613  1.00  0.00     0.177 HD
BRANCH  28  30
HETATM   30  C16 UNL     1     -14.140  53.700  38.284  1.00  0.00     0.138 C 
BRANCH  30  31
HETATM   31  C17 UNL     1     -13.540  53.434  39.619  1.00  0.00     0.022 C 
BRANCH  31  32
HETATM   32  C18 UNL     1     -13.204  54.728  40.304  1.00  0.00     0.029 C 
BRANCH  32  33
HETATM   33  C19 UNL     1     -11.818  54.788  40.850  1.00  0.00     0.229 C 
BRANCH  33  34
HETATM   34  N8  UNL     1     -10.848  55.175  39.833  1.00  0.00    -0.079 N 
ATOM     35  H83 UNL     1      -9.965  55.463  40.253  1.00  0.00     0.274 HD
ATOM     36  H82 UNL     1     -10.519  54.365  39.307  1.00  0.00     0.274 HD
ATOM     37  H81 UNL     1     -11.215  55.895  39.211  1.00  0.00     0.274 HD
ENDBRANCH  33  34
ENDBRANCH  32  33
ENDBRANCH  31  32
ENDBRANCH  30  31
ENDBRANCH  28  30
ENDBRANCH   6  28
TORSDOF 18
ENDMDL
MODEL 2
REMARK VINA RESULT: -6.541315036      4.055      8.369
REMARK  18 active torsions:
REMARK  status: ('A' for Active; 'I' for Inactive)
REMARK    1  A    between atoms: N1_2  and  C3_4 
REMARK    2  A    between atoms: C3_4  and  C4_5 
REMARK    3  A    between atoms: C4_5  and  C5_6 
REMARK    4  A    between atoms: C5_6  and  C6_7 
REMARK    5  A    between atoms: C6_7  and  C7_8 
REMARK    6  A    between atoms: C7_8  and  O1_9 
REMARK    7  A    between atoms: O1_9  and  C8_10 
REMARK    8  A    between atoms: C10_12  and  N2_13 
REMARK    9  A    between atoms: N2_13  and  C11_15 
REMARK   10  A    between atoms: C11_15  and  C12_16 
REMARK   11  A    between atoms: C12_16  and  C13_17 
REMARK   12  A    between atoms: C13_17  and  N3_18 
REMARK   13  A    between atoms: C15_25  and  N7_26 
REMARK   14  A    between atoms: N7_26  and  C16_28 
REMARK   15  A    between atoms: C16_28  and  C17_29 
REMARK   16  A    between atoms: C17_29  and  C18_30 
REMARK   17  A    between atoms: C18_30  and  C19_31 
REMARK   18  A    between atoms: C19_31  and  N8_32 
ROOT
HETATM    1  C8  UNL     1      -7.627  55.732  39.287  1.00  0.00     0.161 A 
HETATM    2  C9  UNL     1      -6.819  54.843  38.633  1.00  0.00     0.105 A 
HETATM    3  C10 UNL     1      -5.507  55.163  38.248  1.00  0.00     0.120 A 
HETATM    4  N6  UNL     1      -5.069  56.389  38.551  1.00  0.00    -0.177 N 
ATOM      5  H6  UNL     1      -4.120  56.649  38.283  1.00  0.00     0.185 HD
HETATM    6  C15 UNL     1      -5.835  57.304  39.200  1.00  0.00     0.681 A 
HETATM    7  N9  UNL     1      -7.074  56.955  39.545  1.00  0.00    -0.171 N 
ATOM      8  H9  UNL     1      -7.645  57.644  40.033  1.00  0.00     0.186 HD
ENDROOT
BRANCH   3   9
HETATM    9  N2  UNL     1      -4.734  54.339  37.635  1.00  0.00    -0.376 N 
ATOM     10  H2  UNL     1      -4.501  54.487  36.654  1.00  0.00     0.161 HD
BRANCH   9  11
HETATM   11  C11 UNL     1      -4.196  53.202  38.347  1.00  0.00     0.123 C 
BRANCH  11  12
HETATM   12  C12 UNL     1      -4.859  51.909  37.910  1.00  0.00     0.039 C 
BRANCH  12  13
HETATM   13  C13 UNL     1      -5.330  52.074  36.472  1.00  0.00     0.123 C 
BRANCH  13  14
HETATM   14  N3  UNL     1      -6.722  51.792  36.298  1.00  0.00    -0.367 N 
HETATM   15  C14 UNL     1      -7.381  52.454  35.406  1.00  0.00     0.196 C 
HETATM   16  N4  UNL     1      -6.833  53.446  34.576  1.00  0.00    -0.067 NA
HETATM   17  N5  UNL     1      -8.766  52.110  35.298  1.00  0.00    -0.067 NA
ATOM     18  H3  UNL     1      -7.183  51.083  36.867  1.00  0.00     0.161 HD
ENDBRANCH  13  14
ENDBRANCH  12  13
ENDBRANCH  11  12
ENDBRANCH   9  11
ENDBRANCH   3   9
BRANCH   1  19
HETATM   19  O1  UNL     1      -8.894  55.463  39.668  1.00  0.00    -0.335 OA
BRANCH  19  20
HETATM   20  C7  UNL     1     -10.098  55.353  39.021  1.00  0.00     0.177 C 
BRANCH  20  21
HETATM   21  C6  UNL     1     -11.127  54.719  39.889  1.00  0.00     0.027 C 
BRANCH  21  22
HETATM   22  C5  UNL     1     -12.373  55.550  40.106  1.00  0.00     0.004 C 
BRANCH  22  23
HETATM   23  C4  UNL     1     -13.573  54.700  39.776  1.00  0.00     0.030 C 
BRANCH  23  24
HETATM   24  C3  UNL     1     -14.078  55.111  38.405  1.00  0.00     0.271 C 
BRANCH  24  25
HETATM   25  N1  UNL     1     -13.862  54.037  37.436  1.00  0.00     0.080 N 
HETATM   26  C1  UNL     1     -13.706  52.779  38.144  1.00  0.00     0.309 C 
HETATM   27  C2  UNL     1     -12.699  54.317  36.608  1.00  0.00     0.309 C 
ENDBRANCH  24  25
ENDBRANCH  23  24
ENDBRANCH  22  23
ENDBRANCH  21  22
ENDBRANCH  20  21
ENDBRANCH  19  20
ENDBRANCH   1  19
BRANCH   6  28
HETATM   28  N7  UNL     1      -5.352  58.474  39.464  1.00  0.00    -0.226 N 
ATOM     29  H7  UNL     1      -4.973  58.607  40.401  1.00  0.00     0.177 HD
BRANCH  28  30
HETATM   30  C16 UNL     1      -5.293  59.593  38.592  1.00  0.00     0.138 C 
BRANCH  30  31
HETATM   31  C17 UNL     1      -6.543  60.394  38.510  1.00  0.00     0.022 C 
BRANCH  31  32
HETATM   32  C18 UNL     1      -7.093  60.641  39.886  1.00  0.00     0.029 C 
BRANCH  32  33
HETATM   33  C19 UNL     1      -7.261  62.082  40.229  1.00  0.00     0.229 C 
BRANCH  33  34
HETATM   34  N8  UNL     1      -6.050  62.648  40.809  1.00  0.00    -0.079 N 
ATOM     35  H83 UNL     1      -6.022  62.509  41.818  1.00  0.00     0.274 HD
ATOM     36  H82 UNL     1      -5.225  62.106  40.549  1.00  0.00     0.274 HD
ATOM     37  H81 UNL     1      -5.936  63.633  40.567  1.00  0.00     0.274 HD
ENDBRANCH  33  34
ENDBRANCH  32  33
ENDBRANCH  31  32
ENDBRANCH  30  31
ENDBRANCH  28  30
ENDBRANCH   6  28
TORSDOF 18
ENDMDL
MODEL 3
REMARK VINA RESULT: -6.368859767      4.592      8.732
REMARK  18 active torsions:
REMARK  status: ('A' for Active; 'I' for Inactive)
REMARK    1  A    between atoms: N1_2  and  C3_4 
REMARK    2  A    between atoms: C3_4  and  C4_5 
REMARK    3  A    between atoms: C4_5  and  C5_6 
REMARK    4  A    between atoms: C5_6  and  C6_7 
REMARK    5  A    between atoms: C6_7  and  C7_8 
REMARK    6  A    between atoms: C7_8  and  O1_9 
REMARK    7  A    between atoms: O1_9  and  C8_10 
REMARK    8  A    between atoms: C10_12  and  N2_13 
REMARK    9  A    between atoms: N2_13  and  C11_15 
REMARK   10  A    between atoms: C11_15  and  C12_16 
REMARK   11  A    between atoms: C12_16  and  C13_17 
REMARK   12  A    between atoms: C13_17  and  N3_18 
REMARK   13  A    between atoms: C15_25  and  N7_26 
REMARK   14  A    between atoms: N7_26  and  C16_28 
REMARK   15  A    between atoms: C16_28  and  C17_29 
REMARK   16  A    between atoms: C17_29  and  C18_30 
REMARK   17  A    between atoms: C18_30  and  C19_31 
REMARK   18  A    between atoms: C19_31  and  N8_32 
ROOT
HETATM    1  C8  UNL     1      -7.525  55.845  39.250  1.00  0.00     0.161 A 
HETATM    2  C9  UNL     1      -6.510  55.016  38.859  1.00  0.00     0.105 A 
HETATM    3  C10 UNL     1      -5.189  55.465  38.705  1.00  0.00     0.120 A 
HETATM    4  N6  UNL     1      -4.956  56.757  38.960  1.00  0.00    -0.177 N 
ATOM      5  H6  UNL     1      -4.004  57.111  38.856  1.00  0.00     0.185 HD
HETATM    6  C15 UNL     1      -5.931  57.617  39.351  1.00  0.00     0.681 A 
HETATM    7  N9  UNL     1      -7.169  57.144  39.484  1.00  0.00    -0.171 N 
ATOM      8  H9  UNL     1      -7.899  57.793  39.779  1.00  0.00     0.186 HD
ENDROOT
BRANCH   3   9
HETATM    9  N2  UNL     1      -4.223  54.699  38.342  1.00  0.00    -0.376 N 
ATOM     10  H2  UNL     1      -4.242  54.248  37.427  1.00  0.00     0.161 HD
BRANCH   9  11
HETATM   11  C11 UNL     1      -3.110  54.479  39.238  1.00  0.00     0.123 C 
BRANCH  11  12
HETATM   12  C12 UNL     1      -1.798  54.396  38.483  1.00  0.00     0.039 C 
BRANCH  12  13
HETATM   13  C13 UNL     1      -2.000  55.001  37.100  1.00  0.00     0.123 C 
BRANCH  13  14
HETATM   14  N3  UNL     1      -1.104  56.079  36.818  1.00  0.00    -0.367 N 
HETATM   15  C14 UNL     1      -1.214  56.698  35.690  1.00  0.00     0.196 C 
HETATM   16  N4  UNL     1      -2.161  56.393  34.698  1.00  0.00    -0.067 NA
HETATM   17  N5  UNL     1      -0.279  57.762  35.489  1.00  0.00    -0.067 NA
ATOM     18  H3  UNL     1      -0.392  56.354  37.495  1.00  0.00     0.161 HD
ENDBRANCH  13  14
ENDBRANCH  12  13
ENDBRANCH  11  12
ENDBRANCH   9  11
ENDBRANCH   3   9
BRANCH   1  19
HETATM   19  O1  UNL     1      -8.807  55.451  39.405  1.00  0.00    -0.335 OA
BRANCH  19  20
HETATM   20  C7  UNL     1      -9.815  55.078  38.553  1.00  0.00     0.177 C 
BRANCH  20  21
HETATM   21  C6  UNL     1     -11.151  55.439  39.100  1.00  0.00     0.027 C 
BRANCH  21  22
HETATM   22  C5  UNL     1     -11.499  54.772  40.413  1.00  0.00     0.004 C 
BRANCH  22  23
HETATM   23  C4  UNL     1     -12.897  54.218  40.306  1.00  0.00     0.030 C 
BRANCH  23  24
HETATM   24  C3  UNL     1     -13.629  54.994  39.225  1.00  0.00     0.271 C 
BRANCH  24  25
HETATM   25  N1  UNL     1     -14.266  54.078  38.280  1.00  0.00     0.080 N 
HETATM   26  C1  UNL     1     -14.197  52.726  38.804  1.00  0.00     0.309 C 
HETATM   27  C2  UNL     1     -13.632  54.164  36.973  1.00  0.00     0.309 C 
ENDBRANCH  24  25
ENDBRANCH  23  24
ENDBRANCH  22  23
ENDBRANCH  21  22
ENDBRANCH  20  21
ENDBRANCH  19  20
ENDBRANCH   1  19
BRANCH   6  28
HETATM   28  N7  UNL     1      -5.640  58.855  39.582  1.00  0.00    -0.226 N 
ATOM     29  H7  UNL     1      -5.464  59.106  40.554  1.00  0.00     0.177 HD
BRANCH  28  30
HETATM   30  C16 UNL     1      -5.539  59.904  38.630  1.00  0.00     0.138 C 
BRANCH  30  31
HETATM   31  C17 UNL     1      -6.738  60.777  38.525  1.00  0.00     0.022 C 
BRANCH  31  32
HETATM   32  C18 UNL     1      -7.244  61.130  39.895  1.00  0.00     0.029 C 
BRANCH  32  33
HETATM   33  C19 UNL     1      -6.584  62.322  40.502  1.00  0.00     0.229 C 
BRANCH  33  34
HETATM   34  N8  UNL     1      -7.497  63.454  40.609  1.00  0.00    -0.079 N 
ATOM     35  H83 UNL     1      -7.150  64.260  40.090  1.00  0.00     0.274 HD
ATOM     36  H82 UNL     1      -8.358  63.287  40.088  1.00  0.00     0.274 HD
ATOM     37  H81 UNL     1      -7.693  63.694  41.581  1.00  0.00     0.274 HD
ENDBRANCH  33  34
ENDBRANCH  32  33
ENDBRANCH  31  32
ENDBRANCH  30  31
ENDBRANCH  28  30
ENDBRANCH   6  28
TORSDOF 18
ENDMDL
MODEL 4
REMARK VINA RESULT: -6.349640695      5.080      8.033
REMARK  18 active torsions:
REMARK  status: ('A' for Active; 'I' for Inactive)
REMARK    1  A    between atoms: N1_2  and  C3_4 
REMARK    2  A    between atoms: C3_4  and  C4_5 
REMARK    3  A    between atoms: C4_5  and  C5_6 
REMARK    4  A    between atoms: C5_6  and  C6_7 
REMARK    5  A    between atoms: C6_7  and  C7_8 
REMARK    6  A    between atoms: C7_8  and  O1_9 
REMARK    7  A    between atoms: O1_9  and  C8_10 
REMARK    8  A    between atoms: C10_12  and  N2_13 
REMARK    9  A    between atoms: N2_13  and  C11_15 
REMARK   10  A    between atoms: C11_15  and  C12_16 
REMARK   11  A    between atoms: C12_16  and  C13_17 
REMARK   12  A    between atoms: C13_17  and  N3_18 
REMARK   13  A    between atoms: C15_25  and  N7_26 
REMARK   14  A    between atoms: N7_26  and  C16_28 
REMARK   15  A    between atoms: C16_28  and  C17_29 
REMARK   16  A    between atoms: C17_29  and  C18_30 
REMARK   17  A    between atoms: C18_30  and  C19_31 
REMARK   18  A    between atoms: C19_31  and  N8_32 
ROOT
HETATM    1  C8  UNL     1      -6.267  54.579  38.486  1.00  0.00     0.161 A 
HETATM    2  C9  UNL     1      -4.935  54.336  38.683  1.00  0.00     0.105 A 
HETATM    3  C10 UNL     1      -4.108  55.214  39.400  1.00  0.00     0.120 A 
HETATM    4  N6  UNL     1      -4.680  56.318  39.893  1.00  0.00    -0.177 N 
ATOM      5  H6  UNL     1      -4.102  56.974  40.419  1.00  0.00     0.185 HD
HETATM    6  C15 UNL     1      -5.997  56.601  39.724  1.00  0.00     0.681 A 
HETATM    7  N9  UNL     1      -6.743  55.737  39.037  1.00  0.00    -0.171 N 
ATOM      8  H9  UNL     1      -7.732  55.953  38.913  1.00  0.00     0.186 HD
ENDROOT
BRANCH   3   9
HETATM    9  N2  UNL     1      -2.856  54.998  39.596  1.00  0.00    -0.376 N 
ATOM     10  H2  UNL     1      -2.307  55.644  40.162  1.00  0.00     0.161 HD
BRANCH   9  11
HETATM   11  C11 UNL     1      -2.232  53.834  39.009  1.00  0.00     0.123 C 
BRANCH  11  12
HETATM   12  C12 UNL     1      -1.003  54.209  38.204  1.00  0.00     0.039 C 
BRANCH  12  13
HETATM   13  C13 UNL     1      -1.458  54.924  36.939  1.00  0.00     0.123 C 
BRANCH  13  14
HETATM   14  N3  UNL     1      -0.854  56.209  36.768  1.00  0.00    -0.367 N 
HETATM   15  C14 UNL     1      -1.089  56.866  35.681  1.00  0.00     0.196 C 
HETATM   16  N4  UNL     1      -1.905  56.412  34.632  1.00  0.00    -0.067 NA
HETATM   17  N5  UNL     1      -0.445  58.140  35.592  1.00  0.00    -0.067 NA
ATOM     18  H3  UNL     1      -0.249  56.599  37.492  1.00  0.00     0.161 HD
ENDBRANCH  13  14
ENDBRANCH  12  13
ENDBRANCH  11  12
ENDBRANCH   9  11
ENDBRANCH   3   9
BRANCH   1  19
HETATM   19  O1  UNL     1      -7.093  53.762  37.799  1.00  0.00    -0.335 OA
BRANCH  19  20
HETATM   20  C7  UNL     1      -6.962  52.538  37.194  1.00  0.00     0.177 C 
BRANCH  20  21
HETATM   21  C6  UNL     1      -6.971  52.662  35.710  1.00  0.00     0.027 C 
BRANCH  21  22
HETATM   22  C5  UNL     1      -5.738  53.312  35.121  1.00  0.00     0.004 C 
BRANCH  22  23
HETATM   23  C4  UNL     1      -6.118  53.943  33.806  1.00  0.00     0.030 C 
BRANCH  23  24
HETATM   24  C3  UNL     1      -4.941  54.773  33.325  1.00  0.00     0.271 C 
BRANCH  24  25
HETATM   25  N1  UNL     1      -5.181  55.267  31.969  1.00  0.00     0.080 N 
HETATM   26  C1  UNL     1      -4.200  56.290  31.653  1.00  0.00     0.309 C 
HETATM   27  C2  UNL     1      -6.535  55.787  31.844  1.00  0.00     0.309 C 
ENDBRANCH  24  25
ENDBRANCH  23  24
ENDBRANCH  22  23
ENDBRANCH  21  22
ENDBRANCH  20  21
ENDBRANCH  19  20
ENDBRANCH   1  19
BRANCH   6  28
HETATM   28  N7  UNL     1      -6.490  57.686  40.227  1.00  0.00    -0.226 N 
ATOM     29  H7  UNL     1      -6.575  57.717  41.242  1.00  0.00     0.177 HD
BRANCH  28  30
HETATM   30  C16 UNL     1      -6.925  58.837  39.519  1.00  0.00     0.138 C 
BRANCH  30  31
HETATM   31  C17 UNL     1      -5.837  59.670  38.941  1.00  0.00     0.022 C 
BRANCH  31  32
HETATM   32  C18 UNL     1      -6.276  61.103  38.845  1.00  0.00     0.029 C 
BRANCH  32  33
HETATM   33  C19 UNL     1      -6.935  61.625  40.076  1.00  0.00     0.229 C 
BRANCH  33  34
HETATM   34  N8  UNL     1      -6.112  62.618  40.755  1.00  0.00    -0.079 N 
ATOM     35  H83 UNL     1      -5.857  63.380  40.127  1.00  0.00     0.274 HD
ATOM     36  H82 UNL     1      -6.656  63.148  41.437  1.00  0.00     0.274 HD
ATOM     37  H81 UNL     1      -5.287  62.199  41.185  1.00  0.00     0.274 HD
ENDBRANCH  33  34
ENDBRANCH  32  33
ENDBRANCH  31  32
ENDBRANCH  30  31
ENDBRANCH  28  30
ENDBRANCH   6  28
TORSDOF 18
ENDMDL
MODEL 5
REMARK VINA RESULT: -6.300217027      3.712      6.890
REMARK  18 active torsions:
REMARK  status: ('A' for Active; 'I' for Inactive)
REMARK    1  A    between atoms: N1_2  and  C3_4 
REMARK    2  A    between atoms: C3_4  and  C4_5 
REMARK    3  A    between atoms: C4_5  and  C5_6 
REMARK    4  A    between atoms: C5_6  and  C6_7 
REMARK    5  A    between atoms: C6_7  and  C7_8 
REMARK    6  A    between atoms: C7_8  and  O1_9 
REMARK    7  A    between atoms: O1_9  and  C8_10 
REMARK    8  A    between atoms: C10_12  and  N2_13 
REMARK    9  A    between atoms: N2_13  and  C11_15 
REMARK   10  A    between atoms: C11_15  and  C12_16 
REMARK   11  A    between atoms: C12_16  and  C13_17 
REMARK   12  A    between atoms: C13_17  and  N3_18 
REMARK   13  A    between atoms: C15_25  and  N7_26 
REMARK   14  A    between atoms: N7_26  and  C16_28 
REMARK   15  A    between atoms: C16_28  and  C17_29 
REMARK   16  A    between atoms: C17_29  and  C18_30 
REMARK   17  A    between atoms: C18_30  and  C19_31 
REMARK   18  A    between atoms: C19_31  and  N8_32 
ROOT
HETATM    1  C8  UNL     1      -5.319  55.380  38.801  1.00  0.00     0.161 A 
HETATM    2  C9  UNL     1      -6.635  55.024  38.902  1.00  0.00     0.105 A 
HETATM    3  C10 UNL     1      -7.640  55.947  39.231  1.00  0.00     0.120 A 
HETATM    4  N6  UNL     1      -7.256  57.210  39.444  1.00  0.00    -0.177 N 
ATOM      5  H6  UNL     1      -7.966  57.902  39.685  1.00  0.00     0.185 HD
HETATM    6  C15 UNL     1      -5.961  57.610  39.355  1.00  0.00     0.681 A 
HETATM    7  N9  UNL     1      -5.043  56.698  39.039  1.00  0.00    -0.171 N 
ATOM      8  H9  UNL     1      -4.071  57.002  38.972  1.00  0.00     0.186 HD
ENDROOT
BRANCH   3   9
HETATM    9  N2  UNL     1      -8.882  55.630  39.327  1.00  0.00    -0.376 N 
ATOM     10  H2  UNL     1      -9.391  55.807  40.193  1.00  0.00     0.161 HD
BRANCH   9  11
HETATM   11  C11 UNL     1      -9.552  55.021  38.200  1.00  0.00     0.123 C 
BRANCH  11  12
HETATM   12  C12 UNL     1     -11.050  55.256  38.252  1.00  0.00     0.039 C 
BRANCH  12  13
HETATM   13  C13 UNL     1     -11.725  54.251  37.328  1.00  0.00     0.123 C 
BRANCH  13  14
HETATM   14  N3  UNL     1     -12.012  54.780  36.031  1.00  0.00    -0.367 N 
HETATM   15  C14 UNL     1     -11.318  54.364  35.024  1.00  0.00     0.196 C 
HETATM   16  N4  UNL     1     -10.284  53.416  35.101  1.00  0.00    -0.067 NA
HETATM   17  N5  UNL     1     -11.669  54.945  33.764  1.00  0.00    -0.067 NA
ATOM     18  H3  UNL     1     -12.750  55.472  35.903  1.00  0.00     0.161 HD
ENDBRANCH  13  14
ENDBRANCH  12  13
ENDBRANCH  11  12
ENDBRANCH   9  11
ENDBRANCH   3   9
BRANCH   1  19
HETATM   19  O1  UNL     1      -4.324  54.521  38.492  1.00  0.00    -0.335 OA
BRANCH  19  20
HETATM   20  C7  UNL     1      -4.227  53.160  38.353  1.00  0.00     0.177 C 
BRANCH  20  21
HETATM   21  C6  UNL     1      -2.916  52.765  37.769  1.00  0.00     0.027 C 
BRANCH  21  22
HETATM   22  C5  UNL     1      -3.001  52.118  36.403  1.00  0.00     0.004 C 
BRANCH  22  23
HETATM   23  C4  UNL     1      -2.035  52.823  35.486  1.00  0.00     0.030 C 
BRANCH  23  24
HETATM   24  C3  UNL     1      -1.657  54.146  36.127  1.00  0.00     0.271 C 
BRANCH  24  25
HETATM   25  N1  UNL     1      -1.892  55.252  35.198  1.00  0.00     0.080 N 
HETATM   26  C1  UNL     1      -2.860  56.165  35.780  1.00  0.00     0.309 C 
HETATM   27  C2  UNL     1      -2.353  54.754  33.911  1.00  0.00     0.309 C 
ENDBRANCH  24  25
ENDBRANCH  23  24
ENDBRANCH  22  23
ENDBRANCH  21  22
ENDBRANCH  20  21
ENDBRANCH  19  20
ENDBRANCH   1  19
BRANCH   6  28
HETATM   28  N7  UNL     1      -5.655  58.847  39.573  1.00  0.00    -0.226 N 
ATOM     29  H7  UNL     1      -5.561  59.126  40.549  1.00  0.00     0.177 HD
BRANCH  28  30
HETATM   30  C16 UNL     1      -5.435  59.859  38.602  1.00  0.00     0.138 C 
BRANCH  30  31
HETATM   31  C17 UNL     1      -6.409  60.982  38.632  1.00  0.00     0.022 C 
BRANCH  31  32
HETATM   32  C18 UNL     1      -6.872  61.230  40.039  1.00  0.00     0.029 C 
BRANCH  32  33
HETATM   33  C19 UNL     1      -7.009  62.672  40.393  1.00  0.00     0.229 C 
BRANCH  33  34
HETATM   34  N8  UNL     1      -5.880  63.148  41.184  1.00  0.00    -0.079 N 
ATOM     35  H83 UNL     1      -5.091  62.504  41.128  1.00  0.00     0.274 HD
ATOM     36  H82 UNL     1      -5.449  63.968  40.758  1.00  0.00     0.274 HD
ATOM     37  H81 UNL     1      -6.143  63.329  42.153  1.00  0.00     0.274 HD
ENDBRANCH  33  34
ENDBRANCH  32  33
ENDBRANCH  31  32
ENDBRANCH  30  31
ENDBRANCH  28  30
ENDBRANCH   6  28
TORSDOF 18
ENDMDL
