MODEL 1
REMARK VINA RESULT: -6.993236301      0.000      0.000
REMARK  6 active torsions:
REMARK  status: ('A' for Active; 'I' for Inactive)
REMARK       I    between atoms: C1_2  and  N1_3 
REMARK    1  A    between atoms: C1_2  and  C9_15 
REMARK    2  A    between atoms: N1_3  and  C2_5 
REMARK    3  A    between atoms: C2_5  and  C3_6 
REMARK    4  A    between atoms: C3_6  and  S1_7 
REMARK    5  A    between atoms: S1_7  and  C4_8 
REMARK    6  A    between atoms: C4_8  and  C5_9 
ROOT
HETATM    1  O1  UNL     1      30.587   2.855  50.491  1.00  0.00    -0.273 OA
HETATM    2  C1  UNL     1      29.709   2.027  50.028  1.00  0.00     0.233 C 
HETATM    3  N1  UNL     1      28.475   2.600  49.701  1.00  0.00    -0.360 N 
ATOM      4  H1  UNL     1      27.739   2.001  49.326  1.00  0.00     0.162 HD
ENDROOT
BRANCH   2   5
HETATM    5  C9  UNL     1      30.133   0.642  49.919  1.00  0.00     0.197 C 
HETATM    6  C10 UNL     1      29.862  -0.040  48.620  1.00  0.00     0.234 C 
HETATM    7  O3  UNL     1      29.722   0.199  47.402  1.00  0.00    -0.273 OA
HETATM    8  N2  UNL     1      29.810  -1.248  49.364  1.00  0.00    -0.350 N 
HETATM    9  C11 UNL     1      29.320  -0.462  50.494  1.00  0.00     0.053 C 
ATOM     10  H2  UNL     1      30.021  -2.231  49.187  1.00  0.00     0.163 HD
HETATM   11  C12 UNL     1      29.804  -0.986  51.835  1.00  0.00     0.032 C 
HETATM   12  C16 UNL     1      27.859  -0.239  50.522  1.00  0.00     0.032 C 
HETATM   13  C13 UNL     1      29.371  -2.436  51.911  1.00  0.00     0.002 C 
HETATM   14  C14 UNL     1      28.003  -2.633  51.303  1.00  0.00     0.000 C 
HETATM   15  C15 UNL     1      27.195  -1.355  51.314  1.00  0.00     0.002 C 
ENDBRANCH   2   5
BRANCH   3  16
HETATM   16  C2  UNL     1      28.198   4.019  49.876  1.00  0.00     0.132 C 
BRANCH  16  17
HETATM   17  C3  UNL     1      26.991   4.244  50.743  1.00  0.00     0.094 C 
BRANCH  17  18
HETATM   18  S1  UNL     1      25.520   4.606  49.846  1.00  0.00    -0.161 SA
BRANCH  18  19
HETATM   19  C4  UNL     1      24.072   3.651  50.067  1.00  0.00     0.139 C 
BRANCH  19  20
HETATM   20  C5  UNL     1      24.023   2.763  51.234  1.00  0.00     0.063 A 
HETATM   21  C6  UNL     1      24.064   1.400  51.336  1.00  0.00     0.054 A 
HETATM   22  C7  UNL     1      23.986   1.051  52.666  1.00  0.00     0.035 A 
HETATM   23 BR1  UNL     1      23.993  -0.693  53.430  1.00  0.00    -0.049 Br
HETATM   24  C8  UNL     1      23.899   2.254  53.339  1.00  0.00     0.161 A 
HETATM   25  O2  UNL     1      23.925   3.222  52.465  1.00  0.00    -0.325 OA
ENDBRANCH  19  20
ENDBRANCH  18  19
ENDBRANCH  17  18
ENDBRANCH  16  17
ENDBRANCH   3  16
TORSDOF 6
ENDMDL
MODEL 2
REMARK VINA RESULT: -6.984407049      2.096      2.385
REMARK  6 active torsions:
REMARK  status: ('A' for Active; 'I' for Inactive)
REMARK       I    between atoms: C1_2  and  N1_3 
REMARK    1  A    between atoms: C1_2  and  C9_15 
REMARK    2  A    between atoms: N1_3  and  C2_5 
REMARK    3  A    between atoms: C2_5  and  C3_6 
REMARK    4  A    between atoms: C3_6  and  S1_7 
REMARK    5  A    between atoms: S1_7  and  C4_8 
REMARK    6  A    between atoms: C4_8  and  C5_9 
ROOT
HETATM    1  O1  UNL     1      30.656   2.690  50.819  1.00  0.00    -0.273 OA
HETATM    2  C1  UNL     1      29.956   2.028  49.958  1.00  0.00     0.233 C 
HETATM    3  N1  UNL     1      28.996   2.783  49.275  1.00  0.00    -0.360 N 
ATOM      4  H1  UNL     1      28.413   2.320  48.577  1.00  0.00     0.162 HD
ENDROOT
BRANCH   2   5
HETATM    5  C9  UNL     1      30.269   0.615  49.833  1.00  0.00     0.197 C 
HETATM    6  C10 UNL     1      29.889  -0.042  48.548  1.00  0.00     0.234 C 
HETATM    7  O3  UNL     1      29.713   0.208  47.338  1.00  0.00    -0.273 OA
HETATM    8  N2  UNL     1      29.779  -1.245  49.297  1.00  0.00    -0.350 N 
HETATM    9  C11 UNL     1      29.401  -0.425  50.447  1.00  0.00     0.053 C 
ATOM     10  H2  UNL     1      29.907  -2.240  49.113  1.00  0.00     0.163 HD
HETATM   11  C12 UNL     1      29.904  -0.986  51.766  1.00  0.00     0.032 C 
HETATM   12  C16 UNL     1      27.964  -0.092  50.539  1.00  0.00     0.032 C 
HETATM   13  C13 UNL     1      29.367  -2.399  51.863  1.00  0.00     0.002 C 
HETATM   14  C14 UNL     1      27.962  -2.492  51.318  1.00  0.00     0.000 C 
HETATM   15  C15 UNL     1      27.255  -1.156  51.363  1.00  0.00     0.002 C 
ENDBRANCH   2   5
BRANCH   3  16
HETATM   16  C2  UNL     1      28.796   4.205  49.520  1.00  0.00     0.132 C 
BRANCH  16  17
HETATM   17  C3  UNL     1      27.472   4.677  48.987  1.00  0.00     0.094 C 
BRANCH  17  18
HETATM   18  S1  UNL     1      26.138   4.504  50.123  1.00  0.00    -0.161 SA
BRANCH  18  19
HETATM   19  C4  UNL     1      26.108   3.197  51.285  1.00  0.00     0.139 C 
BRANCH  19  20
HETATM   20  C5  UNL     1      26.698   3.454  52.602  1.00  0.00     0.063 A 
HETATM   21  C6  UNL     1      27.493   2.683  53.405  1.00  0.00     0.054 A 
HETATM   22  C7  UNL     1      27.783   3.387  54.553  1.00  0.00     0.035 A 
HETATM   23 BR1  UNL     1      28.840   2.837  56.037  1.00  0.00    -0.049 Br
HETATM   24  C8  UNL     1      27.133   4.595  54.396  1.00  0.00     0.161 A 
HETATM   25  O2  UNL     1      26.516   4.590  53.247  1.00  0.00    -0.325 OA
ENDBRANCH  19  20
ENDBRANCH  18  19
ENDBRANCH  17  18
ENDBRANCH  16  17
ENDBRANCH   3  16
TORSDOF 6
ENDMDL
MODEL 3
REMARK VINA RESULT: -6.963109247      0.974      1.334
REMARK  6 active torsions:
REMARK  status: ('A' for Active; 'I' for Inactive)
REMARK       I    between atoms: C1_2  and  N1_3 
REMARK    1  A    between atoms: C1_2  and  C9_15 
REMARK    2  A    between atoms: N1_3  and  C2_5 
REMARK    3  A    between atoms: C2_5  and  C3_6 
REMARK    4  A    between atoms: C3_6  and  S1_7 
REMARK    5  A    between atoms: S1_7  and  C4_8 
REMARK    6  A    between atoms: C4_8  and  C5_9 
ROOT
HETATM    1  O1  UNL     1      30.812   2.249  51.070  1.00  0.00    -0.273 OA
HETATM    2  C1  UNL     1      30.191   1.720  50.069  1.00  0.00     0.233 C 
HETATM    3  N1  UNL     1      29.458   2.621  49.288  1.00  0.00    -0.360 N 
ATOM      4  H1  UNL     1      28.948   2.266  48.478  1.00  0.00     0.162 HD
ENDROOT
BRANCH   2   5
HETATM    5  C9  UNL     1      30.345   0.284  49.909  1.00  0.00     0.197 C 
HETATM    6  C10 UNL     1      29.966  -0.286  48.583  1.00  0.00     0.234 C 
HETATM    7  O3  UNL     1      29.891   0.020  47.375  1.00  0.00    -0.273 OA
HETATM    8  N2  UNL     1      29.675  -1.488  49.280  1.00  0.00    -0.350 N 
HETATM    9  C11 UNL     1      29.328  -0.665  50.437  1.00  0.00     0.053 C 
ATOM     10  H2  UNL     1      29.698  -2.486  49.067  1.00  0.00     0.163 HD
HETATM   11  C12 UNL     1      29.686  -1.321  51.760  1.00  0.00     0.032 C 
HETATM   12  C16 UNL     1      27.937  -0.168  50.464  1.00  0.00     0.032 C 
HETATM   13  C13 UNL     1      28.984  -2.663  51.777  1.00  0.00     0.002 C 
HETATM   14  C14 UNL     1      27.612  -2.574  51.153  1.00  0.00     0.000 C 
HETATM   15  C15 UNL     1      27.062  -1.166  51.209  1.00  0.00     0.002 C 
ENDBRANCH   2   5
BRANCH   3  16
HETATM   16  C2  UNL     1      29.395   4.045  49.584  1.00  0.00     0.132 C 
BRANCH  16  17
HETATM   17  C3  UNL     1      28.560   4.783  48.575  1.00  0.00     0.094 C 
BRANCH  17  18
HETATM   18  S1  UNL     1      26.849   4.867  48.983  1.00  0.00    -0.161 SA
BRANCH  18  19
HETATM   19  C4  UNL     1      26.311   4.733  50.641  1.00  0.00     0.139 C 
BRANCH  19  20
HETATM   20  C5  UNL     1      25.362   3.660  50.956  1.00  0.00     0.063 A 
HETATM   21  C6  UNL     1      25.500   2.519  51.697  1.00  0.00     0.054 A 
HETATM   22  C7  UNL     1      24.304   1.836  51.688  1.00  0.00     0.035 A 
HETATM   23 BR1  UNL     1      23.882   0.185  52.538  1.00  0.00    -0.049 Br
HETATM   24  C8  UNL     1      23.462   2.614  50.917  1.00  0.00     0.161 A 
HETATM   25  O2  UNL     1      24.120   3.665  50.513  1.00  0.00    -0.325 OA
ENDBRANCH  19  20
ENDBRANCH  18  19
ENDBRANCH  17  18
ENDBRANCH  16  17
ENDBRANCH   3  16
TORSDOF 6
ENDMDL
MODEL 4
REMARK VINA RESULT: -6.861481147      1.895      2.176
REMARK  6 active torsions:
REMARK  status: ('A' for Active; 'I' for Inactive)
REMARK       I    between atoms: C1_2  and  N1_3 
REMARK    1  A    between atoms: C1_2  and  C9_15 
REMARK    2  A    between atoms: N1_3  and  C2_5 
REMARK    3  A    between atoms: C2_5  and  C3_6 
REMARK    4  A    between atoms: C3_6  and  S1_7 
REMARK    5  A    between atoms: S1_7  and  C4_8 
REMARK    6  A    between atoms: C4_8  and  C5_9 
ROOT
HETATM    1  O1  UNL     1      30.960   2.516  50.701  1.00  0.00    -0.273 OA
HETATM    2  C1  UNL     1      30.099   1.838  50.016  1.00  0.00     0.233 C 
HETATM    3  N1  UNL     1      29.050   2.593  49.479  1.00  0.00    -0.360 N 
ATOM      4  H1  UNL     1      28.338   2.118  48.923  1.00  0.00     0.162 HD
ENDROOT
BRANCH   2   5
HETATM    5  C9  UNL     1      30.349   0.411  49.910  1.00  0.00     0.197 C 
HETATM    6  C10 UNL     1      30.063  -0.221  48.590  1.00  0.00     0.234 C 
HETATM    7  O3  UNL     1      30.020   0.041  47.370  1.00  0.00    -0.273 OA
HETATM    8  N2  UNL     1      29.817  -1.418  49.314  1.00  0.00    -0.350 N 
HETATM    9  C11 UNL     1      29.371  -0.584  50.428  1.00  0.00     0.053 C 
ATOM     10  H2  UNL     1      29.911  -2.419  49.135  1.00  0.00     0.163 HD
HETATM   11  C12 UNL     1      29.712  -1.175  51.785  1.00  0.00     0.032 C 
HETATM   12  C16 UNL     1      27.952  -0.176  50.381  1.00  0.00     0.032 C 
HETATM   13  C13 UNL     1      29.095  -2.558  51.818  1.00  0.00     0.002 C 
HETATM   14  C14 UNL     1      27.748  -2.574  51.136  1.00  0.00     0.000 C 
HETATM   15  C15 UNL     1      27.110  -1.204  51.123  1.00  0.00     0.002 C 
ENDBRANCH   2   5
BRANCH   3  16
HETATM   16  C2  UNL     1      28.933   4.030  49.681  1.00  0.00     0.132 C 
BRANCH  16  17
HETATM   17  C3  UNL     1      27.588   4.542  49.247  1.00  0.00     0.094 C 
BRANCH  17  18
HETATM   18  S1  UNL     1      26.265   4.076  50.311  1.00  0.00    -0.161 SA
BRANCH  18  19
HETATM   19  C4  UNL     1      26.426   4.184  52.049  1.00  0.00     0.139 C 
BRANCH  19  20
HETATM   20  C5  UNL     1      27.058   3.053  52.738  1.00  0.00     0.063 A 
HETATM   21  C6  UNL     1      26.522   1.973  53.384  1.00  0.00     0.054 A 
HETATM   22  C7  UNL     1      27.548   1.190  53.866  1.00  0.00     0.035 A 
HETATM   23 BR1  UNL     1      27.427  -0.437  54.847  1.00  0.00    -0.049 Br
HETATM   24  C8  UNL     1      28.701   1.846  53.480  1.00  0.00     0.161 A 
HETATM   25  O2  UNL     1      28.367   2.924  52.827  1.00  0.00    -0.325 OA
ENDBRANCH  19  20
ENDBRANCH  18  19
ENDBRANCH  17  18
ENDBRANCH  16  17
ENDBRANCH   3  16
TORSDOF 6
ENDMDL
MODEL 5
REMARK VINA RESULT: -6.778901903      2.884      5.279
REMARK  6 active torsions:
REMARK  status: ('A' for Active; 'I' for Inactive)
REMARK       I    between atoms: C1_2  and  N1_3 
REMARK    1  A    between atoms: C1_2  and  C9_15 
REMARK    2  A    between atoms: N1_3  and  C2_5 
REMARK    3  A    between atoms: C2_5  and  C3_6 
REMARK    4  A    between atoms: C3_6  and  S1_7 
REMARK    5  A    between atoms: S1_7  and  C4_8 
REMARK    6  A    between atoms: C4_8  and  C5_9 
ROOT
HETATM    1  O1  UNL     1      29.083   0.377  48.770  1.00  0.00    -0.273 OA
HETATM    2  C1  UNL     1      29.563   1.170  49.671  1.00  0.00     0.233 C 
HETATM    3  N1  UNL     1      30.771   0.752  50.240  1.00  0.00    -0.360 N 
ATOM      4  H1  UNL     1      31.205   1.336  50.954  1.00  0.00     0.162 HD
ENDROOT
BRANCH   2   5
HETATM    5  C9  UNL     1      28.782   2.362  49.953  1.00  0.00     0.197 C 
HETATM    6  C10 UNL     1      29.532   3.548  50.460  1.00  0.00     0.234 C 
HETATM    7  O3  UNL     1      30.660   4.082  50.417  1.00  0.00    -0.273 OA
HETATM    8  N2  UNL     1      28.327   3.922  51.113  1.00  0.00    -0.350 N 
HETATM    9  C11 UNL     1      28.011   2.499  51.218  1.00  0.00     0.053 C 
ATOM     10  H2  UNL     1      27.880   4.797  51.388  1.00  0.00     0.163 HD
HETATM   11  C12 UNL     1      26.524   2.211  51.100  1.00  0.00     0.032 C 
HETATM   12  C16 UNL     1      28.581   1.811  52.396  1.00  0.00     0.032 C 
HETATM   13  C13 UNL     1      25.842   3.033  52.174  1.00  0.00     0.002 C 
HETATM   14  C14 UNL     1      26.659   3.066  53.443  1.00  0.00     0.000 C 
HETATM   15  C15 UNL     1      27.585   1.875  53.544  1.00  0.00     0.002 C 
ENDBRANCH   2   5
BRANCH   3  16
HETATM   16  C2  UNL     1      31.434  -0.485  49.851  1.00  0.00     0.132 C 
BRANCH  16  17
HETATM   17  C3  UNL     1      32.223  -1.070  50.990  1.00  0.00     0.094 C 
BRANCH  17  18
HETATM   18  S1  UNL     1      31.283  -1.331  52.455  1.00  0.00    -0.161 SA
BRANCH  18  19
HETATM   19  C4  UNL     1      30.014  -2.534  52.509  1.00  0.00     0.139 C 
BRANCH  19  20
HETATM   20  C5  UNL     1      28.655  -2.092  52.181  1.00  0.00     0.063 A 
HETATM   21  C6  UNL     1      27.589  -1.776  52.977  1.00  0.00     0.054 A 
HETATM   22  C7  UNL     1      26.527  -1.415  52.177  1.00  0.00     0.035 A 
HETATM   23 BR1  UNL     1      24.781  -0.876  52.708  1.00  0.00    -0.049 Br
HETATM   24  C8  UNL     1      27.006  -1.530  50.887  1.00  0.00     0.161 A 
HETATM   25  O2  UNL     1      28.248  -1.926  50.938  1.00  0.00    -0.325 OA
ENDBRANCH  19  20
ENDBRANCH  18  19
ENDBRANCH  17  18
ENDBRANCH  16  17
ENDBRANCH   3  16
TORSDOF 6
ENDMDL
