MODEL 1
REMARK VINA RESULT: -8.228767642      0.000      0.000
REMARK  9 active torsions:
REMARK  status: ('A' for Active; 'I' for Inactive)
REMARK    1  A    between atoms: C2_2  and  O1_3 
REMARK    2  A    between atoms: O1_3  and  C3_4 
REMARK    3  A    between atoms: C3_4  and  C4_6 
REMARK    4  A    between atoms: N1_8  and  C6_9 
REMARK    5  A    between atoms: C6_9  and  C7_10 
REMARK    6  A    between atoms: C6_9  and  C11_14 
REMARK    7  A    between atoms: C7_10  and  C8_11 
REMARK    8  A    between atoms: N2_16  and  C13_17 
REMARK    9  A    between atoms: C22_31  and  C23_32 
ROOT
HETATM    1  C6  UNL     1     -18.551  74.334  35.542  1.00  0.00     0.260 C 
ENDROOT
BRANCH   1   2
HETATM    2  N1  UNL     1     -19.354  75.144  34.653  1.00  0.00     0.098 N 
HETATM    3  C5  UNL     1     -18.650  75.900  33.707  1.00  0.00     0.288 C 
HETATM    4  C4  UNL     1     -18.985  77.366  33.694  1.00  0.00     0.118 C 
HETATM    5  C22 UNL     1     -20.409  77.732  33.770  1.00  0.00     0.002 C 
HETATM    6  C21 UNL     1     -21.215  76.775  34.636  1.00  0.00     0.036 C 
HETATM    7  C20 UNL     1     -20.373  75.815  35.396  1.00  0.00     0.273 C 
BRANCH   4   8
HETATM    8  C3  UNL     1     -18.269  78.017  32.587  1.00  0.00     0.265 C 
HETATM    9  O2  UNL     1     -17.914  77.374  31.539  1.00  0.00    -0.265 OA
BRANCH   8  10
HETATM   10  O1  UNL     1     -17.938  79.338  32.609  1.00  0.00    -0.322 OA
BRANCH  10  11
HETATM   11  C2  UNL     1     -18.400  80.300  31.682  1.00  0.00     0.174 C 
HETATM   12  C1  UNL     1     -17.540  81.545  31.647  1.00  0.00     0.034 C 
ENDBRANCH  10  11
ENDBRANCH   8  10
ENDBRANCH   4   8
BRANCH   5  13
HETATM   13  C23 UNL     1     -21.173  77.966  32.523  1.00  0.00     0.001 C 
HETATM   14  C24 UNL     1     -22.437  77.239  32.307  1.00  0.00     0.005 C 
ENDBRANCH   5  13
ENDBRANCH   1   2
BRANCH   1  15
HETATM   15  C7  UNL     1     -17.197  74.875  35.790  1.00  0.00     0.044 C 
BRANCH  15  16
HETATM   16  C8  UNL     1     -17.059  75.594  37.115  1.00  0.00    -0.020 C 
HETATM   17  C9  UNL     1     -18.044  75.027  38.131  1.00  0.00     0.009 C 
HETATM   18  C10 UNL     1     -17.392  77.070  36.970  1.00  0.00     0.009 C 
ENDBRANCH  15  16
ENDBRANCH   1  15
BRANCH   1  19
HETATM   19  C11 UNL     1     -18.605  72.966  34.979  1.00  0.00     0.028 A 
HETATM   20  C12 UNL     1     -19.499  72.296  34.215  1.00  0.00     0.129 A 
HETATM   21  N2  UNL     1     -19.077  71.038  33.983  1.00  0.00    -0.266 N 
HETATM   22  N3  UNL     1     -17.913  70.936  34.613  1.00  0.00    -0.286 N 
HETATM   23  C19 UNL     1     -17.570  72.061  35.233  1.00  0.00     0.104 A 
ATOM     24  H3  UNL     1     -17.346  70.088  34.621  1.00  0.00     0.188 HD
HETATM   25 BR1  UNL     1     -15.977  72.394  36.264  1.00  0.00    -0.029 Br
BRANCH  21  26
HETATM   26  C13 UNL     1     -19.698  70.014  33.225  1.00  0.00     0.057 A 
HETATM   27  C14 UNL     1     -21.034  70.080  32.904  1.00  0.00     0.033 A 
HETATM   28  C15 UNL     1     -21.662  69.105  32.161  1.00  0.00     0.028 A 
HETATM   29  C16 UNL     1     -20.927  68.013  31.715  1.00  0.00     0.055 A 
HETATM   30 CL1  UNL     1     -21.722  66.756  30.762  1.00  0.00    -0.083 Cl
HETATM   31  C17 UNL     1     -19.596  67.924  32.023  1.00  0.00     0.058 A 
HETATM   32 CL2  UNL     1     -18.691  66.543  31.453  1.00  0.00    -0.082 Cl
HETATM   33  C18 UNL     1     -18.980  68.929  32.780  1.00  0.00     0.057 A 
ENDBRANCH  21  26
ENDBRANCH   1  19
TORSDOF 9
ENDMDL
MODEL 2
REMARK VINA RESULT: -8.218709818      5.127      8.843
REMARK  9 active torsions:
REMARK  status: ('A' for Active; 'I' for Inactive)
REMARK    1  A    between atoms: C2_2  and  O1_3 
REMARK    2  A    between atoms: O1_3  and  C3_4 
REMARK    3  A    between atoms: C3_4  and  C4_6 
REMARK    4  A    between atoms: N1_8  and  C6_9 
REMARK    5  A    between atoms: C6_9  and  C7_10 
REMARK    6  A    between atoms: C6_9  and  C11_14 
REMARK    7  A    between atoms: C7_10  and  C8_11 
REMARK    8  A    between atoms: N2_16  and  C13_17 
REMARK    9  A    between atoms: C22_31  and  C23_32 
ROOT
HETATM    1  C6  UNL     1     -21.044  75.593  33.769  1.00  0.00     0.260 C 
ENDROOT
BRANCH   1   2
HETATM    2  N1  UNL     1     -19.956  75.609  34.722  1.00  0.00     0.098 N 
HETATM    3  C5  UNL     1     -18.748  75.053  34.282  1.00  0.00     0.288 C 
HETATM    4  C4  UNL     1     -18.173  73.997  35.186  1.00  0.00     0.118 C 
HETATM    5  C22 UNL     1     -18.182  74.270  36.631  1.00  0.00     0.002 C 
HETATM    6  C21 UNL     1     -19.403  75.065  37.071  1.00  0.00     0.036 C 
HETATM    7  C20 UNL     1     -20.430  75.205  36.007  1.00  0.00     0.273 C 
BRANCH   4   8
HETATM    8  C3  UNL     1     -16.858  73.584  34.673  1.00  0.00     0.265 C 
HETATM    9  O2  UNL     1     -16.143  74.354  33.942  1.00  0.00    -0.265 OA
BRANCH   8  10
HETATM   10  O1  UNL     1     -16.322  72.361  34.940  1.00  0.00    -0.322 OA
BRANCH  10  11
HETATM   11  C2  UNL     1     -14.976  72.134  35.309  1.00  0.00     0.174 C 
HETATM   12  C1  UNL     1     -14.837  71.534  36.692  1.00  0.00     0.034 C 
ENDBRANCH  10  11
ENDBRANCH   8  10
ENDBRANCH   4   8
BRANCH   5  13
HETATM   13  C23 UNL     1     -16.992  74.880  37.269  1.00  0.00     0.001 C 
HETATM   14  C24 UNL     1     -17.020  76.310  37.626  1.00  0.00     0.005 C 
ENDBRANCH   5  13
ENDBRANCH   1   2
BRANCH   1  15
HETATM   15  C7  UNL     1     -21.171  74.322  33.022  1.00  0.00     0.044 C 
BRANCH  15  16
HETATM   16  C8  UNL     1     -22.062  73.302  33.698  1.00  0.00    -0.020 C 
HETATM   17  C9  UNL     1     -21.244  72.094  34.141  1.00  0.00     0.009 C 
HETATM   18  C10 UNL     1     -23.117  72.780  32.737  1.00  0.00     0.009 C 
ENDBRANCH  15  16
ENDBRANCH   1  15
BRANCH   1  19
HETATM   19  C11 UNL     1     -20.860  76.809  32.946  1.00  0.00     0.028 A 
HETATM   20  C12 UNL     1     -19.892  77.752  32.860  1.00  0.00     0.129 A 
HETATM   21  N2  UNL     1     -20.217  78.683  31.942  1.00  0.00    -0.266 N 
HETATM   22  N3  UNL     1     -21.396  78.308  31.463  1.00  0.00    -0.286 N 
HETATM   23  C19 UNL     1     -21.841  77.187  32.024  1.00  0.00     0.104 A 
ATOM     24  H3  UNL     1     -21.905  78.823  30.744  1.00  0.00     0.188 HD
HETATM   25 BR1  UNL     1     -23.487  76.260  31.650  1.00  0.00    -0.029 Br
BRANCH  21  26
HETATM   26  C13 UNL     1     -19.484  79.824  31.532  1.00  0.00     0.057 A 
HETATM   27  C14 UNL     1     -18.291  80.155  32.133  1.00  0.00     0.033 A 
HETATM   28  C15 UNL     1     -17.553  81.252  31.749  1.00  0.00     0.028 A 
HETATM   29  C16 UNL     1     -18.022  82.059  30.720  1.00  0.00     0.055 A 
HETATM   30 CL1  UNL     1     -17.083  83.471  30.220  1.00  0.00    -0.083 Cl
HETATM   31  C17 UNL     1     -19.207  81.752  30.108  1.00  0.00     0.058 A 
HETATM   32 CL2  UNL     1     -19.778  82.780  28.816  1.00  0.00    -0.082 Cl
HETATM   33  C18 UNL     1     -19.940  80.630  30.516  1.00  0.00     0.057 A 
ENDBRANCH  21  26
ENDBRANCH   1  19
TORSDOF 9
ENDMDL
MODEL 3
REMARK VINA RESULT: -8.214324622      3.137      4.317
REMARK  9 active torsions:
REMARK  status: ('A' for Active; 'I' for Inactive)
REMARK    1  A    between atoms: C2_2  and  O1_3 
REMARK    2  A    between atoms: O1_3  and  C3_4 
REMARK    3  A    between atoms: C3_4  and  C4_6 
REMARK    4  A    between atoms: N1_8  and  C6_9 
REMARK    5  A    between atoms: C6_9  and  C7_10 
REMARK    6  A    between atoms: C6_9  and  C11_14 
REMARK    7  A    between atoms: C7_10  and  C8_11 
REMARK    8  A    between atoms: N2_16  and  C13_17 
REMARK    9  A    between atoms: C22_31  and  C23_32 
ROOT
HETATM    1  C6  UNL     1     -17.469  72.351  34.133  1.00  0.00     0.260 C 
ENDROOT
BRANCH   1   2
HETATM    2  N1  UNL     1     -17.491  73.328  33.067  1.00  0.00     0.098 N 
HETATM    3  C5  UNL     1     -16.415  73.284  32.172  1.00  0.00     0.288 C 
HETATM    4  C4  UNL     1     -15.700  74.594  31.979  1.00  0.00     0.118 C 
HETATM    5  C22 UNL     1     -16.532  75.796  31.811  1.00  0.00     0.002 C 
HETATM    6  C21 UNL     1     -17.813  75.742  32.630  1.00  0.00     0.036 C 
HETATM    7  C20 UNL     1     -17.854  74.607  33.588  1.00  0.00     0.273 C 
BRANCH   4   8
HETATM    8  C3  UNL     1     -14.675  74.437  30.936  1.00  0.00     0.265 C 
HETATM    9  O2  UNL     1     -13.736  75.292  30.776  1.00  0.00    -0.265 OA
BRANCH   8  10
HETATM   10  O1  UNL     1     -14.661  73.380  30.079  1.00  0.00    -0.322 OA
BRANCH  10  11
HETATM   11  C2  UNL     1     -14.255  73.443  28.726  1.00  0.00     0.174 C 
HETATM   12  C1  UNL     1     -15.300  74.064  27.825  1.00  0.00     0.034 C 
ENDBRANCH  10  11
ENDBRANCH   8  10
ENDBRANCH   4   8
BRANCH   5  13
HETATM   13  C23 UNL     1     -16.885  76.259  30.449  1.00  0.00     0.001 C 
HETATM   14  C24 UNL     1     -18.094  75.723  29.798  1.00  0.00     0.005 C 
ENDBRANCH   5  13
ENDBRANCH   1   2
BRANCH   1  15
HETATM   15  C7  UNL     1     -16.114  71.863  34.473  1.00  0.00     0.044 C 
BRANCH  15  16
HETATM   16  C8  UNL     1     -15.494  72.563  35.663  1.00  0.00    -0.020 C 
HETATM   17  C9  UNL     1     -14.771  71.558  36.553  1.00  0.00     0.009 C 
HETATM   18  C10 UNL     1     -16.560  73.216  36.527  1.00  0.00     0.009 C 
ENDBRANCH  15  16
ENDBRANCH   1  15
BRANCH   1  19
HETATM   19  C11 UNL     1     -18.446  71.314  33.732  1.00  0.00     0.028 A 
HETATM   20  C12 UNL     1     -18.414  70.272  32.868  1.00  0.00     0.129 A 
HETATM   21  N2  UNL     1     -19.597  69.627  32.858  1.00  0.00    -0.266 N 
HETATM   22  N3  UNL     1     -20.362  70.282  33.723  1.00  0.00    -0.286 N 
HETATM   23  C19 UNL     1     -19.730  71.308  34.285  1.00  0.00     0.104 A 
ATOM     24  H3  UNL     1     -21.327  70.027  33.932  1.00  0.00     0.188 HD
HETATM   25 BR1  UNL     1     -20.423  72.537  35.597  1.00  0.00    -0.029 Br
BRANCH  21  26
HETATM   26  C13 UNL     1     -19.984  68.485  32.114  1.00  0.00     0.057 A 
HETATM   27  C14 UNL     1     -19.071  67.509  31.786  1.00  0.00     0.033 A 
HETATM   28  C15 UNL     1     -19.419  66.384  31.073  1.00  0.00     0.028 A 
HETATM   29  C16 UNL     1     -20.738  66.220  30.667  1.00  0.00     0.055 A 
HETATM   30 CL1  UNL     1     -21.196  64.781  29.750  1.00  0.00    -0.083 Cl
HETATM   31  C17 UNL     1     -21.664  67.178  30.979  1.00  0.00     0.058 A 
HETATM   32 CL2  UNL     1     -23.316  66.951  30.458  1.00  0.00    -0.082 Cl
HETATM   33  C18 UNL     1     -21.285  68.313  31.706  1.00  0.00     0.057 A 
ENDBRANCH  21  26
ENDBRANCH   1  19
TORSDOF 9
ENDMDL
MODEL 4
REMARK VINA RESULT: -8.193863866      0.900      1.467
REMARK  9 active torsions:
REMARK  status: ('A' for Active; 'I' for Inactive)
REMARK    1  A    between atoms: C2_2  and  O1_3 
REMARK    2  A    between atoms: O1_3  and  C3_4 
REMARK    3  A    between atoms: C3_4  and  C4_6 
REMARK    4  A    between atoms: N1_8  and  C6_9 
REMARK    5  A    between atoms: C6_9  and  C7_10 
REMARK    6  A    between atoms: C6_9  and  C11_14 
REMARK    7  A    between atoms: C7_10  and  C8_11 
REMARK    8  A    between atoms: N2_16  and  C13_17 
REMARK    9  A    between atoms: C22_31  and  C23_32 
ROOT
HETATM    1  C6  UNL     1     -18.230  73.774  35.601  1.00  0.00     0.260 C 
ENDROOT
BRANCH   1   2
HETATM    2  N1  UNL     1     -19.038  74.507  34.651  1.00  0.00     0.098 N 
HETATM    3  C5  UNL     1     -18.361  75.452  33.871  1.00  0.00     0.288 C 
HETATM    4  C4  UNL     1     -18.955  76.834  33.895  1.00  0.00     0.118 C 
HETATM    5  C22 UNL     1     -20.418  76.939  33.776  1.00  0.00     0.002 C 
HETATM    6  C21 UNL     1     -21.147  75.785  34.449  1.00  0.00     0.036 C 
HETATM    7  C20 UNL     1     -20.256  74.923  35.269  1.00  0.00     0.273 C 
BRANCH   4   8
HETATM    8  C3  UNL     1     -18.225  77.693  32.951  1.00  0.00     0.265 C 
HETATM    9  O2  UNL     1     -17.660  77.222  31.903  1.00  0.00    -0.265 OA
BRANCH   8  10
HETATM   10  O1  UNL     1     -18.101  79.036  33.134  1.00  0.00    -0.322 OA
BRANCH  10  11
HETATM   11  C2  UNL     1     -18.432  80.015  32.168  1.00  0.00     0.174 C 
HETATM   12  C1  UNL     1     -19.818  80.589  32.362  1.00  0.00     0.034 C 
ENDBRANCH  10  11
ENDBRANCH   8  10
ENDBRANCH   4   8
BRANCH   5  13
HETATM   13  C23 UNL     1     -21.032  77.144  32.443  1.00  0.00     0.001 C 
HETATM   14  C24 UNL     1     -22.472  76.886  32.267  1.00  0.00     0.005 C 
ENDBRANCH   5  13
ENDBRANCH   1   2
BRANCH   1  15
HETATM   15  C7  UNL     1     -16.969  74.455  35.970  1.00  0.00     0.044 C 
BRANCH  15  16
HETATM   16  C8  UNL     1     -17.040  75.201  37.285  1.00  0.00    -0.020 C 
HETATM   17  C9  UNL     1     -18.273  74.771  38.074  1.00  0.00     0.009 C 
HETATM   18  C10 UNL     1     -17.175  76.697  37.056  1.00  0.00     0.009 C 
ENDBRANCH  15  16
ENDBRANCH   1  15
BRANCH   1  19
HETATM   19  C11 UNL     1     -18.085  72.418  35.027  1.00  0.00     0.028 A 
HETATM   20  C12 UNL     1     -18.842  71.659  34.198  1.00  0.00     0.129 A 
HETATM   21  N2  UNL     1     -18.260  70.462  33.988  1.00  0.00    -0.266 N 
HETATM   22  N3  UNL     1     -17.138  70.487  34.696  1.00  0.00    -0.286 N 
HETATM   23  C19 UNL     1     -16.972  71.635  35.345  1.00  0.00     0.104 A 
ATOM     24  H3  UNL     1     -16.477  69.711  34.737  1.00  0.00     0.188 HD
HETATM   25 BR1  UNL     1     -15.502  72.136  36.486  1.00  0.00    -0.029 Br
BRANCH  21  26
HETATM   26  C13 UNL     1     -18.704  69.385  33.182  1.00  0.00     0.057 A 
HETATM   27  C14 UNL     1     -17.850  68.367  32.825  1.00  0.00     0.033 A 
HETATM   28  C15 UNL     1     -18.255  67.302  32.051  1.00  0.00     0.028 A 
HETATM   29  C16 UNL     1     -19.572  67.246  31.611  1.00  0.00     0.055 A 
HETATM   30 CL1  UNL     1     -20.102  65.885  30.617  1.00  0.00    -0.083 Cl
HETATM   31  C17 UNL     1     -20.441  68.248  31.951  1.00  0.00     0.058 A 
HETATM   32 CL2  UNL     1     -22.091  68.157  31.387  1.00  0.00    -0.082 Cl
HETATM   33  C18 UNL     1     -20.004  69.320  32.740  1.00  0.00     0.057 A 
ENDBRANCH  21  26
ENDBRANCH   1  19
TORSDOF 9
ENDMDL
MODEL 5
REMARK VINA RESULT: -8.134203162      4.296      7.653
REMARK  9 active torsions:
REMARK  status: ('A' for Active; 'I' for Inactive)
REMARK    1  A    between atoms: C2_2  and  O1_3 
REMARK    2  A    between atoms: O1_3  and  C3_4 
REMARK    3  A    between atoms: C3_4  and  C4_6 
REMARK    4  A    between atoms: N1_8  and  C6_9 
REMARK    5  A    between atoms: C6_9  and  C7_10 
REMARK    6  A    between atoms: C6_9  and  C11_14 
REMARK    7  A    between atoms: C7_10  and  C8_11 
REMARK    8  A    between atoms: N2_16  and  C13_17 
REMARK    9  A    between atoms: C22_31  and  C23_32 
ROOT
HETATM    1  C6  UNL     1     -20.093  71.320  33.824  1.00  0.00     0.260 C 
ENDROOT
BRANCH   1   2
HETATM    2  N1  UNL     1     -18.908  71.455  34.642  1.00  0.00     0.098 N 
HETATM    3  C5  UNL     1     -18.955  72.445  35.632  1.00  0.00     0.288 C 
HETATM    4  C4  UNL     1     -17.809  73.418  35.607  1.00  0.00     0.118 C 
HETATM    5  C22 UNL     1     -16.459  72.863  35.419  1.00  0.00     0.002 C 
HETATM    6  C21 UNL     1     -16.445  71.648  34.503  1.00  0.00     0.036 C 
HETATM    7  C20 UNL     1     -17.742  71.412  33.818  1.00  0.00     0.273 C 
BRANCH   4   8
HETATM    8  C3  UNL     1     -17.917  74.325  36.759  1.00  0.00     0.265 C 
HETATM    9  O2  UNL     1     -18.724  74.098  37.727  1.00  0.00    -0.265 OA
BRANCH   8  10
HETATM   10  O1  UNL     1     -17.173  75.460  36.867  1.00  0.00    -0.322 OA
BRANCH  10  11
HETATM   11  C2  UNL     1     -17.683  76.774  36.755  1.00  0.00     0.174 C 
HETATM   12  C1  UNL     1     -18.040  77.149  35.333  1.00  0.00     0.034 C 
ENDBRANCH  10  11
ENDBRANCH   8  10
ENDBRANCH   4   8
BRANCH   5  13
HETATM   13  C23 UNL     1     -15.626  72.547  36.603  1.00  0.00     0.001 C 
HETATM   14  C24 UNL     1     -14.654  71.441  36.523  1.00  0.00     0.005 C 
ENDBRANCH   5  13
ENDBRANCH   1   2
BRANCH   1  15
HETATM   15  C7  UNL     1     -19.889  70.520  32.597  1.00  0.00     0.044 C 
BRANCH  15  16
HETATM   16  C8  UNL     1     -20.405  69.101  32.699  1.00  0.00    -0.020 C 
HETATM   17  C9  UNL     1     -19.374  68.120  32.151  1.00  0.00     0.009 C 
HETATM   18  C10 UNL     1     -21.662  68.918  31.865  1.00  0.00     0.009 C 
ENDBRANCH  15  16
ENDBRANCH   1  15
BRANCH   1  19
HETATM   19  C11 UNL     1     -20.585  72.701  33.619  1.00  0.00     0.028 A 
HETATM   20  C12 UNL     1     -19.994  73.872  33.283  1.00  0.00     0.129 A 
HETATM   21  N2  UNL     1     -20.902  74.867  33.242  1.00  0.00    -0.266 N 
HETATM   22  N3  UNL     1     -22.060  74.300  33.559  1.00  0.00    -0.286 N 
HETATM   23  C19 UNL     1     -21.939  72.998  33.798  1.00  0.00     0.104 A 
ATOM     24  H3  UNL     1     -22.943  74.808  33.614  1.00  0.00     0.188 HD
HETATM   25 BR1  UNL     1     -23.334  71.760  34.283  1.00  0.00    -0.029 Br
BRANCH  21  26
HETATM   26  C13 UNL     1     -20.713  76.234  32.922  1.00  0.00     0.057 A 
HETATM   27  C14 UNL     1     -19.754  76.624  32.016  1.00  0.00     0.033 A 
HETATM   28  C15 UNL     1     -19.553  77.944  31.677  1.00  0.00     0.028 A 
HETATM   29  C16 UNL     1     -20.344  78.923  32.267  1.00  0.00     0.055 A 
HETATM   30 CL1  UNL     1     -20.095  80.620  31.841  1.00  0.00    -0.083 Cl
HETATM   31  C17 UNL     1     -21.304  78.560  33.173  1.00  0.00     0.058 A 
HETATM   32 CL2  UNL     1     -22.287  79.807  33.901  1.00  0.00    -0.082 Cl
HETATM   33  C18 UNL     1     -21.489  77.211  33.500  1.00  0.00     0.057 A 
ENDBRANCH  21  26
ENDBRANCH   1  19
TORSDOF 9
ENDMDL
