MODEL 1
REMARK VINA RESULT: -6.652565214      0.000      0.000
REMARK  10 active torsions:
REMARK  status: ('A' for Active; 'I' for Inactive)
REMARK    1  A    between atoms: C10_10  and  O1_11 
REMARK    2  A    between atoms: O1_11  and  C11_12 
REMARK    3  A    between atoms: C22_26  and  C23_27 
REMARK       I    between atoms: C23_27  and  N1_29 
REMARK    4  A    between atoms: N1_29  and  C24_31 
REMARK    5  A    between atoms: C24_31  and  C25_32 
REMARK    6  A    between atoms: C25_32  and  C26_33 
REMARK    7  A    between atoms: C26_33  and  N2_34 
REMARK    8  A    between atoms: C29_37  and  C30_38 
REMARK    9  A    between atoms: C30_38  and  O6_39 
REMARK   10  A    between atoms: N3_41  and  O7_43 
ROOT
HETATM    1  C1  UNL     1      52.237   5.766   0.586  1.00  0.00     0.015 C 
HETATM    2  C2  UNL     1      52.061   6.808   1.675  1.00  0.00     0.020 C 
HETATM    3  C3  UNL     1      51.032   7.820   1.375  1.00  0.00     0.015 C 
HETATM    4  C4  UNL     1      49.692   7.135   1.081  1.00  0.00     0.004 C 
HETATM    5  C5  UNL     1      48.812   8.135   0.453  1.00  0.00    -0.003 C 
HETATM    6  C6  UNL     1      48.230   7.747  -0.892  1.00  0.00     0.006 C 
HETATM    7  C7  UNL     1      46.844   8.259  -1.107  1.00  0.00     0.008 C 
HETATM    8  C8  UNL     1      46.556   9.622  -0.596  1.00  0.00     0.025 C 
HETATM    9  C9  UNL     1      46.950  10.753  -1.472  1.00  0.00     0.068 C 
HETATM   10  C10 UNL     1      48.087  11.422  -0.747  1.00  0.00     0.266 C 
HETATM   11  O4  UNL     1      48.297  10.779   0.433  1.00  0.00    -0.350 OA
HETATM   12  C15 UNL     1      47.230   9.957   0.720  1.00  0.00     0.068 C 
HETATM   13  C16 UNL     1      46.307  10.677   1.660  1.00  0.00     0.047 C 
HETATM   14  C17 UNL     1      47.657   8.620   1.287  1.00  0.00     0.025 C 
HETATM   15  C18 UNL     1      48.115   8.652   2.702  1.00  0.00     0.009 C 
HETATM   16  C19 UNL     1      48.293   7.213   3.135  1.00  0.00     0.015 C 
HETATM   17  C20 UNL     1      49.196   6.389   2.264  1.00  0.00    -0.007 C 
HETATM   18  C21 UNL     1      48.513   5.128   1.725  1.00  0.00     0.021 C 
HETATM   19  C22 UNL     1      50.321   5.884   3.142  1.00  0.00     0.029 C 
HETATM   20  C29 UNL     1      51.591   6.052   2.935  1.00  0.00     0.011 C 
ENDROOT
BRANCH  19  21
HETATM   21  C23 UNL     1      49.906   4.928   4.198  1.00  0.00     0.249 C 
HETATM   22  O5  UNL     1      49.635   5.408   5.349  1.00  0.00    -0.268 OA
HETATM   23  N1  UNL     1      49.775   3.539   4.079  1.00  0.00    -0.357 N 
ATOM     24  H1  UNL     1      49.986   3.066   3.200  1.00  0.00     0.162 HD
BRANCH  23  25
HETATM   25  C24 UNL     1      49.318   2.765   5.274  1.00  0.00     0.124 C 
BRANCH  25  26
HETATM   26  C25 UNL     1      50.078   1.520   5.491  1.00  0.00     0.050 C 
BRANCH  26  27
HETATM   27  C26 UNL     1      51.114   1.639   6.555  1.00  0.00     0.273 C 
BRANCH  27  28
HETATM   28  N2  UNL     1      52.326   2.320   6.273  1.00  0.00     0.080 N 
HETATM   29  C27 UNL     1      52.298   3.538   7.156  1.00  0.00     0.309 C 
HETATM   30  C28 UNL     1      53.542   1.654   6.711  1.00  0.00     0.309 C 
ENDBRANCH  27  28
ENDBRANCH  26  27
ENDBRANCH  25  26
ENDBRANCH  23  25
ENDBRANCH  19  21
BRANCH  20  31
HETATM   31  C30 UNL     1      52.680   5.774   3.854  1.00  0.00     0.167 C 
HETATM   32  N3  UNL     1      53.349   4.637   3.588  1.00  0.00    -0.247 N 
ATOM     33  H3  UNL     1      53.057   4.072   2.791  1.00  0.00     0.196 HD
BRANCH  31  34
HETATM   34  O6  UNL     1      53.166   6.422   4.933  1.00  0.00    -0.344 OA
ATOM     35  H6  UNL     1      53.497   6.127   5.773  1.00  0.00     0.219 HD
ENDBRANCH  31  34
BRANCH  32  36
HETATM   36  O7  UNL     1      54.393   4.216   4.335  1.00  0.00    -0.288 OA
ATOM     37  H7  UNL     1      55.297   4.338   4.068  1.00  0.00     0.244 HD
ENDBRANCH  32  36
ENDBRANCH  20  31
BRANCH  10  38
HETATM   38  O1  UNL     1      49.224  11.347  -1.570  1.00  0.00    -0.308 OA
BRANCH  38  39
HETATM   39  C11 UNL     1      50.375  11.111  -0.844  1.00  0.00     0.415 C 
HETATM   40  O2  UNL     1      51.056  12.326  -0.767  1.00  0.00    -0.339 OA
HETATM   41  C12 UNL     1      52.405  12.159  -0.455  1.00  0.00     0.175 C 
HETATM   42  C13 UNL     1      53.103  11.343  -1.514  1.00  0.00     0.053 C 
HETATM   43  C14 UNL     1      52.088  10.519  -2.266  1.00  0.00     0.175 C 
HETATM   44  O3  UNL     1      51.101  10.092  -1.412  1.00  0.00    -0.339 OA
ENDBRANCH  38  39
ENDBRANCH  10  38
TORSDOF 10
ENDMDL
MODEL 2
REMARK VINA RESULT: -6.252796134      4.588      9.342
REMARK  10 active torsions:
REMARK  status: ('A' for Active; 'I' for Inactive)
REMARK    1  A    between atoms: C10_10  and  O1_11 
REMARK    2  A    between atoms: O1_11  and  C11_12 
REMARK    3  A    between atoms: C22_26  and  C23_27 
REMARK       I    between atoms: C23_27  and  N1_29 
REMARK    4  A    between atoms: N1_29  and  C24_31 
REMARK    5  A    between atoms: C24_31  and  C25_32 
REMARK    6  A    between atoms: C25_32  and  C26_33 
REMARK    7  A    between atoms: C26_33  and  N2_34 
REMARK    8  A    between atoms: C29_37  and  C30_38 
REMARK    9  A    between atoms: C30_38  and  O6_39 
REMARK   10  A    between atoms: N3_41  and  O7_43 
ROOT
HETATM    1  C1  UNL     1      47.025   9.130  -3.206  1.00  0.00     0.015 C 
HETATM    2  C2  UNL     1      46.142   8.664  -2.065  1.00  0.00     0.020 C 
HETATM    3  C3  UNL     1      46.880   8.038  -0.952  1.00  0.00     0.015 C 
HETATM    4  C4  UNL     1      47.953   9.000  -0.428  1.00  0.00     0.004 C 
HETATM    5  C5  UNL     1      48.875   8.220   0.414  1.00  0.00    -0.003 C 
HETATM    6  C6  UNL     1      50.339   8.294   0.032  1.00  0.00     0.006 C 
HETATM    7  C7  UNL     1      51.261   8.259   1.205  1.00  0.00     0.008 C 
HETATM    8  C8  UNL     1      50.882   7.350   2.317  1.00  0.00     0.025 C 
HETATM    9  C9  UNL     1      51.262   5.925   2.163  1.00  0.00     0.068 C 
HETATM   10  C10 UNL     1      49.957   5.196   1.982  1.00  0.00     0.266 C 
HETATM   11  O4  UNL     1      48.936   6.093   2.065  1.00  0.00    -0.350 OA
HETATM   12  C15 UNL     1      49.392   7.280   2.592  1.00  0.00     0.068 C 
HETATM   13  C16 UNL     1      49.089   7.303   4.062  1.00  0.00     0.047 C 
HETATM   14  C17 UNL     1      48.812   8.491   1.895  1.00  0.00     0.025 C 
HETATM   15  C18 UNL     1      47.395   8.794   2.230  1.00  0.00     0.009 C 
HETATM   16  C19 UNL     1      47.076  10.135   1.603  1.00  0.00     0.015 C 
HETATM   17  C20 UNL     1      47.345  10.233   0.130  1.00  0.00    -0.007 C 
HETATM   18  C21 UNL     1      48.294  11.383  -0.225  1.00  0.00     0.021 C 
HETATM   19  C22 UNL     1      46.033  10.585  -0.538  1.00  0.00     0.029 C 
HETATM   20  C29 UNL     1      45.457   9.923  -1.495  1.00  0.00     0.011 C 
ENDROOT
BRANCH  19  21
HETATM   21  C23 UNL     1      45.502  11.928  -0.201  1.00  0.00     0.249 C 
HETATM   22  O5  UNL     1      45.557  12.824  -1.108  1.00  0.00    -0.268 OA
HETATM   23  N1  UNL     1      44.937  12.336   1.014  1.00  0.00    -0.357 N 
ATOM     24  H1  UNL     1      44.867  11.690   1.801  1.00  0.00     0.162 HD
BRANCH  23  25
HETATM   25  C24 UNL     1      44.441  13.741   1.130  1.00  0.00     0.124 C 
BRANCH  25  26
HETATM   26  C25 UNL     1      45.094  14.506   2.208  1.00  0.00     0.050 C 
BRANCH  26  27
HETATM   27  C26 UNL     1      44.774  15.960   2.178  1.00  0.00     0.273 C 
BRANCH  27  28
HETATM   28  N2  UNL     1      45.386  16.828   3.118  1.00  0.00     0.080 N 
HETATM   29  C27 UNL     1      44.856  16.385   4.454  1.00  0.00     0.309 C 
HETATM   30  C28 UNL     1      46.820  16.666   3.288  1.00  0.00     0.309 C 
ENDBRANCH  27  28
ENDBRANCH  26  27
ENDBRANCH  25  26
ENDBRANCH  23  25
ENDBRANCH  19  21
BRANCH  20  31
HETATM   31  C30 UNL     1      44.111  10.103  -2.008  1.00  0.00     0.167 C 
HETATM   32  N3  UNL     1      43.299   9.049  -1.811  1.00  0.00    -0.247 N 
ATOM     33  H3  UNL     1      43.671   8.227  -1.335  1.00  0.00     0.196 HD
BRANCH  31  34
HETATM   34  O6  UNL     1      43.497  11.118  -2.651  1.00  0.00    -0.344 OA
ATOM     35  H6  UNL     1      42.599  11.264  -2.926  1.00  0.00     0.219 HD
ENDBRANCH  31  34
BRANCH  32  36
HETATM   36  O7  UNL     1      42.012   9.035  -2.220  1.00  0.00    -0.288 OA
ATOM     37  H7  UNL     1      41.297   8.770  -1.653  1.00  0.00     0.244 HD
ENDBRANCH  32  36
ENDBRANCH  20  31
BRANCH  10  38
HETATM   38  O1  UNL     1      49.981   4.579   0.720  1.00  0.00    -0.308 OA
BRANCH  38  39
HETATM   39  C11 UNL     1      48.716   4.236   0.286  1.00  0.00     0.415 C 
HETATM   40  O2  UNL     1      48.551   2.879   0.564  1.00  0.00    -0.339 OA
HETATM   41  C12 UNL     1      47.529   2.304  -0.191  1.00  0.00     0.175 C 
HETATM   42  C13 UNL     1      47.828   2.405  -1.665  1.00  0.00     0.053 C 
HETATM   43  C14 UNL     1      48.808   3.527  -1.905  1.00  0.00     0.175 C 
HETATM   44  O3  UNL     1      48.558   4.564  -1.040  1.00  0.00    -0.339 OA
ENDBRANCH  38  39
ENDBRANCH  10  38
TORSDOF 10
ENDMDL
MODEL 3
REMARK VINA RESULT: -6.240766293      1.113      2.002
REMARK  10 active torsions:
REMARK  status: ('A' for Active; 'I' for Inactive)
REMARK    1  A    between atoms: C10_10  and  O1_11 
REMARK    2  A    between atoms: O1_11  and  C11_12 
REMARK    3  A    between atoms: C22_26  and  C23_27 
REMARK       I    between atoms: C23_27  and  N1_29 
REMARK    4  A    between atoms: N1_29  and  C24_31 
REMARK    5  A    between atoms: C24_31  and  C25_32 
REMARK    6  A    between atoms: C25_32  and  C26_33 
REMARK    7  A    between atoms: C26_33  and  N2_34 
REMARK    8  A    between atoms: C29_37  and  C30_38 
REMARK    9  A    between atoms: C30_38  and  O6_39 
REMARK   10  A    between atoms: N3_41  and  O7_43 
ROOT
HETATM    1  C1  UNL     1      52.364   5.496   0.776  1.00  0.00     0.015 C 
HETATM    2  C2  UNL     1      52.237   6.556   1.854  1.00  0.00     0.020 C 
HETATM    3  C3  UNL     1      51.217   7.582   1.569  1.00  0.00     0.015 C 
HETATM    4  C4  UNL     1      49.858   6.915   1.323  1.00  0.00     0.004 C 
HETATM    5  C5  UNL     1      48.976   7.920   0.706  1.00  0.00    -0.003 C 
HETATM    6  C6  UNL     1      48.350   7.523  -0.616  1.00  0.00     0.006 C 
HETATM    7  C7  UNL     1      46.967   8.055  -0.799  1.00  0.00     0.008 C 
HETATM    8  C8  UNL     1      46.716   9.431  -0.301  1.00  0.00     0.025 C 
HETATM    9  C9  UNL     1      47.103  10.542  -1.205  1.00  0.00     0.068 C 
HETATM   10  C10 UNL     1      48.272  11.202  -0.523  1.00  0.00     0.266 C 
HETATM   11  O4  UNL     1      48.506  10.572   0.661  1.00  0.00    -0.350 OA
HETATM   12  C15 UNL     1      47.434   9.773   0.991  1.00  0.00     0.068 C 
HETATM   13  C16 UNL     1      46.550  10.523   1.946  1.00  0.00     0.047 C 
HETATM   14  C17 UNL     1      47.854   8.438   1.566  1.00  0.00     0.025 C 
HETATM   15  C18 UNL     1      48.353   8.483   2.966  1.00  0.00     0.009 C 
HETATM   16  C19 UNL     1      48.520   7.047   3.415  1.00  0.00     0.015 C 
HETATM   17  C20 UNL     1      49.384   6.195   2.531  1.00  0.00    -0.007 C 
HETATM   18  C21 UNL     1      48.664   4.939   2.031  1.00  0.00     0.021 C 
HETATM   19  C22 UNL     1      50.525   5.683   3.384  1.00  0.00     0.029 C 
HETATM   20  C29 UNL     1      51.791   5.827   3.138  1.00  0.00     0.011 C 
ENDROOT
BRANCH  19  21
HETATM   21  C23 UNL     1      50.125   4.751   4.466  1.00  0.00     0.249 C 
HETATM   22  O5  UNL     1      49.809   5.261   5.592  1.00  0.00    -0.268 OA
HETATM   23  N1  UNL     1      50.052   3.353   4.396  1.00  0.00    -0.357 N 
ATOM     24  H1  UNL     1      50.302   2.859   3.540  1.00  0.00     0.162 HD
BRANCH  23  25
HETATM   25  C24 UNL     1      49.600   2.606   5.609  1.00  0.00     0.124 C 
BRANCH  25  26
HETATM   26  C25 UNL     1      48.991   1.300   5.298  1.00  0.00     0.050 C 
BRANCH  26  27
HETATM   27  C26 UNL     1      48.990   0.980   3.843  1.00  0.00     0.273 C 
BRANCH  27  28
HETATM   28  N2  UNL     1      47.768   0.647   3.203  1.00  0.00     0.080 N 
HETATM   29  C27 UNL     1      47.023  -0.190   4.207  1.00  0.00     0.309 C 
HETATM   30  C28 UNL     1      46.849   1.751   2.983  1.00  0.00     0.309 C 
ENDBRANCH  27  28
ENDBRANCH  26  27
ENDBRANCH  25  26
ENDBRANCH  23  25
ENDBRANCH  19  21
BRANCH  20  31
HETATM   31  C30 UNL     1      52.901   5.543   4.030  1.00  0.00     0.167 C 
HETATM   32  N3  UNL     1      53.554   4.401   3.752  1.00  0.00    -0.247 N 
ATOM     33  H3  UNL     1      53.236   3.834   2.965  1.00  0.00     0.196 HD
BRANCH  31  34
HETATM   34  O6  UNL     1      53.420   6.192   5.093  1.00  0.00    -0.344 OA
ATOM     35  H6  UNL     1      53.074   6.418   5.948  1.00  0.00     0.219 HD
ENDBRANCH  31  34
BRANCH  32  36
HETATM   36  O7  UNL     1      54.614   3.973   4.473  1.00  0.00    -0.288 OA
ATOM     37  H7  UNL     1      54.747   3.060   4.695  1.00  0.00     0.244 HD
ENDBRANCH  32  36
ENDBRANCH  20  31
BRANCH  10  38
HETATM   38  O1  UNL     1      49.384  11.095  -1.376  1.00  0.00    -0.308 OA
BRANCH  38  39
HETATM   39  C11 UNL     1      50.566  10.964  -0.674  1.00  0.00     0.415 C 
HETATM   40  O2  UNL     1      51.209  12.201  -0.740  1.00  0.00    -0.339 OA
HETATM   41  C12 UNL     1      52.573  12.103  -0.464  1.00  0.00     0.175 C 
HETATM   42  C13 UNL     1      53.260  11.209  -1.466  1.00  0.00     0.053 C 
HETATM   43  C14 UNL     1      52.247  10.287  -2.097  1.00  0.00     0.175 C 
HETATM   44  O3  UNL     1      51.304   9.916  -1.169  1.00  0.00    -0.339 OA
ENDBRANCH  38  39
ENDBRANCH  10  38
TORSDOF 10
ENDMDL
MODEL 4
REMARK VINA RESULT: -6.226053960      5.419     10.685
REMARK  10 active torsions:
REMARK  status: ('A' for Active; 'I' for Inactive)
REMARK    1  A    between atoms: C10_10  and  O1_11 
REMARK    2  A    between atoms: O1_11  and  C11_12 
REMARK    3  A    between atoms: C22_26  and  C23_27 
REMARK       I    between atoms: C23_27  and  N1_29 
REMARK    4  A    between atoms: N1_29  and  C24_31 
REMARK    5  A    between atoms: C24_31  and  C25_32 
REMARK    6  A    between atoms: C25_32  and  C26_33 
REMARK    7  A    between atoms: C26_33  and  N2_34 
REMARK    8  A    between atoms: C29_37  and  C30_38 
REMARK    9  A    between atoms: C30_38  and  O6_39 
REMARK   10  A    between atoms: N3_41  and  O7_43 
ROOT
HETATM    1  C1  UNL     1      44.495  11.248   1.728  1.00  0.00     0.015 C 
HETATM    2  C2  UNL     1      45.582  12.274   1.467  1.00  0.00     0.020 C 
HETATM    3  C3  UNL     1      46.860  11.693   1.019  1.00  0.00     0.015 C 
HETATM    4  C4  UNL     1      46.635  10.835  -0.232  1.00  0.00     0.004 C 
HETATM    5  C5  UNL     1      47.840  10.010  -0.426  1.00  0.00    -0.003 C 
HETATM    6  C6  UNL     1      47.606   8.515  -0.511  1.00  0.00     0.006 C 
HETATM    7  C7  UNL     1      48.531   7.824  -1.458  1.00  0.00     0.008 C 
HETATM    8  C8  UNL     1      49.934   8.307  -1.483  1.00  0.00     0.025 C 
HETATM    9  C9  UNL     1      50.838   7.765  -0.439  1.00  0.00     0.068 C 
HETATM   10  C10 UNL     1      51.131   8.936   0.461  1.00  0.00     0.266 C 
HETATM   11  O4  UNL     1      50.504  10.039  -0.032  1.00  0.00    -0.350 OA
HETATM   12  C15 UNL     1      50.086   9.808  -1.324  1.00  0.00     0.068 C 
HETATM   13  C16 UNL     1      51.105  10.375  -2.269  1.00  0.00     0.047 C 
HETATM   14  C17 UNL     1      48.709  10.368  -1.602  1.00  0.00     0.025 C 
HETATM   15  C18 UNL     1      48.649  11.845  -1.764  1.00  0.00     0.009 C 
HETATM   16  C19 UNL     1      47.249  12.176  -2.235  1.00  0.00     0.015 C 
HETATM   17  C20 UNL     1      46.141  11.654  -1.366  1.00  0.00    -0.007 C 
HETATM   18  C21 UNL     1      45.149  10.775  -2.135  1.00  0.00     0.021 C 
HETATM   19  C22 UNL     1      45.335  12.851  -0.908  1.00  0.00     0.029 C 
HETATM   20  C29 UNL     1      45.073  13.173   0.322  1.00  0.00     0.011 C 
ENDROOT
BRANCH  19  21
HETATM   21  C23 UNL     1      44.610  13.565  -1.986  1.00  0.00     0.249 C 
HETATM   22  O5  UNL     1      43.517  13.052  -2.398  1.00  0.00    -0.268 OA
HETATM   23  N1  UNL     1      44.991  14.757  -2.617  1.00  0.00    -0.357 N 
ATOM     24  H1  UNL     1      45.858  15.230  -2.363  1.00  0.00     0.162 HD
BRANCH  23  25
HETATM   25  C24 UNL     1      44.093  15.318  -3.672  1.00  0.00     0.124 C 
BRANCH  25  26
HETATM   26  C25 UNL     1      43.523  16.631  -3.318  1.00  0.00     0.050 C 
BRANCH  26  27
HETATM   27  C26 UNL     1      44.474  17.507  -2.578  1.00  0.00     0.273 C 
BRANCH  27  28
HETATM   28  N2  UNL     1      44.992  18.665  -3.213  1.00  0.00     0.080 N 
HETATM   29  C27 UNL     1      46.417  18.317  -3.546  1.00  0.00     0.309 C 
HETATM   30  C28 UNL     1      44.438  18.971  -4.521  1.00  0.00     0.309 C 
ENDBRANCH  27  28
ENDBRANCH  26  27
ENDBRANCH  25  26
ENDBRANCH  23  25
ENDBRANCH  19  21
BRANCH  20  31
HETATM   31  C30 UNL     1      44.495  14.414   0.805  1.00  0.00     0.167 C 
HETATM   32  N3  UNL     1      44.679  14.634   2.119  1.00  0.00    -0.247 N 
ATOM     33  H3  UNL     1      45.191  13.941   2.665  1.00  0.00     0.196 HD
BRANCH  31  34
HETATM   34  O6  UNL     1      43.801  15.404   0.206  1.00  0.00    -0.344 OA
ATOM     35  H6  UNL     1      43.188  16.055   0.528  1.00  0.00     0.219 HD
ENDBRANCH  31  34
BRANCH  32  36
HETATM   36  O7  UNL     1      44.212  15.736   2.746  1.00  0.00    -0.288 OA
ATOM     37  H7  UNL     1      44.776  16.453   3.011  1.00  0.00     0.244 HD
ENDBRANCH  32  36
ENDBRANCH  20  31
BRANCH  10  38
HETATM   38  O1  UNL     1      50.657   8.621   1.745  1.00  0.00    -0.308 OA
BRANCH  38  39
HETATM   39  C11 UNL     1      50.843   7.288   2.054  1.00  0.00     0.415 C 
HETATM   40  O2  UNL     1      49.707   6.876   2.751  1.00  0.00    -0.339 OA
HETATM   41  C12 UNL     1      49.932   5.714   3.490  1.00  0.00     0.175 C 
HETATM   42  C13 UNL     1      51.011   5.934   4.520  1.00  0.00     0.053 C 
HETATM   43  C14 UNL     1      51.874   7.099   4.106  1.00  0.00     0.175 C 
HETATM   44  O3  UNL     1      52.021   7.114   2.740  1.00  0.00    -0.339 OA
ENDBRANCH  38  39
ENDBRANCH  10  38
TORSDOF 10
ENDMDL
MODEL 5
REMARK VINA RESULT: -6.211596372      5.408     10.684
REMARK  10 active torsions:
REMARK  status: ('A' for Active; 'I' for Inactive)
REMARK    1  A    between atoms: C10_10  and  O1_11 
REMARK    2  A    between atoms: O1_11  and  C11_12 
REMARK    3  A    between atoms: C22_26  and  C23_27 
REMARK       I    between atoms: C23_27  and  N1_29 
REMARK    4  A    between atoms: N1_29  and  C24_31 
REMARK    5  A    between atoms: C24_31  and  C25_32 
REMARK    6  A    between atoms: C25_32  and  C26_33 
REMARK    7  A    between atoms: C26_33  and  N2_34 
REMARK    8  A    between atoms: C29_37  and  C30_38 
REMARK    9  A    between atoms: C30_38  and  O6_39 
REMARK   10  A    between atoms: N3_41  and  O7_43 
ROOT
HETATM    1  C1  UNL     1      44.449  11.397   1.825  1.00  0.00     0.015 C 
HETATM    2  C2  UNL     1      45.550  12.401   1.537  1.00  0.00     0.020 C 
HETATM    3  C3  UNL     1      46.804  11.793   1.057  1.00  0.00     0.015 C 
HETATM    4  C4  UNL     1      46.530  10.941  -0.189  1.00  0.00     0.004 C 
HETATM    5  C5  UNL     1      47.711  10.091  -0.412  1.00  0.00    -0.003 C 
HETATM    6  C6  UNL     1      47.445   8.602  -0.492  1.00  0.00     0.006 C 
HETATM    7  C7  UNL     1      48.330   7.892  -1.462  1.00  0.00     0.008 C 
HETATM    8  C8  UNL     1      49.742   8.346  -1.523  1.00  0.00     0.025 C 
HETATM    9  C9  UNL     1      50.661   7.784  -0.502  1.00  0.00     0.068 C 
HETATM   10  C10 UNL     1      51.001   8.949   0.391  1.00  0.00     0.266 C 
HETATM   11  O4  UNL     1      50.385  10.065  -0.086  1.00  0.00    -0.350 OA
HETATM   12  C15 UNL     1      49.930   9.843  -1.366  1.00  0.00     0.068 C 
HETATM   13  C16 UNL     1      50.937  10.389  -2.337  1.00  0.00     0.047 C 
HETATM   14  C17 UNL     1      48.558  10.432  -1.610  1.00  0.00     0.025 C 
HETATM   15  C18 UNL     1      48.525  11.910  -1.770  1.00  0.00     0.009 C 
HETATM   16  C19 UNL     1      47.120  12.271  -2.205  1.00  0.00     0.015 C 
HETATM   17  C20 UNL     1      46.024  11.771  -1.310  1.00  0.00    -0.007 C 
HETATM   18  C21 UNL     1      44.995  10.914  -2.053  1.00  0.00     0.021 C 
HETATM   19  C22 UNL     1      45.255  12.984  -0.831  1.00  0.00     0.029 C 
HETATM   20  C29 UNL     1      45.031  13.311   0.406  1.00  0.00     0.011 C 
ENDROOT
BRANCH  19  21
HETATM   21  C23 UNL     1      44.519  13.715  -1.891  1.00  0.00     0.249 C 
HETATM   22  O5  UNL     1      43.445  13.183  -2.331  1.00  0.00    -0.268 OA
HETATM   23  N1  UNL     1      44.868  14.939  -2.475  1.00  0.00    -0.357 N 
ATOM     24  H1  UNL     1      45.719  15.428  -2.196  1.00  0.00     0.162 HD
BRANCH  23  25
HETATM   25  C24 UNL     1      43.963  15.510  -3.518  1.00  0.00     0.124 C 
BRANCH  25  26
HETATM   26  C25 UNL     1      43.114  16.607  -3.020  1.00  0.00     0.050 C 
BRANCH  26  27
HETATM   27  C26 UNL     1      41.677  16.453  -3.383  1.00  0.00     0.273 C 
BRANCH  27  28
HETATM   28  N2  UNL     1      40.903  15.447  -2.751  1.00  0.00     0.080 N 
HETATM   29  C27 UNL     1      39.643  16.146  -2.317  1.00  0.00     0.309 C 
HETATM   30  C28 UNL     1      40.389  14.404  -3.623  1.00  0.00     0.309 C 
ENDBRANCH  27  28
ENDBRANCH  26  27
ENDBRANCH  25  26
ENDBRANCH  23  25
ENDBRANCH  19  21
BRANCH  20  31
HETATM   31  C30 UNL     1      44.491  14.563   0.903  1.00  0.00     0.167 C 
HETATM   32  N3  UNL     1      44.795  14.824   2.187  1.00  0.00    -0.247 N 
ATOM     33  H3  UNL     1      45.362  14.150   2.703  1.00  0.00     0.196 HD
BRANCH  31  34
HETATM   34  O6  UNL     1      43.737  15.531   0.343  1.00  0.00    -0.344 OA
ATOM     35  H6  UNL     1      43.512  16.415   0.608  1.00  0.00     0.219 HD
ENDBRANCH  31  34
BRANCH  32  36
HETATM   36  O7  UNL     1      44.381  15.943   2.822  1.00  0.00    -0.288 OA
ATOM     37  H7  UNL     1      43.990  15.926   3.687  1.00  0.00     0.244 HD
ENDBRANCH  32  36
ENDBRANCH  20  31
BRANCH  10  38
HETATM   38  O1  UNL     1      50.553   8.642   1.687  1.00  0.00    -0.308 OA
BRANCH  38  39
HETATM   39  C11 UNL     1      50.769   7.318   2.011  1.00  0.00     0.415 C 
HETATM   40  O2  UNL     1      49.653   6.895   2.734  1.00  0.00    -0.339 OA
HETATM   41  C12 UNL     1      49.913   5.748   3.485  1.00  0.00     0.175 C 
HETATM   42  C13 UNL     1      51.006   6.002   4.492  1.00  0.00     0.053 C 
HETATM   43  C14 UNL     1      51.840   7.176   4.046  1.00  0.00     0.175 C 
HETATM   44  O3  UNL     1      51.962   7.175   2.677  1.00  0.00    -0.339 OA
ENDBRANCH  38  39
ENDBRANCH  10  38
TORSDOF 10
ENDMDL
