MODEL 1
REMARK VINA RESULT: -5.894926201      0.000      0.000
REMARK  3 active torsions:
REMARK  status: ('A' for Active; 'I' for Inactive)
REMARK    1  A    between atoms: N1_1  and  N2_4 
REMARK       I    between atoms: N2_4  and  C1_5 
REMARK    2  A    between atoms: C1_5  and  C2_7 
REMARK    3  A    between atoms: N3_11  and  N4_12 
ROOT
HETATM    1  C2  UNL     1       3.671 100.992   5.826  1.00  0.00     0.126 A 
HETATM    2  C3  UNL     1       2.987 102.056   5.325  1.00  0.00     0.113 A 
HETATM    3  C4  UNL     1       1.637 101.972   5.069  1.00  0.00     0.272 A 
HETATM    4  O2  UNL     1       0.994 102.957   4.604  1.00  0.00    -0.266 OA
HETATM    5  N3  UNL     1       0.957 100.822   5.310  1.00  0.00    -0.175 N 
HETATM    6  C5  UNL     1       1.668  99.788   5.806  1.00  0.00     0.348 A 
HETATM    7  O3  UNL     1       1.082  98.702   6.046  1.00  0.00    -0.245 OA
HETATM    8  N5  UNL     1       3.005  99.863   6.064  1.00  0.00    -0.301 N 
ATOM      9  H5  UNL     1       3.496  99.052   6.439  1.00  0.00     0.171 HD
ENDROOT
BRANCH   1  10
HETATM   10  C1  UNL     1       5.119 101.014   6.139  1.00  0.00     0.361 C 
HETATM   11  N2  UNL     1       5.732 102.149   6.596  1.00  0.00    -0.287 NA
HETATM   12  O1  UNL     1       5.657  99.896   5.931  1.00  0.00    -0.247 OA
BRANCH  11  13
HETATM   13  N1  UNL     1       6.316 103.234   7.031  1.00  0.00    -0.276 N 
ATOM     14  H12 UNL     1       5.889 102.392   6.646  1.00  0.00     0.191 HD
ATOM     15  H11 UNL     1       6.771 104.081   7.373  1.00  0.00     0.191 HD
ENDBRANCH  11  13
ENDBRANCH   1  10
BRANCH   5  16
HETATM   16  N4  UNL     1      -0.414 100.706   5.060  1.00  0.00    -0.332 N 
ATOM     17  H42 UNL     1      -0.918 101.419   4.531  1.00  0.00     0.177 HD
ATOM     18  H41 UNL     1      -0.958  99.910   5.393  1.00  0.00     0.177 HD
ENDBRANCH   5  16
TORSDOF 3
ENDMDL
MODEL 2
REMARK VINA RESULT: -5.769518345      0.743      2.175
REMARK  3 active torsions:
REMARK  status: ('A' for Active; 'I' for Inactive)
REMARK    1  A    between atoms: N1_1  and  N2_4 
REMARK       I    between atoms: N2_4  and  C1_5 
REMARK    2  A    between atoms: C1_5  and  C2_7 
REMARK    3  A    between atoms: N3_11  and  N4_12 
ROOT
HETATM    1  C2  UNL     1       3.691 100.906   5.831  1.00  0.00     0.126 A 
HETATM    2  C3  UNL     1       2.953  99.766   5.922  1.00  0.00     0.113 A 
HETATM    3  C4  UNL     1       1.607  99.773   5.631  1.00  0.00     0.272 A 
HETATM    4  O2  UNL     1       0.914  98.718   5.711  1.00  0.00    -0.266 OA
HETATM    5  N3  UNL     1       0.985 100.917   5.249  1.00  0.00    -0.175 N 
HETATM    6  C5  UNL     1       1.751 102.027   5.171  1.00  0.00     0.348 A 
HETATM    7  O3  UNL     1       1.220 103.111   4.822  1.00  0.00    -0.245 OA
HETATM    8  N5  UNL     1       3.083 102.030   5.456  1.00  0.00    -0.301 N 
ATOM      9  H5  UNL     1       3.617 102.897   5.383  1.00  0.00     0.171 HD
ENDROOT
BRANCH   1  10
HETATM   10  C1  UNL     1       5.144 100.972   6.116  1.00  0.00     0.361 C 
HETATM   11  N2  UNL     1       5.730 102.125   6.565  1.00  0.00    -0.287 NA
HETATM   12  O1  UNL     1       5.713  99.873   5.893  1.00  0.00    -0.247 OA
BRANCH  11  13
HETATM   13  N1  UNL     1       6.287 103.226   6.994  1.00  0.00    -0.276 N 
ATOM     14  H12 UNL     1       5.866 102.381   6.609  1.00  0.00     0.191 HD
ATOM     15  H11 UNL     1       6.723 104.085   7.330  1.00  0.00     0.191 HD
ENDBRANCH  11  13
ENDBRANCH   1  10
BRANCH   5  16
HETATM   16  N4  UNL     1      -0.379 100.955   4.947  1.00  0.00    -0.332 N 
ATOM     17  H42 UNL     1      -0.822 100.213   4.404  1.00  0.00     0.177 HD
ATOM     18  H41 UNL     1      -0.980 101.719   5.256  1.00  0.00     0.177 HD
ENDBRANCH   5  16
TORSDOF 3
ENDMDL
MODEL 3
REMARK VINA RESULT: -5.659522724      8.337     10.559
REMARK  3 active torsions:
REMARK  status: ('A' for Active; 'I' for Inactive)
REMARK    1  A    between atoms: N1_1  and  N2_4 
REMARK       I    between atoms: N2_4  and  C1_5 
REMARK    2  A    between atoms: C1_5  and  C2_7 
REMARK    3  A    between atoms: N3_11  and  N4_12 
ROOT
HETATM    1  C2  UNL     1       7.515 104.285  12.956  1.00  0.00     0.126 A 
HETATM    2  C3  UNL     1       6.956 105.505  13.180  1.00  0.00     0.113 A 
HETATM    3  C4  UNL     1       7.676 106.511  13.786  1.00  0.00     0.272 A 
HETATM    4  O2  UNL     1       7.164 107.648  13.996  1.00  0.00    -0.266 OA
HETATM    5  N3  UNL     1       8.959 106.307  14.176  1.00  0.00    -0.175 N 
HETATM    6  C5  UNL     1       9.479 105.083  13.938  1.00  0.00     0.348 A 
HETATM    7  O3  UNL     1      10.665 104.846  14.281  1.00  0.00    -0.245 OA
HETATM    8  N5  UNL     1       8.775 104.082  13.338  1.00  0.00    -0.301 N 
ATOM      9  H5  UNL     1       9.214 103.175  13.181  1.00  0.00     0.171 HD
ENDROOT
BRANCH   1  10
HETATM   10  C1  UNL     1       6.807 103.161  12.299  1.00  0.00     0.361 C 
HETATM   11  N2  UNL     1       6.827 103.005  10.939  1.00  0.00    -0.287 NA
HETATM   12  O1  UNL     1       6.226 102.424  13.136  1.00  0.00    -0.247 OA
BRANCH  11  13
HETATM   13  N1  UNL     1       6.846 102.858   9.641  1.00  0.00    -0.276 N 
ATOM     14  H12 UNL     1       6.880 102.995  10.651  1.00  0.00     0.191 HD
ATOM     15  H11 UNL     1       6.860 102.742   8.628  1.00  0.00     0.191 HD
ENDBRANCH  11  13
ENDBRANCH   1  10
BRANCH   5  16
HETATM   16  N4  UNL     1       9.715 107.307  14.793  1.00  0.00    -0.332 N 
ATOM     17  H42 UNL     1       9.879 107.301  15.800  1.00  0.00     0.177 HD
ATOM     18  H41 UNL     1      10.127 108.077  14.266  1.00  0.00     0.177 HD
ENDBRANCH   5  16
TORSDOF 3
ENDMDL
MODEL 4
REMARK VINA RESULT: -5.644467361      8.365     10.672
REMARK  3 active torsions:
REMARK  status: ('A' for Active; 'I' for Inactive)
REMARK    1  A    between atoms: N1_1  and  N2_4 
REMARK       I    between atoms: N2_4  and  C1_5 
REMARK    2  A    between atoms: C1_5  and  C2_7 
REMARK    3  A    between atoms: N3_11  and  N4_12 
ROOT
HETATM    1  C2  UNL     1       7.514 104.263  12.990  1.00  0.00     0.126 A 
HETATM    2  C3  UNL     1       8.770 104.156  13.504  1.00  0.00     0.113 A 
HETATM    3  C4  UNL     1       9.363 105.219  14.147  1.00  0.00     0.272 A 
HETATM    4  O2  UNL     1      10.529 105.128  14.628  1.00  0.00    -0.266 OA
HETATM    5  N3  UNL     1       8.708 106.400  14.283  1.00  0.00    -0.175 N 
HETATM    6  C5  UNL     1       7.465 106.468  13.760  1.00  0.00     0.348 A 
HETATM    7  O3  UNL     1       6.818 107.541  13.860  1.00  0.00    -0.245 OA
HETATM    8  N5  UNL     1       6.869 105.421  13.122  1.00  0.00    -0.301 N 
ATOM      9  H5  UNL     1       5.927 105.524  12.745  1.00  0.00     0.171 HD
ENDROOT
BRANCH   1  10
HETATM   10  C1  UNL     1       6.809 103.158  12.298  1.00  0.00     0.361 C 
HETATM   11  N2  UNL     1       6.858 103.026  10.937  1.00  0.00    -0.287 NA
HETATM   12  O1  UNL     1       6.201 102.414  13.109  1.00  0.00    -0.247 OA
BRANCH  11  13
HETATM   13  N1  UNL     1       6.905 102.900   9.637  1.00  0.00    -0.276 N 
ATOM     14  H12 UNL     1       6.866 103.052  10.644  1.00  0.00     0.191 HD
ATOM     15  H11 UNL     1       6.942 102.801   8.622  1.00  0.00     0.191 HD
ENDBRANCH  11  13
ENDBRANCH   1  10
BRANCH   5  16
HETATM   16  N4  UNL     1       9.283 107.497  14.930  1.00  0.00    -0.332 N 
ATOM     17  H42 UNL     1       9.854 107.378  15.768  1.00  0.00     0.177 HD
ATOM     18  H41 UNL     1       9.156 108.451  14.593  1.00  0.00     0.177 HD
ENDBRANCH   5  16
TORSDOF 3
ENDMDL
MODEL 5
REMARK VINA RESULT: -5.622375366      2.429      3.500
REMARK  3 active torsions:
REMARK  status: ('A' for Active; 'I' for Inactive)
REMARK    1  A    between atoms: N1_1  and  N2_4 
REMARK       I    between atoms: N2_4  and  C1_5 
REMARK    2  A    between atoms: C1_5  and  C2_7 
REMARK    3  A    between atoms: N3_11  and  N4_12 
ROOT
HETATM    1  C2  UNL     1       4.253 100.863   6.113  1.00  0.00     0.126 A 
HETATM    2  C3  UNL     1       3.095 100.250   5.742  1.00  0.00     0.113 A 
HETATM    3  C4  UNL     1       3.069  98.903   5.459  1.00  0.00     0.272 A 
HETATM    4  O2  UNL     1       1.997  98.327   5.115  1.00  0.00    -0.266 OA
HETATM    5  N3  UNL     1       4.198  98.155   5.542  1.00  0.00    -0.175 N 
HETATM    6  C5  UNL     1       5.326  98.798   5.912  1.00  0.00     0.348 A 
HETATM    7  O3  UNL     1       6.398  98.147   6.004  1.00  0.00    -0.245 OA
HETATM    8  N5  UNL     1       5.362 100.130   6.195  1.00  0.00    -0.301 N 
ATOM      9  H5  UNL     1       6.241 100.568   6.471  1.00  0.00     0.171 HD
ENDROOT
BRANCH   1  10
HETATM   10  C1  UNL     1       4.355 102.304   6.444  1.00  0.00     0.361 C 
HETATM   11  N2  UNL     1       5.538 102.859   6.849  1.00  0.00    -0.287 NA
HETATM   12  O1  UNL     1       3.253 102.893   6.302  1.00  0.00    -0.247 OA
BRANCH  11  13
HETATM   13  N1  UNL     1       6.669 103.388   7.237  1.00  0.00    -0.276 N 
ATOM     14  H12 UNL     1       5.796 102.934   6.969  1.00  0.00     0.191 HD
ATOM     15  H11 UNL     1       7.551 103.801   7.538  1.00  0.00     0.191 HD
ENDBRANCH  11  13
ENDBRANCH   1  10
BRANCH   5  16
HETATM   16  N4  UNL     1       4.202  96.786   5.261  1.00  0.00    -0.332 N 
ATOM     17  H42 UNL     1       3.517  96.157   5.681  1.00  0.00     0.177 HD
ATOM     18  H41 UNL     1       4.885  96.366   4.631  1.00  0.00     0.177 HD
ENDBRANCH   5  16
TORSDOF 3
ENDMDL
