MODEL 1
REMARK VINA RESULT: -4.574178580      0.000      0.000
REMARK  2 active torsions:
REMARK  status: ('A' for Active; 'I' for Inactive)
REMARK    1  A    between atoms: C3_3  and  C4_4 
REMARK    2  A    between atoms: C4_4  and  N1_5 
ROOT
HETATM    1  C1  UNL     1       9.876  12.508  16.803  1.00  0.00     0.012 C 
HETATM    2  C2  UNL     1      10.736  11.756  16.401  1.00  0.00    -0.116 C 
HETATM    3  C3  UNL     1      11.764  10.832  15.899  1.00  0.00     0.115 C 
ENDROOT
BRANCH   3   4
HETATM    4  C4  UNL     1      11.385   9.449  16.390  1.00  0.00     0.162 C 
BRANCH   4   5
HETATM    5  N1  UNL     1      10.093   9.144  15.820  1.00  0.00    -0.286 N 
HETATM    6  C5  UNL     1       9.044   8.717  16.545  1.00  0.00     0.201 A 
HETATM    7  N2  UNL     1       7.995   8.521  15.744  1.00  0.00    -0.346 N 
HETATM    8  C6  UNL     1       8.394   8.830  14.501  1.00  0.00     0.198 A 
ATOM      9  H2  UNL     1       7.069   8.199  16.023  1.00  0.00     0.167 HD
HETATM   10  N3  UNL     1       9.688   9.212  14.562  1.00  0.00    -0.293 N 
ATOM     11  H3  UNL     1      10.258   9.505  13.769  1.00  0.00     0.188 HD
ENDBRANCH   4   5
ENDBRANCH   3   4
TORSDOF 2
ENDMDL
MODEL 2
REMARK VINA RESULT: -4.532504829      1.237      1.763
REMARK  2 active torsions:
REMARK  status: ('A' for Active; 'I' for Inactive)
REMARK    1  A    between atoms: C3_3  and  C4_4 
REMARK    2  A    between atoms: C4_4  and  N1_5 
ROOT
HETATM    1  C1  UNL     1       9.940  12.524  16.805  1.00  0.00     0.012 C 
HETATM    2  C2  UNL     1       9.880  11.538  17.505  1.00  0.00    -0.116 C 
HETATM    3  C3  UNL     1       9.830  10.342  18.359  1.00  0.00     0.115 C 
ENDROOT
BRANCH   3   4
HETATM    4  C4  UNL     1      10.533   9.234  17.598  1.00  0.00     0.162 C 
BRANCH   4   5
HETATM    5  N1  UNL     1       9.853   9.103  16.331  1.00  0.00    -0.286 N 
HETATM    6  C5  UNL     1      10.438   9.352  15.145  1.00  0.00     0.201 A 
HETATM    7  N2  UNL     1       9.561   9.143  14.161  1.00  0.00    -0.346 N 
HETATM    8  C6  UNL     1       8.413   8.759  14.739  1.00  0.00     0.198 A 
ATOM      9  H2  UNL     1       9.732   9.254  13.162  1.00  0.00     0.167 HD
HETATM   10  N3  UNL     1       8.607   8.738  16.075  1.00  0.00    -0.293 N 
ATOM     11  H3  UNL     1       7.908   8.484  16.772  1.00  0.00     0.188 HD
ENDBRANCH   4   5
ENDBRANCH   3   4
TORSDOF 2
ENDMDL
MODEL 3
REMARK VINA RESULT: -4.484938921      2.013      3.151
REMARK  2 active torsions:
REMARK  status: ('A' for Active; 'I' for Inactive)
REMARK    1  A    between atoms: C3_3  and  C4_4 
REMARK    2  A    between atoms: C4_4  and  N1_5 
ROOT
HETATM    1  C1  UNL     1       8.468   8.989  14.926  1.00  0.00     0.012 C 
HETATM    2  C2  UNL     1       9.638   9.284  14.825  1.00  0.00    -0.116 C 
HETATM    3  C3  UNL     1      11.063   9.632  14.724  1.00  0.00     0.115 C 
ENDROOT
BRANCH   3   4
HETATM    4  C4  UNL     1      11.328  10.694  15.772  1.00  0.00     0.162 C 
BRANCH   4   5
HETATM    5  N1  UNL     1      10.724  10.228  16.999  1.00  0.00    -0.286 N 
HETATM    6  C5  UNL     1      11.059   9.073  17.599  1.00  0.00     0.201 A 
HETATM    7  N2  UNL     1      10.334   8.917  18.708  1.00  0.00    -0.346 N 
HETATM    8  C6  UNL     1       9.534   9.990  18.802  1.00  0.00     0.198 A 
ATOM      9  H2  UNL     1      10.379   8.134  19.359  1.00  0.00     0.167 HD
HETATM   10  N3  UNL     1       9.784  10.789  17.743  1.00  0.00    -0.293 N 
ATOM     11  H3  UNL     1       9.325  11.679  17.548  1.00  0.00     0.188 HD
ENDBRANCH   4   5
ENDBRANCH   3   4
TORSDOF 2
ENDMDL
MODEL 4
REMARK VINA RESULT: -4.432382510      1.947      3.155
REMARK  2 active torsions:
REMARK  status: ('A' for Active; 'I' for Inactive)
REMARK    1  A    between atoms: C3_3  and  C4_4 
REMARK    2  A    between atoms: C4_4  and  N1_5 
ROOT
HETATM    1  C1  UNL     1       8.472   8.949  14.922  1.00  0.00     0.012 C 
HETATM    2  C2  UNL     1       9.632   9.277  14.812  1.00  0.00    -0.116 C 
HETATM    3  C3  UNL     1      11.046   9.666  14.700  1.00  0.00     0.115 C 
ENDROOT
BRANCH   3   4
HETATM    4  C4  UNL     1      11.304  10.692  15.785  1.00  0.00     0.162 C 
BRANCH   4   5
HETATM    5  N1  UNL     1      10.775  10.142  17.012  1.00  0.00    -0.286 N 
HETATM    6  C5  UNL     1       9.823  10.744  17.746  1.00  0.00     0.201 A 
HETATM    7  N2  UNL     1       9.543   9.999  18.816  1.00  0.00    -0.346 N 
HETATM    8  C6  UNL     1      10.331   8.915  18.751  1.00  0.00     0.198 A 
ATOM      9  H2  UNL     1       8.861  10.211  19.543  1.00  0.00     0.167 HD
HETATM   10  N3  UNL     1      11.085   9.016  17.635  1.00  0.00    -0.293 N 
ATOM     11  H3  UNL     1      11.778   8.336  17.323  1.00  0.00     0.188 HD
ENDBRANCH   4   5
ENDBRANCH   3   4
TORSDOF 2
ENDMDL
MODEL 5
REMARK VINA RESULT: -4.398199179      1.215      1.384
REMARK  2 active torsions:
REMARK  status: ('A' for Active; 'I' for Inactive)
REMARK    1  A    between atoms: C3_3  and  C4_4 
REMARK    2  A    between atoms: C4_4  and  N1_5 
ROOT
HETATM    1  C1  UNL     1       9.938  12.486  16.804  1.00  0.00     0.012 C 
HETATM    2  C2  UNL     1       9.888  11.485  17.483  1.00  0.00    -0.116 C 
HETATM    3  C3  UNL     1       9.851  10.270  18.310  1.00  0.00     0.115 C 
ENDROOT
BRANCH   3   4
HETATM    4  C4  UNL     1      10.570   9.188  17.529  1.00  0.00     0.162 C 
BRANCH   4   5
HETATM    5  N1  UNL     1       9.905   9.086  16.250  1.00  0.00    -0.286 N 
HETATM    6  C5  UNL     1       8.635   8.667  16.105  1.00  0.00     0.201 A 
HETATM    7  N2  UNL     1       8.303   8.681  14.813  1.00  0.00    -0.346 N 
HETATM    8  C6  UNL     1       9.380   9.114  14.141  1.00  0.00     0.198 A 
ATOM      9  H2  UNL     1       7.404   8.414  14.414  1.00  0.00     0.167 HD
HETATM   10  N3  UNL     1      10.359   9.360  15.038  1.00  0.00    -0.293 N 
ATOM     11  H3  UNL     1      11.294   9.701  14.817  1.00  0.00     0.188 HD
ENDBRANCH   4   5
ENDBRANCH   3   4
TORSDOF 2
ENDMDL
