MODEL 1
REMARK VINA RESULT: -3.158801441      0.000      0.000
REMARK  2 active torsions:
REMARK  status: ('A' for Active; 'I' for Inactive)
REMARK    1  A    between atoms: N1_2  and  C2_4 
REMARK    2  A    between atoms: C2_4  and  C3_5 
ROOT
HETATM    1  C3  UNL     1       9.791   9.729  15.568  1.00  0.00     0.274 A 
HETATM    2  C4  UNL     1       9.156   9.901  16.853  1.00  0.00     0.258 A 
HETATM    3  C5  UNL     1       9.967  10.249  18.081  1.00  0.00     0.040 C 
HETATM    4  C6  UNL     1       9.838  11.777  18.041  1.00  0.00     0.032 C 
HETATM    5  C7  UNL     1      10.124  11.995  16.551  1.00  0.00     0.273 C 
HETATM    6  N2  UNL     1       9.278  11.014  15.941  1.00  0.00     0.103 N 
ENDROOT
BRANCH   1   7
HETATM    7  C2  UNL     1       9.025   8.950  14.512  1.00  0.00     0.156 C 
BRANCH   7   8
HETATM    8  N1  UNL     1       8.017   8.202  15.180  1.00  0.00    -0.406 N 
HETATM    9  C1  UNL     1       8.090   6.926  15.225  1.00  0.00     0.112 C 
ATOM     10  H1  UNL     1       7.234   8.683  15.624  1.00  0.00     0.158 HD
ENDBRANCH   7   8
ENDBRANCH   1   7
TORSDOF 2
ENDMDL
MODEL 2
REMARK VINA RESULT: -2.659281050      1.627      3.955
REMARK  2 active torsions:
REMARK  status: ('A' for Active; 'I' for Inactive)
REMARK    1  A    between atoms: N1_2  and  C2_4 
REMARK    2  A    between atoms: C2_4  and  C3_5 
ROOT
HETATM    1  C3  UNL     1      10.672   9.875  15.475  1.00  0.00     0.274 A 
HETATM    2  C4  UNL     1       9.243  10.000  15.303  1.00  0.00     0.258 A 
HETATM    3  C5  UNL     1       8.482   9.053  14.404  1.00  0.00     0.040 C 
HETATM    4  C6  UNL     1       8.061   8.006  15.442  1.00  0.00     0.032 C 
HETATM    5  C7  UNL     1       9.402   7.846  16.168  1.00  0.00     0.273 C 
HETATM    6  N2  UNL     1       9.786   9.208  16.383  1.00  0.00     0.103 N 
ENDROOT
BRANCH   1   7
HETATM    7  C2  UNL     1      11.419  11.092  15.995  1.00  0.00     0.156 C 
BRANCH   7   8
HETATM    8  N1  UNL     1      10.615  11.689  17.004  1.00  0.00    -0.406 N 
HETATM    9  C1  UNL     1       9.964  12.761  16.755  1.00  0.00     0.112 C 
ATOM     10  H1  UNL     1      10.556  11.260  17.929  1.00  0.00     0.158 HD
ENDBRANCH   7   8
ENDBRANCH   1   7
TORSDOF 2
ENDMDL
MODEL 3
REMARK VINA RESULT: -2.522403882      1.159      1.496
REMARK  2 active torsions:
REMARK  status: ('A' for Active; 'I' for Inactive)
REMARK    1  A    between atoms: N1_2  and  C2_4 
REMARK    2  A    between atoms: C2_4  and  C3_5 
ROOT
HETATM    1  C3  UNL     1      10.060   9.161  16.559  1.00  0.00     0.274 A 
HETATM    2  C4  UNL     1       9.352  10.419  16.572  1.00  0.00     0.258 A 
HETATM    3  C5  UNL     1       9.791  11.550  17.475  1.00  0.00     0.040 C 
HETATM    4  C6  UNL     1      10.704  12.306  16.503  1.00  0.00     0.032 C 
HETATM    5  C7  UNL     1      11.480  11.112  15.935  1.00  0.00     0.273 C 
HETATM    6  N2  UNL     1      10.426  10.191  15.633  1.00  0.00     0.103 N 
ENDROOT
BRANCH   1   7
HETATM    7  C2  UNL     1       9.323   7.953  16.005  1.00  0.00     0.156 C 
BRANCH   7   8
HETATM    8  N1  UNL     1       8.090   8.414  15.467  1.00  0.00    -0.406 N 
HETATM    9  C1  UNL     1       8.019   8.768  14.240  1.00  0.00     0.112 C 
ATOM     10  H1  UNL     1       7.261   8.462  16.060  1.00  0.00     0.158 HD
ENDBRANCH   7   8
ENDBRANCH   1   7
TORSDOF 2
ENDMDL
MODEL 4
REMARK VINA RESULT: -2.442912236      1.127      3.977
REMARK  2 active torsions:
REMARK  status: ('A' for Active; 'I' for Inactive)
REMARK    1  A    between atoms: N1_2  and  C2_4 
REMARK    2  A    between atoms: C2_4  and  C3_5 
ROOT
HETATM    1  C3  UNL     1       9.790   9.707  17.021  1.00  0.00     0.274 A 
HETATM    2  C4  UNL     1       9.623  10.177  15.666  1.00  0.00     0.258 A 
HETATM    3  C5  UNL     1       9.995   9.303  14.489  1.00  0.00     0.040 C 
HETATM    4  C6  UNL     1       8.631   8.657  14.217  1.00  0.00     0.032 C 
HETATM    5  C7  UNL     1       8.253   8.297  15.658  1.00  0.00     0.273 C 
HETATM    6  N2  UNL     1       8.537   9.516  16.352  1.00  0.00     0.103 N 
ENDROOT
BRANCH   1   7
HETATM    7  C2  UNL     1       9.842  10.756  18.120  1.00  0.00     0.156 C 
BRANCH   7   8
HETATM    8  N1  UNL     1       9.699  12.029  17.502  1.00  0.00    -0.406 N 
HETATM    9  C1  UNL     1      10.547  12.417  16.627  1.00  0.00     0.112 C 
ATOM     10  H1  UNL     1       8.917  12.634  17.758  1.00  0.00     0.158 HD
ENDBRANCH   7   8
ENDBRANCH   1   7
TORSDOF 2
ENDMDL
MODEL 5
REMARK VINA RESULT: -2.381498498      1.199      1.621
REMARK  2 active torsions:
REMARK  status: ('A' for Active; 'I' for Inactive)
REMARK    1  A    between atoms: N1_2  and  C2_4 
REMARK    2  A    between atoms: C2_4  and  C3_5 
ROOT
HETATM    1  C3  UNL     1       9.046   9.478  16.174  1.00  0.00     0.274 A 
HETATM    2  C4  UNL     1       9.224  10.874  15.851  1.00  0.00     0.258 A 
HETATM    3  C5  UNL     1       9.962  11.801  16.790  1.00  0.00     0.040 C 
HETATM    4  C6  UNL     1      11.371  11.693  16.193  1.00  0.00     0.032 C 
HETATM    5  C7  UNL     1      11.435  10.171  16.024  1.00  0.00     0.273 C 
HETATM    6  N2  UNL     1      10.179   9.888  15.399  1.00  0.00     0.103 N 
ENDROOT
BRANCH   1   7
HETATM    7  C2  UNL     1       7.937   8.732  15.451  1.00  0.00     0.156 C 
BRANCH   7   8
HETATM    8  N1  UNL     1       8.490   7.520  14.955  1.00  0.00    -0.406 N 
HETATM    9  C1  UNL     1       7.937   6.401  15.235  1.00  0.00     0.112 C 
ATOM     10  H1  UNL     1       9.330   7.542  14.375  1.00  0.00     0.158 HD
ENDBRANCH   7   8
ENDBRANCH   1   7
TORSDOF 2
ENDMDL
