MODEL 1
REMARK VINA RESULT: -7.616303208      0.000      0.000
REMARK  8 active torsions:
REMARK  status: ('A' for Active; 'I' for Inactive)
REMARK    1  A    between atoms: C2_2  and  C4_4 
REMARK    2  A    between atoms: C4_4  and  N1_5 
REMARK    3  A    between atoms: N1_5  and  C5_7 
REMARK    4  A    between atoms: C6_10  and  N3_11 
REMARK    5  A    between atoms: C10_15  and  C12_17 
REMARK    6  A    between atoms: C13_21  and  N5_22 
REMARK    7  A    between atoms: N5_22  and  C14_24 
REMARK    8  A    between atoms: C14_24  and  C15_25 
ROOT
HETATM    1  C5  UNL     1      -0.658   4.053  21.495  1.00  0.00     0.707 A 
HETATM    2  N2  UNL     1      -1.169   3.172  22.367  1.00  0.00    -0.021 N 
ATOM      3  H2  UNL     1      -0.899   3.220  23.349  1.00  0.00     0.203 HD
HETATM    4  C6  UNL     1      -2.032   2.227  21.961  1.00  0.00     0.710 A 
HETATM    5  N4  UNL     1      -2.358   2.203  20.659  1.00  0.00    -0.021 N 
ATOM      6  H4  UNL     1      -3.012   1.493  20.333  1.00  0.00     0.203 HD
HETATM    7  C13 UNL     1      -1.851   3.091  19.751  1.00  0.00     0.707 A 
HETATM    8  N6  UNL     1      -1.003   4.013  20.175  1.00  0.00    -0.022 N 
ATOM      9  H6  UNL     1      -0.609   4.689  19.521  1.00  0.00     0.203 HD
ENDROOT
BRANCH   4  10
HETATM   10  N3  UNL     1      -2.589   1.279  22.863  1.00  0.00    -0.206 N 
HETATM   11  C7  UNL     1      -3.596   1.416  23.897  1.00  0.00     0.149 C 
HETATM   12  C8  UNL     1      -3.247  -0.003  24.337  1.00  0.00     0.030 C 
HETATM   13  C9  UNL     1      -2.547  -0.065  25.660  1.00  0.00     0.014 C 
HETATM   14  C10 UNL     1      -2.399  -0.139  23.118  1.00  0.00     0.063 C 
HETATM   15  C11 UNL     1      -0.947  -0.436  23.323  1.00  0.00     0.041 C 
BRANCH  14  16
HETATM   16  C12 UNL     1      -2.973  -0.941  21.981  1.00  0.00     0.146 C 
HETATM   17 CL1  UNL     1      -1.762  -2.044  21.323  1.00  0.00    -0.128 Cl
ENDBRANCH  14  16
ENDBRANCH   4  10
BRANCH   1  18
HETATM   18  N1  UNL     1       0.168   4.974  21.828  1.00  0.00    -0.225 N 
ATOM     19  H1  UNL     1       0.139   5.881  21.362  1.00  0.00     0.177 HD
BRANCH  18  20
HETATM   20  C4  UNL     1       1.138   4.724  22.862  1.00  0.00     0.142 C 
BRANCH  20  21
HETATM   21  C2  UNL     1       1.976   5.982  23.087  1.00  0.00    -0.004 C 
HETATM   22  C1  UNL     1       3.143   5.972  22.129  1.00  0.00     0.011 C 
HETATM   23  C3  UNL     1       1.088   7.153  22.709  1.00  0.00     0.011 C 
ENDBRANCH  20  21
ENDBRANCH  18  20
ENDBRANCH   1  18
BRANCH   7  24
HETATM   24  N5  UNL     1      -2.253   2.941  18.562  1.00  0.00    -0.223 N 
ATOM     25  H5  UNL     1      -1.601   3.074  17.789  1.00  0.00     0.177 HD
BRANCH  24  26
HETATM   26  C14 UNL     1      -3.620   2.586  18.284  1.00  0.00     0.170 C 
BRANCH  26  27
HETATM   27  C15 UNL     1      -3.596   1.410  17.320  1.00  0.00     0.139 C 
HETATM   28  C16 UNL     1      -4.063   1.843  15.971  1.00  0.00     0.035 C 
HETATM   29  C17 UNL     1      -5.583   1.872  16.163  1.00  0.00     0.029 C 
HETATM   30  C18 UNL     1      -5.798   1.017  17.378  1.00  0.00     0.168 C 
HETATM   31  O1  UNL     1      -4.582   0.519  17.781  1.00  0.00    -0.384 OA
ENDBRANCH  26  27
ENDBRANCH  24  26
ENDBRANCH   7  24
TORSDOF 8
ENDMDL
MODEL 2
REMARK VINA RESULT: -7.436563871      1.795      5.210
REMARK  8 active torsions:
REMARK  status: ('A' for Active; 'I' for Inactive)
REMARK    1  A    between atoms: C2_2  and  C4_4 
REMARK    2  A    between atoms: C4_4  and  N1_5 
REMARK    3  A    between atoms: N1_5  and  C5_7 
REMARK    4  A    between atoms: C6_10  and  N3_11 
REMARK    5  A    between atoms: C10_15  and  C12_17 
REMARK    6  A    between atoms: C13_21  and  N5_22 
REMARK    7  A    between atoms: N5_22  and  C14_24 
REMARK    8  A    between atoms: C14_24  and  C15_25 
ROOT
HETATM    1  C5  UNL     1      -1.073   3.817  21.097  1.00  0.00     0.707 A 
HETATM    2  N2  UNL     1      -1.463   3.477  19.861  1.00  0.00    -0.021 N 
ATOM      3  H2  UNL     1      -1.001   3.897  19.054  1.00  0.00     0.203 HD
HETATM    4  C6  UNL     1      -2.453   2.591  19.672  1.00  0.00     0.710 A 
HETATM    5  N4  UNL     1      -3.029   2.065  20.764  1.00  0.00    -0.021 N 
ATOM      6  H4  UNL     1      -3.782   1.389  20.640  1.00  0.00     0.203 HD
HETATM    7  C13 UNL     1      -2.650   2.394  22.035  1.00  0.00     0.707 A 
HETATM    8  N6  UNL     1      -1.671   3.270  22.195  1.00  0.00    -0.022 N 
ATOM      9  H6  UNL     1      -1.367   3.535  23.132  1.00  0.00     0.203 HD
ENDROOT
BRANCH   4  10
HETATM   10  N3  UNL     1      -2.887   2.213  18.372  1.00  0.00    -0.206 N 
HETATM   11  C7  UNL     1      -2.741   2.866  17.085  1.00  0.00     0.149 C 
HETATM   12  C8  UNL     1      -3.697   1.819  16.518  1.00  0.00     0.030 C 
HETATM   13  C9  UNL     1      -5.037   2.374  16.140  1.00  0.00     0.014 C 
HETATM   14  C10 UNL     1      -3.612   1.085  17.812  1.00  0.00     0.063 C 
HETATM   15  C11 UNL     1      -4.889   0.870  18.563  1.00  0.00     0.041 C 
BRANCH  14  16
HETATM   16  C12 UNL     1      -2.741  -0.142  17.838  1.00  0.00     0.146 C 
HETATM   17 CL1  UNL     1      -2.949  -1.022  19.354  1.00  0.00    -0.128 Cl
ENDBRANCH  14  16
ENDBRANCH   4  10
BRANCH   1  18
HETATM   18  N1  UNL     1      -0.134   4.657  21.335  1.00  0.00    -0.225 N 
ATOM     19  H1  UNL     1      -0.072   5.520  20.795  1.00  0.00     0.177 HD
BRANCH  18  20
HETATM   20  C4  UNL     1       0.831   4.377  22.365  1.00  0.00     0.142 C 
BRANCH  20  21
HETATM   21  C2  UNL     1       1.378   5.692  22.920  1.00  0.00    -0.004 C 
HETATM   22  C1  UNL     1       2.763   5.921  22.364  1.00  0.00     0.011 C 
HETATM   23  C3  UNL     1       0.482   6.786  22.370  1.00  0.00     0.011 C 
ENDBRANCH  20  21
ENDBRANCH  18  20
ENDBRANCH   1  18
BRANCH   7  24
HETATM   24  N5  UNL     1      -3.287   1.814  22.961  1.00  0.00    -0.223 N 
ATOM     25  H5  UNL     1      -3.711   2.369  23.704  1.00  0.00     0.177 HD
BRANCH  24  26
HETATM   26  C14 UNL     1      -3.423   0.381  22.977  1.00  0.00     0.170 C 
BRANCH  26  27
HETATM   27  C15 UNL     1      -2.383  -0.161  23.945  1.00  0.00     0.139 C 
HETATM   28  C16 UNL     1      -1.195  -0.662  23.194  1.00  0.00     0.035 C 
HETATM   29  C17 UNL     1      -1.692  -2.024  22.699  1.00  0.00     0.029 C 
HETATM   30  C18 UNL     1      -2.852  -2.322  23.602  1.00  0.00     0.168 C 
HETATM   31  O1  UNL     1      -2.960  -1.307  24.522  1.00  0.00    -0.384 OA
ENDBRANCH  26  27
ENDBRANCH  24  26
ENDBRANCH   7  24
TORSDOF 8
ENDMDL
MODEL 3
REMARK VINA RESULT: -7.367172958      2.191      6.212
REMARK  8 active torsions:
REMARK  status: ('A' for Active; 'I' for Inactive)
REMARK    1  A    between atoms: C2_2  and  C4_4 
REMARK    2  A    between atoms: C4_4  and  N1_5 
REMARK    3  A    between atoms: N1_5  and  C5_7 
REMARK    4  A    between atoms: C6_10  and  N3_11 
REMARK    5  A    between atoms: C10_15  and  C12_17 
REMARK    6  A    between atoms: C13_21  and  N5_22 
REMARK    7  A    between atoms: N5_22  and  C14_24 
REMARK    8  A    between atoms: C14_24  and  C15_25 
ROOT
HETATM    1  C5  UNL     1      -2.006   2.899  19.513  1.00  0.00     0.707 A 
HETATM    2  N2  UNL     1      -2.486   2.004  20.389  1.00  0.00    -0.021 N 
ATOM      3  H2  UNL     1      -3.086   1.249  20.059  1.00  0.00     0.203 HD
HETATM    4  C6  UNL     1      -2.186   2.092  21.694  1.00  0.00     0.710 A 
HETATM    5  N4  UNL     1      -1.392   3.102  22.080  1.00  0.00    -0.021 N 
ATOM      6  H4  UNL     1      -1.153   3.184  23.068  1.00  0.00     0.203 HD
HETATM    7  C13 UNL     1      -0.889   4.027  21.207  1.00  0.00     0.707 A 
HETATM    8  N6  UNL     1      -1.199   3.919  19.926  1.00  0.00    -0.022 N 
ATOM      9  H6  UNL     1      -0.838   4.594  19.252  1.00  0.00     0.203 HD
ENDROOT
BRANCH   4  10
HETATM   10  N3  UNL     1      -2.682   1.157  22.644  1.00  0.00    -0.206 N 
HETATM   11  C7  UNL     1      -3.593   1.318  23.761  1.00  0.00     0.149 C 
HETATM   12  C8  UNL     1      -3.237  -0.108  24.173  1.00  0.00     0.030 C 
HETATM   13  C9  UNL     1      -2.426  -0.184  25.431  1.00  0.00     0.014 C 
HETATM   14  C10 UNL     1      -2.502  -0.264  22.886  1.00  0.00     0.063 C 
HETATM   15  C11 UNL     1      -1.044  -0.592  22.965  1.00  0.00     0.041 C 
BRANCH  14  16
HETATM   16  C12 UNL     1      -3.189  -1.055  21.805  1.00  0.00     0.146 C 
HETATM   17 CL1  UNL     1      -2.059  -2.171  21.035  1.00  0.00    -0.128 Cl
ENDBRANCH  14  16
ENDBRANCH   4  10
BRANCH   1  18
HETATM   18  N1  UNL     1      -2.260   2.862  18.258  1.00  0.00    -0.225 N 
ATOM     19  H1  UNL     1      -1.516   3.028  17.580  1.00  0.00     0.177 HD
BRANCH  18  20
HETATM   20  C4  UNL     1      -3.599   2.586  17.808  1.00  0.00     0.142 C 
BRANCH  20  21
HETATM   21  C2  UNL     1      -3.619   2.516  16.281  1.00  0.00    -0.004 C 
HETATM   22  C1  UNL     1      -2.862   1.288  15.836  1.00  0.00     0.011 C 
HETATM   23  C3  UNL     1      -5.071   2.323  15.887  1.00  0.00     0.011 C 
ENDBRANCH  20  21
ENDBRANCH  18  20
ENDBRANCH   1  18
BRANCH   7  24
HETATM   24  N5  UNL     1      -0.156   4.919  21.723  1.00  0.00    -0.223 N 
ATOM     25  H5  UNL     1      -0.471   5.889  21.728  1.00  0.00     0.177 HD
BRANCH  24  26
HETATM   26  C14 UNL     1       1.118   4.583  22.303  1.00  0.00     0.170 C 
BRANCH  26  27
HETATM   27  C15 UNL     1       1.384   5.580  23.420  1.00  0.00     0.139 C 
HETATM   28  C16 UNL     1       0.781   6.901  23.082  1.00  0.00     0.035 C 
HETATM   29  C17 UNL     1       1.809   7.471  22.100  1.00  0.00     0.029 C 
HETATM   30  C18 UNL     1       3.042   6.661  22.376  1.00  0.00     0.168 C 
HETATM   31  O1  UNL     1       2.774   5.799  23.411  1.00  0.00    -0.384 OA
ENDBRANCH  26  27
ENDBRANCH  24  26
ENDBRANCH   7  24
TORSDOF 8
ENDMDL
MODEL 4
REMARK VINA RESULT: -7.361429259      1.198      1.312
REMARK  8 active torsions:
REMARK  status: ('A' for Active; 'I' for Inactive)
REMARK    1  A    between atoms: C2_2  and  C4_4 
REMARK    2  A    between atoms: C4_4  and  N1_5 
REMARK    3  A    between atoms: N1_5  and  C5_7 
REMARK    4  A    between atoms: C6_10  and  N3_11 
REMARK    5  A    between atoms: C10_15  and  C12_17 
REMARK    6  A    between atoms: C13_21  and  N5_22 
REMARK    7  A    between atoms: N5_22  and  C14_24 
REMARK    8  A    between atoms: C14_24  and  C15_25 
ROOT
HETATM    1  C5  UNL     1       0.014   3.695  22.289  1.00  0.00     0.707 A 
HETATM    2  N2  UNL     1      -0.689   2.735  22.906  1.00  0.00    -0.021 N 
ATOM      3  H2  UNL     1      -0.388   2.399  23.821  1.00  0.00     0.203 HD
HETATM    4  C6  UNL     1      -1.785   2.212  22.334  1.00  0.00     0.710 A 
HETATM    5  N4  UNL     1      -2.142   2.687  21.131  1.00  0.00    -0.021 N 
ATOM      6  H4  UNL     1      -2.972   2.301  20.681  1.00  0.00     0.203 HD
HETATM    7  C13 UNL     1      -1.442   3.665  20.481  1.00  0.00     0.707 A 
HETATM    8  N6  UNL     1      -0.366   4.165  21.066  1.00  0.00    -0.022 N 
ATOM      9  H6  UNL     1       0.176   4.896  20.605  1.00  0.00     0.203 HD
ENDROOT
BRANCH   4  10
HETATM   10  N3  UNL     1      -2.549   1.192  22.966  1.00  0.00    -0.206 N 
HETATM   11  C7  UNL     1      -3.607   1.261  23.955  1.00  0.00     0.149 C 
HETATM   12  C8  UNL     1      -3.510  -0.258  24.070  1.00  0.00     0.030 C 
HETATM   13  C9  UNL     1      -2.939  -0.726  25.374  1.00  0.00     0.014 C 
HETATM   14  C10 UNL     1      -2.595  -0.258  22.894  1.00  0.00     0.063 C 
HETATM   15  C11 UNL     1      -1.225  -0.828  23.092  1.00  0.00     0.041 C 
BRANCH  14  16
HETATM   16  C12 UNL     1      -3.186  -0.683  21.576  1.00  0.00     0.146 C 
HETATM   17 CL1  UNL     1      -2.265  -2.019  20.882  1.00  0.00    -0.128 Cl
ENDBRANCH  14  16
ENDBRANCH   4  10
BRANCH   1  18
HETATM   18  N1  UNL     1       1.066   4.229  22.789  1.00  0.00    -0.225 N 
ATOM     19  H1  UNL     1       1.988   3.861  22.555  1.00  0.00     0.177 HD
BRANCH  18  20
HETATM   20  C4  UNL     1       0.942   5.352  23.682  1.00  0.00     0.142 C 
BRANCH  20  21
HETATM   21  C2  UNL     1       1.814   6.501  23.178  1.00  0.00    -0.004 C 
HETATM   22  C1  UNL     1       2.909   5.940  22.303  1.00  0.00     0.011 C 
HETATM   23  C3  UNL     1       0.920   7.353  22.297  1.00  0.00     0.011 C 
ENDBRANCH  20  21
ENDBRANCH  18  20
ENDBRANCH   1  18
BRANCH   7  24
HETATM   24  N5  UNL     1      -1.903   4.007  19.355  1.00  0.00    -0.223 N 
ATOM     25  H5  UNL     1      -1.733   4.950  19.006  1.00  0.00     0.177 HD
BRANCH  24  26
HETATM   26  C14 UNL     1      -2.665   3.082  18.558  1.00  0.00     0.170 C 
BRANCH  26  27
HETATM   27  C15 UNL     1      -1.691   2.057  17.997  1.00  0.00     0.139 C 
HETATM   28  C16 UNL     1      -1.882   1.921  16.524  1.00  0.00     0.035 C 
HETATM   29  C17 UNL     1      -3.125   1.029  16.452  1.00  0.00     0.029 C 
HETATM   30  C18 UNL     1      -3.181   0.397  17.813  1.00  0.00     0.168 C 
HETATM   31  O1  UNL     1      -2.089   0.820  18.533  1.00  0.00    -0.384 OA
ENDBRANCH  26  27
ENDBRANCH  24  26
ENDBRANCH   7  24
TORSDOF 8
ENDMDL
MODEL 5
REMARK VINA RESULT: -7.324499041      0.935      1.269
REMARK  8 active torsions:
REMARK  status: ('A' for Active; 'I' for Inactive)
REMARK    1  A    between atoms: C2_2  and  C4_4 
REMARK    2  A    between atoms: C4_4  and  N1_5 
REMARK    3  A    between atoms: N1_5  and  C5_7 
REMARK    4  A    between atoms: C6_10  and  N3_11 
REMARK    5  A    between atoms: C10_15  and  C12_17 
REMARK    6  A    between atoms: C13_21  and  N5_22 
REMARK    7  A    between atoms: N5_22  and  C14_24 
REMARK    8  A    between atoms: C14_24  and  C15_25 
ROOT
HETATM    1  C5  UNL     1      -0.410   4.029  21.668  1.00  0.00     0.707 A 
HETATM    2  N2  UNL     1      -0.913   3.135  22.530  1.00  0.00    -0.021 N 
ATOM      3  H2  UNL     1      -0.455   2.989  23.430  1.00  0.00     0.203 HD
HETATM    4  C6  UNL     1      -2.012   2.428  22.223  1.00  0.00     0.710 A 
HETATM    5  N4  UNL     1      -2.580   2.655  21.029  1.00  0.00    -0.021 N 
ATOM      6  H4  UNL     1      -3.416   2.128  20.778  1.00  0.00     0.203 HD
HETATM    7  C13 UNL     1      -2.086   3.562  20.132  1.00  0.00     0.707 A 
HETATM    8  N6  UNL     1      -1.002   4.246  20.458  1.00  0.00    -0.022 N 
ATOM      9  H6  UNL     1      -0.611   4.929  19.810  1.00  0.00     0.203 HD
ENDROOT
BRANCH   4  10
HETATM   10  N3  UNL     1      -2.567   1.473  23.118  1.00  0.00    -0.206 N 
HETATM   11  C7  UNL     1      -3.314   1.634  24.350  1.00  0.00     0.149 C 
HETATM   12  C8  UNL     1      -3.179   0.127  24.554  1.00  0.00     0.030 C 
HETATM   13  C9  UNL     1      -2.269  -0.245  25.686  1.00  0.00     0.014 C 
HETATM   14  C10 UNL     1      -2.621   0.022  23.177  1.00  0.00     0.063 C 
HETATM   15  C11 UNL     1      -1.245  -0.550  23.037  1.00  0.00     0.041 C 
BRANCH  14  16
HETATM   16  C12 UNL     1      -3.546  -0.496  22.109  1.00  0.00     0.146 C 
HETATM   17 CL1  UNL     1      -2.636  -0.982  20.677  1.00  0.00    -0.128 Cl
ENDBRANCH  14  16
ENDBRANCH   4  10
BRANCH   1  18
HETATM   18  N1  UNL     1       0.636   4.730  21.910  1.00  0.00    -0.225 N 
ATOM     19  H1  UNL     1       1.556   4.391  21.629  1.00  0.00     0.177 HD
BRANCH  18  20
HETATM   20  C4  UNL     1       0.507   5.997  22.581  1.00  0.00     0.142 C 
BRANCH  20  21
HETATM   21  C2  UNL     1       1.840   6.365  23.232  1.00  0.00    -0.004 C 
HETATM   22  C1  UNL     1       1.987   5.595  24.522  1.00  0.00     0.011 C 
HETATM   23  C3  UNL     1       2.920   5.876  22.285  1.00  0.00     0.011 C 
ENDBRANCH  20  21
ENDBRANCH  18  20
ENDBRANCH   1  18
BRANCH   7  24
HETATM   24  N5  UNL     1      -2.731   3.663  19.049  1.00  0.00    -0.223 N 
ATOM     25  H5  UNL     1      -3.488   4.342  18.976  1.00  0.00     0.177 HD
BRANCH  24  26
HETATM   26  C14 UNL     1      -2.410   2.831  17.919  1.00  0.00     0.170 C 
BRANCH  26  27
HETATM   27  C15 UNL     1      -3.433   1.705  17.880  1.00  0.00     0.139 C 
HETATM   28  C16 UNL     1      -2.966   0.620  16.970  1.00  0.00     0.035 C 
HETATM   29  C17 UNL     1      -3.303   1.201  15.593  1.00  0.00     0.029 C 
HETATM   30  C18 UNL     1      -4.317   2.264  15.901  1.00  0.00     0.168 C 
HETATM   31  O1  UNL     1      -4.570   2.245  17.252  1.00  0.00    -0.384 OA
ENDBRANCH  26  27
ENDBRANCH  24  26
ENDBRANCH   7  24
TORSDOF 8
ENDMDL
