MODEL 1
REMARK VINA RESULT: -6.093012662      0.000      0.000
REMARK  8 active torsions:
REMARK  status: ('A' for Active; 'I' for Inactive)
REMARK    1  A    between atoms: N1_2  and  N2_3 
REMARK    2  A    between atoms: N1_2  and  C2_6 
REMARK    3  A    between atoms: C2_6  and  C3_7 
REMARK    4  A    between atoms: C3_7  and  O1_8 
REMARK    5  A    between atoms: O1_8  and  C4_9 
REMARK    6  A    between atoms: C4_9  and  C5_10 
REMARK    7  A    between atoms: C6_13  and  N4_14 
REMARK    8  A    between atoms: C7_19  and  N6_20 
ROOT
HETATM    1  C5  UNL     1      24.367  -9.001  14.753  1.00  0.00     0.137 A 
HETATM    2  N3  UNL     1      23.994 -10.321  14.762  1.00  0.00    -0.178 N 
ATOM      3  H3  UNL     1      24.538 -10.988  14.213  1.00  0.00     0.185 HD
HETATM    4  C6  UNL     1      22.946 -10.768  15.461  1.00  0.00     0.691 A 
HETATM    5  N5  UNL     1      22.216  -9.888  16.193  1.00  0.00    -0.023 N 
ATOM      6  H5  UNL     1      21.412 -10.204  16.735  1.00  0.00     0.203 HD
HETATM    7  C7  UNL     1      22.573  -8.589  16.189  1.00  0.00     0.691 A 
HETATM    8  N7  UNL     1      23.641  -8.149  15.476  1.00  0.00    -0.178 N 
ATOM      9  H7  UNL     1      23.890  -7.159  15.493  1.00  0.00     0.185 HD
ENDROOT
BRANCH   1  10
HETATM   10  C4  UNL     1      25.524  -8.688  13.927  1.00  0.00     0.245 C 
BRANCH  10  11
HETATM   11  O1  UNL     1      26.357  -9.772  13.620  1.00  0.00    -0.383 OA
BRANCH  11  12
HETATM   12  C3  UNL     1      27.496  -9.561  14.403  1.00  0.00     0.184 C 
BRANCH  12  13
HETATM   13  C2  UNL     1      27.489 -10.169  15.753  1.00  0.00     0.138 C 
BRANCH  13  14
HETATM   14  N1  UNL     1      27.350 -11.618  15.747  1.00  0.00    -0.240 NA
HETATM   15  C1  UNL     1      27.864 -12.187  16.992  1.00  0.00     0.135 C 
BRANCH  14  16
HETATM   16  N2  UNL     1      28.223 -12.029  14.683  1.00  0.00    -0.364 NA
ATOM     17  H22 UNL     1      29.071 -12.316  15.172  1.00  0.00     0.171 HD
ATOM     18  H21 UNL     1      27.792 -12.828  14.217  1.00  0.00     0.171 HD
ENDBRANCH  14  16
ENDBRANCH  13  14
ENDBRANCH  12  13
ENDBRANCH  11  12
ENDBRANCH  10  11
ENDBRANCH   1  10
BRANCH   4  19
HETATM   19  N4  UNL     1      22.594 -12.009  15.476  1.00  0.00    -0.234 N 
ATOM     20  H42 UNL     1      21.997 -12.348  14.721  1.00  0.00     0.174 HD
ATOM     21  H41 UNL     1      22.886 -12.657  16.207  1.00  0.00     0.174 HD
ENDBRANCH   4  19
BRANCH   7  22
HETATM   22  N6  UNL     1      21.880  -7.745  16.869  1.00  0.00    -0.234 N 
ATOM     23  H62 UNL     1      20.884  -7.917  17.012  1.00  0.00     0.174 HD
ATOM     24  H61 UNL     1      22.340  -6.923  17.261  1.00  0.00     0.174 HD
ENDBRANCH   7  22
TORSDOF 8
ENDMDL
MODEL 2
REMARK VINA RESULT: -6.006935860      1.909      3.106
REMARK  8 active torsions:
REMARK  status: ('A' for Active; 'I' for Inactive)
REMARK    1  A    between atoms: N1_2  and  N2_3 
REMARK    2  A    between atoms: N1_2  and  C2_6 
REMARK    3  A    between atoms: C2_6  and  C3_7 
REMARK    4  A    between atoms: C3_7  and  O1_8 
REMARK    5  A    between atoms: O1_8  and  C4_9 
REMARK    6  A    between atoms: C4_9  and  C5_10 
REMARK    7  A    between atoms: C6_13  and  N4_14 
REMARK    8  A    between atoms: C7_19  and  N6_20 
ROOT
HETATM    1  C5  UNL     1      26.085  -9.827  14.559  1.00  0.00     0.137 A 
HETATM    2  N3  UNL     1      26.157  -8.507  14.189  1.00  0.00    -0.178 N 
ATOM      3  H3  UNL     1      27.046  -8.143  13.846  1.00  0.00     0.185 HD
HETATM    4  C6  UNL     1      25.109  -7.682  14.261  1.00  0.00     0.691 A 
HETATM    5  N5  UNL     1      23.922  -8.158  14.719  1.00  0.00    -0.023 N 
ATOM      6  H5  UNL     1      23.107  -7.548  14.783  1.00  0.00     0.203 HD
HETATM    7  C7  UNL     1      23.842  -9.452  15.086  1.00  0.00     0.691 A 
HETATM    8  N7  UNL     1      24.915 -10.280  15.006  1.00  0.00    -0.178 N 
ATOM      9  H7  UNL     1      24.824 -11.256  15.290  1.00  0.00     0.185 HD
ENDROOT
BRANCH   1  10
HETATM   10  C4  UNL     1      27.325 -10.577  14.427  1.00  0.00     0.245 C 
BRANCH  10  11
HETATM   11  O1  UNL     1      28.346 -10.218  15.317  1.00  0.00    -0.383 OA
BRANCH  11  12
HETATM   12  C3  UNL     1      28.118 -11.018  16.441  1.00  0.00     0.184 C 
BRANCH  12  13
HETATM   13  C2  UNL     1      28.408 -12.462  16.290  1.00  0.00     0.138 C 
BRANCH  13  14
HETATM   14  N1  UNL     1      29.810 -12.759  16.037  1.00  0.00    -0.240 NA
HETATM   15  C1  UNL     1      30.251 -13.886  16.859  1.00  0.00     0.135 C 
BRANCH  14  16
HETATM   16  N2  UNL     1      30.487 -11.582  16.504  1.00  0.00    -0.364 NA
ATOM     17  H22 UNL     1      30.537 -10.994  15.672  1.00  0.00     0.171 HD
ATOM     18  H21 UNL     1      29.899 -11.146  17.215  1.00  0.00     0.171 HD
ENDBRANCH  14  16
ENDBRANCH  13  14
ENDBRANCH  12  13
ENDBRANCH  11  12
ENDBRANCH  10  11
ENDBRANCH   1  10
BRANCH   4  19
HETATM   19  N4  UNL     1      25.170  -6.442  13.911  1.00  0.00    -0.234 N 
ATOM     20  H42 UNL     1      24.691  -6.160  13.056  1.00  0.00     0.174 HD
ATOM     21  H41 UNL     1      25.677  -5.740  14.451  1.00  0.00     0.174 HD
ENDBRANCH   4  19
BRANCH   7  22
HETATM   22  N6  UNL     1      22.725  -9.910  15.533  1.00  0.00    -0.234 N 
ATOM     23  H62 UNL     1      22.064  -9.270  15.973  1.00  0.00     0.174 HD
ATOM     24  H61 UNL     1      22.518 -10.904  15.432  1.00  0.00     0.174 HD
ENDBRANCH   7  22
TORSDOF 8
ENDMDL
MODEL 3
REMARK VINA RESULT: -6.000942950      0.532      2.114
REMARK  8 active torsions:
REMARK  status: ('A' for Active; 'I' for Inactive)
REMARK    1  A    between atoms: N1_2  and  N2_3 
REMARK    2  A    between atoms: N1_2  and  C2_6 
REMARK    3  A    between atoms: C2_6  and  C3_7 
REMARK    4  A    between atoms: C3_7  and  O1_8 
REMARK    5  A    between atoms: O1_8  and  C4_9 
REMARK    6  A    between atoms: C4_9  and  C5_10 
REMARK    7  A    between atoms: C6_13  and  N4_14 
REMARK    8  A    between atoms: C7_19  and  N6_20 
ROOT
HETATM    1  C5  UNL     1      24.320  -9.045  14.633  1.00  0.00     0.137 A 
HETATM    2  N3  UNL     1      23.583  -8.167  15.386  1.00  0.00    -0.178 N 
ATOM      3  H3  UNL     1      23.809  -7.173  15.343  1.00  0.00     0.185 HD
HETATM    4  C6  UNL     1      22.579  -8.563  16.175  1.00  0.00     0.691 A 
HETATM    5  N5  UNL     1      22.272  -9.884  16.241  1.00  0.00    -0.023 N 
ATOM      6  H5  UNL     1      21.511 -10.212  16.835  1.00  0.00     0.203 HD
HETATM    7  C7  UNL     1      22.992 -10.754  15.506  1.00  0.00     0.691 A 
HETATM    8  N7  UNL     1      24.008 -10.337  14.707  1.00  0.00    -0.178 N 
ATOM      9  H7  UNL     1      24.535 -11.019  14.160  1.00  0.00     0.185 HD
ENDROOT
BRANCH   1  10
HETATM   10  C4  UNL     1      25.383  -8.442  13.841  1.00  0.00     0.245 C 
BRANCH  10  11
HETATM   11  O1  UNL     1      26.393  -9.316  13.421  1.00  0.00    -0.383 OA
BRANCH  11  12
HETATM   12  C3  UNL     1      27.327  -9.286  14.461  1.00  0.00     0.184 C 
BRANCH  12  13
HETATM   13  C2  UNL     1      28.216 -10.464  14.583  1.00  0.00     0.138 C 
BRANCH  13  14
HETATM   14  N1  UNL     1      27.645 -11.555  15.358  1.00  0.00    -0.240 NA
HETATM   15  C1  UNL     1      27.746 -11.275  16.790  1.00  0.00     0.135 C 
BRANCH  14  16
HETATM   16  N2  UNL     1      28.514 -12.660  15.064  1.00  0.00    -0.364 NA
ATOM     17  H22 UNL     1      28.234 -12.936  14.122  1.00  0.00     0.171 HD
ATOM     18  H21 UNL     1      29.473 -12.311  15.062  1.00  0.00     0.171 HD
ENDBRANCH  14  16
ENDBRANCH  13  14
ENDBRANCH  12  13
ENDBRANCH  11  12
ENDBRANCH  10  11
ENDBRANCH   1  10
BRANCH   4  19
HETATM   19  N4  UNL     1      21.880  -7.742  16.882  1.00  0.00    -0.234 N 
ATOM     20  H42 UNL     1      20.952  -8.039  17.187  1.00  0.00     0.174 HD
ATOM     21  H41 UNL     1      22.215  -6.815  17.144  1.00  0.00     0.174 HD
ENDBRANCH   4  19
BRANCH   7  22
HETATM   22  N6  UNL     1      22.717 -12.010  15.571  1.00  0.00    -0.234 N 
ATOM     23  H62 UNL     1      21.839 -12.307  15.997  1.00  0.00     0.174 HD
ATOM     24  H61 UNL     1      23.379 -12.685  15.187  1.00  0.00     0.174 HD
ENDBRANCH   7  22
TORSDOF 8
ENDMDL
MODEL 4
REMARK VINA RESULT: -5.953853695      1.269      1.320
REMARK  8 active torsions:
REMARK  status: ('A' for Active; 'I' for Inactive)
REMARK    1  A    between atoms: N1_2  and  N2_3 
REMARK    2  A    between atoms: N1_2  and  C2_6 
REMARK    3  A    between atoms: C2_6  and  C3_7 
REMARK    4  A    between atoms: C3_7  and  O1_8 
REMARK    5  A    between atoms: O1_8  and  C4_9 
REMARK    6  A    between atoms: C4_9  and  C5_10 
REMARK    7  A    between atoms: C6_13  and  N4_14 
REMARK    8  A    between atoms: C7_19  and  N6_20 
ROOT
HETATM    1  C5  UNL     1      24.334  -8.792  14.733  1.00  0.00     0.137 A 
HETATM    2  N3  UNL     1      24.051 -10.134  14.720  1.00  0.00    -0.178 N 
ATOM      3  H3  UNL     1      24.632 -10.752  14.154  1.00  0.00     0.185 HD
HETATM    4  C6  UNL     1      23.041 -10.662  15.420  1.00  0.00     0.691 A 
HETATM    5  N5  UNL     1      22.261  -9.847  16.174  1.00  0.00    -0.023 N 
ATOM      6  H5  UNL     1      21.485 -10.225  16.716  1.00  0.00     0.203 HD
HETATM    7  C7  UNL     1      22.531  -8.526  16.191  1.00  0.00     0.691 A 
HETATM    8  N7  UNL     1      23.561  -8.003  15.477  1.00  0.00    -0.178 N 
ATOM      9  H7  UNL     1      23.743  -7.000  15.511  1.00  0.00     0.185 HD
ENDROOT
BRANCH   1  10
HETATM   10  C4  UNL     1      25.460  -8.388  13.903  1.00  0.00     0.245 C 
BRANCH  10  11
HETATM   11  O1  UNL     1      26.312  -7.428  14.466  1.00  0.00    -0.383 OA
BRANCH  11  12
HETATM   12  C3  UNL     1      27.429  -8.161  14.878  1.00  0.00     0.184 C 
BRANCH  12  13
HETATM   13  C2  UNL     1      27.280  -8.944  16.125  1.00  0.00     0.138 C 
BRANCH  13  14
HETATM   14  N1  UNL     1      27.817 -10.294  16.042  1.00  0.00    -0.240 NA
HETATM   15  C1  UNL     1      28.380 -10.540  14.715  1.00  0.00     0.135 C 
BRANCH  14  16
HETATM   16  N2  UNL     1      26.653 -11.123  16.186  1.00  0.00    -0.364 NA
ATOM     17  H22 UNL     1      27.043 -12.057  16.308  1.00  0.00     0.171 HD
ATOM     18  H21 UNL     1      26.162 -10.828  17.031  1.00  0.00     0.171 HD
ENDBRANCH  14  16
ENDBRANCH  13  14
ENDBRANCH  12  13
ENDBRANCH  11  12
ENDBRANCH  10  11
ENDBRANCH   1  10
BRANCH   4  19
HETATM   19  N4  UNL     1      22.773 -11.924  15.414  1.00  0.00    -0.234 N 
ATOM     20  H42 UNL     1      22.190 -12.294  16.165  1.00  0.00     0.174 HD
ATOM     21  H41 UNL     1      23.119 -12.559  14.695  1.00  0.00     0.174 HD
ENDBRANCH   4  19
BRANCH   7  22
HETATM   22  N6  UNL     1      21.789  -7.743  16.893  1.00  0.00    -0.234 N 
ATOM     23  H62 UNL     1      21.969  -6.739  16.876  1.00  0.00     0.174 HD
ATOM     24  H61 UNL     1      21.029  -8.139  17.445  1.00  0.00     0.174 HD
ENDBRANCH   7  22
TORSDOF 8
ENDMDL
MODEL 5
REMARK VINA RESULT: -5.922846460      1.950      2.777
REMARK  8 active torsions:
REMARK  status: ('A' for Active; 'I' for Inactive)
REMARK    1  A    between atoms: N1_2  and  N2_3 
REMARK    2  A    between atoms: N1_2  and  C2_6 
REMARK    3  A    between atoms: C2_6  and  C3_7 
REMARK    4  A    between atoms: C3_7  and  O1_8 
REMARK    5  A    between atoms: O1_8  and  C4_9 
REMARK    6  A    between atoms: C4_9  and  C5_10 
REMARK    7  A    between atoms: C6_13  and  N4_14 
REMARK    8  A    between atoms: C7_19  and  N6_20 
ROOT
HETATM    1  C5  UNL     1      26.213  -9.709  14.493  1.00  0.00     0.137 A 
HETATM    2  N3  UNL     1      25.023 -10.226  14.939  1.00  0.00    -0.178 N 
ATOM      3  H3  UNL     1      24.985 -11.209  15.207  1.00  0.00     0.185 HD
HETATM    4  C6  UNL     1      23.912  -9.490  15.038  1.00  0.00     0.691 A 
HETATM    5  N5  UNL     1      23.952  -8.180  14.683  1.00  0.00    -0.023 N 
ATOM      6  H5  UNL     1      23.118  -7.597  14.748  1.00  0.00     0.203 HD
HETATM    7  C7  UNL     1      25.117  -7.664  14.241  1.00  0.00     0.691 A 
HETATM    8  N7  UNL     1      26.239  -8.424  14.148  1.00  0.00    -0.178 N 
ATOM      9  H7  UNL     1      27.107  -8.006  13.811  1.00  0.00     0.185 HD
ENDROOT
BRANCH   1  10
HETATM   10  C4  UNL     1      27.318 -10.656  14.438  1.00  0.00     0.245 C 
BRANCH  10  11
HETATM   11  O1  UNL     1      28.412 -10.356  15.260  1.00  0.00    -0.383 OA
BRANCH  11  12
HETATM   12  C3  UNL     1      28.139 -11.033  16.452  1.00  0.00     0.184 C 
BRANCH  12  13
HETATM   13  C2  UNL     1      28.488 -12.472  16.487  1.00  0.00     0.138 C 
BRANCH  13  14
HETATM   14  N1  UNL     1      29.855 -12.758  16.079  1.00  0.00    -0.240 NA
HETATM   15  C1  UNL     1      30.375 -13.917  16.804  1.00  0.00     0.135 C 
BRANCH  14  16
HETATM   16  N2  UNL     1      30.581 -11.601  16.521  1.00  0.00    -0.364 NA
ATOM     17  H22 UNL     1      31.345 -11.530  15.848  1.00  0.00     0.171 HD
ATOM     18  H21 UNL     1      29.961 -10.794  16.443  1.00  0.00     0.171 HD
ENDBRANCH  14  16
ENDBRANCH  13  14
ENDBRANCH  12  13
ENDBRANCH  11  12
ENDBRANCH  10  11
ENDBRANCH   1  10
BRANCH   4  19
HETATM   19  N4  UNL     1      22.791  -9.969  15.461  1.00  0.00    -0.234 N 
ATOM     20  H42 UNL     1      22.498  -9.739  16.411  1.00  0.00     0.174 HD
ATOM     21  H41 UNL     1      22.194 -10.565  14.888  1.00  0.00     0.174 HD
ENDBRANCH   4  19
BRANCH   7  22
HETATM   22  N6  UNL     1      25.163  -6.427  13.889  1.00  0.00    -0.234 N 
ATOM     23  H62 UNL     1      24.464  -6.067  13.239  1.00  0.00     0.174 HD
ATOM     24  H61 UNL     1      25.892  -5.827  14.275  1.00  0.00     0.174 HD
ENDBRANCH   7  22
TORSDOF 8
ENDMDL
