MODEL 1
REMARK VINA RESULT: -9.707663228      0.000      0.000
REMARK  18 active torsions:
REMARK  status: ('A' for Active; 'I' for Inactive)
REMARK       I    between atoms: C1_4  and  N3_6 
REMARK    1  A    between atoms: N3_6  and  C2_8 
REMARK    2  A    between atoms: C2_8  and  O1_9 
REMARK    3  A    between atoms: C2_8  and  N4_11 
REMARK    4  A    between atoms: N4_11  and  C3_12 
REMARK    5  A    between atoms: C3_12  and  C4_13 
REMARK    6  A    between atoms: C5_14  and  O2_15 
REMARK    7  A    between atoms: C7_18  and  N5_19 
REMARK       I    between atoms: N5_19  and  C8_21 
REMARK    8  A    between atoms: C8_21  and  C9_23 
REMARK    9  A    between atoms: C9_23  and  N6_24 
REMARK   10  A    between atoms: C10_28  and  C11_29 
REMARK   11  A    between atoms: C11_29  and  C12_30 
REMARK   12  A    between atoms: C12_30  and  O4_31 
REMARK   13  A    between atoms: C12_30  and  C13_33 
REMARK   14  A    between atoms: C13_33  and  N9_34 
REMARK   15  A    between atoms: C15_39  and  N12_40 
REMARK   16  A    between atoms: C16_45  and  N14_46 
REMARK   17  A    between atoms: C18_54  and  O5_55 
REMARK   18  A    between atoms: C19_57  and  O6_58 
ROOT
HETATM    1  N6  UNL     1     -16.748  24.538   5.224  1.00  0.00    -0.208 N 
HETATM    2  N7  UNL     1     -17.041  23.254   5.050  1.00  0.00    -0.003 NA
HETATM    3  N8  UNL     1     -17.866  23.183   4.019  1.00  0.00    -0.270 N 
ATOM      4  H8  UNL     1     -18.264  22.319   3.650  1.00  0.00     0.185 HD
HETATM    5  C10 UNL     1     -18.106  24.410   3.529  1.00  0.00     0.112 A 
HETATM    6  N16 UNL     1     -17.385  25.241   4.312  1.00  0.00    -0.272 N 
ATOM      7  H16 UNL     1     -17.340  26.255   4.211  1.00  0.00     0.189 HD
ENDROOT
BRANCH   1   8
HETATM    8  C9  UNL     1     -15.879  25.051   6.242  1.00  0.00     0.270 C 
BRANCH   8   9
HETATM    9  C8  UNL     1     -15.513  23.918   7.177  1.00  0.00     0.243 C 
HETATM   10  N5  UNL     1     -14.518  23.035   6.749  1.00  0.00    -0.323 N 
ATOM     11  H5  UNL     1     -14.105  23.216   5.834  1.00  0.00     0.169 HD
HETATM   12  O3  UNL     1     -16.120  23.852   8.259  1.00  0.00    -0.271 OA
BRANCH  10  13
HETATM   13  C7  UNL     1     -14.030  21.920   7.458  1.00  0.00     0.073 A 
HETATM   14  C6  UNL     1     -14.522  20.647   7.329  1.00  0.00     0.070 A 
HETATM   15  C5  UNL     1     -13.966  19.596   8.079  1.00  0.00     0.083 A 
HETATM   16  C4  UNL     1     -12.935  19.784   8.953  1.00  0.00     0.061 A 
HETATM   17  C19 UNL     1     -12.437  21.061   9.086  1.00  0.00     0.116 A 
HETATM   18  C18 UNL     1     -12.962  22.106   8.364  1.00  0.00     0.127 A 
BRANCH  15  19
HETATM   19  O2  UNL     1     -14.484  18.320   7.927  1.00  0.00    -0.360 OA
ATOM     20  H2  UNL     1     -15.031  18.137   7.172  1.00  0.00     0.217 HD
ENDBRANCH  15  19
BRANCH  16  21
HETATM   21  C3  UNL     1     -12.378  18.646   9.723  1.00  0.00     0.197 C 
BRANCH  21  22
HETATM   22  N4  UNL     1     -12.165  18.607  10.891  1.00  0.00    -0.408 NA
BRANCH  22  23
HETATM   23  C2  UNL     1     -11.933  18.576  12.206  1.00  0.00     0.410 C 
BRANCH  23  24
HETATM   24  N3  UNL     1     -11.889  19.911  12.831  1.00  0.00    -0.311 N 
HETATM   25  C1  UNL     1     -11.530  20.048  14.199  1.00  0.00     0.185 C 
HETATM   26  N1  UNL     1     -11.293  21.177  14.747  1.00  0.00    -0.374 N 
HETATM   27  N2  UNL     1     -11.430  18.871  14.988  1.00  0.00    -0.064 NA
ATOM     28  H12 UNL     1     -11.035  21.276  15.728  1.00  0.00     0.158 HD
ATOM     29  H11 UNL     1     -11.365  22.022  14.180  1.00  0.00     0.158 HD
ATOM     30  H3  UNL     1     -12.116  20.738  12.281  1.00  0.00     0.167 HD
ENDBRANCH  23  24
BRANCH  23  31
HETATM   31  O1  UNL     1     -12.947  17.849  12.885  1.00  0.00    -0.349 OA
ATOM     32  H1  UNL     1     -12.558  17.020  13.139  1.00  0.00     0.215 HD
ENDBRANCH  23  31
ENDBRANCH  22  23
ENDBRANCH  21  22
ENDBRANCH  16  21
BRANCH  17  33
HETATM   33  O6  UNL     1     -11.393  21.315   9.956  1.00  0.00    -0.357 OA
ATOM     34  H6  UNL     1     -10.515  21.014   9.753  1.00  0.00     0.217 HD
ENDBRANCH  17  33
BRANCH  18  35
HETATM   35  O5  UNL     1     -12.463  23.372   8.502  1.00  0.00    -0.356 OA
ATOM     36  H5  UNL     1     -11.588  23.538   8.172  1.00  0.00     0.218 HD
ENDBRANCH  18  35
ENDBRANCH  10  13
ENDBRANCH   8   9
ENDBRANCH   1   8
BRANCH   5  37
HETATM   37  C11 UNL     1     -18.952  24.844   2.401  1.00  0.00     0.112 C 
BRANCH  37  38
HETATM   38  C12 UNL     1     -18.107  25.218   1.233  1.00  0.00     0.144 C 
BRANCH  38  39
HETATM   39  O4  UNL     1     -16.850  24.626   1.251  1.00  0.00    -0.394 OA
ATOM     40  H4  UNL     1     -16.645  24.153   0.454  1.00  0.00     0.210 HD
ENDBRANCH  38  39
BRANCH  38  41
HETATM   41  C13 UNL     1     -18.774  25.069  -0.112  1.00  0.00     0.180 C 
BRANCH  41  42
HETATM   42  N9  UNL     1     -18.159  24.062  -0.951  1.00  0.00    -0.173 N 
HETATM   43  C14 UNL     1     -17.560  24.300  -2.143  1.00  0.00     0.219 A 
HETATM   44  N10 UNL     1     -17.116  23.128  -2.625  1.00  0.00    -0.260 N 
HETATM   45  N11 UNL     1     -17.407  22.138  -1.786  1.00  0.00     0.092 N 
ATOM     46  H10 UNL     1     -16.624  23.013  -3.511  1.00  0.00     0.189 HD
HETATM   47  C15 UNL     1     -17.184  20.814  -1.809  1.00  0.00     0.727 A 
HETATM   48  C17 UNL     1     -18.051  22.734  -0.756  1.00  0.00     0.736 A 
HETATM   49  N13 UNL     1     -17.618  20.078  -0.778  1.00  0.00    -0.020 N 
HETATM   50  C16 UNL     1     -18.262  20.649   0.259  1.00  0.00     0.705 A 
ATOM     51  H13 UNL     1     -17.459  19.070  -0.777  1.00  0.00     0.203 HD
HETATM   52  N15 UNL     1     -18.480  21.974   0.273  1.00  0.00    -0.019 N 
ATOM     53  H15 UNL     1     -18.968  22.404   1.059  1.00  0.00     0.203 HD
BRANCH  47  54
HETATM   54  N12 UNL     1     -16.568  20.268  -2.797  1.00  0.00    -0.232 N 
ATOM     55 2H12 UNL     1     -17.087  19.847  -3.568  1.00  0.00     0.174 HD
ATOM     56 1H12 UNL     1     -15.549  20.245  -2.829  1.00  0.00     0.174 HD
ENDBRANCH  47  54
BRANCH  50  57
HETATM   57  N14 UNL     1     -18.671  19.888   1.250  1.00  0.00    -0.234 N 
ATOM     58 2H14 UNL     1     -18.058  19.681   2.038  1.00  0.00     0.174 HD
ATOM     59 1H14 UNL     1     -19.616  19.505   1.221  1.00  0.00     0.174 HD
ENDBRANCH  50  57
ENDBRANCH  41  42
ENDBRANCH  38  41
ENDBRANCH  37  38
ENDBRANCH   5  37
TORSDOF 18
ENDMDL
MODEL 2
REMARK VINA RESULT: -9.667599881      1.682      2.860
REMARK  18 active torsions:
REMARK  status: ('A' for Active; 'I' for Inactive)
REMARK       I    between atoms: C1_4  and  N3_6 
REMARK    1  A    between atoms: N3_6  and  C2_8 
REMARK    2  A    between atoms: C2_8  and  O1_9 
REMARK    3  A    between atoms: C2_8  and  N4_11 
REMARK    4  A    between atoms: N4_11  and  C3_12 
REMARK    5  A    between atoms: C3_12  and  C4_13 
REMARK    6  A    between atoms: C5_14  and  O2_15 
REMARK    7  A    between atoms: C7_18  and  N5_19 
REMARK       I    between atoms: N5_19  and  C8_21 
REMARK    8  A    between atoms: C8_21  and  C9_23 
REMARK    9  A    between atoms: C9_23  and  N6_24 
REMARK   10  A    between atoms: C10_28  and  C11_29 
REMARK   11  A    between atoms: C11_29  and  C12_30 
REMARK   12  A    between atoms: C12_30  and  O4_31 
REMARK   13  A    between atoms: C12_30  and  C13_33 
REMARK   14  A    between atoms: C13_33  and  N9_34 
REMARK   15  A    between atoms: C15_39  and  N12_40 
REMARK   16  A    between atoms: C16_45  and  N14_46 
REMARK   17  A    between atoms: C18_54  and  O5_55 
REMARK   18  A    between atoms: C19_57  and  O6_58 
ROOT
HETATM    1  N6  UNL     1     -15.610  24.649   6.365  1.00  0.00    -0.208 N 
HETATM    2  N7  UNL     1     -16.366  25.647   5.922  1.00  0.00    -0.003 NA
HETATM    3  N8  UNL     1     -17.072  25.175   4.908  1.00  0.00    -0.270 N 
ATOM      4  H8  UNL     1     -17.746  25.716   4.365  1.00  0.00     0.185 HD
HETATM    5  C10 UNL     1     -16.775  23.883   4.695  1.00  0.00     0.112 A 
HETATM    6  N16 UNL     1     -15.850  23.583   5.632  1.00  0.00    -0.272 N 
ATOM      7  H16 UNL     1     -15.407  22.672   5.753  1.00  0.00     0.189 HD
ENDROOT
BRANCH   1   8
HETATM    8  C9  UNL     1     -14.691  24.740   7.462  1.00  0.00     0.270 C 
BRANCH   8   9
HETATM    9  C8  UNL     1     -14.582  23.377   8.112  1.00  0.00     0.243 C 
HETATM   10  N5  UNL     1     -13.373  22.694   7.957  1.00  0.00    -0.323 N 
ATOM     11  H5  UNL     1     -12.645  23.162   7.416  1.00  0.00     0.169 HD
HETATM   12  O3  UNL     1     -15.572  22.961   8.737  1.00  0.00    -0.271 OA
BRANCH  10  13
HETATM   13  C7  UNL     1     -13.061  21.421   8.475  1.00  0.00     0.073 A 
HETATM   14  C6  UNL     1     -12.975  21.132   9.813  1.00  0.00     0.070 A 
HETATM   15  C5  UNL     1     -12.661  19.829  10.233  1.00  0.00     0.083 A 
HETATM   16  C4  UNL     1     -12.431  18.809   9.355  1.00  0.00     0.061 A 
HETATM   17  C19 UNL     1     -12.517  19.094   8.011  1.00  0.00     0.116 A 
HETATM   18  C18 UNL     1     -12.823  20.360   7.573  1.00  0.00     0.127 A 
BRANCH  15  19
HETATM   19  O2  UNL     1     -12.580  19.567  11.592  1.00  0.00    -0.360 OA
ATOM     20  H2  UNL     1     -11.836  19.901  12.077  1.00  0.00     0.217 HD
ENDBRANCH  15  19
BRANCH  16  21
HETATM   21  C3  UNL     1     -12.103  17.448   9.844  1.00  0.00     0.197 C 
BRANCH  21  22
HETATM   22  N4  UNL     1     -11.390  17.164  10.751  1.00  0.00    -0.408 NA
BRANCH  22  23
HETATM   23  C2  UNL     1     -10.598  16.855  11.780  1.00  0.00     0.410 C 
BRANCH  23  24
HETATM   24  N3  UNL     1     -11.276  16.089  12.842  1.00  0.00    -0.311 N 
HETATM   25  C1  UNL     1     -11.850  16.763  13.953  1.00  0.00     0.185 C 
HETATM   26  N1  UNL     1     -12.606  16.183  14.804  1.00  0.00    -0.374 N 
HETATM   27  N2  UNL     1     -11.568  18.145  14.120  1.00  0.00    -0.064 NA
ATOM     28  H12 UNL     1     -13.019  16.666  15.601  1.00  0.00     0.158 HD
ATOM     29  H11 UNL     1     -12.808  15.190  14.685  1.00  0.00     0.158 HD
ATOM     30  H3  UNL     1     -11.333  15.074  12.779  1.00  0.00     0.167 HD
ENDBRANCH  23  24
BRANCH  23  31
HETATM   31  O1  UNL     1      -9.497  16.062  11.355  1.00  0.00    -0.349 OA
ATOM     32  H1  UNL     1      -9.009  16.592  10.736  1.00  0.00     0.215 HD
ENDBRANCH  23  31
ENDBRANCH  22  23
ENDBRANCH  21  22
ENDBRANCH  16  21
BRANCH  17  33
HETATM   33  O6  UNL     1     -12.294  18.104   7.072  1.00  0.00    -0.357 OA
ATOM     34  H6  UNL     1     -11.879  18.313   6.244  1.00  0.00     0.217 HD
ENDBRANCH  17  33
BRANCH  18  35
HETATM   35  O5  UNL     1     -12.906  20.637   6.236  1.00  0.00    -0.356 OA
ATOM     36  H5  UNL     1     -12.977  19.901   5.638  1.00  0.00     0.218 HD
ENDBRANCH  18  35
ENDBRANCH  10  13
ENDBRANCH   8   9
ENDBRANCH   1   8
BRANCH   5  37
HETATM   37  C11 UNL     1     -17.289  22.934   3.690  1.00  0.00     0.112 C 
BRANCH  37  38
HETATM   38  C12 UNL     1     -17.994  23.664   2.599  1.00  0.00     0.144 C 
BRANCH  38  39
HETATM   39  O4  UNL     1     -17.129  24.283   1.704  1.00  0.00    -0.394 OA
ATOM     40  H4  UNL     1     -17.479  24.342   0.824  1.00  0.00     0.210 HD
ENDBRANCH  38  39
BRANCH  38  41
HETATM   41  C13 UNL     1     -19.062  22.872   1.887  1.00  0.00     0.180 C 
BRANCH  41  42
HETATM   42  N9  UNL     1     -18.539  21.991   0.863  1.00  0.00    -0.173 N 
HETATM   43  C14 UNL     1     -18.416  20.647   0.980  1.00  0.00     0.219 A 
HETATM   44  N10 UNL     1     -17.890  20.179  -0.163  1.00  0.00    -0.260 N 
HETATM   45  N11 UNL     1     -17.668  21.173  -1.017  1.00  0.00     0.092 N 
ATOM     46  H10 UNL     1     -17.690  19.196  -0.351  1.00  0.00     0.189 HD
HETATM   47  C15 UNL     1     -17.166  21.226  -2.261  1.00  0.00     0.727 A 
HETATM   48  C17 UNL     1     -18.075  22.287  -0.366  1.00  0.00     0.736 A 
HETATM   49  N13 UNL     1     -17.073  22.420  -2.860  1.00  0.00    -0.020 N 
HETATM   50  C16 UNL     1     -17.472  23.544  -2.231  1.00  0.00     0.705 A 
ATOM     51  H13 UNL     1     -16.694  22.481  -3.805  1.00  0.00     0.203 HD
HETATM   52  N15 UNL     1     -17.973  23.480  -0.987  1.00  0.00    -0.019 N 
ATOM     53  H15 UNL     1     -18.275  24.332  -0.513  1.00  0.00     0.203 HD
BRANCH  47  54
HETATM   54  N12 UNL     1     -16.785  20.155  -2.863  1.00  0.00    -0.232 N 
ATOM     55 2H12 UNL     1     -17.111  19.939  -3.805  1.00  0.00     0.174 HD
ATOM     56 1H12 UNL     1     -16.149  19.500  -2.409  1.00  0.00     0.174 HD
ENDBRANCH  47  54
BRANCH  50  57
HETATM   57  N14 UNL     1     -17.362  24.695  -2.857  1.00  0.00    -0.234 N 
ATOM     58 2H14 UNL     1     -17.313  24.735  -3.874  1.00  0.00     0.174 HD
ATOM     59 1H14 UNL     1     -17.327  25.553  -2.307  1.00  0.00     0.174 HD
ENDBRANCH  50  57
ENDBRANCH  41  42
ENDBRANCH  38  41
ENDBRANCH  37  38
ENDBRANCH   5  37
TORSDOF 18
ENDMDL
MODEL 3
REMARK VINA RESULT: -9.638325337      2.061      3.262
REMARK  18 active torsions:
REMARK  status: ('A' for Active; 'I' for Inactive)
REMARK       I    between atoms: C1_4  and  N3_6 
REMARK    1  A    between atoms: N3_6  and  C2_8 
REMARK    2  A    between atoms: C2_8  and  O1_9 
REMARK    3  A    between atoms: C2_8  and  N4_11 
REMARK    4  A    between atoms: N4_11  and  C3_12 
REMARK    5  A    between atoms: C3_12  and  C4_13 
REMARK    6  A    between atoms: C5_14  and  O2_15 
REMARK    7  A    between atoms: C7_18  and  N5_19 
REMARK       I    between atoms: N5_19  and  C8_21 
REMARK    8  A    between atoms: C8_21  and  C9_23 
REMARK    9  A    between atoms: C9_23  and  N6_24 
REMARK   10  A    between atoms: C10_28  and  C11_29 
REMARK   11  A    between atoms: C11_29  and  C12_30 
REMARK   12  A    between atoms: C12_30  and  O4_31 
REMARK   13  A    between atoms: C12_30  and  C13_33 
REMARK   14  A    between atoms: C13_33  and  N9_34 
REMARK   15  A    between atoms: C15_39  and  N12_40 
REMARK   16  A    between atoms: C16_45  and  N14_46 
REMARK   17  A    between atoms: C18_54  and  O5_55 
REMARK   18  A    between atoms: C19_57  and  O6_58 
ROOT
HETATM    1  N6  UNL     1     -15.650  24.595   6.305  1.00  0.00    -0.208 N 
HETATM    2  N7  UNL     1     -16.327  25.647   5.860  1.00  0.00    -0.003 NA
HETATM    3  N8  UNL     1     -17.013  25.246   4.803  1.00  0.00    -0.270 N 
ATOM      4  H8  UNL     1     -17.629  25.841   4.248  1.00  0.00     0.185 HD
HETATM    5  C10 UNL     1     -16.782  23.945   4.564  1.00  0.00     0.112 A 
HETATM    6  N16 UNL     1     -15.919  23.565   5.531  1.00  0.00    -0.272 N 
ATOM      7  H16 UNL     1     -15.535  22.626   5.643  1.00  0.00     0.189 HD
ENDROOT
BRANCH   1   8
HETATM    8  C9  UNL     1     -14.778  24.601   7.442  1.00  0.00     0.270 C 
BRANCH   8   9
HETATM    9  C8  UNL     1     -14.662  23.185   7.967  1.00  0.00     0.243 C 
HETATM   10  N5  UNL     1     -13.378  22.640   8.047  1.00  0.00    -0.323 N 
ATOM     11  H5  UNL     1     -12.605  23.234   7.747  1.00  0.00     0.169 HD
HETATM   12  O3  UNL     1     -15.714  22.608   8.291  1.00  0.00    -0.271 OA
BRANCH  10  13
HETATM   13  C7  UNL     1     -13.047  21.348   8.503  1.00  0.00     0.073 A 
HETATM   14  C6  UNL     1     -12.946  20.998   9.825  1.00  0.00     0.070 A 
HETATM   15  C5  UNL     1     -12.613  19.680  10.182  1.00  0.00     0.083 A 
HETATM   16  C4  UNL     1     -12.379  18.706   9.255  1.00  0.00     0.061 A 
HETATM   17  C19 UNL     1     -12.479  19.053   7.926  1.00  0.00     0.116 A 
HETATM   18  C18 UNL     1     -12.804  20.334   7.551  1.00  0.00     0.127 A 
BRANCH  15  19
HETATM   19  O2  UNL     1     -12.519  19.356  11.526  1.00  0.00    -0.360 OA
ATOM     20  H2  UNL     1     -12.541  20.057  12.166  1.00  0.00     0.217 HD
ENDBRANCH  15  19
BRANCH  16  21
HETATM   21  C3  UNL     1     -12.031  17.328   9.677  1.00  0.00     0.197 C 
BRANCH  21  22
HETATM   22  N4  UNL     1     -11.546  16.995  10.710  1.00  0.00    -0.408 NA
BRANCH  22  23
HETATM   23  C2  UNL     1     -11.009  16.606  11.868  1.00  0.00     0.410 C 
BRANCH  23  24
HETATM   24  N3  UNL     1      -9.754  15.847  11.715  1.00  0.00    -0.311 N 
HETATM   25  C1  UNL     1      -9.763  14.429  11.793  1.00  0.00     0.185 C 
HETATM   26  N1  UNL     1      -8.753  13.709  11.487  1.00  0.00    -0.374 N 
HETATM   27  N2  UNL     1     -10.952  13.788  12.232  1.00  0.00    -0.064 NA
ATOM     28  H12 UNL     1      -8.759  12.690  11.543  1.00  0.00     0.158 HD
ATOM     29  H11 UNL     1      -7.899  14.169  11.173  1.00  0.00     0.158 HD
ATOM     30  H3  UNL     1      -8.878  16.342  11.553  1.00  0.00     0.167 HD
ENDBRANCH  23  24
BRANCH  23  31
HETATM   31  O1  UNL     1     -10.702  17.725  12.689  1.00  0.00    -0.349 OA
ATOM     32  H1  UNL     1     -11.408  18.350  12.565  1.00  0.00     0.215 HD
ENDBRANCH  23  31
ENDBRANCH  22  23
ENDBRANCH  21  22
ENDBRANCH  16  21
BRANCH  17  33
HETATM   33  O6  UNL     1     -12.252  18.110   6.941  1.00  0.00    -0.357 OA
ATOM     34  H6  UNL     1     -11.943  18.377   6.083  1.00  0.00     0.217 HD
ENDBRANCH  17  33
BRANCH  18  35
HETATM   35  O5  UNL     1     -12.901  20.671   6.228  1.00  0.00    -0.356 OA
ATOM     36  H5  UNL     1     -12.092  20.802   5.747  1.00  0.00     0.218 HD
ENDBRANCH  18  35
ENDBRANCH  10  13
ENDBRANCH   8   9
ENDBRANCH   1   8
BRANCH   5  37
HETATM   37  C11 UNL     1     -17.305  23.056   3.510  1.00  0.00     0.112 C 
BRANCH  37  38
HETATM   38  C12 UNL     1     -18.083  23.839   2.509  1.00  0.00     0.144 C 
BRANCH  38  39
HETATM   39  O4  UNL     1     -17.283  24.574   1.644  1.00  0.00    -0.394 OA
ATOM     40  H4  UNL     1     -17.303  24.255   0.750  1.00  0.00     0.210 HD
ENDBRANCH  38  39
BRANCH  38  41
HETATM   41  C13 UNL     1     -19.137  23.057   1.766  1.00  0.00     0.180 C 
BRANCH  41  42
HETATM   42  N9  UNL     1     -18.590  22.138   0.789  1.00  0.00    -0.173 N 
HETATM   43  C14 UNL     1     -18.475  20.799   0.957  1.00  0.00     0.219 A 
HETATM   44  N10 UNL     1     -17.920  20.288  -0.154  1.00  0.00    -0.260 N 
HETATM   45  N11 UNL     1     -17.672  21.251  -1.036  1.00  0.00     0.092 N 
ATOM     46  H10 UNL     1     -17.718  19.299  -0.300  1.00  0.00     0.189 HD
HETATM   47  C15 UNL     1     -17.138  21.257  -2.268  1.00  0.00     0.727 A 
HETATM   48  C17 UNL     1     -18.093  22.389  -0.437  1.00  0.00     0.736 A 
HETATM   49  N13 UNL     1     -17.025  22.429  -2.907  1.00  0.00    -0.020 N 
HETATM   50  C16 UNL     1     -17.437  23.575  -2.330  1.00  0.00     0.705 A 
ATOM     51  H13 UNL     1     -16.621  22.454  -3.843  1.00  0.00     0.203 HD
HETATM   52  N15 UNL     1     -17.971  23.558  -1.098  1.00  0.00    -0.019 N 
ATOM     53  H15 UNL     1     -18.282  24.427  -0.663  1.00  0.00     0.203 HD
BRANCH  47  54
HETATM   54  N12 UNL     1     -16.744  20.164  -2.821  1.00  0.00    -0.232 N 
ATOM     55 2H12 UNL     1     -17.288  19.730  -3.567  1.00  0.00     0.174 HD
ATOM     56 1H12 UNL     1     -15.881  19.711  -2.523  1.00  0.00     0.174 HD
ENDBRANCH  47  54
BRANCH  50  57
HETATM   57  N14 UNL     1     -17.307  24.703  -2.993  1.00  0.00    -0.234 N 
ATOM     58 2H14 UNL     1     -17.594  24.772  -3.970  1.00  0.00     0.174 HD
ATOM     59 1H14 UNL     1     -16.914  25.514  -2.515  1.00  0.00     0.174 HD
ENDBRANCH  50  57
ENDBRANCH  41  42
ENDBRANCH  38  41
ENDBRANCH  37  38
ENDBRANCH   5  37
TORSDOF 18
ENDMDL
MODEL 4
REMARK VINA RESULT: -9.562037159      0.903      1.204
REMARK  18 active torsions:
REMARK  status: ('A' for Active; 'I' for Inactive)
REMARK       I    between atoms: C1_4  and  N3_6 
REMARK    1  A    between atoms: N3_6  and  C2_8 
REMARK    2  A    between atoms: C2_8  and  O1_9 
REMARK    3  A    between atoms: C2_8  and  N4_11 
REMARK    4  A    between atoms: N4_11  and  C3_12 
REMARK    5  A    between atoms: C3_12  and  C4_13 
REMARK    6  A    between atoms: C5_14  and  O2_15 
REMARK    7  A    between atoms: C7_18  and  N5_19 
REMARK       I    between atoms: N5_19  and  C8_21 
REMARK    8  A    between atoms: C8_21  and  C9_23 
REMARK    9  A    between atoms: C9_23  and  N6_24 
REMARK   10  A    between atoms: C10_28  and  C11_29 
REMARK   11  A    between atoms: C11_29  and  C12_30 
REMARK   12  A    between atoms: C12_30  and  O4_31 
REMARK   13  A    between atoms: C12_30  and  C13_33 
REMARK   14  A    between atoms: C13_33  and  N9_34 
REMARK   15  A    between atoms: C15_39  and  N12_40 
REMARK   16  A    between atoms: C16_45  and  N14_46 
REMARK   17  A    between atoms: C18_54  and  O5_55 
REMARK   18  A    between atoms: C19_57  and  O6_58 
ROOT
HETATM    1  N6  UNL     1     -16.678  24.559   5.286  1.00  0.00    -0.208 N 
HETATM    2  N7  UNL     1     -16.966  23.287   5.033  1.00  0.00    -0.003 NA
HETATM    3  N8  UNL     1     -17.780  23.276   3.990  1.00  0.00    -0.270 N 
ATOM      4  H8  UNL     1     -18.171  22.436   3.565  1.00  0.00     0.185 HD
HETATM    5  C10 UNL     1     -18.017  24.531   3.572  1.00  0.00     0.112 A 
HETATM    6  N16 UNL     1     -17.306  25.314   4.411  1.00  0.00    -0.272 N 
ATOM      7  H16 UNL     1     -17.263  26.333   4.371  1.00  0.00     0.189 HD
ENDROOT
BRANCH   1   8
HETATM    8  C9  UNL     1     -15.821  25.011   6.343  1.00  0.00     0.270 C 
BRANCH   8   9
HETATM    9  C8  UNL     1     -15.496  23.833   7.236  1.00  0.00     0.243 C 
HETATM   10  N5  UNL     1     -14.465  22.986   6.822  1.00  0.00    -0.323 N 
ATOM     11  H5  UNL     1     -14.001  23.220   5.945  1.00  0.00     0.169 HD
HETATM   12  O3  UNL     1     -16.167  23.702   8.274  1.00  0.00    -0.271 OA
BRANCH  10  13
HETATM   13  C7  UNL     1     -14.005  21.838   7.499  1.00  0.00     0.073 A 
HETATM   14  C6  UNL     1     -14.545  20.586   7.351  1.00  0.00     0.070 A 
HETATM   15  C5  UNL     1     -14.014  19.501   8.069  1.00  0.00     0.083 A 
HETATM   16  C4  UNL     1     -12.962  19.633   8.928  1.00  0.00     0.061 A 
HETATM   17  C19 UNL     1     -12.416  20.889   9.079  1.00  0.00     0.116 A 
HETATM   18  C18 UNL     1     -12.917  21.966   8.389  1.00  0.00     0.127 A 
BRANCH  15  19
HETATM   19  O2  UNL     1     -14.580  18.247   7.899  1.00  0.00    -0.360 OA
ATOM     20  H2  UNL     1     -15.514  18.146   8.040  1.00  0.00     0.217 HD
ENDBRANCH  15  19
BRANCH  16  21
HETATM   21  C3  UNL     1     -12.433  18.460   9.664  1.00  0.00     0.197 C 
BRANCH  21  22
HETATM   22  N4  UNL     1     -12.218  18.382  10.830  1.00  0.00    -0.408 NA
BRANCH  22  23
HETATM   23  C2  UNL     1     -11.988  18.304  12.142  1.00  0.00     0.410 C 
BRANCH  23  24
HETATM   24  N3  UNL     1     -11.394  17.022  12.565  1.00  0.00    -0.311 N 
HETATM   25  C1  UNL     1     -11.266  16.715  13.946  1.00  0.00     0.185 C 
HETATM   26  N1  UNL     1     -10.935  15.558  14.374  1.00  0.00    -0.374 N 
HETATM   27  N2  UNL     1     -11.519  17.746  14.890  1.00  0.00    -0.064 NA
ATOM     28  H12 UNL     1     -10.843  15.337  15.365  1.00  0.00     0.158 HD
ATOM     29  H11 UNL     1     -10.753  14.817  13.696  1.00  0.00     0.158 HD
ATOM     30  H3  UNL     1     -11.073  16.355  11.864  1.00  0.00     0.167 HD
ENDBRANCH  23  24
BRANCH  23  31
HETATM   31  O1  UNL     1     -11.090  19.321  12.564  1.00  0.00    -0.349 OA
ATOM     32  H1  UNL     1     -11.317  20.100  12.071  1.00  0.00     0.215 HD
ENDBRANCH  23  31
ENDBRANCH  22  23
ENDBRANCH  21  22
ENDBRANCH  16  21
BRANCH  17  33
HETATM   33  O6  UNL     1     -11.349  21.086   9.936  1.00  0.00    -0.357 OA
ATOM     34  H6  UNL     1     -10.891  20.343  10.311  1.00  0.00     0.217 HD
ENDBRANCH  17  33
BRANCH  18  35
HETATM   35  O5  UNL     1     -12.370  23.211   8.545  1.00  0.00    -0.356 OA
ATOM     36  H5  UNL     1     -11.795  23.529   7.858  1.00  0.00     0.218 HD
ENDBRANCH  18  35
ENDBRANCH  10  13
ENDBRANCH   8   9
ENDBRANCH   1   8
BRANCH   5  37
HETATM   37  C11 UNL     1     -18.851  25.030   2.462  1.00  0.00     0.112 C 
BRANCH  37  38
HETATM   38  C12 UNL     1     -18.012  25.288   1.258  1.00  0.00     0.144 C 
BRANCH  38  39
HETATM   39  O4  UNL     1     -16.800  24.609   1.277  1.00  0.00    -0.394 OA
ATOM     40  H4  UNL     1     -16.652  24.082   0.501  1.00  0.00     0.210 HD
ENDBRANCH  38  39
BRANCH  38  41
HETATM   41  C13 UNL     1     -18.724  25.124  -0.062  1.00  0.00     0.180 C 
BRANCH  41  42
HETATM   42  N9  UNL     1     -18.136  24.108  -0.911  1.00  0.00    -0.173 N 
HETATM   43  C14 UNL     1     -17.549  24.338  -2.110  1.00  0.00     0.219 A 
HETATM   44  N10 UNL     1     -17.130  23.160  -2.599  1.00  0.00    -0.260 N 
HETATM   45  N11 UNL     1     -17.425  22.174  -1.757  1.00  0.00     0.092 N 
ATOM     46  H10 UNL     1     -16.651  23.038  -3.491  1.00  0.00     0.189 HD
HETATM   47  C15 UNL     1     -17.223  20.847  -1.784  1.00  0.00     0.727 A 
HETATM   48  C17 UNL     1     -18.046  22.779  -0.718  1.00  0.00     0.736 A 
HETATM   49  N13 UNL     1     -17.654  20.116  -0.748  1.00  0.00    -0.020 N 
HETATM   50  C16 UNL     1     -18.276  20.696   0.298  1.00  0.00     0.705 A 
ATOM     51  H13 UNL     1     -17.511  19.106  -0.751  1.00  0.00     0.203 HD
HETATM   52  N15 UNL     1     -18.473  22.024   0.316  1.00  0.00    -0.019 N 
ATOM     53  H15 UNL     1     -18.944  22.461   1.109  1.00  0.00     0.203 HD
BRANCH  47  54
HETATM   54  N12 UNL     1     -16.629  20.292  -2.781  1.00  0.00    -0.232 N 
ATOM     55 2H12 UNL     1     -16.571  20.763  -3.684  1.00  0.00     0.174 HD
ATOM     56 1H12 UNL     1     -16.205  19.369  -2.688  1.00  0.00     0.174 HD
ENDBRANCH  47  54
BRANCH  50  57
HETATM   57  N14 UNL     1     -18.684  19.940   1.294  1.00  0.00    -0.234 N 
ATOM     58 2H14 UNL     1     -19.643  19.999   1.636  1.00  0.00     0.174 HD
ATOM     59 1H14 UNL     1     -18.025  19.290   1.721  1.00  0.00     0.174 HD
ENDBRANCH  50  57
ENDBRANCH  41  42
ENDBRANCH  38  41
ENDBRANCH  37  38
ENDBRANCH   5  37
TORSDOF 18
ENDMDL
MODEL 5
REMARK VINA RESULT: -9.412387021      1.921      2.995
REMARK  18 active torsions:
REMARK  status: ('A' for Active; 'I' for Inactive)
REMARK       I    between atoms: C1_4  and  N3_6 
REMARK    1  A    between atoms: N3_6  and  C2_8 
REMARK    2  A    between atoms: C2_8  and  O1_9 
REMARK    3  A    between atoms: C2_8  and  N4_11 
REMARK    4  A    between atoms: N4_11  and  C3_12 
REMARK    5  A    between atoms: C3_12  and  C4_13 
REMARK    6  A    between atoms: C5_14  and  O2_15 
REMARK    7  A    between atoms: C7_18  and  N5_19 
REMARK       I    between atoms: N5_19  and  C8_21 
REMARK    8  A    between atoms: C8_21  and  C9_23 
REMARK    9  A    between atoms: C9_23  and  N6_24 
REMARK   10  A    between atoms: C10_28  and  C11_29 
REMARK   11  A    between atoms: C11_29  and  C12_30 
REMARK   12  A    between atoms: C12_30  and  O4_31 
REMARK   13  A    between atoms: C12_30  and  C13_33 
REMARK   14  A    between atoms: C13_33  and  N9_34 
REMARK   15  A    between atoms: C15_39  and  N12_40 
REMARK   16  A    between atoms: C16_45  and  N14_46 
REMARK   17  A    between atoms: C18_54  and  O5_55 
REMARK   18  A    between atoms: C19_57  and  O6_58 
ROOT
HETATM    1  N6  UNL     1     -15.724  24.432   6.030  1.00  0.00    -0.208 N 
HETATM    2  N7  UNL     1     -15.746  23.202   5.528  1.00  0.00    -0.003 NA
HETATM    3  N8  UNL     1     -16.297  23.286   4.329  1.00  0.00    -0.270 N 
ATOM      4  H8  UNL     1     -16.449  22.496   3.701  1.00  0.00     0.185 HD
HETATM    5  C10 UNL     1     -16.630  24.558   4.057  1.00  0.00     0.112 A 
HETATM    6  N16 UNL     1     -16.254  25.255   5.151  1.00  0.00    -0.272 N 
ATOM      7  H16 UNL     1     -16.364  26.261   5.276  1.00  0.00     0.189 HD
ENDROOT
BRANCH   1   8
HETATM    8  C9  UNL     1     -15.203  24.782   7.319  1.00  0.00     0.270 C 
BRANCH   8   9
HETATM    9  C8  UNL     1     -14.856  23.508   8.061  1.00  0.00     0.243 C 
HETATM   10  N5  UNL     1     -13.679  22.856   7.687  1.00  0.00    -0.323 N 
ATOM     11  H5  UNL     1     -13.131  23.284   6.940  1.00  0.00     0.169 HD
HETATM   12  O3  UNL     1     -15.640  23.133   8.948  1.00  0.00    -0.271 OA
BRANCH  10  13
HETATM   13  C7  UNL     1     -13.173  21.664   8.243  1.00  0.00     0.073 A 
HETATM   14  C6  UNL     1     -12.790  21.524   9.552  1.00  0.00     0.070 A 
HETATM   15  C5  UNL     1     -12.300  20.291  10.015  1.00  0.00     0.083 A 
HETATM   16  C4  UNL     1     -12.182  19.198   9.207  1.00  0.00     0.061 A 
HETATM   17  C19 UNL     1     -12.566  19.333   7.891  1.00  0.00     0.116 A 
HETATM   18  C18 UNL     1     -13.049  20.527   7.414  1.00  0.00     0.127 A 
BRANCH  15  19
HETATM   19  O2  UNL     1     -11.920  20.180  11.344  1.00  0.00    -0.360 OA
ATOM     20  H2  UNL     1     -11.139  20.635  11.634  1.00  0.00     0.217 HD
ENDBRANCH  15  19
BRANCH  16  21
HETATM   21  C3  UNL     1     -11.660  17.916   9.739  1.00  0.00     0.197 C 
BRANCH  21  22
HETATM   22  N4  UNL     1     -11.845  17.460  10.821  1.00  0.00    -0.408 NA
BRANCH  22  23
HETATM   23  C2  UNL     1     -12.067  16.944  12.032  1.00  0.00     0.410 C 
BRANCH  23  24
HETATM   24  N3  UNL     1     -11.435  15.629  12.242  1.00  0.00    -0.311 N 
HETATM   25  C1  UNL     1     -10.022  15.524  12.348  1.00  0.00     0.185 C 
HETATM   26  N1  UNL     1      -9.429  14.453  12.713  1.00  0.00    -0.374 N 
HETATM   27  N2  UNL     1      -9.238  16.666  12.034  1.00  0.00    -0.064 NA
ATOM     28  H12 UNL     1      -8.415  14.378  12.789  1.00  0.00     0.158 HD
ATOM     29  H11 UNL     1      -9.992  13.633  12.938  1.00  0.00     0.158 HD
ATOM     30  H3  UNL     1     -12.013  14.792  12.311  1.00  0.00     0.167 HD
ENDBRANCH  23  24
BRANCH  23  31
HETATM   31  O1  UNL     1     -11.564  17.798  13.050  1.00  0.00    -0.349 OA
ATOM     32  H1  UNL     1     -11.778  18.685  12.787  1.00  0.00     0.215 HD
ENDBRANCH  23  31
ENDBRANCH  22  23
ENDBRANCH  21  22
ENDBRANCH  16  21
BRANCH  17  33
HETATM   33  O6  UNL     1     -12.469  18.261   7.024  1.00  0.00    -0.357 OA
ATOM     34  H6  UNL     1     -13.175  18.071   6.416  1.00  0.00     0.217 HD
ENDBRANCH  17  33
BRANCH  18  35
HETATM   35  O5  UNL     1     -13.427  20.655   6.105  1.00  0.00    -0.356 OA
ATOM     36  H5  UNL     1     -13.158  19.973   5.501  1.00  0.00     0.218 HD
ENDBRANCH  18  35
ENDBRANCH  10  13
ENDBRANCH   8   9
ENDBRANCH   1   8
BRANCH   5  37
HETATM   37  C11 UNL     1     -17.267  25.149   2.865  1.00  0.00     0.112 C 
BRANCH  37  38
HETATM   38  C12 UNL     1     -18.749  25.016   2.948  1.00  0.00     0.144 C 
BRANCH  38  39
HETATM   39  O4  UNL     1     -19.364  26.101   3.560  1.00  0.00    -0.394 OA
ATOM     40  H4  UNL     1     -19.646  26.769   2.946  1.00  0.00     0.210 HD
ENDBRANCH  38  39
BRANCH  38  41
HETATM   41  C13 UNL     1     -19.430  24.644   1.655  1.00  0.00     0.180 C 
BRANCH  41  42
HETATM   42  N9  UNL     1     -18.904  23.436   1.054  1.00  0.00    -0.173 N 
HETATM   43  C14 UNL     1     -18.833  22.228   1.666  1.00  0.00     0.219 A 
HETATM   44  N10 UNL     1     -18.285  21.359   0.802  1.00  0.00    -0.260 N 
HETATM   45  N11 UNL     1     -17.999  21.961  -0.348  1.00  0.00     0.092 N 
ATOM     46  H10 UNL     1     -18.113  20.373   1.001  1.00  0.00     0.189 HD
HETATM   47  C15 UNL     1     -17.453  21.537  -1.500  1.00  0.00     0.727 A 
HETATM   48  C17 UNL     1     -18.388  23.245  -0.174  1.00  0.00     0.736 A 
HETATM   49  N13 UNL     1     -17.297  22.422  -2.493  1.00  0.00    -0.020 N 
HETATM   50  C16 UNL     1     -17.678  23.706  -2.344  1.00  0.00     0.705 A 
ATOM     51  H13 UNL     1     -16.884  22.120  -3.375  1.00  0.00     0.203 HD
HETATM   52  N15 UNL     1     -18.223  24.120  -1.188  1.00  0.00    -0.019 N 
ATOM     53  H15 UNL     1     -18.510  25.093  -1.077  1.00  0.00     0.203 HD
BRANCH  47  54
HETATM   54  N12 UNL     1     -17.090  20.312  -1.644  1.00  0.00    -0.232 N 
ATOM     55 2H12 UNL     1     -17.553  19.705  -2.321  1.00  0.00     0.174 HD
ATOM     56 1H12 UNL     1     -16.331  19.923  -1.085  1.00  0.00     0.174 HD
ENDBRANCH  47  54
BRANCH  50  57
HETATM   57  N14 UNL     1     -17.506  24.541  -3.345  1.00  0.00    -0.234 N 
ATOM     58 2H14 UNL     1     -18.304  24.907  -3.864  1.00  0.00     0.174 HD
ATOM     59 1H14 UNL     1     -16.558  24.820  -3.597  1.00  0.00     0.174 HD
ENDBRANCH  50  57
ENDBRANCH  41  42
ENDBRANCH  38  41
ENDBRANCH  37  38
ENDBRANCH   5  37
TORSDOF 18
ENDMDL
