MODEL 1
REMARK VINA RESULT: -6.743095768      0.000      0.000
REMARK  5 active torsions:
REMARK  status: ('A' for Active; 'I' for Inactive)
REMARK    1  A    between atoms: C2_2  and  C3_3 
REMARK    2  A    between atoms: C2_2  and  N1_5 
REMARK    3  A    between atoms: N1_5  and  N2_7 
REMARK    4  A    between atoms: N2_7  and  C4_9 
REMARK    5  A    between atoms: N4_13  and  C6_14 
ROOT
HETATM    1  C4  UNL     1      90.142   8.990  34.309  1.00  0.00     0.134 A 
HETATM    2  C5  UNL     1      91.310   8.499  33.741  1.00  0.00     0.144 A 
HETATM    3  N3  UNL     1      91.821   7.606  34.598  1.00  0.00    -0.304 N 
ATOM      4  H3  UNL     1      92.683   7.085  34.438  1.00  0.00     0.186 HD
HETATM    5  N4  UNL     1      91.071   7.484  35.675  1.00  0.00    -0.251 N 
HETATM    6  C11 UNL     1      90.034   8.327  35.515  1.00  0.00     0.291 A 
HETATM    7  O1  UNL     1      89.104   8.475  36.364  1.00  0.00    -0.264 OA
ENDROOT
BRANCH   1   8
HETATM    8  N2  UNL     1      89.235   9.953  33.802  1.00  0.00    -0.294 N 
ATOM      9  H2  UNL     1      88.667   9.737  32.982  1.00  0.00     0.187 HD
BRANCH   8  10
HETATM   10  N1  UNL     1      89.129  11.080  34.365  1.00  0.00    -0.304 N 
ATOM     11  H1  UNL     1      89.027  11.139  35.379  1.00  0.00     0.186 HD
BRANCH  10  12
HETATM   12  C2  UNL     1      89.152  12.258  33.586  1.00  0.00     0.033 C 
HETATM   13  C1  UNL     1      89.554  13.542  34.184  1.00  0.00     0.070 C 
BRANCH  12  14
HETATM   14  C3  UNL     1      88.807  12.176  32.314  1.00  0.00     0.110 C 
HETATM   15 CL1  UNL     1      89.533  13.251  31.168  1.00  0.00    -0.095 Cl
ENDBRANCH  12  14
ENDBRANCH  10  12
ENDBRANCH   8  10
ENDBRANCH   1   8
BRANCH   5  16
HETATM   16  C6  UNL     1      91.358   6.603  36.773  1.00  0.00     0.111 C 
HETATM   17  C7  UNL     1      92.249   5.467  36.323  1.00  0.00     0.027 C 
HETATM   18  C8  UNL     1      92.956   5.120  37.639  1.00  0.00     0.002 C 
HETATM   19  C9  UNL     1      93.395   6.510  38.083  1.00  0.00     0.002 C 
HETATM   20  C10 UNL     1      92.084   7.277  37.909  1.00  0.00     0.027 C 
ENDBRANCH   5  16
TORSDOF 5
ENDMDL
MODEL 2
REMARK VINA RESULT: -6.650086751      2.730      6.351
REMARK  5 active torsions:
REMARK  status: ('A' for Active; 'I' for Inactive)
REMARK    1  A    between atoms: C2_2  and  C3_3 
REMARK    2  A    between atoms: C2_2  and  N1_5 
REMARK    3  A    between atoms: N1_5  and  N2_7 
REMARK    4  A    between atoms: N2_7  and  C4_9 
REMARK    5  A    between atoms: N4_13  and  C6_14 
ROOT
HETATM    1  C4  UNL     1      89.855   8.148  35.673  1.00  0.00     0.134 A 
HETATM    2  C5  UNL     1      89.437   7.838  34.386  1.00  0.00     0.144 A 
HETATM    3  N3  UNL     1      89.482   8.970  33.673  1.00  0.00    -0.304 N 
ATOM      4  H3  UNL     1      89.227   9.038  32.687  1.00  0.00     0.186 HD
HETATM    5  N4  UNL     1      89.898   9.987  34.402  1.00  0.00    -0.251 N 
HETATM    6  C11 UNL     1      90.132   9.499  35.634  1.00  0.00     0.291 A 
HETATM    7  O1  UNL     1      90.547  10.201  36.606  1.00  0.00    -0.264 OA
ENDROOT
BRANCH   1   8
HETATM    8  N2  UNL     1      89.985   7.300  36.802  1.00  0.00    -0.294 N 
ATOM      9  H2  UNL     1      89.259   6.616  37.011  1.00  0.00     0.187 HD
BRANCH   8  10
HETATM   10  N1  UNL     1      91.001   7.394  37.549  1.00  0.00    -0.304 N 
ATOM     11  H1  UNL     1      90.935   7.881  38.444  1.00  0.00     0.186 HD
BRANCH  10  12
HETATM   12  C2  UNL     1      92.225   6.823  37.141  1.00  0.00     0.033 C 
HETATM   13  C1  UNL     1      92.245   5.572  36.364  1.00  0.00     0.070 C 
BRANCH  12  14
HETATM   14  C3  UNL     1      93.346   7.438  37.472  1.00  0.00     0.110 C 
HETATM   15 CL1  UNL     1      93.322   8.621  38.736  1.00  0.00    -0.095 Cl
ENDBRANCH  12  14
ENDBRANCH  10  12
ENDBRANCH   8  10
ENDBRANCH   1   8
BRANCH   5  16
HETATM   16  C6  UNL     1      90.051  11.330  33.917  1.00  0.00     0.111 C 
HETATM   17  C7  UNL     1      90.833  11.341  32.622  1.00  0.00     0.027 C 
HETATM   18  C8  UNL     1      90.294  12.622  31.974  1.00  0.00     0.002 C 
HETATM   19  C9  UNL     1      88.796  12.398  32.141  1.00  0.00     0.002 C 
HETATM   20  C10 UNL     1      88.742  12.013  33.619  1.00  0.00     0.027 C 
ENDBRANCH   5  16
TORSDOF 5
ENDMDL
MODEL 3
REMARK VINA RESULT: -6.641571884      2.738      6.451
REMARK  5 active torsions:
REMARK  status: ('A' for Active; 'I' for Inactive)
REMARK    1  A    between atoms: C2_2  and  C3_3 
REMARK    2  A    between atoms: C2_2  and  N1_5 
REMARK    3  A    between atoms: N1_5  and  N2_7 
REMARK    4  A    between atoms: N2_7  and  C4_9 
REMARK    5  A    between atoms: N4_13  and  C6_14 
ROOT
HETATM    1  C4  UNL     1      89.978   8.722  35.904  1.00  0.00     0.134 A 
HETATM    2  C5  UNL     1      90.260  10.001  36.364  1.00  0.00     0.144 A 
HETATM    3  N3  UNL     1      90.241  10.815  35.301  1.00  0.00    -0.304 N 
ATOM      4  H3  UNL     1      90.416  11.819  35.344  1.00  0.00     0.186 HD
HETATM    5  N4  UNL     1      89.967  10.158  34.191  1.00  0.00    -0.251 N 
HETATM    6  C11 UNL     1      89.803   8.870  34.543  1.00  0.00     0.291 A 
HETATM    7  O1  UNL     1      89.527   7.942  33.724  1.00  0.00    -0.264 OA
ENDROOT
BRANCH   1   8
HETATM    8  N2  UNL     1      89.880   7.509  36.631  1.00  0.00    -0.294 N 
ATOM      9  H2  UNL     1      89.052   6.922  36.536  1.00  0.00     0.187 HD
BRANCH   8  10
HETATM   10  N1  UNL     1      90.821   7.156  37.399  1.00  0.00    -0.304 N 
ATOM     11  H1  UNL     1      90.723   7.257  38.410  1.00  0.00     0.186 HD
BRANCH  10  12
HETATM   12  C2  UNL     1      92.008   6.621  36.852  1.00  0.00     0.033 C 
HETATM   13  C1  UNL     1      91.953   5.494  35.906  1.00  0.00     0.070 C 
BRANCH  12  14
HETATM   14  C3  UNL     1      93.161   7.155  37.211  1.00  0.00     0.110 C 
HETATM   15 CL1  UNL     1      93.185   8.369  38.445  1.00  0.00    -0.095 Cl
ENDBRANCH  12  14
ENDBRANCH  10  12
ENDBRANCH   8  10
ENDBRANCH   1   8
BRANCH   5  16
HETATM   16  C6  UNL     1      89.877  10.758  32.889  1.00  0.00     0.111 C 
HETATM   17  C7  UNL     1      88.665  11.659  32.803  1.00  0.00     0.027 C 
HETATM   18  C8  UNL     1      89.124  12.653  31.729  1.00  0.00     0.002 C 
HETATM   19  C9  UNL     1      90.501  13.017  32.270  1.00  0.00     0.002 C 
HETATM   20  C10 UNL     1      91.063  11.621  32.542  1.00  0.00     0.027 C 
ENDBRANCH   5  16
TORSDOF 5
ENDMDL
MODEL 4
REMARK VINA RESULT: -6.598337586      1.126      1.401
REMARK  5 active torsions:
REMARK  status: ('A' for Active; 'I' for Inactive)
REMARK    1  A    between atoms: C2_2  and  C3_3 
REMARK    2  A    between atoms: C2_2  and  N1_5 
REMARK    3  A    between atoms: N1_5  and  N2_7 
REMARK    4  A    between atoms: N2_7  and  C4_9 
REMARK    5  A    between atoms: N4_13  and  C6_14 
ROOT
HETATM    1  C4  UNL     1      90.149   9.016  34.351  1.00  0.00     0.134 A 
HETATM    2  C5  UNL     1      91.318   8.536  33.775  1.00  0.00     0.144 A 
HETATM    3  N3  UNL     1      91.831   7.632  34.619  1.00  0.00    -0.304 N 
ATOM      4  H3  UNL     1      92.695   7.116  34.451  1.00  0.00     0.186 HD
HETATM    5  N4  UNL     1      91.083   7.492  35.695  1.00  0.00    -0.251 N 
HETATM    6  C11 UNL     1      90.044   8.335  35.548  1.00  0.00     0.291 A 
HETATM    7  O1  UNL     1      89.114   8.469  36.399  1.00  0.00    -0.264 OA
ENDROOT
BRANCH   1   8
HETATM    8  N2  UNL     1      89.239   9.984  33.858  1.00  0.00    -0.294 N 
ATOM      9  H2  UNL     1      88.656   9.771  33.049  1.00  0.00     0.187 HD
BRANCH   8  10
HETATM   10  N1  UNL     1      89.150  11.113  34.422  1.00  0.00    -0.304 N 
ATOM     11  H1  UNL     1      89.073  11.173  35.438  1.00  0.00     0.186 HD
BRANCH  10  12
HETATM   12  C2  UNL     1      89.156  12.288  33.640  1.00  0.00     0.033 C 
HETATM   13  C1  UNL     1      88.756  12.246  32.224  1.00  0.00     0.070 C 
BRANCH  12  14
HETATM   14  C3  UNL     1      89.529  13.419  34.211  1.00  0.00     0.110 C 
HETATM   15 CL1  UNL     1      88.787  13.902  35.699  1.00  0.00    -0.095 Cl
ENDBRANCH  12  14
ENDBRANCH  10  12
ENDBRANCH   8  10
ENDBRANCH   1   8
BRANCH   5  16
HETATM   16  C6  UNL     1      91.373   6.597  36.780  1.00  0.00     0.111 C 
HETATM   17  C7  UNL     1      92.283   5.480  36.318  1.00  0.00     0.027 C 
HETATM   18  C8  UNL     1      92.984   5.121  37.634  1.00  0.00     0.002 C 
HETATM   19  C9  UNL     1      93.400   6.509  38.105  1.00  0.00     0.002 C 
HETATM   20  C10 UNL     1      92.081   7.261  37.933  1.00  0.00     0.027 C 
ENDBRANCH   5  16
TORSDOF 5
ENDMDL
MODEL 5
REMARK VINA RESULT: -6.561114452      1.434      2.019
REMARK  5 active torsions:
REMARK  status: ('A' for Active; 'I' for Inactive)
REMARK    1  A    between atoms: C2_2  and  C3_3 
REMARK    2  A    between atoms: C2_2  and  N1_5 
REMARK    3  A    between atoms: N1_5  and  N2_7 
REMARK    4  A    between atoms: N2_7  and  C4_9 
REMARK    5  A    between atoms: N4_13  and  C6_14 
ROOT
HETATM    1  C4  UNL     1      89.836   8.865  34.782  1.00  0.00     0.134 A 
HETATM    2  C5  UNL     1      89.397   8.711  36.091  1.00  0.00     0.144 A 
HETATM    3  N3  UNL     1      90.337   8.014  36.742  1.00  0.00    -0.304 N 
ATOM      4  H3  UNL     1      90.279   7.753  37.726  1.00  0.00     0.186 HD
HETATM    5  N4  UNL     1      91.348   7.708  35.953  1.00  0.00    -0.251 N 
HETATM    6  C11 UNL     1      91.057   8.223  34.745  1.00  0.00     0.291 A 
HETATM    7  O1  UNL     1      91.811   8.120  33.731  1.00  0.00    -0.264 OA
ENDROOT
BRANCH   1   8
HETATM    8  N2  UNL     1      89.206   9.525  33.698  1.00  0.00    -0.294 N 
ATOM      9  H2  UNL     1      88.200   9.693  33.717  1.00  0.00     0.187 HD
BRANCH   8  10
HETATM   10  N1  UNL     1      89.891   9.906  32.705  1.00  0.00    -0.304 N 
ATOM     11  H1  UNL     1      90.128   9.248  31.963  1.00  0.00     0.186 HD
BRANCH  10  12
HETATM   12  C2  UNL     1      90.327  11.247  32.629  1.00  0.00     0.033 C 
HETATM   13  C1  UNL     1      91.716  11.601  32.967  1.00  0.00     0.070 C 
BRANCH  12  14
HETATM   14  C3  UNL     1      89.461  12.168  32.248  1.00  0.00     0.110 C 
HETATM   15 CL1  UNL     1      89.952  13.371  31.104  1.00  0.00    -0.095 Cl
ENDBRANCH  12  14
ENDBRANCH  10  12
ENDBRANCH   8  10
ENDBRANCH   1   8
BRANCH   5  16
HETATM   16  C6  UNL     1      92.507   6.965  36.364  1.00  0.00     0.111 C 
HETATM   17  C7  UNL     1      92.975   7.424  37.728  1.00  0.00     0.027 C 
HETATM   18  C8  UNL     1      93.666   6.152  38.234  1.00  0.00     0.002 C 
HETATM   19  C9  UNL     1      92.585   5.121  37.934  1.00  0.00     0.002 C 
HETATM   20  C10 UNL     1      92.259   5.484  36.485  1.00  0.00     0.027 C 
ENDBRANCH   5  16
TORSDOF 5
ENDMDL
