MODEL 1
REMARK VINA RESULT: -8.135918216      0.000      0.000
REMARK  7 active torsions:
REMARK  status: ('A' for Active; 'I' for Inactive)
REMARK    1  A    between atoms: C4_4  and  C5_5 
REMARK    2  A    between atoms: C7_8  and  O2_9 
REMARK    3  A    between atoms: O2_9  and  C8_10 
REMARK    4  A    between atoms: C8_10  and  C9_11 
REMARK    5  A    between atoms: C9_11  and  C10_12 
REMARK    6  A    between atoms: C14_16  and  O3_17 
REMARK    7  A    between atoms: C19_23  and  O4_25 
ROOT
HETATM    1  C1  UNL     1       3.977  -3.409  20.923  1.00  0.00     0.015 C 
HETATM    2  C2  UNL     1       4.086  -4.252  19.905  1.00  0.00    -0.081 C 
HETATM    3  C3  UNL     1       5.432  -4.628  19.416  1.00  0.00     0.043 C 
HETATM    4  C4  UNL     1       5.329  -4.738  17.894  1.00  0.00     0.027 C 
HETATM    5  C13 UNL     1       4.393  -5.836  17.519  1.00  0.00     0.051 C 
HETATM    6  C14 UNL     1       3.257  -6.048  18.467  1.00  0.00     0.096 C 
HETATM    7  C15 UNL     1       2.902  -4.819  19.258  1.00  0.00     0.051 C 
HETATM    8  C16 UNL     1       2.133  -3.825  18.429  1.00  0.00     0.012 C 
HETATM    9  C17 UNL     1       0.796  -4.513  18.115  1.00  0.00     0.004 C 
HETATM   10  C18 UNL     1       1.139  -5.647  17.170  1.00  0.00     0.040 C 
HETATM   11  C19 UNL     1       2.076  -6.640  17.752  1.00  0.00     0.086 C 
HETATM   12  C20 UNL     1       1.298  -7.614  18.618  1.00  0.00     0.049 C 
ENDROOT
BRANCH   4  13
HETATM   13  C5  UNL     1       6.701  -4.940  17.383  1.00  0.00    -0.026 A 
HETATM   14  C6  UNL     1       7.623  -5.836  17.879  1.00  0.00     0.152 A 
HETATM   15  O1  UNL     1       8.719  -5.725  17.169  1.00  0.00    -0.300 OA
HETATM   16  C7  UNL     1       8.614  -4.823  16.229  1.00  0.00     0.185 A 
HETATM   17  C12 UNL     1       7.334  -4.304  16.342  1.00  0.00     0.073 A 
BRANCH  16  18
HETATM   18  O2  UNL     1       9.553  -4.424  15.287  1.00  0.00    -0.330 OA
BRANCH  18  19
HETATM   19  C8  UNL     1      10.917  -4.706  15.518  1.00  0.00     0.178 C 
BRANCH  19  20
HETATM   20  C9  UNL     1      11.783  -3.480  15.271  1.00  0.00     0.026 C 
BRANCH  20  21
HETATM   21  C10 UNL     1      10.885  -2.263  15.279  1.00  0.00    -0.002 C 
HETATM   22  C11 UNL     1      11.738  -1.024  15.273  1.00  0.00     0.005 C 
ENDBRANCH  20  21
ENDBRANCH  19  20
ENDBRANCH  18  19
ENDBRANCH  16  18
ENDBRANCH   4  13
BRANCH   6  23
HETATM   23  O3  UNL     1       3.676  -7.016  19.409  1.00  0.00    -0.386 OA
ATOM     24  H3  UNL     1       3.131  -6.911  20.180  1.00  0.00     0.210 HD
ENDBRANCH   6  23
BRANCH  11  25
HETATM   25  O4  UNL     1       2.601  -7.402  16.682  1.00  0.00    -0.387 OA
ATOM     26  H4  UNL     1       3.171  -8.053  17.074  1.00  0.00     0.210 HD
ENDBRANCH  11  25
TORSDOF 7
ENDMDL
MODEL 2
REMARK VINA RESULT: -7.925203187      2.934      7.368
REMARK  7 active torsions:
REMARK  status: ('A' for Active; 'I' for Inactive)
REMARK    1  A    between atoms: C4_4  and  C5_5 
REMARK    2  A    between atoms: C7_8  and  O2_9 
REMARK    3  A    between atoms: O2_9  and  C8_10 
REMARK    4  A    between atoms: C8_10  and  C9_11 
REMARK    5  A    between atoms: C9_11  and  C10_12 
REMARK    6  A    between atoms: C14_16  and  O3_17 
REMARK    7  A    between atoms: C19_23  and  O4_25 
ROOT
HETATM    1  C1  UNL     1       8.397  -6.229  17.475  1.00  0.00     0.015 C 
HETATM    2  C2  UNL     1       7.123  -6.010  17.177  1.00  0.00    -0.081 C 
HETATM    3  C3  UNL     1       6.335  -5.075  18.010  1.00  0.00     0.043 C 
HETATM    4  C4  UNL     1       4.928  -5.665  18.115  1.00  0.00     0.027 C 
HETATM    5  C13 UNL     1       4.288  -5.717  16.770  1.00  0.00     0.051 C 
HETATM    6  C14 UNL     1       5.228  -5.955  15.633  1.00  0.00     0.096 C 
HETATM    7  C15 UNL     1       6.485  -6.673  16.038  1.00  0.00     0.051 C 
HETATM    8  C16 UNL     1       6.244  -8.144  16.255  1.00  0.00     0.012 C 
HETATM    9  C17 UNL     1       5.881  -8.699  14.869  1.00  0.00     0.004 C 
HETATM   10  C18 UNL     1       4.524  -8.110  14.543  1.00  0.00     0.040 C 
HETATM   11  C19 UNL     1       4.518  -6.627  14.492  1.00  0.00     0.086 C 
HETATM   12  C20 UNL     1       5.027  -6.171  13.138  1.00  0.00     0.049 C 
ENDROOT
BRANCH   4  13
HETATM   13  C5  UNL     1       4.183  -4.834  19.085  1.00  0.00    -0.026 A 
HETATM   14  C6  UNL     1       4.652  -3.692  19.695  1.00  0.00     0.152 A 
HETATM   15  O1  UNL     1       3.709  -3.236  20.484  1.00  0.00    -0.300 OA
HETATM   16  C7  UNL     1       2.636  -3.981  20.458  1.00  0.00     0.185 A 
HETATM   17  C12 UNL     1       2.910  -5.011  19.571  1.00  0.00     0.073 A 
BRANCH  16  18
HETATM   18  O2  UNL     1       1.443  -3.826  21.150  1.00  0.00    -0.330 OA
BRANCH  18  19
HETATM   19  C8  UNL     1       0.233  -4.195  20.521  1.00  0.00     0.178 C 
BRANCH  19  20
HETATM   20  C9  UNL     1      -0.777  -4.716  21.530  1.00  0.00     0.026 C 
BRANCH  20  21
HETATM   21  C10 UNL     1      -1.145  -6.129  21.138  1.00  0.00    -0.002 C 
HETATM   22  C11 UNL     1      -0.533  -6.442  19.800  1.00  0.00     0.005 C 
ENDBRANCH  20  21
ENDBRANCH  19  20
ENDBRANCH  18  19
ENDBRANCH  16  18
ENDBRANCH   4  13
BRANCH   6  23
HETATM   23  O3  UNL     1       5.633  -4.687  15.156  1.00  0.00    -0.386 OA
ATOM     24  H3  UNL     1       4.940  -4.366  14.590  1.00  0.00     0.210 HD
ENDBRANCH   6  23
BRANCH  11  25
HETATM   25  O4  UNL     1       3.168  -6.208  14.563  1.00  0.00    -0.387 OA
ATOM     26  H4  UNL     1       2.716  -6.644  13.851  1.00  0.00     0.210 HD
ENDBRANCH  11  25
TORSDOF 7
ENDMDL
MODEL 3
REMARK VINA RESULT: -7.867720886      0.956      1.113
REMARK  7 active torsions:
REMARK  status: ('A' for Active; 'I' for Inactive)
REMARK    1  A    between atoms: C4_4  and  C5_5 
REMARK    2  A    between atoms: C7_8  and  O2_9 
REMARK    3  A    between atoms: O2_9  and  C8_10 
REMARK    4  A    between atoms: C8_10  and  C9_11 
REMARK    5  A    between atoms: C9_11  and  C10_12 
REMARK    6  A    between atoms: C14_16  and  O3_17 
REMARK    7  A    between atoms: C19_23  and  O4_25 
ROOT
HETATM    1  C1  UNL     1       3.955  -4.278  20.721  1.00  0.00     0.015 C 
HETATM    2  C2  UNL     1       3.874  -5.000  19.611  1.00  0.00    -0.081 C 
HETATM    3  C3  UNL     1       5.116  -5.391  18.909  1.00  0.00     0.043 C 
HETATM    4  C4  UNL     1       4.813  -5.315  17.412  1.00  0.00     0.027 C 
HETATM    5  C13 UNL     1       3.761  -6.306  17.047  1.00  0.00     0.051 C 
HETATM    6  C14 UNL     1       2.742  -6.564  18.110  1.00  0.00     0.096 C 
HETATM    7  C15 UNL     1       2.579  -5.419  19.071  1.00  0.00     0.051 C 
HETATM    8  C16 UNL     1       1.784  -4.292  18.467  1.00  0.00     0.012 C 
HETATM    9  C17 UNL     1       0.373  -4.862  18.262  1.00  0.00     0.004 C 
HETATM   10  C18 UNL     1       0.512  -5.893  17.161  1.00  0.00     0.040 C 
HETATM   11  C19 UNL     1       1.441  -7.000  17.499  1.00  0.00     0.086 C 
HETATM   12  C20 UNL     1       0.711  -8.023  18.349  1.00  0.00     0.049 C 
ENDROOT
BRANCH   4  13
HETATM   13  C5  UNL     1       6.092  -5.533  16.702  1.00  0.00    -0.026 A 
HETATM   14  C6  UNL     1       6.671  -6.755  16.440  1.00  0.00     0.152 A 
HETATM   15  O1  UNL     1       7.793  -6.543  15.796  1.00  0.00    -0.300 OA
HETATM   16  C7  UNL     1       8.021  -5.272  15.599  1.00  0.00     0.185 A 
HETATM   17  C12 UNL     1       6.950  -4.601  16.169  1.00  0.00     0.073 A 
BRANCH  16  18
HETATM   18  O2  UNL     1       9.093  -4.660  14.963  1.00  0.00    -0.330 OA
BRANCH  18  19
HETATM   19  C8  UNL     1      10.102  -4.059  15.748  1.00  0.00     0.178 C 
BRANCH  19  20
HETATM   20  C9  UNL     1       9.965  -2.545  15.756  1.00  0.00     0.026 C 
BRANCH  20  21
HETATM   21  C10 UNL     1      11.278  -1.953  15.298  1.00  0.00    -0.002 C 
HETATM   22  C11 UNL     1      12.198  -3.066  14.875  1.00  0.00     0.005 C 
ENDBRANCH  20  21
ENDBRANCH  19  20
ENDBRANCH  18  19
ENDBRANCH  16  18
ENDBRANCH   4  13
BRANCH   6  23
HETATM   23  O3  UNL     1       3.207  -7.659  18.875  1.00  0.00    -0.386 OA
ATOM     24  H3  UNL     1       2.877  -7.543  19.759  1.00  0.00     0.210 HD
ENDBRANCH   6  23
BRANCH  11  25
HETATM   25  O4  UNL     1       1.770  -7.659  16.291  1.00  0.00    -0.387 OA
ATOM     26  H4  UNL     1       1.028  -8.212  16.080  1.00  0.00     0.210 HD
ENDBRANCH  11  25
TORSDOF 7
ENDMDL
MODEL 4
REMARK VINA RESULT: -7.573755929      3.712      5.021
REMARK  7 active torsions:
REMARK  status: ('A' for Active; 'I' for Inactive)
REMARK    1  A    between atoms: C4_4  and  C5_5 
REMARK    2  A    between atoms: C7_8  and  O2_9 
REMARK    3  A    between atoms: O2_9  and  C8_10 
REMARK    4  A    between atoms: C8_10  and  C9_11 
REMARK    5  A    between atoms: C9_11  and  C10_12 
REMARK    6  A    between atoms: C14_16  and  O3_17 
REMARK    7  A    between atoms: C19_23  and  O4_25 
ROOT
HETATM    1  C1  UNL     1       7.052 -10.445  16.399  1.00  0.00     0.015 C 
HETATM    2  C2  UNL     1       6.647  -9.367  15.741  1.00  0.00    -0.081 C 
HETATM    3  C3  UNL     1       7.231  -8.049  16.079  1.00  0.00     0.043 C 
HETATM    4  C4  UNL     1       6.096  -7.029  15.970  1.00  0.00     0.027 C 
HETATM    5  C13 UNL     1       5.602  -6.955  14.566  1.00  0.00     0.051 C 
HETATM    6  C14 UNL     1       5.666  -8.239  13.805  1.00  0.00     0.096 C 
HETATM    7  C15 UNL     1       5.635  -9.457  14.687  1.00  0.00     0.051 C 
HETATM    8  C16 UNL     1       4.249  -9.737  15.204  1.00  0.00     0.012 C 
HETATM    9  C17 UNL     1       3.425 -10.107  13.961  1.00  0.00     0.004 C 
HETATM   10  C18 UNL     1       3.307  -8.825  13.161  1.00  0.00     0.040 C 
HETATM   11  C19 UNL     1       4.615  -8.272  12.733  1.00  0.00     0.086 C 
HETATM   12  C20 UNL     1       5.079  -8.995  11.482  1.00  0.00     0.049 C 
ENDROOT
BRANCH   4  13
HETATM   13  C5  UNL     1       6.625  -5.743  16.472  1.00  0.00    -0.026 A 
HETATM   14  C6  UNL     1       6.173  -5.064  17.582  1.00  0.00     0.152 A 
HETATM   15  O1  UNL     1       6.886  -3.970  17.706  1.00  0.00    -0.300 OA
HETATM   16  C7  UNL     1       7.786  -3.853  16.767  1.00  0.00     0.185 A 
HETATM   17  C12 UNL     1       7.643  -4.973  15.962  1.00  0.00     0.073 A 
BRANCH  16  18
HETATM   18  O2  UNL     1       8.717  -2.844  16.563  1.00  0.00    -0.330 OA
BRANCH  18  19
HETATM   19  C8  UNL     1       9.832  -3.097  15.733  1.00  0.00     0.178 C 
BRANCH  19  20
HETATM   20  C9  UNL     1      10.585  -1.815  15.416  1.00  0.00     0.026 C 
BRANCH  20  21
HETATM   21  C10 UNL     1      11.987  -2.189  14.990  1.00  0.00    -0.002 C 
HETATM   22  C11 UNL     1      12.147  -3.682  15.086  1.00  0.00     0.005 C 
ENDBRANCH  20  21
ENDBRANCH  19  20
ENDBRANCH  18  19
ENDBRANCH  16  18
ENDBRANCH   4  13
BRANCH   6  23
HETATM   23  O3  UNL     1       6.913  -8.266  13.139  1.00  0.00    -0.386 OA
ATOM     24  H3  UNL     1       6.737  -8.158  12.211  1.00  0.00     0.210 HD
ENDBRANCH   6  23
BRANCH  11  25
HETATM   25  O4  UNL     1       4.399  -6.927  12.348  1.00  0.00    -0.387 OA
ATOM     26  H4  UNL     1       5.118  -6.696  11.773  1.00  0.00     0.210 HD
ENDBRANCH  11  25
TORSDOF 7
ENDMDL
MODEL 5
REMARK VINA RESULT: -7.507550483      2.337      7.117
REMARK  7 active torsions:
REMARK  status: ('A' for Active; 'I' for Inactive)
REMARK    1  A    between atoms: C4_4  and  C5_5 
REMARK    2  A    between atoms: C7_8  and  O2_9 
REMARK    3  A    between atoms: O2_9  and  C8_10 
REMARK    4  A    between atoms: C8_10  and  C9_11 
REMARK    5  A    between atoms: C9_11  and  C10_12 
REMARK    6  A    between atoms: C14_16  and  O3_17 
REMARK    7  A    between atoms: C19_23  and  O4_25 
ROOT
HETATM    1  C1  UNL     1       8.624  -3.442  16.824  1.00  0.00     0.015 C 
HETATM    2  C2  UNL     1       7.487  -4.120  16.913  1.00  0.00    -0.081 C 
HETATM    3  C3  UNL     1       6.351  -3.534  17.659  1.00  0.00     0.043 C 
HETATM    4  C4  UNL     1       5.663  -4.692  18.385  1.00  0.00     0.027 C 
HETATM    5  C13 UNL     1       5.102  -5.659  17.399  1.00  0.00     0.051 C 
HETATM    6  C14 UNL     1       5.883  -5.793  16.132  1.00  0.00     0.096 C 
HETATM    7  C15 UNL     1       7.336  -5.435  16.286  1.00  0.00     0.051 C 
HETATM    8  C16 UNL     1       8.111  -6.525  16.976  1.00  0.00     0.012 C 
HETATM    9  C17 UNL     1       8.081  -7.715  16.005  1.00  0.00     0.004 C 
HETATM   10  C18 UNL     1       6.641  -8.187  15.992  1.00  0.00     0.040 C 
HETATM   11  C19 UNL     1       5.682  -7.154  15.529  1.00  0.00     0.086 C 
HETATM   12  C20 UNL     1       5.673  -7.124  14.012  1.00  0.00     0.049 C 
ENDROOT
BRANCH   4  13
HETATM   13  C5  UNL     1       4.637  -4.097  19.268  1.00  0.00    -0.026 A 
HETATM   14  C6  UNL     1       4.696  -2.848  19.845  1.00  0.00     0.152 A 
HETATM   15  O1  UNL     1       3.608  -2.678  20.556  1.00  0.00    -0.300 OA
HETATM   16  C7  UNL     1       2.815  -3.715  20.508  1.00  0.00     0.185 A 
HETATM   17  C12 UNL     1       3.447  -4.639  19.691  1.00  0.00     0.073 A 
BRANCH  16  18
HETATM   18  O2  UNL     1       1.586  -3.909  21.124  1.00  0.00    -0.330 OA
BRANCH  18  19
HETATM   19  C8  UNL     1       0.437  -4.080  20.321  1.00  0.00     0.178 C 
BRANCH  19  20
HETATM   20  C9  UNL     1      -0.168  -5.462  20.510  1.00  0.00     0.026 C 
BRANCH  20  21
HETATM   21  C10 UNL     1       0.078  -6.258  19.248  1.00  0.00    -0.002 C 
HETATM   22  C11 UNL     1       0.147  -5.314  18.078  1.00  0.00     0.005 C 
ENDBRANCH  20  21
ENDBRANCH  19  20
ENDBRANCH  18  19
ENDBRANCH  16  18
ENDBRANCH   4  13
BRANCH   6  23
HETATM   23  O3  UNL     1       5.343  -4.867  15.210  1.00  0.00    -0.386 OA
ATOM     24  H3  UNL     1       5.742  -4.024  15.394  1.00  0.00     0.210 HD
ENDBRANCH   6  23
BRANCH  11  25
HETATM   25  O4  UNL     1       4.389  -7.573  15.919  1.00  0.00    -0.387 OA
ATOM     26  H4  UNL     1       4.506  -8.120  16.686  1.00  0.00     0.210 HD
ENDBRANCH  11  25
TORSDOF 7
ENDMDL
