MODEL 1
REMARK VINA RESULT: -5.546624791      0.000      0.000
REMARK  1 active torsions:
REMARK  status: ('A' for Active; 'I' for Inactive)
REMARK    1  A    between atoms: N2_7  and  C3_8 
ROOT
HETATM    1  O1  UNL     1      -4.683  37.447   0.759  1.00  0.00    -0.245 OA
HETATM    2  C1  UNL     1      -4.182  37.058  -0.331  1.00  0.00     0.343 A 
HETATM    3  N1  UNL     1      -2.985  36.420  -0.465  1.00  0.00    -0.258 N 
ATOM      4  H1  UNL     1      -2.349  36.180   0.295  1.00  0.00     0.175 HD
HETATM    5  C2  UNL     1      -2.779  36.158  -1.789  1.00  0.00     0.351 A 
HETATM    6  O2  UNL     1      -1.772  35.581  -2.237  1.00  0.00    -0.244 OA
HETATM    7  N2  UNL     1      -3.846  36.632  -2.455  1.00  0.00    -0.183 N 
HETATM    8  N5  UNL     1      -4.657  37.158  -1.573  1.00  0.00    -0.239 N 
ATOM      9  H5  UNL     1      -5.549  37.593  -1.807  1.00  0.00     0.192 HD
ENDROOT
BRANCH   7  10
HETATM   10  C3  UNL     1      -4.043  36.568  -3.878  1.00  0.00     0.148 A 
HETATM   11  C4  UNL     1      -5.045  35.888  -4.530  1.00  0.00     0.139 A 
HETATM   12  N3  UNL     1      -4.885  36.072  -5.856  1.00  0.00    -0.358 N 
HETATM   13  C5  UNL     1      -3.802  36.851  -6.016  1.00  0.00     0.182 A 
ATOM     14  H3  UNL     1      -5.474  35.691  -6.597  1.00  0.00     0.166 HD
HETATM   15  N4  UNL     1      -3.271  37.166  -4.802  1.00  0.00    -0.336 N 
ATOM     16  H4  UNL     1      -2.448  37.743  -4.628  1.00  0.00     0.168 HD
ENDBRANCH   7  10
TORSDOF 1
ENDMDL
MODEL 2
REMARK VINA RESULT: -5.204924611      2.167      4.245
REMARK  1 active torsions:
REMARK  status: ('A' for Active; 'I' for Inactive)
REMARK    1  A    between atoms: N2_7  and  C3_8 
ROOT
HETATM    1  O1  UNL     1      -5.894  35.635  -4.708  1.00  0.00    -0.245 OA
HETATM    2  C1  UNL     1      -5.284  36.028  -3.676  1.00  0.00     0.343 A 
HETATM    3  N1  UNL     1      -5.855  36.247  -2.458  1.00  0.00    -0.258 N 
ATOM      4  H1  UNL     1      -6.841  36.121  -2.231  1.00  0.00     0.175 HD
HETATM    5  C2  UNL     1      -4.885  36.663  -1.593  1.00  0.00     0.351 A 
HETATM    6  O2  UNL     1      -5.090  36.944  -0.398  1.00  0.00    -0.244 OA
HETATM    7  N2  UNL     1      -3.730  36.696  -2.280  1.00  0.00    -0.183 N 
HETATM    8  N5  UNL     1      -3.994  36.317  -3.505  1.00  0.00    -0.239 N 
ATOM      9  H5  UNL     1      -3.293  36.251  -4.244  1.00  0.00     0.192 HD
ENDROOT
BRANCH   7  10
HETATM   10  C3  UNL     1      -2.450  37.080  -1.753  1.00  0.00     0.148 A 
HETATM   11  C4  UNL     1      -1.326  37.385  -2.485  1.00  0.00     0.139 A 
HETATM   12  N3  UNL     1      -0.334  37.694  -1.626  1.00  0.00    -0.358 N 
HETATM   13  C5  UNL     1      -0.840  37.580  -0.386  1.00  0.00     0.182 A 
ATOM     14  H3  UNL     1       0.619  37.963  -1.870  1.00  0.00     0.166 HD
HETATM   15  N4  UNL     1      -2.147  37.201  -0.448  1.00  0.00    -0.336 N 
ATOM     16  H4  UNL     1      -2.773  37.041   0.341  1.00  0.00     0.168 HD
ENDBRANCH   7  10
TORSDOF 1
ENDMDL
MODEL 3
REMARK VINA RESULT: -5.170481634      1.566      2.148
REMARK  1 active torsions:
REMARK  status: ('A' for Active; 'I' for Inactive)
REMARK    1  A    between atoms: N2_7  and  C3_8 
ROOT
HETATM    1  O1  UNL     1      -1.645  37.804   0.143  1.00  0.00    -0.245 OA
HETATM    2  C1  UNL     1      -2.605  37.444  -0.593  1.00  0.00     0.343 A 
HETATM    3  N1  UNL     1      -3.878  37.206  -0.168  1.00  0.00    -0.258 N 
ATOM      4  H1  UNL     1      -4.211  37.291   0.792  1.00  0.00     0.175 HD
HETATM    5  C2  UNL     1      -4.632  36.837  -1.243  1.00  0.00     0.351 A 
HETATM    6  O2  UNL     1      -5.842  36.553  -1.183  1.00  0.00    -0.244 OA
HETATM    7  N2  UNL     1      -3.823  36.850  -2.317  1.00  0.00    -0.183 N 
HETATM    8  N5  UNL     1      -2.634  37.211  -1.905  1.00  0.00    -0.239 N 
ATOM      9  H5  UNL     1      -1.823  37.303  -2.517  1.00  0.00     0.192 HD
ENDROOT
BRANCH   7  10
HETATM   10  C3  UNL     1      -4.208  36.523  -3.662  1.00  0.00     0.148 A 
HETATM   11  C4  UNL     1      -3.637  37.014  -4.814  1.00  0.00     0.139 A 
HETATM   12  N3  UNL     1      -4.278  36.470  -5.867  1.00  0.00    -0.358 N 
HETATM   13  C5  UNL     1      -5.227  35.657  -5.371  1.00  0.00     0.182 A 
ATOM     14  H3  UNL     1      -4.080  36.641  -6.853  1.00  0.00     0.166 HD
HETATM   15  N4  UNL     1      -5.196  35.680  -4.010  1.00  0.00    -0.336 N 
ATOM     16  H4  UNL     1      -5.803  35.159  -3.377  1.00  0.00     0.168 HD
ENDBRANCH   7  10
TORSDOF 1
ENDMDL
MODEL 4
REMARK VINA RESULT: -5.106673373      2.158      2.715
REMARK  1 active torsions:
REMARK  status: ('A' for Active; 'I' for Inactive)
REMARK    1  A    between atoms: N2_7  and  C3_8 
ROOT
HETATM    1  O1  UNL     1      -0.660  38.469   0.592  1.00  0.00    -0.245 OA
HETATM    2  C1  UNL     1      -1.251  37.919  -0.379  1.00  0.00     0.343 A 
HETATM    3  N1  UNL     1      -0.652  37.490  -1.525  1.00  0.00    -0.258 N 
ATOM      4  H1  UNL     1       0.342  37.560  -1.740  1.00  0.00     0.175 HD
HETATM    5  C2  UNL     1      -1.607  36.952  -2.338  1.00  0.00     0.351 A 
HETATM    6  O2  UNL     1      -1.377  36.471  -3.462  1.00  0.00    -0.244 OA
HETATM    7  N2  UNL     1      -2.780  37.053  -1.689  1.00  0.00    -0.183 N 
HETATM    8  N5  UNL     1      -2.542  37.626  -0.537  1.00  0.00    -0.239 N 
ATOM      9  H5  UNL     1      -3.260  37.827   0.159  1.00  0.00     0.192 HD
ENDROOT
BRANCH   7  10
HETATM   10  C3  UNL     1      -4.054  36.608  -2.184  1.00  0.00     0.148 A 
HETATM   11  C4  UNL     1      -5.220  36.509  -1.459  1.00  0.00     0.139 A 
HETATM   12  N3  UNL     1      -6.188  36.054  -2.279  1.00  0.00    -0.358 N 
HETATM   13  C5  UNL     1      -5.627  35.876  -3.488  1.00  0.00     0.182 A 
ATOM     14  H3  UNL     1      -7.162  35.878  -2.029  1.00  0.00     0.166 HD
HETATM   15  N4  UNL     1      -4.309  36.214  -3.444  1.00  0.00    -0.336 N 
ATOM     16  H4  UNL     1      -3.644  36.176  -4.217  1.00  0.00     0.168 HD
ENDBRANCH   7  10
TORSDOF 1
ENDMDL
MODEL 5
REMARK VINA RESULT: -5.105601533      1.675      2.075
REMARK  1 active torsions:
REMARK  status: ('A' for Active; 'I' for Inactive)
REMARK    1  A    between atoms: N2_7  and  C3_8 
ROOT
HETATM    1  O1  UNL     1      -4.436  37.388   0.278  1.00  0.00    -0.245 OA
HETATM    2  C1  UNL     1      -4.480  36.991  -0.919  1.00  0.00     0.343 A 
HETATM    3  N1  UNL     1      -5.217  35.939  -1.374  1.00  0.00    -0.258 N 
ATOM      4  H1  UNL     1      -5.821  35.345  -0.806  1.00  0.00     0.175 HD
HETATM    5  C2  UNL     1      -5.010  35.813  -2.717  1.00  0.00     0.351 A 
HETATM    6  O2  UNL     1      -5.544  34.942  -3.426  1.00  0.00    -0.244 OA
HETATM    7  N2  UNL     1      -4.153  36.785  -3.077  1.00  0.00    -0.183 N 
HETATM    8  N5  UNL     1      -3.856  37.464  -1.998  1.00  0.00    -0.239 N 
ATOM      9  H5  UNL     1      -3.222  38.262  -1.984  1.00  0.00     0.192 HD
ENDROOT
BRANCH   7  10
HETATM   10  C3  UNL     1      -3.661  37.019  -4.407  1.00  0.00     0.148 A 
HETATM   11  C4  UNL     1      -2.486  37.652  -4.740  1.00  0.00     0.139 A 
HETATM   12  N3  UNL     1      -2.385  37.674  -6.084  1.00  0.00    -0.358 N 
HETATM   13  C5  UNL     1      -3.480  37.064  -6.569  1.00  0.00     0.182 A 
ATOM     14  H3  UNL     1      -1.622  38.077  -6.629  1.00  0.00     0.166 HD
HETATM   15  N4  UNL     1      -4.278  36.654  -5.544  1.00  0.00    -0.336 N 
ATOM     16  H4  UNL     1      -5.170  36.165  -5.624  1.00  0.00     0.168 HD
ENDBRANCH   7  10
TORSDOF 1
ENDMDL
