MODEL 1
REMARK VINA RESULT: -7.684601190      0.000      0.000
REMARK  16 active torsions:
REMARK  status: ('A' for Active; 'I' for Inactive)
REMARK    1  A    between atoms: C2_2  and  C4_4 
REMARK    2  A    between atoms: C4_4  and  C5_5 
REMARK    3  A    between atoms: C5_5  and  C6_6 
REMARK    4  A    between atoms: C6_6  and  N1_7 
REMARK    5  A    between atoms: C6_6  and  C21_36 
REMARK       I    between atoms: N1_7  and  C7_9 
REMARK    6  A    between atoms: C7_9  and  C8_11 
REMARK       I    between atoms: C8_11  and  N2_13 
REMARK       I    between atoms: N2_13  and  C9_15 
REMARK    7  A    between atoms: C9_15  and  C10_17 
REMARK    8  A    between atoms: C10_17  and  C11_18 
REMARK    9  A    between atoms: C10_17  and  N4_23 
REMARK   10  A    between atoms: C11_18  and  C12_19 
REMARK   11  A    between atoms: C12_19  and  C13_20 
REMARK   12  A    between atoms: N4_23  and  C14_25 
REMARK   13  A    between atoms: C14_25  and  C15_27 
REMARK   14  A    between atoms: C15_27  and  C16_28 
REMARK   15  A    between atoms: C15_27  and  N5_32 
REMARK   16  A    between atoms: C16_28  and  S1_29 
ROOT
HETATM    1  C8  UNL     1      12.450 -13.048  14.195  1.00  0.00     0.316 C 
HETATM    2  O2  UNL     1      12.140 -11.925  14.668  1.00  0.00    -0.262 OA
HETATM    3  N2  UNL     1      13.836 -13.339  14.071  1.00  0.00    -0.288 N 
ATOM      4  H2  UNL     1      14.116 -14.243  13.689  1.00  0.00     0.172 HD
HETATM    5  C9  UNL     1      14.848 -12.414  14.463  1.00  0.00     0.247 C 
HETATM    6  O3  UNL     1      14.452 -11.326  14.933  1.00  0.00    -0.271 OA
ENDROOT
BRANCH   1   7
HETATM    7  C7  UNL     1      11.432 -14.008  13.792  1.00  0.00     0.310 C 
HETATM    8  N1  UNL     1      10.129 -13.540  13.520  1.00  0.00    -0.348 N 
ATOM      9  H1  UNL     1       9.944 -12.542  13.614  1.00  0.00     0.163 HD
HETATM   10  O1  UNL     1      11.753 -15.223  13.700  1.00  0.00    -0.262 OA
BRANCH   8  11
HETATM   11  C6  UNL     1       9.034 -14.411  13.110  1.00  0.00     0.090 C 
BRANCH  11  12
HETATM   12  C5  UNL     1       7.887 -14.272  14.056  1.00  0.00     0.026 C 
BRANCH  12  13
HETATM   13  C4  UNL     1       8.228 -14.740  15.457  1.00  0.00     0.006 C 
BRANCH  13  14
HETATM   14  C2  UNL     1       8.145 -13.588  16.450  1.00  0.00    -0.023 C 
HETATM   15  C1  UNL     1       9.548 -13.324  16.949  1.00  0.00     0.009 C 
HETATM   16  C3  UNL     1       7.513 -12.367  15.821  1.00  0.00     0.009 C 
ENDBRANCH  13  14
ENDBRANCH  12  13
ENDBRANCH  11  12
BRANCH  11  17
HETATM   17  C21 UNL     1       8.729 -14.152  11.685  1.00  0.00     0.036 C 
HETATM   18  C22 UNL     1       9.645 -14.941  10.772  1.00  0.00     0.036 C 
HETATM   19  C23 UNL     1       8.863 -16.261  10.686  1.00  0.00     0.232 C 
HETATM   20  N6  UNL     1       7.480 -15.884  10.736  1.00  0.00    -0.075 N 
HETATM   21  C24 UNL     1       7.392 -14.523  11.190  1.00  0.00     0.239 C 
ATOM     22  H62 UNL     1       7.002 -16.031   9.847  1.00  0.00     0.277 HD
ATOM     23  H61 UNL     1       6.921 -16.522  11.303  1.00  0.00     0.277 HD
ENDBRANCH  11  17
ENDBRANCH   8  11
ENDBRANCH   1   7
BRANCH   5  24
HETATM   24  C10 UNL     1      16.271 -12.786  14.294  1.00  0.00     0.172 C 
BRANCH  24  25
HETATM   25  C11 UNL     1      17.197 -11.654  14.027  1.00  0.00     0.043 C 
BRANCH  25  26
HETATM   26  C12 UNL     1      17.373 -11.453  12.553  1.00  0.00     0.102 C 
BRANCH  26  27
HETATM   27  C13 UNL     1      16.959 -10.065  12.212  1.00  0.00     0.231 C 
HETATM   28  N3  UNL     1      17.648  -9.360  11.195  1.00  0.00    -0.062 NA
HETATM   29  O4  UNL     1      16.009  -9.544  12.832  1.00  0.00    -0.277 OA
ENDBRANCH  26  27
ENDBRANCH  25  26
ENDBRANCH  24  25
BRANCH  24  30
HETATM   30  N4  UNL     1      16.715 -13.726  15.296  1.00  0.00    -0.378 N 
ATOM     31  H4  UNL     1      17.014 -13.428  16.225  1.00  0.00     0.157 HD
BRANCH  30  32
HETATM   32  C14 UNL     1      16.711 -15.096  14.905  1.00  0.00     0.297 C 
HETATM   33  F1  UNL     1      16.294 -15.333  13.598  1.00  0.00    -0.225 F 
BRANCH  32  34
HETATM   34  C15 UNL     1      15.966 -16.019  15.860  1.00  0.00     0.253 C 
BRANCH  34  35
HETATM   35  C16 UNL     1      16.058 -15.313  17.208  1.00  0.00     0.146 C 
BRANCH  35  36
HETATM   36  S1  UNL     1      14.469 -14.826  17.805  1.00  0.00     0.013 S 
HETATM   37  C17 UNL     1      14.397 -13.074  18.104  1.00  0.00     0.127 C 
HETATM   38  O5  UNL     1      13.260 -15.159  16.684  1.00  0.00    -0.258 OA
ENDBRANCH  35  36
ENDBRANCH  34  35
BRANCH  34  39
HETATM   39  N5  UNL     1      16.423 -17.354  15.935  1.00  0.00    -0.069 N 
HETATM   40  C18 UNL     1      17.703 -17.624  15.348  1.00  0.00     0.272 C 
HETATM   41  C19 UNL     1      16.402 -17.950  17.262  1.00  0.00     0.272 C 
HETATM   42  C20 UNL     1      15.474 -18.177  15.147  1.00  0.00     0.272 C 
ENDBRANCH  34  39
ENDBRANCH  32  34
ENDBRANCH  30  32
ENDBRANCH  24  30
ENDBRANCH   5  24
TORSDOF 16
ENDMDL
MODEL 2
REMARK VINA RESULT: -7.370475508      1.639      2.267
REMARK  16 active torsions:
REMARK  status: ('A' for Active; 'I' for Inactive)
REMARK    1  A    between atoms: C2_2  and  C4_4 
REMARK    2  A    between atoms: C4_4  and  C5_5 
REMARK    3  A    between atoms: C5_5  and  C6_6 
REMARK    4  A    between atoms: C6_6  and  N1_7 
REMARK    5  A    between atoms: C6_6  and  C21_36 
REMARK       I    between atoms: N1_7  and  C7_9 
REMARK    6  A    between atoms: C7_9  and  C8_11 
REMARK       I    between atoms: C8_11  and  N2_13 
REMARK       I    between atoms: N2_13  and  C9_15 
REMARK    7  A    between atoms: C9_15  and  C10_17 
REMARK    8  A    between atoms: C10_17  and  C11_18 
REMARK    9  A    between atoms: C10_17  and  N4_23 
REMARK   10  A    between atoms: C11_18  and  C12_19 
REMARK   11  A    between atoms: C12_19  and  C13_20 
REMARK   12  A    between atoms: N4_23  and  C14_25 
REMARK   13  A    between atoms: C14_25  and  C15_27 
REMARK   14  A    between atoms: C15_27  and  C16_28 
REMARK   15  A    between atoms: C15_27  and  N5_32 
REMARK   16  A    between atoms: C16_28  and  S1_29 
ROOT
HETATM    1  C8  UNL     1      12.293 -13.341  14.121  1.00  0.00     0.316 C 
HETATM    2  O2  UNL     1      12.092 -12.236  14.686  1.00  0.00    -0.262 OA
HETATM    3  N2  UNL     1      13.643 -13.699  13.858  1.00  0.00    -0.288 N 
ATOM      4  H2  UNL     1      13.835 -14.589  13.399  1.00  0.00     0.172 HD
HETATM    5  C9  UNL     1      14.739 -12.858  14.215  1.00  0.00     0.247 C 
HETATM    6  O3  UNL     1      14.450 -11.784  14.784  1.00  0.00    -0.271 OA
ENDROOT
BRANCH   1   7
HETATM    7  C7  UNL     1      11.189 -14.215  13.750  1.00  0.00     0.310 C 
HETATM    8  N1  UNL     1       9.916 -13.645  13.536  1.00  0.00    -0.348 N 
ATOM      9  H1  UNL     1       9.812 -12.637  13.648  1.00  0.00     0.163 HD
HETATM   10  O1  UNL     1      11.411 -15.450  13.634  1.00  0.00    -0.262 OA
BRANCH   8  11
HETATM   11  C6  UNL     1       8.741 -14.424  13.163  1.00  0.00     0.090 C 
BRANCH  11  12
HETATM   12  C5  UNL     1       7.663 -14.245  14.181  1.00  0.00     0.026 C 
BRANCH  12  13
HETATM   13  C4  UNL     1       8.092 -14.683  15.568  1.00  0.00     0.006 C 
BRANCH  13  14
HETATM   14  C2  UNL     1       8.069 -13.510  16.538  1.00  0.00    -0.023 C 
HETATM   15  C1  UNL     1       9.489 -13.294  17.014  1.00  0.00     0.009 C 
HETATM   16  C3  UNL     1       7.478 -12.277  15.895  1.00  0.00     0.009 C 
ENDBRANCH  13  14
ENDBRANCH  12  13
ENDBRANCH  11  12
BRANCH  11  17
HETATM   17  C21 UNL     1       8.374 -14.092  11.769  1.00  0.00     0.036 C 
HETATM   18  C22 UNL     1       9.268 -14.806  10.776  1.00  0.00     0.036 C 
HETATM   19  C23 UNL     1       8.512 -16.136  10.645  1.00  0.00     0.232 C 
HETATM   20  N6  UNL     1       7.124 -15.795  10.771  1.00  0.00    -0.075 N 
HETATM   21  C24 UNL     1       7.026 -14.465  11.306  1.00  0.00     0.239 C 
ATOM     22  H62 UNL     1       6.613 -15.903   9.894  1.00  0.00     0.277 HD
ATOM     23  H61 UNL     1       6.602 -16.478  11.322  1.00  0.00     0.277 HD
ENDBRANCH  11  17
ENDBRANCH   8  11
ENDBRANCH   1   7
BRANCH   5  24
HETATM   24  C10 UNL     1      16.117 -13.296  13.900  1.00  0.00     0.172 C 
BRANCH  24  25
HETATM   25  C11 UNL     1      17.179 -12.288  14.158  1.00  0.00     0.043 C 
BRANCH  25  26
HETATM   26  C12 UNL     1      17.759 -11.790  12.869  1.00  0.00     0.102 C 
BRANCH  26  27
HETATM   27  C13 UNL     1      17.262 -10.408  12.630  1.00  0.00     0.231 C 
HETATM   28  N3  UNL     1      17.355  -9.847  11.332  1.00  0.00    -0.062 NA
HETATM   29  O4  UNL     1      16.771  -9.765  13.580  1.00  0.00    -0.277 OA
ENDBRANCH  26  27
ENDBRANCH  25  26
ENDBRANCH  24  25
BRANCH  24  30
HETATM   30  N4  UNL     1      16.396 -14.627  14.387  1.00  0.00    -0.378 N 
ATOM     31  H4  UNL     1      16.617 -15.399  13.758  1.00  0.00     0.157 HD
BRANCH  30  32
HETATM   32  C14 UNL     1      16.344 -14.792  15.800  1.00  0.00     0.297 C 
HETATM   33  F1  UNL     1      17.578 -14.769  16.442  1.00  0.00    -0.225 F 
BRANCH  32  34
HETATM   34  C15 UNL     1      15.546 -16.005  16.261  1.00  0.00     0.253 C 
BRANCH  34  35
HETATM   35  C16 UNL     1      15.160 -16.710  14.965  1.00  0.00     0.146 C 
BRANCH  35  36
HETATM   36  S1  UNL     1      15.881 -18.318  14.852  1.00  0.00     0.013 S 
HETATM   37  C17 UNL     1      15.034 -19.484  15.895  1.00  0.00     0.127 C 
HETATM   38  O5  UNL     1      15.782 -18.931  13.289  1.00  0.00    -0.258 OA
ENDBRANCH  35  36
ENDBRANCH  34  35
BRANCH  34  39
HETATM   39  N5  UNL     1      14.419 -15.750  17.075  1.00  0.00    -0.069 N 
HETATM   40  C18 UNL     1      14.292 -14.417  17.588  1.00  0.00     0.272 C 
HETATM   41  C19 UNL     1      13.137 -16.140  16.509  1.00  0.00     0.272 C 
HETATM   42  C20 UNL     1      14.561 -16.599  18.282  1.00  0.00     0.272 C 
ENDBRANCH  34  39
ENDBRANCH  32  34
ENDBRANCH  30  32
ENDBRANCH  24  30
ENDBRANCH   5  24
TORSDOF 16
ENDMDL
MODEL 3
REMARK VINA RESULT: -7.315062598      1.859      2.761
REMARK  16 active torsions:
REMARK  status: ('A' for Active; 'I' for Inactive)
REMARK    1  A    between atoms: C2_2  and  C4_4 
REMARK    2  A    between atoms: C4_4  and  C5_5 
REMARK    3  A    between atoms: C5_5  and  C6_6 
REMARK    4  A    between atoms: C6_6  and  N1_7 
REMARK    5  A    between atoms: C6_6  and  C21_36 
REMARK       I    between atoms: N1_7  and  C7_9 
REMARK    6  A    between atoms: C7_9  and  C8_11 
REMARK       I    between atoms: C8_11  and  N2_13 
REMARK       I    between atoms: N2_13  and  C9_15 
REMARK    7  A    between atoms: C9_15  and  C10_17 
REMARK    8  A    between atoms: C10_17  and  C11_18 
REMARK    9  A    between atoms: C10_17  and  N4_23 
REMARK   10  A    between atoms: C11_18  and  C12_19 
REMARK   11  A    between atoms: C12_19  and  C13_20 
REMARK   12  A    between atoms: N4_23  and  C14_25 
REMARK   13  A    between atoms: C14_25  and  C15_27 
REMARK   14  A    between atoms: C15_27  and  C16_28 
REMARK   15  A    between atoms: C15_27  and  N5_32 
REMARK   16  A    between atoms: C16_28  and  S1_29 
ROOT
HETATM    1  C8  UNL     1      12.448 -12.984  14.193  1.00  0.00     0.316 C 
HETATM    2  O2  UNL     1      12.209 -11.924  14.826  1.00  0.00    -0.262 OA
HETATM    3  N2  UNL     1      13.810 -13.366  14.058  1.00  0.00    -0.288 N 
ATOM      4  H2  UNL     1      14.033 -14.220  13.547  1.00  0.00     0.172 HD
HETATM    5  C9  UNL     1      14.877 -12.597  14.611  1.00  0.00     0.247 C 
HETATM    6  O3  UNL     1      14.550 -11.564  15.234  1.00  0.00    -0.271 OA
ENDROOT
BRANCH   1   7
HETATM    7  C7  UNL     1      11.373 -13.784  13.623  1.00  0.00     0.310 C 
HETATM    8  N1  UNL     1      11.551 -14.342  12.338  1.00  0.00    -0.348 N 
ATOM      9  H1  UNL     1      12.430 -14.165  11.852  1.00  0.00     0.163 HD
HETATM   10  O1  UNL     1      10.322 -13.951  14.298  1.00  0.00    -0.262 OA
BRANCH   8  11
HETATM   11  C6  UNL     1      10.544 -15.158  11.672  1.00  0.00     0.090 C 
BRANCH  11  12
HETATM   12  C5  UNL     1       9.628 -14.290  10.872  1.00  0.00     0.026 C 
BRANCH  12  13
HETATM   13  C4  UNL     1       8.212 -14.284  11.411  1.00  0.00     0.006 C 
BRANCH  13  14
HETATM   14  C2  UNL     1       7.203 -14.105  10.285  1.00  0.00    -0.023 C 
HETATM   15  C1  UNL     1       7.810 -13.142   9.289  1.00  0.00     0.009 C 
HETATM   16  C3  UNL     1       6.836 -15.432   9.662  1.00  0.00     0.009 C 
ENDBRANCH  13  14
ENDBRANCH  12  13
ENDBRANCH  11  12
BRANCH  11  17
HETATM   17  C21 UNL     1      11.226 -16.238  10.924  1.00  0.00     0.036 C 
HETATM   18  C22 UNL     1      11.969 -17.171  11.857  1.00  0.00     0.036 C 
HETATM   19  C23 UNL     1      10.839 -18.148  12.213  1.00  0.00     0.232 C 
HETATM   20  N6  UNL     1      10.038 -18.248  11.027  1.00  0.00    -0.075 N 
HETATM   21  C24 UNL     1      10.389 -17.168  10.146  1.00  0.00     0.239 C 
ATOM     22  H62 UNL     1      10.116 -19.160  10.578  1.00  0.00     0.277 HD
ATOM     23  H61 UNL     1       9.039 -18.277  11.231  1.00  0.00     0.277 HD
ENDBRANCH  11  17
ENDBRANCH   8  11
ENDBRANCH   1   7
BRANCH   5  24
HETATM   24  C10 UNL     1      16.271 -13.054  14.420  1.00  0.00     0.172 C 
BRANCH  24  25
HETATM   25  C11 UNL     1      17.257 -11.982  14.125  1.00  0.00     0.043 C 
BRANCH  25  26
HETATM   26  C12 UNL     1      17.553 -11.927  12.657  1.00  0.00     0.102 C 
BRANCH  26  27
HETATM   27  C13 UNL     1      17.253 -10.556  12.164  1.00  0.00     0.231 C 
HETATM   28  N3  UNL     1      16.308  -9.757  12.854  1.00  0.00    -0.062 NA
HETATM   29  O4  UNL     1      17.839 -10.133  11.148  1.00  0.00    -0.277 OA
ENDBRANCH  26  27
ENDBRANCH  25  26
ENDBRANCH  24  25
BRANCH  24  30
HETATM   30  N4  UNL     1      16.678 -14.010  15.423  1.00  0.00    -0.378 N 
ATOM     31  H4  UNL     1      16.912 -13.729  16.376  1.00  0.00     0.157 HD
BRANCH  30  32
HETATM   32  C14 UNL     1      16.732 -15.368  14.999  1.00  0.00     0.297 C 
HETATM   33  F1  UNL     1      16.121 -15.627  13.775  1.00  0.00    -0.225 F 
BRANCH  32  34
HETATM   34  C15 UNL     1      16.248 -16.370  16.038  1.00  0.00     0.253 C 
BRANCH  34  35
HETATM   35  C16 UNL     1      15.764 -15.502  17.195  1.00  0.00     0.146 C 
BRANCH  35  36
HETATM   36  S1  UNL     1      14.001 -15.475  17.301  1.00  0.00     0.013 S 
HETATM   37  C17 UNL     1      13.404 -13.862  17.754  1.00  0.00     0.127 C 
HETATM   38  O5  UNL     1      13.288 -15.840  15.822  1.00  0.00    -0.258 OA
ENDBRANCH  35  36
ENDBRANCH  34  35
BRANCH  34  39
HETATM   39  N5  UNL     1      17.184 -17.339  16.467  1.00  0.00    -0.069 N 
HETATM   40  C18 UNL     1      17.723 -18.197  15.452  1.00  0.00     0.272 C 
HETATM   41  C19 UNL     1      18.291 -16.832  17.263  1.00  0.00     0.272 C 
HETATM   42  C20 UNL     1      16.464 -18.256  17.382  1.00  0.00     0.272 C 
ENDBRANCH  34  39
ENDBRANCH  32  34
ENDBRANCH  30  32
ENDBRANCH  24  30
ENDBRANCH   5  24
TORSDOF 16
ENDMDL
MODEL 4
REMARK VINA RESULT: -7.279697710      1.433      2.786
REMARK  16 active torsions:
REMARK  status: ('A' for Active; 'I' for Inactive)
REMARK    1  A    between atoms: C2_2  and  C4_4 
REMARK    2  A    between atoms: C4_4  and  C5_5 
REMARK    3  A    between atoms: C5_5  and  C6_6 
REMARK    4  A    between atoms: C6_6  and  N1_7 
REMARK    5  A    between atoms: C6_6  and  C21_36 
REMARK       I    between atoms: N1_7  and  C7_9 
REMARK    6  A    between atoms: C7_9  and  C8_11 
REMARK       I    between atoms: C8_11  and  N2_13 
REMARK       I    between atoms: N2_13  and  C9_15 
REMARK    7  A    between atoms: C9_15  and  C10_17 
REMARK    8  A    between atoms: C10_17  and  C11_18 
REMARK    9  A    between atoms: C10_17  and  N4_23 
REMARK   10  A    between atoms: C11_18  and  C12_19 
REMARK   11  A    between atoms: C12_19  and  C13_20 
REMARK   12  A    between atoms: N4_23  and  C14_25 
REMARK   13  A    between atoms: C14_25  and  C15_27 
REMARK   14  A    between atoms: C15_27  and  C16_28 
REMARK   15  A    between atoms: C15_27  and  N5_32 
REMARK   16  A    between atoms: C16_28  and  S1_29 
ROOT
HETATM    1  C8  UNL     1      12.621 -12.086  15.318  1.00  0.00     0.316 C 
HETATM    2  O2  UNL     1      12.679 -11.327  16.319  1.00  0.00    -0.262 OA
HETATM    3  N2  UNL     1      13.849 -12.606  14.826  1.00  0.00    -0.288 N 
ATOM      4  H2  UNL     1      13.832 -13.223  14.014  1.00  0.00     0.172 HD
HETATM    5  C9  UNL     1      15.105 -12.296  15.428  1.00  0.00     0.247 C 
HETATM    6  O3  UNL     1      15.070 -11.543  16.425  1.00  0.00    -0.271 OA
ENDROOT
BRANCH   1   7
HETATM    7  C7  UNL     1      11.350 -12.418  14.691  1.00  0.00     0.310 C 
HETATM    8  N1  UNL     1      11.150 -13.731  14.214  1.00  0.00    -0.348 N 
ATOM      9  H1  UNL     1      11.906 -14.406  14.325  1.00  0.00     0.163 HD
HETATM   10  O1  UNL     1      10.472 -11.518  14.597  1.00  0.00    -0.262 OA
BRANCH   8  11
HETATM   11  C6  UNL     1       9.919 -14.171  13.570  1.00  0.00     0.090 C 
BRANCH  11  12
HETATM   12  C5  UNL     1      10.223 -15.204  12.534  1.00  0.00     0.026 C 
BRANCH  12  13
HETATM   13  C4  UNL     1      10.503 -14.599  11.173  1.00  0.00     0.006 C 
BRANCH  13  14
HETATM   14  C2  UNL     1       9.335 -14.834  10.224  1.00  0.00    -0.023 C 
HETATM   15  C1  UNL     1       8.647 -16.106  10.667  1.00  0.00     0.009 C 
HETATM   16  C3  UNL     1       8.401 -13.646  10.200  1.00  0.00     0.009 C 
ENDBRANCH  13  14
ENDBRANCH  12  13
ENDBRANCH  11  12
BRANCH  11  17
HETATM   17  C21 UNL     1       8.952 -14.573  14.616  1.00  0.00     0.036 C 
HETATM   18  C22 UNL     1       7.763 -13.636  14.659  1.00  0.00     0.036 C 
HETATM   19  C23 UNL     1       6.868 -14.292  13.598  1.00  0.00     0.232 C 
HETATM   20  N6  UNL     1       7.115 -15.700  13.714  1.00  0.00    -0.075 N 
HETATM   21  C24 UNL     1       8.311 -15.892  14.488  1.00  0.00     0.239 C 
ATOM     22  H62 UNL     1       6.316 -16.207  14.096  1.00  0.00     0.277 HD
ATOM     23  H61 UNL     1       7.157 -16.166  12.807  1.00  0.00     0.277 HD
ENDBRANCH  11  17
ENDBRANCH   8  11
ENDBRANCH   1   7
BRANCH   5  24
HETATM   24  C10 UNL     1      16.342 -12.869  14.852  1.00  0.00     0.172 C 
BRANCH  24  25
HETATM   25  C11 UNL     1      17.331 -11.876  14.356  1.00  0.00     0.043 C 
BRANCH  25  26
HETATM   26  C12 UNL     1      17.430 -11.931  12.862  1.00  0.00     0.102 C 
BRANCH  26  27
HETATM   27  C13 UNL     1      17.071 -10.596  12.314  1.00  0.00     0.231 C 
HETATM   28  N3  UNL     1      16.127  -9.790  12.998  1.00  0.00    -0.062 NA
HETATM   29  O4  UNL     1      17.609 -10.207  11.257  1.00  0.00    -0.277 OA
ENDBRANCH  26  27
ENDBRANCH  25  26
ENDBRANCH  24  25
BRANCH  24  30
HETATM   30  N4  UNL     1      16.886 -13.930  15.666  1.00  0.00    -0.378 N 
ATOM     31  H4  UNL     1      17.323 -13.751  16.570  1.00  0.00     0.157 HD
BRANCH  30  32
HETATM   32  C14 UNL     1      16.774 -15.243  15.126  1.00  0.00     0.297 C 
HETATM   33  F1  UNL     1      16.028 -15.336  13.955  1.00  0.00    -0.225 F 
BRANCH  32  34
HETATM   34  C15 UNL     1      16.302 -16.293  16.123  1.00  0.00     0.253 C 
BRANCH  34  35
HETATM   35  C16 UNL     1      15.783 -15.480  17.303  1.00  0.00     0.146 C 
BRANCH  35  36
HETATM   36  S1  UNL     1      14.020 -15.501  17.392  1.00  0.00     0.013 S 
HETATM   37  C17 UNL     1      13.401 -14.131  18.342  1.00  0.00     0.127 C 
HETATM   38  O5  UNL     1      13.323 -15.367  15.867  1.00  0.00    -0.258 OA
ENDBRANCH  35  36
ENDBRANCH  34  35
BRANCH  34  39
HETATM   39  N5  UNL     1      17.255 -17.256  16.527  1.00  0.00    -0.069 N 
HETATM   40  C18 UNL     1      17.723 -18.155  15.513  1.00  0.00     0.272 C 
HETATM   41  C19 UNL     1      18.412 -16.732  17.235  1.00  0.00     0.272 C 
HETATM   42  C20 UNL     1      16.585 -18.133  17.517  1.00  0.00     0.272 C 
ENDBRANCH  34  39
ENDBRANCH  32  34
ENDBRANCH  30  32
ENDBRANCH  24  30
ENDBRANCH   5  24
TORSDOF 16
ENDMDL
MODEL 5
REMARK VINA RESULT: -7.240307409      1.648      2.008
REMARK  16 active torsions:
REMARK  status: ('A' for Active; 'I' for Inactive)
REMARK    1  A    between atoms: C2_2  and  C4_4 
REMARK    2  A    between atoms: C4_4  and  C5_5 
REMARK    3  A    between atoms: C5_5  and  C6_6 
REMARK    4  A    between atoms: C6_6  and  N1_7 
REMARK    5  A    between atoms: C6_6  and  C21_36 
REMARK       I    between atoms: N1_7  and  C7_9 
REMARK    6  A    between atoms: C7_9  and  C8_11 
REMARK       I    between atoms: C8_11  and  N2_13 
REMARK       I    between atoms: N2_13  and  C9_15 
REMARK    7  A    between atoms: C9_15  and  C10_17 
REMARK    8  A    between atoms: C10_17  and  C11_18 
REMARK    9  A    between atoms: C10_17  and  N4_23 
REMARK   10  A    between atoms: C11_18  and  C12_19 
REMARK   11  A    between atoms: C12_19  and  C13_20 
REMARK   12  A    between atoms: N4_23  and  C14_25 
REMARK   13  A    between atoms: C14_25  and  C15_27 
REMARK   14  A    between atoms: C15_27  and  C16_28 
REMARK   15  A    between atoms: C15_27  and  N5_32 
REMARK   16  A    between atoms: C16_28  and  S1_29 
ROOT
HETATM    1  C8  UNL     1      12.264 -13.183  14.208  1.00  0.00     0.316 C 
HETATM    2  O2  UNL     1      12.025 -12.094  14.790  1.00  0.00    -0.262 OA
HETATM    3  N2  UNL     1      13.623 -13.473  13.908  1.00  0.00    -0.288 N 
ATOM      4  H2  UNL     1      13.845 -14.349  13.434  1.00  0.00     0.172 HD
HETATM    5  C9  UNL     1      14.686 -12.584  14.244  1.00  0.00     0.247 C 
HETATM    6  O3  UNL     1      14.361 -11.529  14.830  1.00  0.00    -0.271 OA
ENDROOT
BRANCH   1   7
HETATM    7  C7  UNL     1      11.194 -14.106  13.858  1.00  0.00     0.310 C 
HETATM    8  N1  UNL     1       9.930 -13.581  13.516  1.00  0.00    -0.348 N 
ATOM      9  H1  UNL     1       9.809 -12.568  13.525  1.00  0.00     0.163 HD
HETATM   10  O1  UNL     1      11.436 -15.343  13.873  1.00  0.00    -0.262 OA
BRANCH   8  11
HETATM   11  C6  UNL     1       8.789 -14.410  13.150  1.00  0.00     0.090 C 
BRANCH  11  12
HETATM   12  C5  UNL     1       7.681 -14.222  14.135  1.00  0.00     0.026 C 
BRANCH  12  13
HETATM   13  C4  UNL     1       8.055 -14.687  15.528  1.00  0.00     0.006 C 
BRANCH  13  14
HETATM   14  C2  UNL     1       8.025 -13.528  16.514  1.00  0.00    -0.023 C 
HETATM   15  C1  UNL     1       9.439 -13.328  17.013  1.00  0.00     0.009 C 
HETATM   16  C3  UNL     1       7.452 -12.282  15.878  1.00  0.00     0.009 C 
ENDBRANCH  13  14
ENDBRANCH  12  13
ENDBRANCH  11  12
BRANCH  11  17
HETATM   17  C21 UNL     1       8.445 -14.148  11.734  1.00  0.00     0.036 C 
HETATM   18  C22 UNL     1       9.438 -14.799  10.795  1.00  0.00     0.036 C 
HETATM   19  C23 UNL     1       8.815 -16.197  10.674  1.00  0.00     0.232 C 
HETATM   20  N6  UNL     1       7.398 -15.986  10.741  1.00  0.00    -0.075 N 
HETATM   21  C24 UNL     1       7.156 -14.658  11.235  1.00  0.00     0.239 C 
ATOM     22  H62 UNL     1       6.933 -16.162   9.850  1.00  0.00     0.277 HD
ATOM     23  H61 UNL     1       6.921 -16.701  11.292  1.00  0.00     0.277 HD
ENDBRANCH  11  17
ENDBRANCH   8  11
ENDBRANCH   1   7
BRANCH   5  24
HETATM   24  C10 UNL     1      16.075 -12.952  13.889  1.00  0.00     0.172 C 
BRANCH  24  25
HETATM   25  C11 UNL     1      17.057 -11.836  13.925  1.00  0.00     0.043 C 
BRANCH  25  26
HETATM   26  C12 UNL     1      17.460 -11.444  12.536  1.00  0.00     0.102 C 
BRANCH  26  27
HETATM   27  C13 UNL     1      16.958 -10.070  12.268  1.00  0.00     0.231 C 
HETATM   28  N3  UNL     1      17.532  -9.307  11.221  1.00  0.00    -0.062 NA
HETATM   29  O4  UNL     1      16.036  -9.611  12.973  1.00  0.00    -0.277 OA
ENDBRANCH  26  27
ENDBRANCH  25  26
ENDBRANCH  24  25
BRANCH  24  30
HETATM   30  N4  UNL     1      16.501 -14.172  14.532  1.00  0.00    -0.378 N 
ATOM     31  H4  UNL     1      17.213 -14.780  14.125  1.00  0.00     0.157 HD
BRANCH  30  32
HETATM   32  C14 UNL     1      15.866 -14.474  15.771  1.00  0.00     0.297 C 
HETATM   33  F1  UNL     1      16.274 -13.692  16.847  1.00  0.00    -0.225 F 
BRANCH  32  34
HETATM   34  C15 UNL     1      15.912 -15.947  16.156  1.00  0.00     0.253 C 
BRANCH  34  35
HETATM   35  C16 UNL     1      16.799 -16.583  15.092  1.00  0.00     0.146 C 
BRANCH  35  36
HETATM   36  S1  UNL     1      18.097 -17.543  15.807  1.00  0.00     0.013 S 
HETATM   37  C17 UNL     1      18.546 -16.930  17.416  1.00  0.00     0.127 C 
HETATM   38  O5  UNL     1      17.632 -19.144  16.029  1.00  0.00    -0.258 OA
ENDBRANCH  35  36
ENDBRANCH  34  35
BRANCH  34  39
HETATM   39  N5  UNL     1      14.669 -16.611  16.269  1.00  0.00    -0.069 N 
HETATM   40  C18 UNL     1      14.119 -17.144  15.056  1.00  0.00     0.272 C 
HETATM   41  C19 UNL     1      14.602 -17.646  17.288  1.00  0.00     0.272 C 
HETATM   42  C20 UNL     1      13.680 -15.598  16.709  1.00  0.00     0.272 C 
ENDBRANCH  34  39
ENDBRANCH  32  34
ENDBRANCH  30  32
ENDBRANCH  24  30
ENDBRANCH   5  24
TORSDOF 16
ENDMDL
