MODEL 1
REMARK VINA RESULT: -8.051891371      0.000      0.000
REMARK  12 active torsions:
REMARK  status: ('A' for Active; 'I' for Inactive)
REMARK    1  A    between atoms: C2_2  and  C3_3 
REMARK    2  A    between atoms: C3_3  and  O1_4 
REMARK    3  A    between atoms: O1_4  and  C4_5 
REMARK    4  A    between atoms: C4_5  and  C5_6 
REMARK    5  A    between atoms: C5_6  and  N1_7 
REMARK    6  A    between atoms: C8_10  and  C9_11 
REMARK    7  A    between atoms: C10_12  and  O2_13 
REMARK    8  A    between atoms: C14_23  and  N4_24 
REMARK    9  A    between atoms: N6_30  and  C16_31 
REMARK   10  A    between atoms: C16_31  and  C17_32 
REMARK   11  A    between atoms: C17_32  and  N7_33 
REMARK   12  A    between atoms: C19_38  and  O4_39 
ROOT
HETATM    1  C9  UNL     1       3.836 -10.509  10.488  1.00  0.00     0.081 A 
HETATM    2  C10 UNL     1       2.980  -9.432  10.460  1.00  0.00     0.111 A 
HETATM    3  C11 UNL     1       3.023  -8.425  11.395  1.00  0.00     0.098 A 
HETATM    4  N2  UNL     1       2.138  -7.431  11.275  1.00  0.00    -0.344 N 
ATOM      5  H2  UNL     1       1.454  -7.409  10.517  1.00  0.00     0.166 HD
HETATM    6  C12 UNL     1       2.194  -6.463  12.201  1.00  0.00     0.147 A 
HETATM    7  C13 UNL     1       1.274  -5.444  12.090  1.00  0.00     0.290 A 
HETATM    8  O3  UNL     1       0.444  -5.448  11.144  1.00  0.00    -0.265 OA
HETATM    9  N3  UNL     1       1.226  -4.419  12.975  1.00  0.00    -0.154 N 
ATOM     10  H3  UNL     1       0.541  -3.668  12.883  1.00  0.00     0.187 HD
HETATM   11  C14 UNL     1       2.123  -4.434  13.979  1.00  0.00     0.680 A 
HETATM   12  N5  UNL     1       3.031  -5.428  14.098  1.00  0.00    -0.174 N 
ATOM     13  H5  UNL     1       3.687  -5.391  14.878  1.00  0.00     0.186 HD
HETATM   14  C15 UNL     1       3.115  -6.463  13.243  1.00  0.00     0.160 A 
HETATM   15  N6  UNL     1       4.044  -7.456  13.411  1.00  0.00    -0.303 N 
HETATM   16  C18 UNL     1       4.002  -8.435  12.495  1.00  0.00     0.107 A 
HETATM   17  C19 UNL     1       4.843  -9.523  12.493  1.00  0.00     0.147 A 
HETATM   18  C20 UNL     1       4.768 -10.536  11.523  1.00  0.00     0.222 A 
HETATM   19  O5  UNL     1       5.587 -11.450  11.661  1.00  0.00    -0.284 OA
ENDROOT
BRANCH   1  20
HETATM   20  C8  UNL     1       3.696 -11.663   9.585  1.00  0.00     0.078 A 
HETATM   21  C6  UNL     1       4.470 -11.976   8.479  1.00  0.00     0.040 A 
HETATM   22  N1  UNL     1       4.152 -13.192   7.982  1.00  0.00    -0.299 N 
HETATM   23  C7  UNL     1       5.491 -11.081   7.815  1.00  0.00     0.071 C 
HETATM   24  C22 UNL     1       3.177 -13.665   8.756  1.00  0.00     0.329 A 
HETATM   25  N8  UNL     1       2.896 -12.743   9.732  1.00  0.00    -0.301 N 
HETATM   26  O6  UNL     1       2.613 -14.787   8.601  1.00  0.00    -0.246 OA
HETATM   27  C21 UNL     1       1.918 -12.962  10.778  1.00  0.00     0.161 C 
BRANCH  22  28
HETATM   28  C5  UNL     1       4.767 -13.856   6.823  1.00  0.00     0.160 C 
BRANCH  28  29
HETATM   29  C4  UNL     1       3.956 -13.660   5.592  1.00  0.00     0.188 C 
BRANCH  29  30
HETATM   30  O1  UNL     1       4.265 -12.603   4.856  1.00  0.00    -0.390 OA
BRANCH  30  31
HETATM   31  C3  UNL     1       3.511 -11.682   4.314  1.00  0.00     0.167 C 
BRANCH  31  32
HETATM   32  C2  UNL     1       3.540 -10.265   4.773  1.00  0.00     0.022 C 
HETATM   33  C1  UNL     1       2.445 -10.146   5.874  1.00  0.00     0.007 C 
ENDBRANCH  31  32
ENDBRANCH  30  31
ENDBRANCH  29  30
ENDBRANCH  28  29
ENDBRANCH  22  28
ENDBRANCH   1  20
BRANCH   2  34
HETATM   34  O2  UNL     1       2.039  -9.366   9.429  1.00  0.00    -0.357 OA
ATOM     35  H2  UNL     1       1.247  -8.863   9.578  1.00  0.00     0.217 HD
ENDBRANCH   2  34
BRANCH  17  36
HETATM   36  O4  UNL     1       5.789  -9.605  13.495  1.00  0.00    -0.355 OA
ATOM     37  H4  UNL     1       5.561 -10.091  14.279  1.00  0.00     0.218 HD
ENDBRANCH  17  36
BRANCH  15  38
HETATM   38  C16 UNL     1       4.999  -7.430  14.435  1.00  0.00     0.099 C 
BRANCH  38  39
HETATM   39  C17 UNL     1       4.597  -7.732  15.841  1.00  0.00     0.274 C 
BRANCH  39  40
HETATM   40  N7  UNL     1       5.001  -9.103  16.134  1.00  0.00    -0.075 N 
ATOM     41  H73 UNL     1       5.700  -9.458  15.483  1.00  0.00     0.274 HD
ATOM     42  H72 UNL     1       5.559  -9.178  16.985  1.00  0.00     0.274 HD
ATOM     43  H71 UNL     1       4.158  -9.676  16.161  1.00  0.00     0.274 HD
ENDBRANCH  39  40
ENDBRANCH  38  39
ENDBRANCH  15  38
BRANCH  11  44
HETATM   44  N4  UNL     1       2.123  -3.484  14.850  1.00  0.00    -0.234 N 
ATOM     45  H42 UNL     1       3.015  -3.152  15.216  1.00  0.00     0.174 HD
ATOM     46  H41 UNL     1       1.239  -3.081  15.160  1.00  0.00     0.174 HD
ENDBRANCH  11  44
TORSDOF 12
ENDMDL
MODEL 2
REMARK VINA RESULT: -8.009507687      1.609      3.713
REMARK  12 active torsions:
REMARK  status: ('A' for Active; 'I' for Inactive)
REMARK    1  A    between atoms: C2_2  and  C3_3 
REMARK    2  A    between atoms: C3_3  and  O1_4 
REMARK    3  A    between atoms: O1_4  and  C4_5 
REMARK    4  A    between atoms: C4_5  and  C5_6 
REMARK    5  A    between atoms: C5_6  and  N1_7 
REMARK    6  A    between atoms: C8_10  and  C9_11 
REMARK    7  A    between atoms: C10_12  and  O2_13 
REMARK    8  A    between atoms: C14_23  and  N4_24 
REMARK    9  A    between atoms: N6_30  and  C16_31 
REMARK   10  A    between atoms: C16_31  and  C17_32 
REMARK   11  A    between atoms: C17_32  and  N7_33 
REMARK   12  A    between atoms: C19_38  and  O4_39 
ROOT
HETATM    1  C9  UNL     1       3.545 -10.758  10.681  1.00  0.00     0.081 A 
HETATM    2  C10 UNL     1       4.185 -10.405  11.847  1.00  0.00     0.111 A 
HETATM    3  C11 UNL     1       3.807  -9.321  12.602  1.00  0.00     0.098 A 
HETATM    4  N2  UNL     1       4.506  -9.067  13.713  1.00  0.00    -0.344 N 
ATOM      5  H2  UNL     1       5.290  -9.654  14.000  1.00  0.00     0.166 HD
HETATM    6  C12 UNL     1       4.124  -8.001  14.430  1.00  0.00     0.147 A 
HETATM    7  C13 UNL     1       4.851  -7.726  15.569  1.00  0.00     0.290 A 
HETATM    8  O3  UNL     1       5.812  -8.471  15.893  1.00  0.00    -0.265 OA
HETATM    9  N3  UNL     1       4.566  -6.668  16.366  1.00  0.00    -0.154 N 
ATOM     10  H3  UNL     1       5.111  -6.474  17.207  1.00  0.00     0.187 HD
HETATM   11  C14 UNL     1       3.534  -5.885  16.000  1.00  0.00     0.680 A 
HETATM   12  N5  UNL     1       2.813  -6.144  14.886  1.00  0.00    -0.174 N 
ATOM     13  H5  UNL     1       2.042  -5.519  14.654  1.00  0.00     0.186 HD
HETATM   14  C15 UNL     1       3.060  -7.184  14.067  1.00  0.00     0.160 A 
HETATM   15  N6  UNL     1       2.310  -7.400  12.941  1.00  0.00    -0.303 N 
HETATM   16  C18 UNL     1       2.678  -8.461  12.208  1.00  0.00     0.107 A 
HETATM   17  C19 UNL     1       2.060  -8.841  11.040  1.00  0.00     0.147 A 
HETATM   18  C20 UNL     1       2.475  -9.955  10.291  1.00  0.00     0.222 A 
HETATM   19  O5  UNL     1       1.823 -10.162   9.264  1.00  0.00    -0.284 OA
ENDROOT
BRANCH   1  20
HETATM   20  C8  UNL     1       4.037 -11.821   9.790  1.00  0.00     0.078 A 
HETATM   21  C6  UNL     1       3.590 -13.130   9.699  1.00  0.00     0.040 A 
HETATM   22  N1  UNL     1       4.167 -13.777   8.663  1.00  0.00    -0.299 N 
HETATM   23  C7  UNL     1       2.649 -13.825  10.656  1.00  0.00     0.071 C 
HETATM   24  C22 UNL     1       4.984 -12.899   8.086  1.00  0.00     0.329 A 
HETATM   25  N8  UNL     1       4.910 -11.709   8.764  1.00  0.00    -0.301 N 
HETATM   26  O6  UNL     1       5.706 -13.141   7.075  1.00  0.00    -0.246 OA
HETATM   27  C21 UNL     1       5.634 -10.518   8.367  1.00  0.00     0.161 C 
BRANCH  22  28
HETATM   28  C5  UNL     1       3.930 -15.171   8.256  1.00  0.00     0.160 C 
BRANCH  28  29
HETATM   29  C4  UNL     1       2.636 -15.313   7.535  1.00  0.00     0.188 C 
BRANCH  29  30
HETATM   30  O1  UNL     1       2.516 -14.613   6.418  1.00  0.00    -0.390 OA
BRANCH  30  31
HETATM   31  C3  UNL     1       1.590 -13.778   6.021  1.00  0.00     0.167 C 
BRANCH  31  32
HETATM   32  C2  UNL     1       1.325 -12.495   6.729  1.00  0.00     0.022 C 
HETATM   33  C1  UNL     1       2.235 -11.430   6.048  1.00  0.00     0.007 C 
ENDBRANCH  31  32
ENDBRANCH  30  31
ENDBRANCH  29  30
ENDBRANCH  28  29
ENDBRANCH  22  28
ENDBRANCH   1  20
BRANCH   2  34
HETATM   34  O2  UNL     1       5.255 -11.195  12.274  1.00  0.00    -0.357 OA
ATOM     35  H2  UNL     1       5.221 -11.559  13.151  1.00  0.00     0.217 HD
ENDBRANCH   2  34
BRANCH  17  36
HETATM   36  O4  UNL     1       0.991  -8.083  10.604  1.00  0.00    -0.355 OA
ATOM     37  H4  UNL     1       0.117  -8.396  10.804  1.00  0.00     0.218 HD
ENDBRANCH  17  36
BRANCH  15  38
HETATM   38  C16 UNL     1       1.211  -6.602  12.602  1.00  0.00     0.099 C 
BRANCH  38  39
HETATM   39  C17 UNL     1       1.417  -5.182  12.185  1.00  0.00     0.274 C 
BRANCH  39  40
HETATM   40  N7  UNL     1       1.964  -5.191  10.833  1.00  0.00    -0.075 N 
ATOM     41  H73 UNL     1       2.833  -4.664  10.754  1.00  0.00     0.274 HD
ATOM     42  H72 UNL     1       2.335  -6.102  10.561  1.00  0.00     0.274 HD
ATOM     43  H71 UNL     1       1.238  -4.854  10.202  1.00  0.00     0.274 HD
ENDBRANCH  39  40
ENDBRANCH  38  39
ENDBRANCH  15  38
BRANCH  11  44
HETATM   44  N4  UNL     1       3.219  -4.864  16.720  1.00  0.00    -0.234 N 
ATOM     45  H42 UNL     1       2.827  -5.020  17.649  1.00  0.00     0.174 HD
ATOM     46  H41 UNL     1       3.366  -3.923  16.356  1.00  0.00     0.174 HD
ENDBRANCH  11  44
TORSDOF 12
ENDMDL
MODEL 3
REMARK VINA RESULT: -8.006878585      1.366      2.881
REMARK  12 active torsions:
REMARK  status: ('A' for Active; 'I' for Inactive)
REMARK    1  A    between atoms: C2_2  and  C3_3 
REMARK    2  A    between atoms: C3_3  and  O1_4 
REMARK    3  A    between atoms: O1_4  and  C4_5 
REMARK    4  A    between atoms: C4_5  and  C5_6 
REMARK    5  A    between atoms: C5_6  and  N1_7 
REMARK    6  A    between atoms: C8_10  and  C9_11 
REMARK    7  A    between atoms: C10_12  and  O2_13 
REMARK    8  A    between atoms: C14_23  and  N4_24 
REMARK    9  A    between atoms: N6_30  and  C16_31 
REMARK   10  A    between atoms: C16_31  and  C17_32 
REMARK   11  A    between atoms: C17_32  and  N7_33 
REMARK   12  A    between atoms: C19_38  and  O4_39 
ROOT
HETATM    1  C9  UNL     1       4.109 -10.562  10.209  1.00  0.00     0.081 A 
HETATM    2  C10 UNL     1       3.459  -9.349  10.216  1.00  0.00     0.111 A 
HETATM    3  C11 UNL     1       3.452  -8.518  11.311  1.00  0.00     0.098 A 
HETATM    4  N2  UNL     1       2.781  -7.367  11.209  1.00  0.00    -0.344 N 
ATOM      5  H2  UNL     1       2.294  -7.104  10.352  1.00  0.00     0.166 HD
HETATM    6  C12 UNL     1       2.782  -6.575  12.291  1.00  0.00     0.147 A 
HETATM    7  C13 UNL     1       2.080  -5.393  12.196  1.00  0.00     0.290 A 
HETATM    8  O3  UNL     1       1.489  -5.100  11.124  1.00  0.00    -0.265 OA
HETATM    9  N3  UNL     1       1.999  -4.520  13.228  1.00  0.00    -0.154 N 
ATOM     10  H3  UNL     1       1.476  -3.647  13.147  1.00  0.00     0.187 HD
HETATM   11  C14 UNL     1       2.638  -4.853  14.365  1.00  0.00     0.680 A 
HETATM   12  N5  UNL     1       3.331  -6.009  14.471  1.00  0.00    -0.174 N 
ATOM     13  H5  UNL     1       3.796  -6.213  15.354  1.00  0.00     0.186 HD
HETATM   14  C15 UNL     1       3.439  -6.904  13.471  1.00  0.00     0.160 A 
HETATM   15  N6  UNL     1       4.142  -8.070  13.629  1.00  0.00    -0.303 N 
HETATM   16  C18 UNL     1       4.151  -8.876  12.557  1.00  0.00     0.107 A 
HETATM   17  C19 UNL     1       4.791 -10.093  12.516  1.00  0.00     0.147 A 
HETATM   18  C20 UNL     1       4.774 -10.919  11.380  1.00  0.00     0.222 A 
HETATM   19  O5  UNL     1       5.390 -11.982  11.502  1.00  0.00    -0.284 OA
ENDROOT
BRANCH   1  20
HETATM   20  C8  UNL     1       3.994 -11.522   9.099  1.00  0.00     0.078 A 
HETATM   21  C6  UNL     1       2.960 -12.411   8.847  1.00  0.00     0.040 A 
HETATM   22  N1  UNL     1       3.119 -13.027   7.655  1.00  0.00    -0.299 N 
HETATM   23  C7  UNL     1       1.825 -12.755   9.783  1.00  0.00     0.071 C 
HETATM   24  C22 UNL     1       4.247 -12.545   7.136  1.00  0.00     0.329 A 
HETATM   25  N8  UNL     1       4.783 -11.631   8.007  1.00  0.00    -0.301 N 
HETATM   26  O6  UNL     1       4.731 -12.888   6.018  1.00  0.00    -0.246 OA
HETATM   27  C21 UNL     1       5.988 -10.875   7.728  1.00  0.00     0.161 C 
BRANCH  22  28
HETATM   28  C5  UNL     1       2.218 -14.022   7.054  1.00  0.00     0.160 C 
BRANCH  28  29
HETATM   29  C4  UNL     1       2.826 -15.380   7.066  1.00  0.00     0.188 C 
BRANCH  29  30
HETATM   30  O1  UNL     1       3.128 -15.870   8.259  1.00  0.00    -0.390 OA
BRANCH  30  31
HETATM   31  C3  UNL     1       4.274 -15.975   8.881  1.00  0.00     0.167 C 
BRANCH  31  32
HETATM   32  C2  UNL     1       4.469 -15.472  10.270  1.00  0.00     0.022 C 
HETATM   33  C1  UNL     1       3.344 -16.125  11.126  1.00  0.00     0.007 C 
ENDBRANCH  31  32
ENDBRANCH  30  31
ENDBRANCH  29  30
ENDBRANCH  28  29
ENDBRANCH  22  28
ENDBRANCH   1  20
BRANCH   2  34
HETATM   34  O2  UNL     1       2.791  -8.954   9.055  1.00  0.00    -0.357 OA
ATOM     35  H2  UNL     1       3.307  -8.597   8.341  1.00  0.00     0.217 HD
ENDBRANCH   2  34
BRANCH  17  36
HETATM   36  O4  UNL     1       5.468 -10.501  13.648  1.00  0.00    -0.355 OA
ATOM     37  H4  UNL     1       5.747 -11.408  13.693  1.00  0.00     0.218 HD
ENDBRANCH  17  36
BRANCH  15  38
HETATM   38  C16 UNL     1       4.839  -8.378  14.803  1.00  0.00     0.099 C 
BRANCH  38  39
HETATM   39  C17 UNL     1       5.969  -7.510  15.252  1.00  0.00     0.274 C 
BRANCH  39  40
HETATM   40  N7  UNL     1       5.641  -7.007  16.582  1.00  0.00    -0.075 N 
ATOM     41  H73 UNL     1       6.343  -6.364  16.946  1.00  0.00     0.274 HD
ATOM     42  H72 UNL     1       4.853  -6.358  16.577  1.00  0.00     0.274 HD
ATOM     43  H71 UNL     1       5.488  -7.812  17.188  1.00  0.00     0.274 HD
ENDBRANCH  39  40
ENDBRANCH  38  39
ENDBRANCH  15  38
BRANCH  11  44
HETATM   44  N4  UNL     1       2.594  -4.060  15.380  1.00  0.00    -0.234 N 
ATOM     45  H42 UNL     1       1.915  -3.299  15.380  1.00  0.00     0.174 HD
ATOM     46  H41 UNL     1       3.233  -4.203  16.162  1.00  0.00     0.174 HD
ENDBRANCH  11  44
TORSDOF 12
ENDMDL
MODEL 4
REMARK VINA RESULT: -7.967626256      2.016      4.360
REMARK  12 active torsions:
REMARK  status: ('A' for Active; 'I' for Inactive)
REMARK    1  A    between atoms: C2_2  and  C3_3 
REMARK    2  A    between atoms: C3_3  and  O1_4 
REMARK    3  A    between atoms: O1_4  and  C4_5 
REMARK    4  A    between atoms: C4_5  and  C5_6 
REMARK    5  A    between atoms: C5_6  and  N1_7 
REMARK    6  A    between atoms: C8_10  and  C9_11 
REMARK    7  A    between atoms: C10_12  and  O2_13 
REMARK    8  A    between atoms: C14_23  and  N4_24 
REMARK    9  A    between atoms: N6_30  and  C16_31 
REMARK   10  A    between atoms: C16_31  and  C17_32 
REMARK   11  A    between atoms: C17_32  and  N7_33 
REMARK   12  A    between atoms: C19_38  and  O4_39 
ROOT
HETATM    1  C9  UNL     1       3.359 -10.475  11.055  1.00  0.00     0.081 A 
HETATM    2  C10 UNL     1       4.022 -10.132  12.212  1.00  0.00     0.111 A 
HETATM    3  C11 UNL     1       3.681  -9.033  12.964  1.00  0.00     0.098 A 
HETATM    4  N2  UNL     1       4.398  -8.791  14.065  1.00  0.00    -0.344 N 
ATOM      5  H2  UNL     1       5.169  -9.397  14.347  1.00  0.00     0.166 HD
HETATM    6  C12 UNL     1       4.053  -7.711  14.780  1.00  0.00     0.147 A 
HETATM    7  C13 UNL     1       4.799  -7.448  15.909  1.00  0.00     0.290 A 
HETATM    8  O3  UNL     1       5.744  -8.216  16.227  1.00  0.00    -0.265 OA
HETATM    9  N3  UNL     1       4.551  -6.379  16.702  1.00  0.00    -0.154 N 
ATOM     10  H3  UNL     1       5.109  -6.194  17.535  1.00  0.00     0.187 HD
HETATM   11  C14 UNL     1       3.536  -5.571  16.342  1.00  0.00     0.680 A 
HETATM   12  N5  UNL     1       2.796  -5.818  15.238  1.00  0.00    -0.174 N 
ATOM     13  H5  UNL     1       2.039  -5.174  15.010  1.00  0.00     0.186 HD
HETATM   14  C15 UNL     1       3.006  -6.868  14.423  1.00  0.00     0.160 A 
HETATM   15  N6  UNL     1       2.238  -7.071  13.306  1.00  0.00    -0.303 N 
HETATM   16  C18 UNL     1       2.570  -8.146  12.577  1.00  0.00     0.107 A 
HETATM   17  C19 UNL     1       1.929  -8.518  11.418  1.00  0.00     0.147 A 
HETATM   18  C20 UNL     1       2.307  -9.646  10.672  1.00  0.00     0.222 A 
HETATM   19  O5  UNL     1       1.638  -9.843   9.653  1.00  0.00    -0.284 OA
ENDROOT
BRANCH   1  20
HETATM   20  C8  UNL     1       3.814 -11.556  10.166  1.00  0.00     0.078 A 
HETATM   21  C6  UNL     1       3.269 -12.822  10.018  1.00  0.00     0.040 A 
HETATM   22  N1  UNL     1       3.849 -13.493   8.999  1.00  0.00    -0.299 N 
HETATM   23  C7  UNL     1       2.223 -13.458  10.905  1.00  0.00     0.071 C 
HETATM   24  C22 UNL     1       4.765 -12.673   8.489  1.00  0.00     0.329 A 
HETATM   25  N8  UNL     1       4.749 -11.495   9.191  1.00  0.00    -0.301 N 
HETATM   26  O6  UNL     1       5.521 -12.952   7.513  1.00  0.00    -0.246 OA
HETATM   27  C21 UNL     1       5.588 -10.359   8.864  1.00  0.00     0.161 C 
BRANCH  22  28
HETATM   28  C5  UNL     1       3.524 -14.854   8.545  1.00  0.00     0.160 C 
BRANCH  28  29
HETATM   29  C4  UNL     1       4.263 -15.878   9.330  1.00  0.00     0.188 C 
BRANCH  29  30
HETATM   30  O1  UNL     1       5.204 -16.542   8.676  1.00  0.00    -0.390 OA
BRANCH  30  31
HETATM   31  C3  UNL     1       5.511 -16.573   7.405  1.00  0.00     0.167 C 
BRANCH  31  32
HETATM   32  C2  UNL     1       6.907 -16.376   6.923  1.00  0.00     0.022 C 
HETATM   33  C1  UNL     1       7.788 -17.371   7.735  1.00  0.00     0.007 C 
ENDBRANCH  31  32
ENDBRANCH  30  31
ENDBRANCH  29  30
ENDBRANCH  28  29
ENDBRANCH  22  28
ENDBRANCH   1  20
BRANCH   2  34
HETATM   34  O2  UNL     1       5.075 -10.947  12.632  1.00  0.00    -0.357 OA
ATOM     35  H2  UNL     1       5.845 -10.528  13.000  1.00  0.00     0.217 HD
ENDBRANCH   2  34
BRANCH  17  36
HETATM   36  O4  UNL     1       0.877  -7.734  10.988  1.00  0.00    -0.355 OA
ATOM     37  H4  UNL     1       0.093  -8.177  10.682  1.00  0.00     0.218 HD
ENDBRANCH  17  36
BRANCH  15  38
HETATM   38  C16 UNL     1       1.156  -6.247  12.974  1.00  0.00     0.099 C 
BRANCH  38  39
HETATM   39  C17 UNL     1       1.396  -4.839  12.537  1.00  0.00     0.274 C 
BRANCH  39  40
HETATM   40  N7  UNL     1       2.020  -4.883  11.219  1.00  0.00    -0.075 N 
ATOM     41  H73 UNL     1       3.026  -5.044  11.262  1.00  0.00     0.274 HD
ATOM     42  H72 UNL     1       1.772  -5.721  10.691  1.00  0.00     0.274 HD
ATOM     43  H71 UNL     1       1.777  -4.021  10.732  1.00  0.00     0.274 HD
ENDBRANCH  39  40
ENDBRANCH  38  39
ENDBRANCH  15  38
BRANCH  11  44
HETATM   44  N4  UNL     1       3.255  -4.537  17.059  1.00  0.00    -0.234 N 
ATOM     45  H42 UNL     1       4.020  -4.005  17.475  1.00  0.00     0.174 HD
ATOM     46  H41 UNL     1       2.282  -4.268  17.200  1.00  0.00     0.174 HD
ENDBRANCH  11  44
TORSDOF 12
ENDMDL
MODEL 5
REMARK VINA RESULT: -7.896948447      3.540      8.326
REMARK  12 active torsions:
REMARK  status: ('A' for Active; 'I' for Inactive)
REMARK    1  A    between atoms: C2_2  and  C3_3 
REMARK    2  A    between atoms: C3_3  and  O1_4 
REMARK    3  A    between atoms: O1_4  and  C4_5 
REMARK    4  A    between atoms: C4_5  and  C5_6 
REMARK    5  A    between atoms: C5_6  and  N1_7 
REMARK    6  A    between atoms: C8_10  and  C9_11 
REMARK    7  A    between atoms: C10_12  and  O2_13 
REMARK    8  A    between atoms: C14_23  and  N4_24 
REMARK    9  A    between atoms: N6_30  and  C16_31 
REMARK   10  A    between atoms: C16_31  and  C17_32 
REMARK   11  A    between atoms: C17_32  and  N7_33 
REMARK   12  A    between atoms: C19_38  and  O4_39 
ROOT
HETATM    1  C9  UNL     1       2.338  -5.549  10.244  1.00  0.00     0.081 A 
HETATM    2  C10 UNL     1       2.729  -5.603  11.562  1.00  0.00     0.111 A 
HETATM    3  C11 UNL     1       3.188  -6.756  12.153  1.00  0.00     0.098 A 
HETATM    4  N2  UNL     1       3.533  -6.695  13.443  1.00  0.00    -0.344 N 
ATOM      5  H2  UNL     1       3.466  -5.827  13.976  1.00  0.00     0.166 HD
HETATM    6  C12 UNL     1       3.972  -7.833  14.000  1.00  0.00     0.147 A 
HETATM    7  C13 UNL     1       4.315  -7.778  15.334  1.00  0.00     0.290 A 
HETATM    8  O3  UNL     1       4.220  -6.692  15.962  1.00  0.00    -0.265 OA
HETATM    9  N3  UNL     1       4.759  -8.867  16.007  1.00  0.00    -0.154 N 
ATOM     10  H3  UNL     1       5.011  -8.815  16.995  1.00  0.00     0.187 HD
HETATM   11  C14 UNL     1       4.853 -10.019  15.316  1.00  0.00     0.680 A 
HETATM   12  N5  UNL     1       4.521 -10.085  14.008  1.00  0.00    -0.174 N 
ATOM     13  H5  UNL     1       4.610 -10.982  13.532  1.00  0.00     0.186 HD
HETATM   14  C15 UNL     1       4.077  -9.029  13.300  1.00  0.00     0.160 A 
HETATM   15  N6  UNL     1       3.739  -9.146  11.978  1.00  0.00    -0.303 N 
HETATM   16  C18 UNL     1       3.295  -8.019  11.402  1.00  0.00     0.107 A 
HETATM   17  C19 UNL     1       2.898  -7.930  10.089  1.00  0.00     0.147 A 
HETATM   18  C20 UNL     1       2.431  -6.735   9.518  1.00  0.00     0.222 A 
HETATM   19  O5  UNL     1       2.107  -6.819   8.330  1.00  0.00    -0.284 OA
ENDROOT
BRANCH   1  20
HETATM   20  C8  UNL     1       1.703  -4.363   9.648  1.00  0.00     0.078 A 
HETATM   21  C6  UNL     1       0.365  -4.003   9.689  1.00  0.00     0.040 A 
HETATM   22  N1  UNL     1       0.170  -2.771   9.168  1.00  0.00    -0.299 N 
HETATM   23  C7  UNL     1      -0.782  -4.865  10.160  1.00  0.00     0.071 C 
HETATM   24  C22 UNL     1       1.369  -2.334   8.789  1.00  0.00     0.329 A 
HETATM   25  N8  UNL     1       2.305  -3.294   9.078  1.00  0.00    -0.301 N 
HETATM   26  O6  UNL     1       1.591  -1.210   8.251  1.00  0.00    -0.246 OA
HETATM   27  C21 UNL     1       3.724  -3.121   8.843  1.00  0.00     0.161 C 
BRANCH  22  28
HETATM   28  C5  UNL     1      -1.113  -2.059   9.053  1.00  0.00     0.160 C 
BRANCH  28  29
HETATM   29  C4  UNL     1      -1.366  -1.202  10.242  1.00  0.00     0.188 C 
BRANCH  29  30
HETATM   30  O1  UNL     1      -2.613  -0.785  10.401  1.00  0.00    -0.390 OA
BRANCH  30  31
HETATM   31  C3  UNL     1      -3.644  -0.830   9.598  1.00  0.00     0.167 C 
BRANCH  31  32
HETATM   32  C2  UNL     1      -4.906  -1.529   9.970  1.00  0.00     0.022 C 
HETATM   33  C1  UNL     1      -4.567  -3.050   9.988  1.00  0.00     0.007 C 
ENDBRANCH  31  32
ENDBRANCH  30  31
ENDBRANCH  29  30
ENDBRANCH  28  29
ENDBRANCH  22  28
ENDBRANCH   1  20
BRANCH   2  34
HETATM   34  O2  UNL     1       2.660  -4.430  12.317  1.00  0.00    -0.357 OA
ATOM     35  H2  UNL     1       3.259  -4.333  13.048  1.00  0.00     0.217 HD
ENDBRANCH   2  34
BRANCH  17  36
HETATM   36  O4  UNL     1       2.968  -9.074   9.319  1.00  0.00    -0.355 OA
ATOM     37  H4  UNL     1       3.814  -9.308   8.952  1.00  0.00     0.218 HD
ENDBRANCH  17  36
BRANCH  15  38
HETATM   38  C16 UNL     1       3.888 -10.342  11.263  1.00  0.00     0.099 C 
BRANCH  38  39
HETATM   39  C17 UNL     1       5.248 -10.923  11.054  1.00  0.00     0.274 C 
BRANCH  39  40
HETATM   40  N7  UNL     1       5.086 -12.350  10.798  1.00  0.00    -0.075 N 
ATOM     41  H73 UNL     1       4.278 -12.749  11.276  1.00  0.00     0.274 HD
ATOM     42  H72 UNL     1       4.789 -12.550   9.842  1.00  0.00     0.274 HD
ATOM     43  H71 UNL     1       5.961 -12.811  11.047  1.00  0.00     0.274 HD
ENDBRANCH  39  40
ENDBRANCH  38  39
ENDBRANCH  15  38
BRANCH  11  44
HETATM   44  N4  UNL     1       5.269 -11.086  15.906  1.00  0.00    -0.234 N 
ATOM     45  H42 UNL     1       6.228 -11.115  16.253  1.00  0.00     0.174 HD
ATOM     46  H41 UNL     1       4.639 -11.880  16.018  1.00  0.00     0.174 HD
ENDBRANCH  11  44
TORSDOF 12
ENDMDL
