MODEL 1
REMARK VINA RESULT: -4.258497416      0.000      0.000
REMARK  1 active torsions:
REMARK  status: ('A' for Active; 'I' for Inactive)
REMARK    1  A    between atoms: C5_5  and  C6_6 
ROOT
HETATM    1  C1  UNL     1     -12.911  25.478  46.601  1.00  0.00     0.015 C 
HETATM    2  C2  UNL     1     -13.149  26.957  46.326  1.00  0.00    -0.035 A 
HETATM    3  C3  UNL     1     -13.968  27.630  47.400  1.00  0.00     0.015 C 
HETATM    4  C4  UNL     1     -12.127  27.787  45.675  1.00  0.00     0.024 A 
HETATM    5  C5  UNL     1     -13.304  27.321  44.897  1.00  0.00     0.083 A 
ENDROOT
BRANCH   5   6
HETATM    6  C6  UNL     1     -14.404  28.238  44.561  1.00  0.00     0.236 C 
HETATM    7  N1  UNL     1     -14.177  29.361  43.729  1.00  0.00    -0.062 NA
HETATM    8  O1  UNL     1     -15.589  28.077  44.989  1.00  0.00    -0.276 OA
ENDBRANCH   5   6
TORSDOF 1
ENDMDL
MODEL 2
REMARK VINA RESULT: -4.247495306      1.181      1.181
REMARK  1 active torsions:
REMARK  status: ('A' for Active; 'I' for Inactive)
REMARK    1  A    between atoms: C5_5  and  C6_6 
ROOT
HETATM    1  C1  UNL     1     -12.731  25.544  46.277  1.00  0.00     0.015 C 
HETATM    2  C2  UNL     1     -12.950  27.035  46.048  1.00  0.00    -0.035 A 
HETATM    3  C3  UNL     1     -13.660  27.707  47.197  1.00  0.00     0.015 C 
HETATM    4  C4  UNL     1     -11.962  27.850  45.332  1.00  0.00     0.024 A 
HETATM    5  C5  UNL     1     -13.209  27.431  44.643  1.00  0.00     0.083 A 
ENDROOT
BRANCH   5   6
HETATM    6  C6  UNL     1     -14.308  28.383  44.414  1.00  0.00     0.236 C 
HETATM    7  N1  UNL     1     -15.608  28.114  44.906  1.00  0.00    -0.062 NA
HETATM    8  O1  UNL     1     -14.154  29.470  43.776  1.00  0.00    -0.276 OA
ENDBRANCH   5   6
TORSDOF 1
ENDMDL
MODEL 3
REMARK VINA RESULT: -4.201550268      1.569      1.603
REMARK  1 active torsions:
REMARK  status: ('A' for Active; 'I' for Inactive)
REMARK    1  A    between atoms: C5_5  and  C6_6 
ROOT
HETATM    1  C1  UNL     1     -12.768  25.600  45.955  1.00  0.00     0.015 C 
HETATM    2  C2  UNL     1     -13.109  27.035  45.575  1.00  0.00    -0.035 A 
HETATM    3  C3  UNL     1     -14.570  27.363  45.766  1.00  0.00     0.015 C 
HETATM    4  C4  UNL     1     -12.163  28.133  45.812  1.00  0.00     0.024 A 
HETATM    5  C5  UNL     1     -12.336  27.593  44.439  1.00  0.00     0.083 A 
ENDROOT
BRANCH   5   6
HETATM    6  C6  UNL     1     -13.095  28.335  43.420  1.00  0.00     0.236 C 
HETATM    7  N1  UNL     1     -12.951  28.024  42.047  1.00  0.00    -0.062 NA
HETATM    8  O1  UNL     1     -13.900  29.274  43.710  1.00  0.00    -0.276 OA
ENDBRANCH   5   6
TORSDOF 1
ENDMDL
MODEL 4
REMARK VINA RESULT: -3.957334777      1.899      2.541
REMARK  1 active torsions:
REMARK  status: ('A' for Active; 'I' for Inactive)
REMARK    1  A    between atoms: C5_5  and  C6_6 
ROOT
HETATM    1  C1  UNL     1     -13.988  28.208  47.141  1.00  0.00     0.015 C 
HETATM    2  C2  UNL     1     -13.975  27.647  45.725  1.00  0.00    -0.035 A 
HETATM    3  C3  UNL     1     -13.229  26.340  45.617  1.00  0.00     0.015 C 
HETATM    4  C4  UNL     1     -15.126  27.812  44.828  1.00  0.00     0.024 A 
HETATM    5  C5  UNL     1     -13.919  28.658  44.642  1.00  0.00     0.083 A 
ENDROOT
BRANCH   5   6
HETATM    6  C6  UNL     1     -12.974  28.403  43.543  1.00  0.00     0.236 C 
HETATM    7  N1  UNL     1     -13.441  28.222  42.219  1.00  0.00    -0.062 NA
HETATM    8  O1  UNL     1     -11.718  28.330  43.719  1.00  0.00    -0.276 OA
ENDBRANCH   5   6
TORSDOF 1
ENDMDL
MODEL 5
REMARK VINA RESULT: -3.949233323      1.366      1.979
REMARK  1 active torsions:
REMARK  status: ('A' for Active; 'I' for Inactive)
REMARK    1  A    between atoms: C5_5  and  C6_6 
ROOT
HETATM    1  C1  UNL     1     -13.948  27.812  47.813  1.00  0.00     0.015 C 
HETATM    2  C2  UNL     1     -13.322  27.383  46.492  1.00  0.00    -0.035 A 
HETATM    3  C3  UNL     1     -11.877  27.798  46.363  1.00  0.00     0.015 C 
HETATM    4  C4  UNL     1     -13.691  26.116  45.848  1.00  0.00     0.024 A 
HETATM    5  C5  UNL     1     -14.235  27.395  45.323  1.00  0.00     0.083 A 
ENDROOT
BRANCH   5   6
HETATM    6  C6  UNL     1     -13.715  27.989  44.081  1.00  0.00     0.236 C 
HETATM    7  N1  UNL     1     -14.124  29.281  43.674  1.00  0.00    -0.062 NA
HETATM    8  O1  UNL     1     -12.891  27.387  43.323  1.00  0.00    -0.276 OA
ENDBRANCH   5   6
TORSDOF 1
ENDMDL
