MODEL 1
REMARK VINA RESULT: -7.768774252      0.000      0.000
REMARK  5 active torsions:
REMARK  status: ('A' for Active; 'I' for Inactive)
REMARK    1  A    between atoms: O1_3  and  C3_4 
REMARK    2  A    between atoms: C4_5  and  C5_6 
REMARK    3  A    between atoms: C8_9  and  O2_10 
REMARK    4  A    between atoms: C12_14  and  C13_15 
REMARK    5  A    between atoms: C15_20  and  O6_21 
ROOT
HETATM    1  C1  UNL     1      24.656  46.946  -1.329  1.00  0.00     0.045 C 
HETATM    2  C2  UNL     1      25.650  47.526  -0.954  1.00  0.00     0.049 C 
HETATM    3  O1  UNL     1      26.759  48.152  -0.515  1.00  0.00    -0.258 OA
ENDROOT
BRANCH   3   4
HETATM    4  C3  UNL     1      26.850  49.408   0.047  1.00  0.00     0.132 A 
HETATM    5  C4  UNL     1      27.217  50.552  -0.688  1.00  0.00     0.017 A 
HETATM    6  C8  UNL     1      27.291  51.762  -0.068  1.00  0.00     0.090 A 
HETATM    7  C10 UNL     1      26.985  51.799   1.306  1.00  0.00     0.038 A 
HETATM    8  C11 UNL     1      26.966  52.839   2.192  1.00  0.00     0.061 A 
HETATM    9  C14 UNL     1      26.626  50.683   2.021  1.00  0.00     0.125 A 
HETATM   10  C12 UNL     1      26.591  52.311   3.425  1.00  0.00     0.153 A 
HETATM   11  O5  UNL     1      26.399  51.025   3.278  1.00  0.00    -0.300 OA
HETATM   12  C15 UNL     1      26.552  49.455   1.394  1.00  0.00     0.138 A 
BRANCH   5  13
HETATM   13  C5  UNL     1      27.419  50.364  -2.111  1.00  0.00     0.016 C 
HETATM   14  C6  UNL     1      28.540  51.033  -2.799  1.00  0.00     0.015 C 
HETATM   15  C7  UNL     1      26.152  50.853  -2.889  1.00  0.00     0.015 C 
ENDBRANCH   5  13
BRANCH   6  16
HETATM   16  O2  UNL     1      27.645  52.980  -0.633  1.00  0.00    -0.354 OA
HETATM   17  C9  UNL     1      26.692  53.906  -1.154  1.00  0.00     0.210 C 
ENDBRANCH   6  16
BRANCH  10  18
HETATM   18  C13 UNL     1      26.464  53.135   4.615  1.00  0.00     0.234 C 
HETATM   19  O3  UNL     1      27.493  53.703   5.056  1.00  0.00    -0.642 OA
HETATM   20  O4  UNL     1      25.280  53.336   5.296  1.00  0.00    -0.642 OA
ENDBRANCH  10  18
BRANCH  12  21
HETATM   21  O6  UNL     1      26.192  48.307   2.084  1.00  0.00    -0.351 OA
HETATM   22  C16 UNL     1      25.045  48.091   2.826  1.00  0.00     0.210 C 
ENDBRANCH  12  21
ENDBRANCH   3   4
TORSDOF 5
ENDMDL
MODEL 2
REMARK VINA RESULT: -7.265358304      1.455      3.787
REMARK  5 active torsions:
REMARK  status: ('A' for Active; 'I' for Inactive)
REMARK    1  A    between atoms: O1_3  and  C3_4 
REMARK    2  A    between atoms: C4_5  and  C5_6 
REMARK    3  A    between atoms: C8_9  and  O2_10 
REMARK    4  A    between atoms: C12_14  and  C13_15 
REMARK    5  A    between atoms: C15_20  and  O6_21 
ROOT
HETATM    1  C1  UNL     1      25.722  53.012  -4.093  1.00  0.00     0.045 C 
HETATM    2  C2  UNL     1      26.561  52.683  -3.285  1.00  0.00     0.049 C 
HETATM    3  O1  UNL     1      27.500  52.291  -2.402  1.00  0.00    -0.258 OA
ENDROOT
BRANCH   3   4
HETATM    4  C3  UNL     1      27.319  51.948  -1.079  1.00  0.00     0.132 A 
HETATM    5  C4  UNL     1      27.248  50.612  -0.636  1.00  0.00     0.017 A 
HETATM    6  C8  UNL     1      27.063  50.346   0.686  1.00  0.00     0.090 A 
HETATM    7  C10 UNL     1      26.955  51.449   1.555  1.00  0.00     0.038 A 
HETATM    8  C11 UNL     1      26.772  51.510   2.908  1.00  0.00     0.061 A 
HETATM    9  C14 UNL     1      27.026  52.750   1.122  1.00  0.00     0.125 A 
HETATM   10  C12 UNL     1      26.739  52.859   3.250  1.00  0.00     0.153 A 
HETATM   11  O5  UNL     1      26.893  53.562   2.157  1.00  0.00    -0.300 OA
HETATM   12  C15 UNL     1      27.211  53.022  -0.219  1.00  0.00     0.138 A 
BRANCH   5  13
HETATM   13  C5  UNL     1      27.461  49.590  -1.641  1.00  0.00     0.016 C 
HETATM   14  C6  UNL     1      28.440  49.803  -2.724  1.00  0.00     0.015 C 
HETATM   15  C7  UNL     1      26.118  49.310  -2.395  1.00  0.00     0.015 C 
ENDBRANCH   5  13
BRANCH   6  16
HETATM   16  O2  UNL     1      26.959  49.100   1.290  1.00  0.00    -0.354 OA
HETATM   17  C9  UNL     1      25.748  48.347   1.327  1.00  0.00     0.210 C 
ENDBRANCH   6  16
BRANCH  10  18
HETATM   18  C13 UNL     1      26.558  53.307   4.620  1.00  0.00     0.234 C 
HETATM   19  O3  UNL     1      27.573  53.661   5.267  1.00  0.00    -0.642 OA
HETATM   20  O4  UNL     1      25.336  53.369   5.261  1.00  0.00    -0.642 OA
ENDBRANCH  10  18
BRANCH  12  21
HETATM   21  O6  UNL     1      27.288  54.324  -0.692  1.00  0.00    -0.351 OA
HETATM   22  C16 UNL     1      26.243  55.194  -0.946  1.00  0.00     0.210 C 
ENDBRANCH  12  21
ENDBRANCH   3   4
TORSDOF 5
ENDMDL
MODEL 3
REMARK VINA RESULT: -7.256524803      2.166      6.430
REMARK  5 active torsions:
REMARK  status: ('A' for Active; 'I' for Inactive)
REMARK    1  A    between atoms: O1_3  and  C3_4 
REMARK    2  A    between atoms: C4_5  and  C5_6 
REMARK    3  A    between atoms: C8_9  and  O2_10 
REMARK    4  A    between atoms: C12_14  and  C13_15 
REMARK    5  A    between atoms: C15_20  and  O6_21 
ROOT
HETATM    1  C1  UNL     1      26.449  55.189  -0.872  1.00  0.00     0.045 C 
HETATM    2  C2  UNL     1      27.021  54.128  -0.759  1.00  0.00     0.049 C 
HETATM    3  O1  UNL     1      27.668  52.951  -0.660  1.00  0.00    -0.258 OA
ENDROOT
BRANCH   3   4
HETATM    4  C3  UNL     1      27.114  51.693  -0.549  1.00  0.00     0.132 A 
HETATM    5  C4  UNL     1      27.095  50.968   0.659  1.00  0.00     0.017 A 
HETATM    6  C8  UNL     1      26.536  49.728   0.697  1.00  0.00     0.090 A 
HETATM    7  C10 UNL     1      25.992  49.233  -0.504  1.00  0.00     0.038 A 
HETATM    8  C11 UNL     1      25.370  48.048  -0.785  1.00  0.00     0.061 A 
HETATM    9  C14 UNL     1      26.010  49.941  -1.681  1.00  0.00     0.125 A 
HETATM   10  C12 UNL     1      25.031  48.081  -2.135  1.00  0.00     0.153 A 
HETATM   11  O5  UNL     1      25.430  49.226  -2.630  1.00  0.00    -0.300 OA
HETATM   12  C15 UNL     1      26.579  51.198  -1.720  1.00  0.00     0.138 A 
BRANCH   5  13
HETATM   13  C5  UNL     1      27.619  51.650   1.826  1.00  0.00     0.016 C 
HETATM   14  C6  UNL     1      28.324  50.891   2.877  1.00  0.00     0.015 C 
HETATM   15  C7  UNL     1      26.449  52.355   2.590  1.00  0.00     0.015 C 
ENDBRANCH   5  13
BRANCH   6  16
HETATM   16  O2  UNL     1      26.440  48.876   1.789  1.00  0.00    -0.354 OA
HETATM   17  C9  UNL     1      25.325  48.868   2.679  1.00  0.00     0.210 C 
ENDBRANCH   6  16
BRANCH  10  18
HETATM   18  C13 UNL     1      24.348  46.978  -2.790  1.00  0.00     0.234 C 
HETATM   19  O3  UNL     1      24.948  45.880  -2.881  1.00  0.00    -0.642 OA
HETATM   20  O4  UNL     1      23.077  47.060  -3.324  1.00  0.00    -0.642 OA
ENDBRANCH  10  18
BRANCH  12  21
HETATM   21  O6  UNL     1      26.615  51.942  -2.890  1.00  0.00    -0.351 OA
HETATM   22  C16 UNL     1      25.544  52.451  -3.602  1.00  0.00     0.210 C 
ENDBRANCH  12  21
ENDBRANCH   3   4
TORSDOF 5
ENDMDL
MODEL 4
REMARK VINA RESULT: -7.126663722      2.259      3.277
REMARK  5 active torsions:
REMARK  status: ('A' for Active; 'I' for Inactive)
REMARK    1  A    between atoms: O1_3  and  C3_4 
REMARK    2  A    between atoms: C4_5  and  C5_6 
REMARK    3  A    between atoms: C8_9  and  O2_10 
REMARK    4  A    between atoms: C12_14  and  C13_15 
REMARK    5  A    between atoms: C15_20  and  O6_21 
ROOT
HETATM    1  C1  UNL     1      24.318  45.775   0.993  1.00  0.00     0.045 C 
HETATM    2  C2  UNL     1      25.324  46.369   0.677  1.00  0.00     0.049 C 
HETATM    3  O1  UNL     1      26.451  47.033   0.353  1.00  0.00    -0.258 OA
ENDROOT
BRANCH   3   4
HETATM    4  C3  UNL     1      26.558  48.290  -0.203  1.00  0.00     0.132 A 
HETATM    5  C4  UNL     1      26.461  48.526  -1.589  1.00  0.00     0.017 A 
HETATM    6  C8  UNL     1      26.581  49.793  -2.071  1.00  0.00     0.090 A 
HETATM    7  C10 UNL     1      26.795  50.820  -1.131  1.00  0.00     0.038 A 
HETATM    8  C11 UNL     1      26.949  52.168  -1.295  1.00  0.00     0.061 A 
HETATM    9  C14 UNL     1      26.887  50.589   0.220  1.00  0.00     0.125 A 
HETATM   10  C12 UNL     1      27.131  52.711  -0.026  1.00  0.00     0.153 A 
HETATM   11  O5  UNL     1      27.087  51.736   0.846  1.00  0.00    -0.300 OA
HETATM   12  C15 UNL     1      26.768  49.304   0.709  1.00  0.00     0.138 A 
BRANCH   5  13
HETATM   13  C5  UNL     1      26.156  47.376  -2.417  1.00  0.00     0.016 C 
HETATM   14  C6  UNL     1      26.773  47.233  -3.749  1.00  0.00     0.015 C 
HETATM   15  C7  UNL     1      24.618  47.332  -2.705  1.00  0.00     0.015 C 
ENDBRANCH   5  13
BRANCH   6  16
HETATM   16  O2  UNL     1      26.524  50.202  -3.397  1.00  0.00    -0.354 OA
HETATM   17  C9  UNL     1      25.336  50.700  -4.011  1.00  0.00     0.210 C 
ENDBRANCH   6  16
BRANCH  10  18
HETATM   18  C13 UNL     1      27.328  54.134   0.187  1.00  0.00     0.234 C 
HETATM   19  O3  UNL     1      26.851  54.932  -0.656  1.00  0.00    -0.642 OA
HETATM   20  O4  UNL     1      28.010  54.670   1.262  1.00  0.00    -0.642 OA
ENDBRANCH  10  18
BRANCH  12  21
HETATM   21  O6  UNL     1      26.855  49.032   2.067  1.00  0.00    -0.351 OA
HETATM   22  C16 UNL     1      25.895  49.257   3.037  1.00  0.00     0.210 C 
ENDBRANCH  12  21
ENDBRANCH   3   4
TORSDOF 5
ENDMDL
MODEL 5
REMARK VINA RESULT: -7.011967927      1.908      5.058
REMARK  5 active torsions:
REMARK  status: ('A' for Active; 'I' for Inactive)
REMARK    1  A    between atoms: O1_3  and  C3_4 
REMARK    2  A    between atoms: C4_5  and  C5_6 
REMARK    3  A    between atoms: C8_9  and  O2_10 
REMARK    4  A    between atoms: C12_14  and  C13_15 
REMARK    5  A    between atoms: C15_20  and  O6_21 
ROOT
HETATM    1  C1  UNL     1      26.354  55.213  -1.156  1.00  0.00     0.045 C 
HETATM    2  C2  UNL     1      26.945  54.188  -0.899  1.00  0.00     0.049 C 
HETATM    3  O1  UNL     1      27.621  53.054  -0.635  1.00  0.00    -0.258 OA
ENDROOT
BRANCH   3   4
HETATM    4  C3  UNL     1      27.188  51.756  -0.807  1.00  0.00     0.132 A 
HETATM    5  C4  UNL     1      27.045  51.157  -2.074  1.00  0.00     0.017 A 
HETATM    6  C8  UNL     1      26.607  49.872  -2.170  1.00  0.00     0.090 A 
HETATM    7  C10 UNL     1      26.321  49.199  -0.966  1.00  0.00     0.038 A 
HETATM    8  C11 UNL     1      25.876  47.928  -0.734  1.00  0.00     0.061 A 
HETATM    9  C14 UNL     1      26.462  49.784   0.268  1.00  0.00     0.125 A 
HETATM   10  C12 UNL     1      25.763  47.786   0.647  1.00  0.00     0.153 A 
HETATM   11  O5  UNL     1      26.122  48.915   1.204  1.00  0.00    -0.300 OA
HETATM   12  C15 UNL     1      26.904  51.088   0.367  1.00  0.00     0.138 A 
BRANCH   5  13
HETATM   13  C5  UNL     1      27.461  51.953  -3.211  1.00  0.00     0.016 C 
HETATM   14  C6  UNL     1      26.464  52.433  -4.188  1.00  0.00     0.015 C 
HETATM   15  C7  UNL     1      28.476  51.135  -4.079  1.00  0.00     0.015 C 
ENDBRANCH   5  13
BRANCH   6  16
HETATM   16  O2  UNL     1      26.399  49.134  -3.328  1.00  0.00    -0.354 OA
HETATM   17  C9  UNL     1      25.143  49.073  -4.001  1.00  0.00     0.210 C 
ENDBRANCH   6  16
BRANCH  10  18
HETATM   18  C13 UNL     1      25.313  46.551   1.265  1.00  0.00     0.234 C 
HETATM   19  O3  UNL     1      25.365  46.461   2.516  1.00  0.00    -0.642 OA
HETATM   20  O4  UNL     1      24.829  45.464   0.564  1.00  0.00    -0.642 OA
ENDBRANCH  10  18
BRANCH  12  21
HETATM   21  O6  UNL     1      27.059  51.712   1.597  1.00  0.00    -0.351 OA
HETATM   22  C16 UNL     1      27.930  51.368   2.615  1.00  0.00     0.210 C 
ENDBRANCH  12  21
ENDBRANCH   3   4
TORSDOF 5
ENDMDL
