MODEL 1
REMARK VINA RESULT: -6.435618752      0.000      0.000
REMARK  12 active torsions:
REMARK  status: ('A' for Active; 'I' for Inactive)
REMARK    1  A    between atoms: N3_4  and  C2_6 
REMARK    2  A    between atoms: C2_6  and  C3_7 
REMARK    3  A    between atoms: C3_7  and  N4_8 
REMARK    4  A    between atoms: C3_7  and  C4_12 
REMARK    5  A    between atoms: C4_12  and  C5_13 
REMARK    6  A    between atoms: C5_13  and  C6_14 
REMARK    7  A    between atoms: C6_14  and  C7_15 
REMARK    8  A    between atoms: C7_15  and  C8_16 
REMARK    9  A    between atoms: C8_16  and  N5_17 
REMARK   10  A    between atoms: C10_19  and  O1_20 
REMARK   11  A    between atoms: C11_22  and  O2_23 
REMARK   12  A    between atoms: C12_25  and  O3_26 
ROOT
HETATM    1  C6  UNL     1       4.271   8.261  42.475  1.00  0.00     0.005 C 
ENDROOT
BRANCH   1   2
HETATM    2  C5  UNL     1       3.839   9.617  43.009  1.00  0.00     0.002 C 
BRANCH   2   3
HETATM    3  C4  UNL     1       2.749   9.527  44.048  1.00  0.00     0.034 C 
BRANCH   3   4
HETATM    4  C3  UNL     1       2.018  10.852  44.014  1.00  0.00     0.201 C 
BRANCH   4   5
HETATM    5  C2  UNL     1       2.967  12.019  43.900  1.00  0.00     0.154 C 
BRANCH   5   6
HETATM    6  N3  UNL     1       3.534  12.412  45.147  1.00  0.00    -0.365 N 
HETATM    7  C1  UNL     1       4.759  12.758  45.216  1.00  0.00     0.197 C 
HETATM    8  N1  UNL     1       5.560  12.753  44.058  1.00  0.00    -0.067 NA
HETATM    9  N2  UNL     1       5.325  13.147  46.446  1.00  0.00    -0.067 NA
ATOM     10  H3  UNL     1       2.957  12.416  45.989  1.00  0.00     0.161 HD
ENDBRANCH   5   6
ENDBRANCH   4   5
BRANCH   4  11
HETATM   11  N4  UNL     1       1.184  10.919  45.171  1.00  0.00    -0.073 N 
ATOM     12  H43 UNL     1       0.498  10.165  45.169  1.00  0.00     0.274 HD
ATOM     13  H42 UNL     1       1.706  10.668  46.010  1.00  0.00     0.274 HD
ATOM     14  H41 UNL     1       0.728  11.825  45.285  1.00  0.00     0.274 HD
ENDBRANCH   4  11
ENDBRANCH   3   4
ENDBRANCH   2   3
ENDBRANCH   1   2
BRANCH   1  15
HETATM   15  C7  UNL     1       3.323   7.175  42.881  1.00  0.00     0.044 C 
BRANCH  15  16
HETATM   16  C8  UNL     1       3.941   5.910  43.343  1.00  0.00     0.058 C 
BRANCH  16  17
HETATM   17  N5  UNL     1       3.342   5.193  44.391  1.00  0.00    -0.388 N 
HETATM   18  C9  UNL     1       3.438   3.795  44.445  1.00  0.00     0.156 C 
HETATM   19  C10 UNL     1       3.839   3.376  45.864  1.00  0.00     0.167 C 
HETATM   20  C11 UNL     1       2.626   3.715  46.729  1.00  0.00     0.178 C 
HETATM   21  C12 UNL     1       2.247   5.160  46.591  1.00  0.00     0.167 C 
HETATM   22  C13 UNL     1       3.038   5.906  45.578  1.00  0.00     0.156 C 
BRANCH  19  23
HETATM   23  O1  UNL     1       4.940   4.136  46.253  1.00  0.00    -0.391 OA
ATOM     24  H1  UNL     1       5.575   4.129  45.546  1.00  0.00     0.210 HD
ENDBRANCH  19  23
BRANCH  20  25
HETATM   25  O2  UNL     1       2.780   3.294  48.035  1.00  0.00    -0.390 OA
ATOM     26  H2  UNL     1       2.692   4.007  48.656  1.00  0.00     0.210 HD
ENDBRANCH  20  25
BRANCH  21  27
HETATM   27  O3  UNL     1       2.507   5.762  47.845  1.00  0.00    -0.391 OA
ATOM     28  H3  UNL     1       2.196   5.153  48.504  1.00  0.00     0.210 HD
ENDBRANCH  21  27
ENDBRANCH  16  17
ENDBRANCH  15  16
ENDBRANCH   1  15
TORSDOF 12
ENDMDL
MODEL 2
REMARK VINA RESULT: -6.351159653      4.140      5.543
REMARK  12 active torsions:
REMARK  status: ('A' for Active; 'I' for Inactive)
REMARK    1  A    between atoms: N3_4  and  C2_6 
REMARK    2  A    between atoms: C2_6  and  C3_7 
REMARK    3  A    between atoms: C3_7  and  N4_8 
REMARK    4  A    between atoms: C3_7  and  C4_12 
REMARK    5  A    between atoms: C4_12  and  C5_13 
REMARK    6  A    between atoms: C5_13  and  C6_14 
REMARK    7  A    between atoms: C6_14  and  C7_15 
REMARK    8  A    between atoms: C7_15  and  C8_16 
REMARK    9  A    between atoms: C8_16  and  N5_17 
REMARK   10  A    between atoms: C10_19  and  O1_20 
REMARK   11  A    between atoms: C11_22  and  O2_23 
REMARK   12  A    between atoms: C12_25  and  O3_26 
ROOT
HETATM    1  C6  UNL     1       2.918   7.272  43.263  1.00  0.00     0.005 C 
ENDROOT
BRANCH   1   2
HETATM    2  C5  UNL     1       2.131   8.513  43.650  1.00  0.00     0.002 C 
BRANCH   2   3
HETATM    3  C4  UNL     1       3.009   9.683  44.017  1.00  0.00     0.034 C 
BRANCH   3   4
HETATM    4  C3  UNL     1       2.117  10.906  44.005  1.00  0.00     0.201 C 
BRANCH   4   5
HETATM    5  C2  UNL     1       2.913  12.187  43.959  1.00  0.00     0.154 C 
BRANCH   5   6
HETATM    6  N3  UNL     1       3.534  12.513  45.200  1.00  0.00    -0.365 N 
HETATM    7  C1  UNL     1       4.767  12.833  45.236  1.00  0.00     0.197 C 
HETATM    8  N1  UNL     1       5.524  12.865  44.049  1.00  0.00    -0.067 NA
HETATM    9  N2  UNL     1       5.386  13.155  46.460  1.00  0.00    -0.067 NA
ATOM     10  H3  UNL     1       2.989  12.490  46.062  1.00  0.00     0.161 HD
ENDBRANCH   5   6
ENDBRANCH   4   5
BRANCH   4  11
HETATM   11  N4  UNL     1       1.251  10.825  45.138  1.00  0.00    -0.073 N 
ATOM     12  H43 UNL     1       1.787  10.697  45.996  1.00  0.00     0.274 HD
ATOM     13  H42 UNL     1       0.829  11.731  45.338  1.00  0.00     0.274 HD
ATOM     14  H41 UNL     1       0.537  10.103  45.045  1.00  0.00     0.274 HD
ENDBRANCH   4  11
ENDBRANCH   3   4
ENDBRANCH   2   3
ENDBRANCH   1   2
BRANCH   1  15
HETATM   15  C7  UNL     1       3.632   7.449  41.960  1.00  0.00     0.044 C 
BRANCH  15  16
HETATM   16  C8  UNL     1       4.981   6.842  41.867  1.00  0.00     0.058 C 
BRANCH  16  17
HETATM   17  N5  UNL     1       6.089   7.661  41.593  1.00  0.00    -0.388 N 
HETATM   18  C9  UNL     1       6.718   7.615  40.341  1.00  0.00     0.156 C 
HETATM   19  C10 UNL     1       6.932   9.048  39.838  1.00  0.00     0.167 C 
HETATM   20  C11 UNL     1       7.981   9.639  40.776  1.00  0.00     0.178 C 
HETATM   21  C12 UNL     1       7.545   9.543  42.209  1.00  0.00     0.167 C 
HETATM   22  C13 UNL     1       6.272   8.804  42.412  1.00  0.00     0.156 C 
BRANCH  19  23
HETATM   23  O1  UNL     1       5.729   9.740  39.955  1.00  0.00    -0.391 OA
ATOM     24  H1  UNL     1       5.710  10.425  39.297  1.00  0.00     0.210 HD
ENDBRANCH  19  23
BRANCH  20  25
HETATM   25  O2  UNL     1       8.375  10.905  40.391  1.00  0.00    -0.390 OA
ATOM     26  H2  UNL     1       8.711  11.415  41.118  1.00  0.00     0.210 HD
ENDBRANCH  20  25
BRANCH  21  27
HETATM   27  O3  UNL     1       7.328  10.870  42.650  1.00  0.00    -0.391 OA
ATOM     28  H3  UNL     1       7.502  10.873  43.584  1.00  0.00     0.210 HD
ENDBRANCH  21  27
ENDBRANCH  16  17
ENDBRANCH  15  16
ENDBRANCH   1  15
TORSDOF 12
ENDMDL
MODEL 3
REMARK VINA RESULT: -6.297471690      0.936      1.215
REMARK  12 active torsions:
REMARK  status: ('A' for Active; 'I' for Inactive)
REMARK    1  A    between atoms: N3_4  and  C2_6 
REMARK    2  A    between atoms: C2_6  and  C3_7 
REMARK    3  A    between atoms: C3_7  and  N4_8 
REMARK    4  A    between atoms: C3_7  and  C4_12 
REMARK    5  A    between atoms: C4_12  and  C5_13 
REMARK    6  A    between atoms: C5_13  and  C6_14 
REMARK    7  A    between atoms: C6_14  and  C7_15 
REMARK    8  A    between atoms: C7_15  and  C8_16 
REMARK    9  A    between atoms: C8_16  and  N5_17 
REMARK   10  A    between atoms: C10_19  and  O1_20 
REMARK   11  A    between atoms: C11_22  and  O2_23 
REMARK   12  A    between atoms: C12_25  and  O3_26 
ROOT
HETATM    1  C6  UNL     1       4.123   8.175  42.366  1.00  0.00     0.005 C 
ENDROOT
BRANCH   1   2
HETATM    2  C5  UNL     1       4.211   9.314  43.368  1.00  0.00     0.002 C 
BRANCH   2   3
HETATM    3  C4  UNL     1       2.869   9.908  43.714  1.00  0.00     0.034 C 
BRANCH   3   4
HETATM    4  C3  UNL     1       3.067  11.408  43.767  1.00  0.00     0.201 C 
BRANCH   4   5
HETATM    5  C2  UNL     1       4.470  11.807  43.384  1.00  0.00     0.154 C 
BRANCH   5   6
HETATM    6  N3  UNL     1       4.611  13.201  43.120  1.00  0.00    -0.365 N 
HETATM    7  C1  UNL     1       5.214  13.954  43.953  1.00  0.00     0.197 C 
HETATM    8  N1  UNL     1       5.745  13.413  45.139  1.00  0.00    -0.067 NA
HETATM    9  N2  UNL     1       5.355  15.332  43.698  1.00  0.00    -0.067 NA
ATOM     10  H3  UNL     1       4.227  13.596  42.262  1.00  0.00     0.161 HD
ENDBRANCH   5   6
ENDBRANCH   4   5
BRANCH   4  11
HETATM   11  N4  UNL     1       2.696  11.850  45.073  1.00  0.00    -0.073 N 
ATOM     12  H43 UNL     1       2.835  11.110  45.761  1.00  0.00     0.274 HD
ATOM     13  H42 UNL     1       3.363  12.535  45.428  1.00  0.00     0.274 HD
ATOM     14  H41 UNL     1       1.744  12.213  45.118  1.00  0.00     0.274 HD
ENDBRANCH   4  11
ENDBRANCH   3   4
ENDBRANCH   2   3
ENDBRANCH   1   2
BRANCH   1  15
HETATM   15  C7  UNL     1       3.208   7.088  42.838  1.00  0.00     0.044 C 
BRANCH  15  16
HETATM   16  C8  UNL     1       3.862   5.846  43.314  1.00  0.00     0.058 C 
BRANCH  16  17
HETATM   17  N5  UNL     1       3.295   5.133  44.382  1.00  0.00    -0.388 N 
HETATM   18  C9  UNL     1       3.421   3.739  44.457  1.00  0.00     0.156 C 
HETATM   19  C10 UNL     1       3.854   3.352  45.876  1.00  0.00     0.167 C 
HETATM   20  C11 UNL     1       2.649   3.679  46.755  1.00  0.00     0.178 C 
HETATM   21  C12 UNL     1       2.236   5.113  46.601  1.00  0.00     0.167 C 
HETATM   22  C13 UNL     1       2.995   5.859  45.563  1.00  0.00     0.156 C 
BRANCH  19  23
HETATM   23  O1  UNL     1       4.944   4.140  46.234  1.00  0.00    -0.391 OA
ATOM     24  H1  UNL     1       4.624   4.905  46.697  1.00  0.00     0.210 HD
ENDBRANCH  19  23
BRANCH  20  25
HETATM   25  O2  UNL     1       2.832   3.282  48.064  1.00  0.00    -0.390 OA
ATOM     26  H2  UNL     1       3.749   3.266  48.311  1.00  0.00     0.210 HD
ENDBRANCH  20  25
BRANCH  21  27
HETATM   27  O3  UNL     1       2.505   5.740  47.840  1.00  0.00    -0.391 OA
ATOM     28  H3  UNL     1       3.449   5.831  47.896  1.00  0.00     0.210 HD
ENDBRANCH  21  27
ENDBRANCH  16  17
ENDBRANCH  15  16
ENDBRANCH   1  15
TORSDOF 12
ENDMDL
MODEL 4
REMARK VINA RESULT: -6.193611355      1.741      3.028
REMARK  12 active torsions:
REMARK  status: ('A' for Active; 'I' for Inactive)
REMARK    1  A    between atoms: N3_4  and  C2_6 
REMARK    2  A    between atoms: C2_6  and  C3_7 
REMARK    3  A    between atoms: C3_7  and  N4_8 
REMARK    4  A    between atoms: C3_7  and  C4_12 
REMARK    5  A    between atoms: C4_12  and  C5_13 
REMARK    6  A    between atoms: C5_13  and  C6_14 
REMARK    7  A    between atoms: C6_14  and  C7_15 
REMARK    8  A    between atoms: C7_15  and  C8_16 
REMARK    9  A    between atoms: C8_16  and  N5_17 
REMARK   10  A    between atoms: C10_19  and  O1_20 
REMARK   11  A    between atoms: C11_22  and  O2_23 
REMARK   12  A    between atoms: C12_25  and  O3_26 
ROOT
HETATM    1  C6  UNL     1       4.143   8.533  42.945  1.00  0.00     0.005 C 
ENDROOT
BRANCH   1   2
HETATM    2  C5  UNL     1       3.014   9.304  43.606  1.00  0.00     0.002 C 
BRANCH   2   3
HETATM    3  C4  UNL     1       3.215  10.799  43.576  1.00  0.00     0.034 C 
BRANCH   3   4
HETATM    4  C3  UNL     1       2.043  11.403  44.319  1.00  0.00     0.201 C 
BRANCH   4   5
HETATM    5  C2  UNL     1       1.023  10.362  44.707  1.00  0.00     0.154 C 
BRANCH   5   6
HETATM    6  N3  UNL     1       0.097  10.815  45.692  1.00  0.00    -0.365 N 
HETATM    7  C1  UNL     1      -0.886  10.082  46.036  1.00  0.00     0.197 C 
HETATM    8  N1  UNL     1      -1.065   8.817  45.443  1.00  0.00    -0.067 NA
HETATM    9  N2  UNL     1      -1.804  10.525  47.009  1.00  0.00    -0.067 NA
ATOM     10  H3  UNL     1       0.224  11.731  46.123  1.00  0.00     0.161 HD
ENDBRANCH   5   6
ENDBRANCH   4   5
BRANCH   4  11
HETATM   11  N4  UNL     1       1.500  12.443  43.504  1.00  0.00    -0.073 N 
ATOM     12  H43 UNL     1       0.568  12.196  43.173  1.00  0.00     0.274 HD
ATOM     13  H42 UNL     1       1.267  13.260  44.068  1.00  0.00     0.274 HD
ATOM     14  H41 UNL     1       2.107  12.699  42.725  1.00  0.00     0.274 HD
ENDBRANCH   4  11
ENDBRANCH   3   4
ENDBRANCH   2   3
ENDBRANCH   1   2
BRANCH   1  15
HETATM   15  C7  UNL     1       4.603   7.385  43.788  1.00  0.00     0.044 C 
BRANCH  15  16
HETATM   16  C8  UNL     1       4.045   6.057  43.444  1.00  0.00     0.058 C 
BRANCH  16  17
HETATM   17  N5  UNL     1       3.411   5.296  44.438  1.00  0.00    -0.388 N 
HETATM   18  C9  UNL     1       3.487   3.895  44.423  1.00  0.00     0.156 C 
HETATM   19  C10 UNL     1       3.848   3.400  45.828  1.00  0.00     0.167 C 
HETATM   20  C11 UNL     1       2.619   3.711  46.680  1.00  0.00     0.178 C 
HETATM   21  C12 UNL     1       2.262   5.166  46.607  1.00  0.00     0.167 C 
HETATM   22  C13 UNL     1       3.087   5.952  45.653  1.00  0.00     0.156 C 
BRANCH  19  23
HETATM   23  O1  UNL     1       4.948   4.122  46.281  1.00  0.00    -0.391 OA
ATOM     24  H1  UNL     1       5.399   3.605  46.939  1.00  0.00     0.210 HD
ENDBRANCH  19  23
BRANCH  20  25
HETATM   25  O2  UNL     1       2.735   3.222  47.965  1.00  0.00    -0.390 OA
ATOM     26  H2  UNL     1       2.074   2.568  48.163  1.00  0.00     0.210 HD
ENDBRANCH  20  25
BRANCH  21  27
HETATM   27  O3  UNL     1       2.499   5.700  47.896  1.00  0.00    -0.391 OA
ATOM     28  H3  UNL     1       2.076   5.113  48.511  1.00  0.00     0.210 HD
ENDBRANCH  21  27
ENDBRANCH  16  17
ENDBRANCH  15  16
ENDBRANCH   1  15
TORSDOF 12
ENDMDL
MODEL 5
REMARK VINA RESULT: -6.127119782      2.588      4.006
REMARK  12 active torsions:
REMARK  status: ('A' for Active; 'I' for Inactive)
REMARK    1  A    between atoms: N3_4  and  C2_6 
REMARK    2  A    between atoms: C2_6  and  C3_7 
REMARK    3  A    between atoms: C3_7  and  N4_8 
REMARK    4  A    between atoms: C3_7  and  C4_12 
REMARK    5  A    between atoms: C4_12  and  C5_13 
REMARK    6  A    between atoms: C5_13  and  C6_14 
REMARK    7  A    between atoms: C6_14  and  C7_15 
REMARK    8  A    between atoms: C7_15  and  C8_16 
REMARK    9  A    between atoms: C8_16  and  N5_17 
REMARK   10  A    between atoms: C10_19  and  O1_20 
REMARK   11  A    between atoms: C11_22  and  O2_23 
REMARK   12  A    between atoms: C12_25  and  O3_26 
ROOT
HETATM    1  C6  UNL     1       4.676   4.174  40.997  1.00  0.00     0.005 C 
ENDROOT
BRANCH   1   2
HETATM    2  C5  UNL     1       3.706   5.139  40.337  1.00  0.00     0.002 C 
BRANCH   2   3
HETATM    3  C4  UNL     1       3.876   6.564  40.802  1.00  0.00     0.034 C 
BRANCH   3   4
HETATM    4  C3  UNL     1       5.303   6.952  40.479  1.00  0.00     0.201 C 
BRANCH   4   5
HETATM    5  C2  UNL     1       5.966   7.674  41.626  1.00  0.00     0.154 C 
BRANCH   5   6
HETATM    6  N3  UNL     1       5.109   8.606  42.280  1.00  0.00    -0.365 N 
HETATM    7  C1  UNL     1       5.197   8.785  43.539  1.00  0.00     0.197 C 
HETATM    8  N1  UNL     1       6.142   8.062  44.292  1.00  0.00    -0.067 NA
HETATM    9  N2  UNL     1       4.351   9.705  44.191  1.00  0.00    -0.067 NA
ATOM     10  H3  UNL     1       4.423   9.131  41.738  1.00  0.00     0.161 HD
ENDBRANCH   5   6
ENDBRANCH   4   5
BRANCH   4  11
HETATM   11  N4  UNL     1       5.285   7.714  39.272  1.00  0.00    -0.073 N 
ATOM     12  H43 UNL     1       5.543   8.685  39.451  1.00  0.00     0.274 HD
ATOM     13  H42 UNL     1       6.055   7.446  38.661  1.00  0.00     0.274 HD
ATOM     14  H41 UNL     1       4.394   7.662  38.779  1.00  0.00     0.274 HD
ENDBRANCH   4  11
ENDBRANCH   3   4
ENDBRANCH   2   3
ENDBRANCH   1   2
BRANCH   1  15
HETATM   15  C7  UNL     1       3.966   3.156  41.834  1.00  0.00     0.044 C 
BRANCH  15  16
HETATM   16  C8  UNL     1       4.348   3.107  43.265  1.00  0.00     0.058 C 
BRANCH  16  17
HETATM   17  N5  UNL     1       3.571   3.795  44.210  1.00  0.00    -0.388 N 
HETATM   18  C9  UNL     1       2.939   3.103  45.254  1.00  0.00     0.156 C 
HETATM   19  C10 UNL     1       3.204   3.838  46.573  1.00  0.00     0.167 C 
HETATM   20  C11 UNL     1       2.429   5.148  46.453  1.00  0.00     0.178 C 
HETATM   21  C12 UNL     1       2.835   5.909  45.225  1.00  0.00     0.167 C 
HETATM   22  C13 UNL     1       3.794   5.188  44.348  1.00  0.00     0.156 C 
BRANCH  19  23
HETATM   23  O1  UNL     1       4.571   4.089  46.670  1.00  0.00    -0.391 OA
ATOM     24  H1  UNL     1       4.902   4.292  45.803  1.00  0.00     0.210 HD
ENDBRANCH  19  23
BRANCH  20  25
HETATM   25  O2  UNL     1       2.471   5.891  47.616  1.00  0.00    -0.390 OA
ATOM     26  H2  UNL     1       1.637   6.302  47.811  1.00  0.00     0.210 HD
ENDBRANCH  20  25
BRANCH  21  27
HETATM   27  O3  UNL     1       3.489   7.079  45.679  1.00  0.00    -0.391 OA
ATOM     28  H3  UNL     1       2.804   7.688  45.930  1.00  0.00     0.210 HD
ENDBRANCH  21  27
ENDBRANCH  16  17
ENDBRANCH  15  16
ENDBRANCH   1  15
TORSDOF 12
ENDMDL
