MODEL 1
REMARK VINA RESULT: -7.098850348      0.000      0.000
REMARK  12 active torsions:
REMARK  status: ('A' for Active; 'I' for Inactive)
REMARK    1  A    between atoms: C1_2  and  N1_3 
REMARK    2  A    between atoms: N1_3  and  C2_5 
REMARK    3  A    between atoms: C2_5  and  C3_6 
REMARK    4  A    between atoms: C3_6  and  N2_7 
REMARK    5  A    between atoms: N2_7  and  C4_9 
REMARK    6  A    between atoms: C4_9  and  N3_11 
REMARK    7  A    between atoms: N3_11  and  N4_13 
REMARK    8  A    between atoms: N4_13  and  N5_15 
REMARK    9  A    between atoms: C5_17  and  C6_18 
REMARK   10  A    between atoms: C8_22  and  C9_23 
REMARK   11  A    between atoms: C9_23  and  N7_24 
REMARK   12  A    between atoms: N7_24  and  C10_26 
ROOT
HETATM    1  N4  UNL     1       0.413  10.473  45.322  1.00  0.00    -0.241 N 
ATOM      2  H4  UNL     1       0.063   9.755  44.688  1.00  0.00     0.208 HD
ENDROOT
BRANCH   1   3
HETATM    3  N3  UNL     1      -0.291  10.806  46.506  1.00  0.00    -0.262 N 
ATOM      4  H3  UNL     1       0.125  11.451  47.178  1.00  0.00     0.191 HD
BRANCH   3   5
HETATM    5  C4  UNL     1      -1.568  10.249  46.763  1.00  0.00     0.187 C 
HETATM    6  S1  UNL     1      -1.738   8.771  47.433  1.00  0.00    -0.040 SA
BRANCH   5   7
HETATM    7  N2  UNL     1      -2.720  10.984  46.435  1.00  0.00    -0.364 N 
ATOM      8  H2  UNL     1      -2.849  11.331  45.484  1.00  0.00     0.162 HD
BRANCH   7   9
HETATM    9  C3  UNL     1      -3.719  11.247  47.437  1.00  0.00     0.141 C 
BRANCH   9  10
HETATM   10  C2  UNL     1      -4.413  12.557  47.245  1.00  0.00     0.141 C 
BRANCH  10  11
HETATM   11  N1  UNL     1      -3.709  13.379  46.308  1.00  0.00    -0.367 N 
ATOM     12  H1  UNL     1      -3.455  13.001  45.395  1.00  0.00     0.161 HD
BRANCH  11  13
HETATM   13  C1  UNL     1      -3.363  14.708  46.638  1.00  0.00     0.348 C 
HETATM   14  O1  UNL     1      -4.132  15.689  46.632  1.00  0.00    -0.284 OA
ENDBRANCH  11  13
ENDBRANCH  10  11
ENDBRANCH   9  10
ENDBRANCH   7   9
ENDBRANCH   5   7
ENDBRANCH   3   5
ENDBRANCH   1   3
BRANCH   1  15
HETATM   15  N5  UNL     1       1.580  11.148  45.052  1.00  0.00    -0.297 N 
HETATM   16  C5  UNL     1       2.046  11.399  43.894  1.00  0.00     0.121 C 
ATOM     17  H5  UNL     1       2.121  11.478  45.851  1.00  0.00     0.187 HD
BRANCH  16  18
HETATM   18  C6  UNL     1       3.290  12.121  43.750  1.00  0.00    -0.002 A 
HETATM   19  C7  UNL     1       4.521  11.563  43.397  1.00  0.00     0.101 A 
HETATM   20  N6  UNL     1       5.476  12.507  43.351  1.00  0.00    -0.367 N 
HETATM   21  C8  UNL     1       4.881  13.668  43.668  1.00  0.00     0.027 A 
ATOM     22  H6  UNL     1       6.459  12.369  43.120  1.00  0.00     0.165 HD
HETATM   23  C11 UNL     1       3.540  13.469  43.919  1.00  0.00     0.041 A 
BRANCH  21  24
HETATM   24  C9  UNL     1       5.574  14.973  43.734  1.00  0.00     0.178 C 
BRANCH  24  25
HETATM   25  N7  UNL     1       5.573  15.570  45.045  1.00  0.00    -0.363 N 
ATOM     26  H7  UNL     1       5.182  16.504  45.173  1.00  0.00     0.162 HD
BRANCH  25  27
HETATM   27  C10 UNL     1       6.110  14.875  46.162  1.00  0.00     0.348 C 
HETATM   28  O2  UNL     1       5.629  15.020  47.301  1.00  0.00    -0.284 OA
ENDBRANCH  25  27
ENDBRANCH  24  25
ENDBRANCH  21  24
ENDBRANCH  16  18
ENDBRANCH   1  15
TORSDOF 12
ENDMDL
MODEL 2
REMARK VINA RESULT: -6.921163127      3.420      4.693
REMARK  12 active torsions:
REMARK  status: ('A' for Active; 'I' for Inactive)
REMARK    1  A    between atoms: C1_2  and  N1_3 
REMARK    2  A    between atoms: N1_3  and  C2_5 
REMARK    3  A    between atoms: C2_5  and  C3_6 
REMARK    4  A    between atoms: C3_6  and  N2_7 
REMARK    5  A    between atoms: N2_7  and  C4_9 
REMARK    6  A    between atoms: C4_9  and  N3_11 
REMARK    7  A    between atoms: N3_11  and  N4_13 
REMARK    8  A    between atoms: N4_13  and  N5_15 
REMARK    9  A    between atoms: C5_17  and  C6_18 
REMARK   10  A    between atoms: C8_22  and  C9_23 
REMARK   11  A    between atoms: C9_23  and  N7_24 
REMARK   12  A    between atoms: N7_24  and  C10_26 
ROOT
HETATM    1  N4  UNL     1       2.663  13.197  43.117  1.00  0.00    -0.241 N 
ATOM      2  H4  UNL     1       2.775  13.468  42.141  1.00  0.00     0.208 HD
ENDROOT
BRANCH   1   3
HETATM    3  N3  UNL     1       1.596  12.358  43.524  1.00  0.00    -0.262 N 
ATOM      4  H3  UNL     1       0.636  12.607  43.285  1.00  0.00     0.191 HD
BRANCH   3   5
HETATM    5  C4  UNL     1       1.854  11.175  44.259  1.00  0.00     0.187 C 
HETATM    6  S1  UNL     1       2.983  10.099  43.781  1.00  0.00    -0.040 SA
BRANCH   5   7
HETATM    7  N2  UNL     1       1.121  10.917  45.431  1.00  0.00    -0.364 N 
ATOM      8  H2  UNL     1       1.447  11.282  46.326  1.00  0.00     0.162 HD
BRANCH   7   9
HETATM    9  C3  UNL     1      -0.088  10.138  45.370  1.00  0.00     0.141 C 
BRANCH   9  10
HETATM   10  C2  UNL     1      -1.136  10.604  46.329  1.00  0.00     0.141 C 
BRANCH  10  11
HETATM   11  N1  UNL     1      -1.112   9.829  47.532  1.00  0.00    -0.367 N 
ATOM     12  H1  UNL     1      -0.680  10.213  48.373  1.00  0.00     0.161 HD
BRANCH  11  13
HETATM   13  C1  UNL     1      -1.682   8.537  47.564  1.00  0.00     0.348 C 
HETATM   14  O1  UNL     1      -1.097   7.485  47.889  1.00  0.00    -0.284 OA
ENDBRANCH  11  13
ENDBRANCH  10  11
ENDBRANCH   9  10
ENDBRANCH   7   9
ENDBRANCH   5   7
ENDBRANCH   3   5
ENDBRANCH   1   3
BRANCH   1  15
HETATM   15  N5  UNL     1       3.542  13.635  44.079  1.00  0.00    -0.297 N 
HETATM   16  C5  UNL     1       4.663  14.201  43.864  1.00  0.00     0.121 C 
ATOM     17  H5  UNL     1       3.273  13.495  45.053  1.00  0.00     0.187 HD
BRANCH  16  18
HETATM   18  C6  UNL     1       5.495  14.615  44.971  1.00  0.00    -0.002 A 
HETATM   19  C7  UNL     1       5.686  13.904  46.157  1.00  0.00     0.101 A 
HETATM   20  N6  UNL     1       6.519  14.565  46.979  1.00  0.00    -0.367 N 
HETATM   21  C8  UNL     1       6.869  15.693  46.342  1.00  0.00     0.027 A 
ATOM     22  H6  UNL     1       6.825  14.268  47.906  1.00  0.00     0.165 HD
HETATM   23  C11 UNL     1       6.260  15.757  45.107  1.00  0.00     0.041 A 
BRANCH  21  24
HETATM   24  C9  UNL     1       7.783  16.717  46.894  1.00  0.00     0.178 C 
BRANCH  24  25
HETATM   25  N7  UNL     1       7.211  17.496  47.962  1.00  0.00    -0.363 N 
ATOM     26  H7  UNL     1       6.301  17.236  48.344  1.00  0.00     0.162 HD
BRANCH  25  27
HETATM   27  C10 UNL     1       7.898  18.623  48.490  1.00  0.00     0.348 C 
HETATM   28  O2  UNL     1       8.105  19.634  47.794  1.00  0.00    -0.284 OA
ENDBRANCH  25  27
ENDBRANCH  24  25
ENDBRANCH  21  24
ENDBRANCH  16  18
ENDBRANCH   1  15
TORSDOF 12
ENDMDL
MODEL 3
REMARK VINA RESULT: -6.467553074      2.527      3.067
REMARK  12 active torsions:
REMARK  status: ('A' for Active; 'I' for Inactive)
REMARK    1  A    between atoms: C1_2  and  N1_3 
REMARK    2  A    between atoms: N1_3  and  C2_5 
REMARK    3  A    between atoms: C2_5  and  C3_6 
REMARK    4  A    between atoms: C3_6  and  N2_7 
REMARK    5  A    between atoms: N2_7  and  C4_9 
REMARK    6  A    between atoms: C4_9  and  N3_11 
REMARK    7  A    between atoms: N3_11  and  N4_13 
REMARK    8  A    between atoms: N4_13  and  N5_15 
REMARK    9  A    between atoms: C5_17  and  C6_18 
REMARK   10  A    between atoms: C8_22  and  C9_23 
REMARK   11  A    between atoms: C9_23  and  N7_24 
REMARK   12  A    between atoms: N7_24  and  C10_26 
ROOT
HETATM    1  N4  UNL     1      -0.250  10.400  45.800  1.00  0.00    -0.241 N 
ATOM      2  H4  UNL     1      -0.493   9.432  45.589  1.00  0.00     0.208 HD
ENDROOT
BRANCH   1   3
HETATM    3  N3  UNL     1      -1.120  11.222  46.561  1.00  0.00    -0.262 N 
ATOM      4  H3  UNL     1      -0.793  11.632  47.435  1.00  0.00     0.191 HD
BRANCH   3   5
HETATM    5  C4  UNL     1      -2.440  11.476  46.113  1.00  0.00     0.187 C 
HETATM    6  S1  UNL     1      -3.121  12.952  46.253  1.00  0.00    -0.040 SA
BRANCH   5   7
HETATM    7  N2  UNL     1      -3.185  10.435  45.534  1.00  0.00    -0.364 N 
ATOM      8  H2  UNL     1      -2.851   9.981  44.683  1.00  0.00     0.162 HD
BRANCH   7   9
HETATM    9  C3  UNL     1      -4.420  10.008  46.138  1.00  0.00     0.141 C 
BRANCH   9  10
HETATM   10  C2  UNL     1      -4.411   8.567  46.537  1.00  0.00     0.141 C 
BRANCH  10  11
HETATM   11  N1  UNL     1      -3.793   8.393  47.817  1.00  0.00    -0.367 N 
ATOM     12  H1  UNL     1      -4.364   8.408  48.662  1.00  0.00     0.161 HD
BRANCH  11  13
HETATM   13  C1  UNL     1      -2.397   8.201  47.918  1.00  0.00     0.348 C 
HETATM   14  O1  UNL     1      -1.589   8.173  46.969  1.00  0.00    -0.284 OA
ENDBRANCH  11  13
ENDBRANCH  10  11
ENDBRANCH   9  10
ENDBRANCH   7   9
ENDBRANCH   5   7
ENDBRANCH   3   5
ENDBRANCH   1   3
BRANCH   1  15
HETATM   15  N5  UNL     1       0.930  10.948  45.354  1.00  0.00    -0.297 N 
HETATM   16  C5  UNL     1       1.620  10.531  44.369  1.00  0.00     0.121 C 
ATOM     17  H5  UNL     1       1.284  11.761  45.858  1.00  0.00     0.187 HD
BRANCH  16  18
HETATM   18  C6  UNL     1       2.848  11.201  44.003  1.00  0.00    -0.002 A 
HETATM   19  C7  UNL     1       3.736  10.790  43.007  1.00  0.00     0.101 A 
HETATM   20  N6  UNL     1       4.778  11.633  42.921  1.00  0.00    -0.367 N 
HETATM   21  C8  UNL     1       4.578  12.585  43.846  1.00  0.00     0.027 A 
ATOM     22  H6  UNL     1       5.567  11.564  42.278  1.00  0.00     0.165 HD
HETATM   23  C11 UNL     1       3.403  12.351  44.529  1.00  0.00     0.041 A 
BRANCH  21  24
HETATM   24  C9  UNL     1       5.492  13.720  44.091  1.00  0.00     0.178 C 
BRANCH  24  25
HETATM   25  N7  UNL     1       5.217  14.442  45.307  1.00  0.00    -0.363 N 
ATOM     26  H7  UNL     1       4.339  14.953  45.402  1.00  0.00     0.162 HD
BRANCH  25  27
HETATM   27  C10 UNL     1       6.153  14.449  46.377  1.00  0.00     0.348 C 
HETATM   28  O2  UNL     1       6.669  13.394  46.787  1.00  0.00    -0.284 OA
ENDBRANCH  25  27
ENDBRANCH  24  25
ENDBRANCH  21  24
ENDBRANCH  16  18
ENDBRANCH   1  15
TORSDOF 12
ENDMDL
MODEL 4
REMARK VINA RESULT: -6.408587869      2.828      3.752
REMARK  12 active torsions:
REMARK  status: ('A' for Active; 'I' for Inactive)
REMARK    1  A    between atoms: C1_2  and  N1_3 
REMARK    2  A    between atoms: N1_3  and  C2_5 
REMARK    3  A    between atoms: C2_5  and  C3_6 
REMARK    4  A    between atoms: C3_6  and  N2_7 
REMARK    5  A    between atoms: N2_7  and  C4_9 
REMARK    6  A    between atoms: C4_9  and  N3_11 
REMARK    7  A    between atoms: N3_11  and  N4_13 
REMARK    8  A    between atoms: N4_13  and  N5_15 
REMARK    9  A    between atoms: C5_17  and  C6_18 
REMARK   10  A    between atoms: C8_22  and  C9_23 
REMARK   11  A    between atoms: C9_23  and  N7_24 
REMARK   12  A    between atoms: N7_24  and  C10_26 
ROOT
HETATM    1  N4  UNL     1      -0.087  10.816  45.512  1.00  0.00    -0.241 N 
ATOM      2  H4  UNL     1      -0.875  11.038  44.904  1.00  0.00     0.208 HD
ENDROOT
BRANCH   1   3
HETATM    3  N3  UNL     1      -0.275  10.596  46.899  1.00  0.00    -0.262 N 
ATOM      4  H3  UNL     1       0.445  10.887  47.561  1.00  0.00     0.191 HD
BRANCH   3   5
HETATM    5  C4  UNL     1      -1.457   9.975  47.373  1.00  0.00     0.187 C 
HETATM    6  S1  UNL     1      -1.586   8.353  47.487  1.00  0.00    -0.040 SA
BRANCH   5   7
HETATM    7  N2  UNL     1      -2.550  10.773  47.757  1.00  0.00    -0.364 N 
ATOM      8  H2  UNL     1      -2.393  11.626  48.294  1.00  0.00     0.162 HD
BRANCH   7   9
HETATM    9  C3  UNL     1      -3.888  10.387  47.394  1.00  0.00     0.141 C 
BRANCH   9  10
HETATM   10  C2  UNL     1      -4.604  11.430  46.597  1.00  0.00     0.141 C 
BRANCH  10  11
HETATM   11  N1  UNL     1      -3.989  12.713  46.761  1.00  0.00    -0.367 N 
ATOM     12  H1  UNL     1      -4.241  13.297  47.558  1.00  0.00     0.161 HD
BRANCH  11  13
HETATM   13  C1  UNL     1      -3.037  13.175  45.826  1.00  0.00     0.348 C 
HETATM   14  O1  UNL     1      -2.321  12.463  45.094  1.00  0.00    -0.284 OA
ENDBRANCH  11  13
ENDBRANCH  10  11
ENDBRANCH   9  10
ENDBRANCH   7   9
ENDBRANCH   5   7
ENDBRANCH   3   5
ENDBRANCH   1   3
BRANCH   1  15
HETATM   15  N5  UNL     1       1.189  10.722  45.010  1.00  0.00    -0.297 N 
HETATM   16  C5  UNL     1       1.637  11.338  43.989  1.00  0.00     0.121 C 
ATOM     17  H5  UNL     1       1.836  10.103  45.499  1.00  0.00     0.187 HD
BRANCH  16  18
HETATM   18  C6  UNL     1       3.007  11.148  43.566  1.00  0.00    -0.002 A 
HETATM   19  C7  UNL     1       3.953  12.160  43.390  1.00  0.00     0.101 A 
HETATM   20  N6  UNL     1       5.129  11.648  42.992  1.00  0.00    -0.367 N 
HETATM   21  C8  UNL     1       4.958  10.319  42.907  1.00  0.00     0.027 A 
ATOM     22  H6  UNL     1       5.984  12.166  42.792  1.00  0.00     0.165 HD
HETATM   23  C11 UNL     1       3.668   9.977  43.252  1.00  0.00     0.041 A 
BRANCH  21  24
HETATM   24  C9  UNL     1       6.012   9.363  42.502  1.00  0.00     0.178 C 
BRANCH  24  25
HETATM   25  N7  UNL     1       6.813   9.813  41.392  1.00  0.00    -0.363 N 
ATOM     26  H7  UNL     1       7.581  10.464  41.556  1.00  0.00     0.162 HD
BRANCH  25  27
HETATM   27  C10 UNL     1       6.547   9.360  40.071  1.00  0.00     0.348 C 
HETATM   28  O2  UNL     1       5.403   9.008  39.730  1.00  0.00    -0.284 OA
ENDBRANCH  25  27
ENDBRANCH  24  25
ENDBRANCH  21  24
ENDBRANCH  16  18
ENDBRANCH   1  15
TORSDOF 12
ENDMDL
MODEL 5
REMARK VINA RESULT: -6.379275335      1.907      2.511
REMARK  12 active torsions:
REMARK  status: ('A' for Active; 'I' for Inactive)
REMARK    1  A    between atoms: C1_2  and  N1_3 
REMARK    2  A    between atoms: N1_3  and  C2_5 
REMARK    3  A    between atoms: C2_5  and  C3_6 
REMARK    4  A    between atoms: C3_6  and  N2_7 
REMARK    5  A    between atoms: N2_7  and  C4_9 
REMARK    6  A    between atoms: C4_9  and  N3_11 
REMARK    7  A    between atoms: N3_11  and  N4_13 
REMARK    8  A    between atoms: N4_13  and  N5_15 
REMARK    9  A    between atoms: C5_17  and  C6_18 
REMARK   10  A    between atoms: C8_22  and  C9_23 
REMARK   11  A    between atoms: C9_23  and  N7_24 
REMARK   12  A    between atoms: N7_24  and  C10_26 
ROOT
HETATM    1  N4  UNL     1       1.484  10.789  44.775  1.00  0.00    -0.241 N 
ATOM      2  H4  UNL     1       1.607  10.067  44.066  1.00  0.00     0.208 HD
ENDROOT
BRANCH   1   3
HETATM    3  N3  UNL     1       0.274  10.899  45.505  1.00  0.00    -0.262 N 
ATOM      4  H3  UNL     1      -0.124  11.819  45.690  1.00  0.00     0.191 HD
BRANCH   3   5
HETATM    5  C4  UNL     1      -0.386   9.738  45.978  1.00  0.00     0.187 C 
HETATM    6  S1  UNL     1      -0.357   8.337  45.143  1.00  0.00    -0.040 SA
BRANCH   5   7
HETATM    7  N2  UNL     1      -1.084   9.789  47.197  1.00  0.00    -0.364 N 
ATOM      8  H2  UNL     1      -0.751  10.393  47.949  1.00  0.00     0.162 HD
BRANCH   7   9
HETATM    9  C3  UNL     1      -2.266   8.991  47.387  1.00  0.00     0.141 C 
BRANCH   9  10
HETATM   10  C2  UNL     1      -3.532   9.754  47.165  1.00  0.00     0.141 C 
BRANCH  10  11
HETATM   11  N1  UNL     1      -3.320  11.160  47.335  1.00  0.00    -0.367 N 
ATOM     12  H1  UNL     1      -3.098  11.530  48.259  1.00  0.00     0.161 HD
BRANCH  11  13
HETATM   13  C1  UNL     1      -3.416  12.037  46.233  1.00  0.00     0.348 C 
HETATM   14  O1  UNL     1      -2.524  12.257  45.389  1.00  0.00    -0.284 OA
ENDBRANCH  11  13
ENDBRANCH  10  11
ENDBRANCH   9  10
ENDBRANCH   7   9
ENDBRANCH   5   7
ENDBRANCH   3   5
ENDBRANCH   1   3
BRANCH   1  15
HETATM   15  N5  UNL     1       2.489  11.686  45.051  1.00  0.00    -0.297 N 
HETATM   16  C5  UNL     1       3.271  12.217  44.198  1.00  0.00     0.121 C 
ATOM     17  H5  UNL     1       2.620  11.951  46.028  1.00  0.00     0.187 HD
BRANCH  16  18
HETATM   18  C6  UNL     1       4.290  13.151  44.623  1.00  0.00    -0.002 A 
HETATM   19  C7  UNL     1       4.754  14.242  43.887  1.00  0.00     0.101 A 
HETATM   20  N6  UNL     1       5.702  14.908  44.568  1.00  0.00    -0.367 N 
HETATM   21  C8  UNL     1       5.858  14.262  45.735  1.00  0.00     0.027 A 
ATOM     22  H6  UNL     1       6.204  15.739  44.259  1.00  0.00     0.165 HD
HETATM   23  C11 UNL     1       5.008  13.179  45.803  1.00  0.00     0.041 A 
BRANCH  21  24
HETATM   24  C9  UNL     1       6.809  14.665  46.793  1.00  0.00     0.178 C 
BRANCH  24  25
HETATM   25  N7  UNL     1       6.786  16.073  47.095  1.00  0.00    -0.363 N 
ATOM     26  H7  UNL     1       6.028  16.454  47.663  1.00  0.00     0.162 HD
BRANCH  25  27
HETATM   27  C10 UNL     1       7.805  16.938  46.614  1.00  0.00     0.348 C 
HETATM   28  O2  UNL     1       8.075  17.001  45.401  1.00  0.00    -0.284 OA
ENDBRANCH  25  27
ENDBRANCH  24  25
ENDBRANCH  21  24
ENDBRANCH  16  18
ENDBRANCH   1  15
TORSDOF 12
ENDMDL
