MODEL 1
REMARK VINA RESULT: -6.130458855      0.000      0.000
REMARK  11 active torsions:
REMARK  status: ('A' for Active; 'I' for Inactive)
REMARK    1  A    between atoms: C1_4  and  N2_5 
REMARK    2  A    between atoms: N2_5  and  C2_7 
REMARK    3  A    between atoms: C2_7  and  C3_8 
REMARK    4  A    between atoms: C3_8  and  C4_9 
REMARK    5  A    between atoms: C4_9  and  C5_10 
REMARK    6  A    between atoms: C5_10  and  N3_11 
REMARK    7  A    between atoms: C6_12  and  O1_13 
REMARK    8  A    between atoms: C9_20  and  C10_21 
REMARK    9  A    between atoms: C10_21  and  C11_22 
REMARK   10  A    between atoms: C11_22  and  C12_23 
REMARK   11  A    between atoms: C12_23  and  N5_24 
ROOT
HETATM    1  N3  UNL     1       4.414  11.092  43.472  1.00  0.00    -0.331 N 
HETATM    2  C6  UNL     1       4.827  12.313  43.993  1.00  0.00     0.242 C 
HETATM    3  C7  UNL     1       3.984  13.504  43.586  1.00  0.00     0.176 C 
HETATM    4  N4  UNL     1       2.575  13.237  43.784  1.00  0.00    -0.352 N 
ATOM      5  H4  UNL     1       1.940  13.980  44.077  1.00  0.00     0.162 HD
HETATM    6  C8  UNL     1       2.099  11.931  43.563  1.00  0.00     0.264 C 
HETATM    7  O2  UNL     1       0.873  11.755  43.428  1.00  0.00    -0.266 OA
HETATM    8  C9  UNL     1       3.015  10.797  43.487  1.00  0.00     0.082 C 
ENDROOT
BRANCH   1   9
HETATM    9  C5  UNL     1       5.252  10.295  42.689  1.00  0.00     0.067 C 
BRANCH   9  10
HETATM   10  C4  UNL     1       4.888  10.153  41.252  1.00  0.00     0.046 C 
BRANCH  10  11
HETATM   11  C3  UNL     1       5.673   9.058  40.565  1.00  0.00     0.025 C 
BRANCH  11  12
HETATM   12  C2  UNL     1       4.952   7.726  40.653  1.00  0.00     0.120 C 
BRANCH  12  13
HETATM   13  N2  UNL     1       4.592   7.241  39.331  1.00  0.00    -0.386 N 
ATOM     14  H2  UNL     1       5.177   7.451  38.523  1.00  0.00     0.160 HD
BRANCH  13  15
HETATM   15  C1  UNL     1       3.406   6.469  39.190  1.00  0.00     0.168 C 
HETATM   16  N1  UNL     1       2.568   6.846  38.283  1.00  0.00    -0.396 N 
ATOM     17  H12 UNL     1       2.762   7.662  37.702  1.00  0.00     0.156 HD
ATOM     18  H11 UNL     1       1.717   6.293  38.181  1.00  0.00     0.156 HD
ENDBRANCH  13  15
ENDBRANCH  12  13
ENDBRANCH  11  12
ENDBRANCH  10  11
ENDBRANCH   9  10
ENDBRANCH   1   9
BRANCH   2  19
HETATM   19  O1  UNL     1       6.142  12.591  43.654  1.00  0.00    -0.375 OA
ATOM     20  H1  UNL     1       6.752  12.148  44.233  1.00  0.00     0.212 HD
ENDBRANCH   2  19
BRANCH   8  21
HETATM   21  C10 UNL     1       2.689   9.589  44.296  1.00  0.00     0.068 C 
BRANCH  21  22
HETATM   22  C11 UNL     1       2.182   8.393  43.595  1.00  0.00     0.051 C 
BRANCH  22  23
HETATM   23  C12 UNL     1       2.919   7.114  43.783  1.00  0.00     0.063 C 
BRANCH  23  24
HETATM   24  N5  UNL     1       3.243   6.718  45.096  1.00  0.00    -0.347 N 
HETATM   25  C13 UNL     1       2.617   6.095  45.996  1.00  0.00     0.200 C 
HETATM   26  N6  UNL     1       1.271   5.610  45.820  1.00  0.00    -0.067 NA
HETATM   27  N7  UNL     1       3.210   5.811  47.280  1.00  0.00    -0.067 NA
ATOM     28  H5  UNL     1       4.184   6.994  45.378  1.00  0.00     0.167 HD
ENDBRANCH  23  24
ENDBRANCH  22  23
ENDBRANCH  21  22
ENDBRANCH   8  21
TORSDOF 11
ENDMDL
MODEL 2
REMARK VINA RESULT: -6.104711610      1.262      1.833
REMARK  11 active torsions:
REMARK  status: ('A' for Active; 'I' for Inactive)
REMARK    1  A    between atoms: C1_4  and  N2_5 
REMARK    2  A    between atoms: N2_5  and  C2_7 
REMARK    3  A    between atoms: C2_7  and  C3_8 
REMARK    4  A    between atoms: C3_8  and  C4_9 
REMARK    5  A    between atoms: C4_9  and  C5_10 
REMARK    6  A    between atoms: C5_10  and  N3_11 
REMARK    7  A    between atoms: C6_12  and  O1_13 
REMARK    8  A    between atoms: C9_20  and  C10_21 
REMARK    9  A    between atoms: C10_21  and  C11_22 
REMARK   10  A    between atoms: C11_22  and  C12_23 
REMARK   11  A    between atoms: C12_23  and  N5_24 
ROOT
HETATM    1  N3  UNL     1       4.290  10.978  43.289  1.00  0.00    -0.331 N 
HETATM    2  C6  UNL     1       4.787  12.154  43.841  1.00  0.00     0.242 C 
HETATM    3  C7  UNL     1       3.945  13.387  43.590  1.00  0.00     0.176 C 
HETATM    4  N4  UNL     1       2.553  13.142  43.907  1.00  0.00    -0.352 N 
ATOM      5  H4  UNL     1       1.972  13.879  44.304  1.00  0.00     0.162 HD
HETATM    6  C8  UNL     1       2.021  11.864  43.654  1.00  0.00     0.264 C 
HETATM    7  O2  UNL     1       0.782  11.726  43.629  1.00  0.00    -0.266 OA
HETATM    8  C9  UNL     1       2.891  10.716  43.421  1.00  0.00     0.082 C 
ENDROOT
BRANCH   1   9
HETATM    9  C5  UNL     1       5.026  10.213  42.382  1.00  0.00     0.067 C 
BRANCH   9  10
HETATM   10  C4  UNL     1       5.737   9.024  42.931  1.00  0.00     0.046 C 
BRANCH  10  11
HETATM   11  C3  UNL     1       5.852   7.905  41.920  1.00  0.00     0.025 C 
BRANCH  11  12
HETATM   12  C2  UNL     1       5.175   8.273  40.614  1.00  0.00     0.120 C 
BRANCH  12  13
HETATM   13  N2  UNL     1       6.106   8.181  39.501  1.00  0.00    -0.386 N 
ATOM     14  H2  UNL     1       5.865   7.655  38.662  1.00  0.00     0.160 HD
BRANCH  13  15
HETATM   15  C1  UNL     1       7.361   8.841  39.610  1.00  0.00     0.168 C 
HETATM   16  N1  UNL     1       7.344  10.132  39.617  1.00  0.00    -0.396 N 
ATOM     17  H12 UNL     1       6.463  10.640  39.548  1.00  0.00     0.156 HD
ATOM     18  H11 UNL     1       8.245  10.605  39.694  1.00  0.00     0.156 HD
ENDBRANCH  13  15
ENDBRANCH  12  13
ENDBRANCH  11  12
ENDBRANCH  10  11
ENDBRANCH   9  10
ENDBRANCH   1   9
BRANCH   2  19
HETATM   19  O1  UNL     1       6.071  12.422  43.393  1.00  0.00    -0.375 OA
ATOM     20  H1  UNL     1       6.151  13.315  43.080  1.00  0.00     0.212 HD
ENDBRANCH   2  19
BRANCH   8  21
HETATM   21  C10 UNL     1       2.607   9.468  44.184  1.00  0.00     0.068 C 
BRANCH  21  22
HETATM   22  C11 UNL     1       2.189   8.268  43.432  1.00  0.00     0.051 C 
BRANCH  22  23
HETATM   23  C12 UNL     1       2.719   6.950  43.876  1.00  0.00     0.063 C 
BRANCH  23  24
HETATM   24  N5  UNL     1       2.833   6.710  45.260  1.00  0.00    -0.347 N 
HETATM   25  C13 UNL     1       2.899   5.662  45.959  1.00  0.00     0.200 C 
HETATM   26  N6  UNL     1       2.864   4.338  45.389  1.00  0.00    -0.067 NA
HETATM   27  N7  UNL     1       3.023   5.710  47.395  1.00  0.00    -0.067 NA
ATOM     28  H5  UNL     1       2.868   7.566  45.815  1.00  0.00     0.167 HD
ENDBRANCH  23  24
ENDBRANCH  22  23
ENDBRANCH  21  22
ENDBRANCH   8  21
TORSDOF 11
ENDMDL
MODEL 3
REMARK VINA RESULT: -6.091349266      2.299      3.353
REMARK  11 active torsions:
REMARK  status: ('A' for Active; 'I' for Inactive)
REMARK    1  A    between atoms: C1_4  and  N2_5 
REMARK    2  A    between atoms: N2_5  and  C2_7 
REMARK    3  A    between atoms: C2_7  and  C3_8 
REMARK    4  A    between atoms: C3_8  and  C4_9 
REMARK    5  A    between atoms: C4_9  and  C5_10 
REMARK    6  A    between atoms: C5_10  and  N3_11 
REMARK    7  A    between atoms: C6_12  and  O1_13 
REMARK    8  A    between atoms: C9_20  and  C10_21 
REMARK    9  A    between atoms: C10_21  and  C11_22 
REMARK   10  A    between atoms: C11_22  and  C12_23 
REMARK   11  A    between atoms: C12_23  and  N5_24 
ROOT
HETATM    1  N3  UNL     1       4.296  10.314  43.378  1.00  0.00    -0.331 N 
HETATM    2  C6  UNL     1       4.591  11.463  44.104  1.00  0.00     0.242 C 
HETATM    3  C7  UNL     1       3.444  12.441  44.253  1.00  0.00     0.176 C 
HETATM    4  N4  UNL     1       2.240  11.770  44.695  1.00  0.00    -0.352 N 
ATOM      5  H4  UNL     1       1.585  12.236  45.322  1.00  0.00     0.162 HD
HETATM    6  C8  UNL     1       1.992  10.462  44.239  1.00  0.00     0.264 C 
HETATM    7  O2  UNL     1       0.842   9.995  44.354  1.00  0.00    -0.266 OA
HETATM    8  C9  UNL     1       3.052   9.659  43.639  1.00  0.00     0.082 C 
ENDROOT
BRANCH   1   9
HETATM    9  C5  UNL     1       5.006   9.956  42.231  1.00  0.00     0.067 C 
BRANCH   9  10
HETATM   10  C4  UNL     1       6.196   9.081  42.427  1.00  0.00     0.046 C 
BRANCH  10  11
HETATM   11  C3  UNL     1       6.552   8.304  41.179  1.00  0.00     0.025 C 
BRANCH  11  12
HETATM   12  C2  UNL     1       6.139   9.056  39.928  1.00  0.00     0.120 C 
BRANCH  12  13
HETATM   13  N2  UNL     1       7.014   8.731  38.813  1.00  0.00    -0.386 N 
ATOM     14  H2  UNL     1       7.544   9.461  38.338  1.00  0.00     0.160 HD
BRANCH  13  15
HETATM   15  C1  UNL     1       7.113   7.374  38.401  1.00  0.00     0.168 C 
HETATM   16  N1  UNL     1       6.178   6.927  37.631  1.00  0.00    -0.396 N 
ATOM     17  H12 UNL     1       5.410   7.532  37.341  1.00  0.00     0.156 HD
ATOM     18  H11 UNL     1       6.250   5.953  37.335  1.00  0.00     0.156 HD
ENDBRANCH  13  15
ENDBRANCH  12  13
ENDBRANCH  11  12
ENDBRANCH  10  11
ENDBRANCH   9  10
ENDBRANCH   1   9
BRANCH   2  19
HETATM   19  O1  UNL     1       5.663  12.149  43.556  1.00  0.00    -0.375 OA
ATOM     20  H1  UNL     1       6.005  12.799  44.159  1.00  0.00     0.212 HD
ENDBRANCH   2  19
BRANCH   8  21
HETATM   21  C10 UNL     1       3.229   8.264  44.136  1.00  0.00     0.068 C 
BRANCH  21  22
HETATM   22  C11 UNL     1       2.615   7.164  43.366  1.00  0.00     0.051 C 
BRANCH  22  23
HETATM   23  C12 UNL     1       3.437   6.513  42.310  1.00  0.00     0.063 C 
BRANCH  23  24
HETATM   24  N5  UNL     1       3.168   6.833  40.965  1.00  0.00    -0.347 N 
HETATM   25  C13 UNL     1       3.544   6.349  39.862  1.00  0.00     0.200 C 
HETATM   26  N6  UNL     1       4.444   5.227  39.768  1.00  0.00    -0.067 NA
HETATM   27  N7  UNL     1       3.092   6.883  38.601  1.00  0.00    -0.067 NA
ATOM     28  H5  UNL     1       2.533   7.625  40.860  1.00  0.00     0.167 HD
ENDBRANCH  23  24
ENDBRANCH  22  23
ENDBRANCH  21  22
ENDBRANCH   8  21
TORSDOF 11
ENDMDL
MODEL 4
REMARK VINA RESULT: -6.070386021      1.724      2.436
REMARK  11 active torsions:
REMARK  status: ('A' for Active; 'I' for Inactive)
REMARK    1  A    between atoms: C1_4  and  N2_5 
REMARK    2  A    between atoms: N2_5  and  C2_7 
REMARK    3  A    between atoms: C2_7  and  C3_8 
REMARK    4  A    between atoms: C3_8  and  C4_9 
REMARK    5  A    between atoms: C4_9  and  C5_10 
REMARK    6  A    between atoms: C5_10  and  N3_11 
REMARK    7  A    between atoms: C6_12  and  O1_13 
REMARK    8  A    between atoms: C9_20  and  C10_21 
REMARK    9  A    between atoms: C10_21  and  C11_22 
REMARK   10  A    between atoms: C11_22  and  C12_23 
REMARK   11  A    between atoms: C12_23  and  N5_24 
ROOT
HETATM    1  N3  UNL     1       4.471  11.165  43.440  1.00  0.00    -0.331 N 
HETATM    2  C6  UNL     1       4.916  12.395  43.912  1.00  0.00     0.242 C 
HETATM    3  C7  UNL     1       4.161  13.597  43.384  1.00  0.00     0.176 C 
HETATM    4  N4  UNL     1       2.731  13.412  43.509  1.00  0.00    -0.352 N 
ATOM      5  H4  UNL     1       2.119  14.201  43.718  1.00  0.00     0.162 HD
HETATM    6  C8  UNL     1       2.202  12.119  43.337  1.00  0.00     0.264 C 
HETATM    7  O2  UNL     1       0.978  11.994  43.137  1.00  0.00    -0.266 OA
HETATM    8  C9  UNL     1       3.060  10.940  43.385  1.00  0.00     0.082 C 
ENDROOT
BRANCH   1   9
HETATM    9  C5  UNL     1       5.311  10.282  42.759  1.00  0.00     0.067 C 
BRANCH   9  10
HETATM   10  C4  UNL     1       4.966   9.991  41.339  1.00  0.00     0.046 C 
BRANCH  10  11
HETATM   11  C3  UNL     1       5.366   8.592  40.925  1.00  0.00     0.025 C 
BRANCH  11  12
HETATM   12  C2  UNL     1       6.360   8.622  39.779  1.00  0.00     0.120 C 
BRANCH  12  13
HETATM   13  N2  UNL     1       7.174   9.825  39.828  1.00  0.00    -0.386 N 
ATOM     14  H2  UNL     1       6.847  10.692  39.403  1.00  0.00     0.160 HD
BRANCH  13  15
HETATM   15  C1  UNL     1       8.437   9.766  40.479  1.00  0.00     0.168 C 
HETATM   16  N1  UNL     1       8.733  10.742  41.270  1.00  0.00    -0.396 N 
ATOM     17  H12 UNL     1       8.080  11.513  41.410  1.00  0.00     0.156 HD
ATOM     18  H11 UNL     1       9.639  10.700  41.737  1.00  0.00     0.156 HD
ENDBRANCH  13  15
ENDBRANCH  12  13
ENDBRANCH  11  12
ENDBRANCH  10  11
ENDBRANCH   9  10
ENDBRANCH   1   9
BRANCH   2  19
HETATM   19  O1  UNL     1       6.261  12.588  43.640  1.00  0.00    -0.375 OA
ATOM     20  H1  UNL     1       6.389  13.255  42.975  1.00  0.00     0.212 HD
ENDBRANCH   2  19
BRANCH   8  21
HETATM   21  C10 UNL     1       2.625   9.801  44.243  1.00  0.00     0.068 C 
BRANCH  21  22
HETATM   22  C11 UNL     1       2.307   8.515  43.591  1.00  0.00     0.051 C 
BRANCH  22  23
HETATM   23  C12 UNL     1       2.900   7.279  44.169  1.00  0.00     0.063 C 
BRANCH  23  24
HETATM   24  N5  UNL     1       2.136   6.544  45.097  1.00  0.00    -0.347 N 
HETATM   25  C13 UNL     1       2.389   5.569  45.856  1.00  0.00     0.200 C 
HETATM   26  N6  UNL     1       3.686   4.942  45.917  1.00  0.00    -0.067 NA
HETATM   27  N7  UNL     1       1.392   5.007  46.734  1.00  0.00    -0.067 NA
ATOM     28  H5  UNL     1       1.172   6.871  45.171  1.00  0.00     0.167 HD
ENDBRANCH  23  24
ENDBRANCH  22  23
ENDBRANCH  21  22
ENDBRANCH   8  21
TORSDOF 11
ENDMDL
MODEL 5
REMARK VINA RESULT: -6.066986146      2.286      2.892
REMARK  11 active torsions:
REMARK  status: ('A' for Active; 'I' for Inactive)
REMARK    1  A    between atoms: C1_4  and  N2_5 
REMARK    2  A    between atoms: N2_5  and  C2_7 
REMARK    3  A    between atoms: C2_7  and  C3_8 
REMARK    4  A    between atoms: C3_8  and  C4_9 
REMARK    5  A    between atoms: C4_9  and  C5_10 
REMARK    6  A    between atoms: C5_10  and  N3_11 
REMARK    7  A    between atoms: C6_12  and  O1_13 
REMARK    8  A    between atoms: C9_20  and  C10_21 
REMARK    9  A    between atoms: C10_21  and  C11_22 
REMARK   10  A    between atoms: C11_22  and  C12_23 
REMARK   11  A    between atoms: C12_23  and  N5_24 
ROOT
HETATM    1  N3  UNL     1       4.219  10.618  43.313  1.00  0.00    -0.331 N 
HETATM    2  C6  UNL     1       4.739  11.790  43.851  1.00  0.00     0.242 C 
HETATM    3  C7  UNL     1       3.853  13.010  43.710  1.00  0.00     0.176 C 
HETATM    4  N4  UNL     1       2.501  12.726  44.142  1.00  0.00    -0.352 N 
ATOM      5  H4  UNL     1       1.942  13.439  44.609  1.00  0.00     0.162 HD
HETATM    6  C8  UNL     1       1.973  11.443  43.902  1.00  0.00     0.264 C 
HETATM    7  O2  UNL     1       0.740  11.277  43.983  1.00  0.00    -0.266 OA
HETATM    8  C9  UNL     1       2.842  10.322  43.562  1.00  0.00     0.082 C 
ENDROOT
BRANCH   1   9
HETATM    9  C5  UNL     1       4.886   9.893  42.324  1.00  0.00     0.067 C 
BRANCH   9  10
HETATM   10  C4  UNL     1       5.637   8.686  42.770  1.00  0.00     0.046 C 
BRANCH  10  11
HETATM   11  C3  UNL     1       5.902   7.722  41.635  1.00  0.00     0.025 C 
BRANCH  11  12
HETATM   12  C2  UNL     1       5.256   8.197  40.348  1.00  0.00     0.120 C 
BRANCH  12  13
HETATM   13  N2  UNL     1       6.236   8.288  39.277  1.00  0.00    -0.386 N 
ATOM     14  H2  UNL     1       6.046   7.880  38.362  1.00  0.00     0.160 HD
BRANCH  13  15
HETATM   15  C1  UNL     1       7.464   8.956  39.534  1.00  0.00     0.168 C 
HETATM   16  N1  UNL     1       7.413  10.239  39.676  1.00  0.00    -0.396 N 
ATOM     17  H12 UNL     1       6.524  10.734  39.605  1.00  0.00     0.156 HD
ATOM     18  H11 UNL     1       8.294  10.718  39.861  1.00  0.00     0.156 HD
ENDBRANCH  13  15
ENDBRANCH  12  13
ENDBRANCH  11  12
ENDBRANCH  10  11
ENDBRANCH   9  10
ENDBRANCH   1   9
BRANCH   2  19
HETATM   19  O1  UNL     1       5.972  12.098  43.299  1.00  0.00    -0.375 OA
ATOM     20  H1  UNL     1       6.123  13.037  43.287  1.00  0.00     0.212 HD
ENDBRANCH   2  19
BRANCH   8  21
HETATM   21  C10 UNL     1       2.653   9.048  44.312  1.00  0.00     0.068 C 
BRANCH  21  22
HETATM   22  C11 UNL     1       1.649   8.086  43.816  1.00  0.00     0.051 C 
BRANCH  22  23
HETATM   23  C12 UNL     1       0.503   7.758  44.708  1.00  0.00     0.063 C 
BRANCH  23  24
HETATM   24  N5  UNL     1      -0.379   8.796  45.067  1.00  0.00    -0.347 N 
HETATM   25  C13 UNL     1      -1.141   8.989  46.054  1.00  0.00     0.200 C 
HETATM   26  N6  UNL     1      -1.264   8.051  47.142  1.00  0.00    -0.067 NA
HETATM   27  N7  UNL     1      -1.949  10.178  46.173  1.00  0.00    -0.067 NA
ATOM     28  H5  UNL     1      -0.409   9.553  44.384  1.00  0.00     0.167 HD
ENDBRANCH  23  24
ENDBRANCH  22  23
ENDBRANCH  21  22
ENDBRANCH   8  21
TORSDOF 11
ENDMDL
