MODEL 1
REMARK VINA RESULT: -8.375401573      0.000      0.000
REMARK  6 active torsions:
REMARK  status: ('A' for Active; 'I' for Inactive)
REMARK    1  A    between atoms: C3_7  and  C4_8 
REMARK    2  A    between atoms: C4_8  and  N3_9 
REMARK    3  A    between atoms: N3_9  and  C5_10 
REMARK    4  A    between atoms: C6_13  and  N5_14 
REMARK    5  A    between atoms: C8_22  and  C9_23 
REMARK    6  A    between atoms: C9_23  and  C11_26 
ROOT
HETATM    1  C9  UNL     1      30.115  39.661  15.517  1.00  0.00     0.161 C 
HETATM    2  C10 UNL     1      29.869  40.505  14.429  1.00  0.00     0.071 C 
HETATM    3  N8  UNL     1      29.675  41.196  13.499  1.00  0.00    -0.196 NA
ENDROOT
BRANCH   1   4
HETATM    4  C8  UNL     1      30.052  40.253  16.878  1.00  0.00     0.098 A 
HETATM    5  N7  UNL     1      28.934  40.901  17.295  1.00  0.00    -0.338 N 
HETATM    6  C7  UNL     1      28.719  41.305  18.519  1.00  0.00     0.153 A 
ATOM      7  H7  UNL     1      28.209  41.087  16.602  1.00  0.00     0.167 HD
HETATM    8  N6  UNL     1      27.560  41.896  18.852  1.00  0.00    -0.174 N 
HETATM    9  C14 UNL     1      29.674  41.094  19.497  1.00  0.00     0.139 A 
HETATM   10  C6  UNL     1      27.402  42.257  20.158  1.00  0.00     0.679 A 
ATOM     11  H6  UNL     1      26.831  42.068  18.160  1.00  0.00     0.186 HD
HETATM   12  N4  UNL     1      28.322  42.060  21.099  1.00  0.00    -0.162 N 
HETATM   13  C5  UNL     1      29.521  41.463  20.812  1.00  0.00     0.223 A 
ATOM     14  H4  UNL     1      28.130  42.361  22.055  1.00  0.00     0.187 HD
HETATM   15  N10 UNL     1      30.806  40.436  19.104  1.00  0.00    -0.315 N 
HETATM   16  C13 UNL     1      31.000  40.027  17.854  1.00  0.00     0.270 A 
ATOM     17  H10 UNL     1      31.532  40.252  19.797  1.00  0.00     0.169 HD
HETATM   18  O1  UNL     1      32.083  39.403  17.540  1.00  0.00    -0.266 OA
BRANCH  10  19
HETATM   19  N5  UNL     1      26.242  42.811  20.430  1.00  0.00    -0.234 N 
ATOM     20  H52 UNL     1      26.004  42.823  21.422  1.00  0.00     0.174 HD
ATOM     21  H51 UNL     1      25.648  43.202  19.698  1.00  0.00     0.174 HD
ENDBRANCH  10  19
BRANCH  13  22
HETATM   22  N3  UNL     1      30.370  41.364  21.640  1.00  0.00    -0.393 NA
BRANCH  22  23
HETATM   23  C4  UNL     1      31.354  41.007  22.479  1.00  0.00     0.234 C 
BRANCH  23  24
HETATM   24  C3  UNL     1      32.742  41.321  22.032  1.00  0.00     0.150 A 
HETATM   25  N2  UNL     1      33.128  41.958  20.916  1.00  0.00    -0.282 N 
HETATM   26  N1  UNL     1      34.441  42.053  20.863  1.00  0.00    -0.288 N 
ATOM     27  H2  UNL     1      32.492  42.319  20.205  1.00  0.00     0.188 HD
HETATM   28  C2  UNL     1      34.968  41.451  21.990  1.00  0.00     0.093 A 
ATOM     29  H1  UNL     1      34.977  42.495  20.116  1.00  0.00     0.188 HD
HETATM   30  C1  UNL     1      36.401  41.318  22.350  1.00  0.00     0.090 C 
HETATM   31  N11 UNL     1      33.863  41.024  22.673  1.00  0.00    -0.328 N 
ATOM     32  H11 UNL     1      33.898  40.534  23.567  1.00  0.00     0.169 HD
ENDBRANCH  23  24
ENDBRANCH  22  23
ENDBRANCH  13  22
ENDBRANCH   1   4
BRANCH   1  33
HETATM   33  C11 UNL     1      29.264  38.349  15.501  1.00  0.00     0.149 C 
HETATM   34  C12 UNL     1      30.099  37.169  15.579  1.00  0.00     0.060 C 
HETATM   35  N9  UNL     1      30.751  36.194  15.651  1.00  0.00    -0.197 NA
ENDBRANCH   1  33
TORSDOF 6
ENDMDL
MODEL 2
REMARK VINA RESULT: -8.185285726      0.980      1.059
REMARK  6 active torsions:
REMARK  status: ('A' for Active; 'I' for Inactive)
REMARK    1  A    between atoms: C3_7  and  C4_8 
REMARK    2  A    between atoms: C4_8  and  N3_9 
REMARK    3  A    between atoms: N3_9  and  C5_10 
REMARK    4  A    between atoms: C6_13  and  N5_14 
REMARK    5  A    between atoms: C8_22  and  C9_23 
REMARK    6  A    between atoms: C9_23  and  C11_26 
ROOT
HETATM    1  C9  UNL     1      30.241  39.974  15.404  1.00  0.00     0.161 C 
HETATM    2  C10 UNL     1      29.858  40.879  14.409  1.00  0.00     0.071 C 
HETATM    3  N8  UNL     1      29.551  41.625  13.556  1.00  0.00    -0.196 NA
ENDROOT
BRANCH   1   4
HETATM    4  C8  UNL     1      30.152  40.423  16.817  1.00  0.00     0.098 A 
HETATM    5  N7  UNL     1      29.057  41.095  17.259  1.00  0.00    -0.338 N 
HETATM    6  C7  UNL     1      28.811  41.381  18.509  1.00  0.00     0.153 A 
ATOM      7  H7  UNL     1      28.376  41.398  16.562  1.00  0.00     0.167 HD
HETATM    8  N6  UNL     1      27.676  42.007  18.859  1.00  0.00    -0.174 N 
HETATM    9  C14 UNL     1      29.706  41.008  19.495  1.00  0.00     0.139 A 
HETATM   10  C6  UNL     1      27.481  42.238  20.189  1.00  0.00     0.679 A 
ATOM     11  H6  UNL     1      26.990  42.297  18.162  1.00  0.00     0.186 HD
HETATM   12  N4  UNL     1      28.343  41.886  21.139  1.00  0.00    -0.162 N 
HETATM   13  C5  UNL     1      29.516  41.246  20.835  1.00  0.00     0.223 A 
ATOM     14  H4  UNL     1      28.127  42.096  22.113  1.00  0.00     0.187 HD
HETATM   15  N10 UNL     1      30.814  40.323  19.078  1.00  0.00    -0.315 N 
HETATM   16  C13 UNL     1      31.040  40.036  17.800  1.00  0.00     0.270 A 
ATOM     17  H10 UNL     1      31.495  40.022  19.775  1.00  0.00     0.169 HD
HETATM   18  O1  UNL     1      32.096  39.380  17.463  1.00  0.00    -0.266 OA
BRANCH  10  19
HETATM   19  N5  UNL     1      26.345  42.835  20.474  1.00  0.00    -0.234 N 
ATOM     20  H52 UNL     1      26.082  42.791  21.458  1.00  0.00     0.174 HD
ATOM     21  H51 UNL     1      25.792  43.307  19.758  1.00  0.00     0.174 HD
ENDBRANCH  10  19
BRANCH  13  22
HETATM   22  N3  UNL     1      30.319  41.006  21.680  1.00  0.00    -0.393 NA
BRANCH  22  23
HETATM   23  C4  UNL     1      31.295  40.989  22.601  1.00  0.00     0.234 C 
BRANCH  23  24
HETATM   24  C3  UNL     1      32.667  41.308  22.109  1.00  0.00     0.150 A 
HETATM   25  N2  UNL     1      33.014  41.936  20.975  1.00  0.00    -0.282 N 
HETATM   26  N1  UNL     1      34.324  42.039  20.881  1.00  0.00    -0.288 N 
ATOM     27  H2  UNL     1      32.353  42.285  20.281  1.00  0.00     0.188 HD
HETATM   28  C2  UNL     1      34.889  41.453  21.998  1.00  0.00     0.093 A 
ATOM     29  H1  UNL     1      34.834  42.477  20.114  1.00  0.00     0.188 HD
HETATM   30  C1  UNL     1      36.333  41.334  22.315  1.00  0.00     0.090 C 
HETATM   31  N11 UNL     1      33.809  41.025  22.718  1.00  0.00    -0.328 N 
ATOM     32  H11 UNL     1      33.874  40.545  23.616  1.00  0.00     0.169 HD
ENDBRANCH  23  24
ENDBRANCH  22  23
ENDBRANCH  13  22
ENDBRANCH   1   4
BRANCH   1  33
HETATM   33  C11 UNL     1      29.556  38.574  15.279  1.00  0.00     0.149 C 
HETATM   34  C12 UNL     1      28.191  38.686  14.813  1.00  0.00     0.060 C 
HETATM   35  N9  UNL     1      27.083  38.746  14.427  1.00  0.00    -0.197 NA
ENDBRANCH   1  33
TORSDOF 6
ENDMDL
MODEL 3
REMARK VINA RESULT: -7.851989558      0.725      2.003
REMARK  6 active torsions:
REMARK  status: ('A' for Active; 'I' for Inactive)
REMARK    1  A    between atoms: C3_7  and  C4_8 
REMARK    2  A    between atoms: C4_8  and  N3_9 
REMARK    3  A    between atoms: N3_9  and  C5_10 
REMARK    4  A    between atoms: C6_13  and  N5_14 
REMARK    5  A    between atoms: C8_22  and  C9_23 
REMARK    6  A    between atoms: C9_23  and  C11_26 
ROOT
HETATM    1  C9  UNL     1      30.074  39.623  15.613  1.00  0.00     0.161 C 
HETATM    2  C10 UNL     1      30.035  38.229  15.505  1.00  0.00     0.071 C 
HETATM    3  N8  UNL     1      29.993  37.061  15.390  1.00  0.00    -0.196 NA
ENDROOT
BRANCH   1   4
HETATM    4  C8  UNL     1      29.991  40.213  16.973  1.00  0.00     0.098 A 
HETATM    5  N7  UNL     1      28.884  40.898  17.360  1.00  0.00    -0.338 N 
HETATM    6  C7  UNL     1      28.647  41.306  18.578  1.00  0.00     0.153 A 
ATOM      7  H7  UNL     1      28.186  41.109  16.647  1.00  0.00     0.167 HD
HETATM    8  N6  UNL     1      27.499  41.935  18.880  1.00  0.00    -0.174 N 
HETATM    9  C14 UNL     1      29.565  41.060  19.583  1.00  0.00     0.139 A 
HETATM   10  C6  UNL     1      27.315  42.297  20.182  1.00  0.00     0.679 A 
ATOM     11  H6  UNL     1      26.797  42.133  18.167  1.00  0.00     0.186 HD
HETATM   12  N4  UNL     1      28.200  42.067  21.149  1.00  0.00    -0.162 N 
HETATM   13  C5  UNL     1      29.386  41.431  20.895  1.00  0.00     0.223 A 
ATOM     14  H4  UNL     1      27.991  42.372  22.099  1.00  0.00     0.187 HD
HETATM   15  N10 UNL     1      30.686  40.365  19.221  1.00  0.00    -0.315 N 
HETATM   16  C13 UNL     1      30.902  39.953  17.976  1.00  0.00     0.270 A 
ATOM     17  H10 UNL     1      31.384  40.155  19.935  1.00  0.00     0.169 HD
HETATM   18  O1  UNL     1      31.972  39.293  17.692  1.00  0.00    -0.266 OA
BRANCH  10  19
HETATM   19  N5  UNL     1      26.167  42.890  20.422  1.00  0.00    -0.234 N 
ATOM     20  H52 UNL     1      26.252  43.818  20.836  1.00  0.00     0.174 HD
ATOM     21  H51 UNL     1      25.276  42.448  20.194  1.00  0.00     0.174 HD
ENDBRANCH  10  19
BRANCH  13  22
HETATM   22  N3  UNL     1      30.207  41.301  21.746  1.00  0.00    -0.393 NA
BRANCH  22  23
HETATM   23  C4  UNL     1      31.175  41.412  22.668  1.00  0.00     0.234 C 
BRANCH  23  24
HETATM   24  C3  UNL     1      32.563  41.570  22.144  1.00  0.00     0.150 A 
HETATM   25  N2  UNL     1      32.950  42.074  20.963  1.00  0.00    -0.282 N 
HETATM   26  N1  UNL     1      34.263  42.053  20.853  1.00  0.00    -0.288 N 
ATOM     27  H2  UNL     1      32.314  42.427  20.247  1.00  0.00     0.188 HD
HETATM   28  C2  UNL     1      34.789  41.508  22.009  1.00  0.00     0.093 A 
ATOM     29  H1  UNL     1      34.799  42.384  20.051  1.00  0.00     0.188 HD
HETATM   30  C1  UNL     1      36.220  41.285  22.325  1.00  0.00     0.090 C 
HETATM   31  N11 UNL     1      33.684  41.234  22.767  1.00  0.00    -0.328 N 
ATOM     32  H11 UNL     1      33.719  40.821  23.699  1.00  0.00     0.169 HD
ENDBRANCH  23  24
ENDBRANCH  22  23
ENDBRANCH  13  22
ENDBRANCH   1   4
BRANCH   1  33
HETATM   33  C11 UNL     1      31.274  40.279  14.854  1.00  0.00     0.149 C 
HETATM   34  C12 UNL     1      31.093  41.706  14.698  1.00  0.00     0.060 C 
HETATM   35  N9  UNL     1      30.976  42.868  14.565  1.00  0.00    -0.197 NA
ENDBRANCH   1  33
TORSDOF 6
ENDMDL
MODEL 4
REMARK VINA RESULT: -7.445523510      3.432      6.743
REMARK  6 active torsions:
REMARK  status: ('A' for Active; 'I' for Inactive)
REMARK    1  A    between atoms: C3_7  and  C4_8 
REMARK    2  A    between atoms: C4_8  and  N3_9 
REMARK    3  A    between atoms: N3_9  and  C5_10 
REMARK    4  A    between atoms: C6_13  and  N5_14 
REMARK    5  A    between atoms: C8_22  and  C9_23 
REMARK    6  A    between atoms: C9_23  and  C11_26 
ROOT
HETATM    1  C9  UNL     1      30.582  40.504  21.958  1.00  0.00     0.161 C 
HETATM    2  C10 UNL     1      29.904  39.721  22.897  1.00  0.00     0.071 C 
HETATM    3  N8  UNL     1      29.359  39.050  23.692  1.00  0.00    -0.196 NA
ENDROOT
BRANCH   1   4
HETATM    4  C8  UNL     1      29.783  41.119  20.867  1.00  0.00     0.098 A 
HETATM    5  N7  UNL     1      28.510  41.535  21.095  1.00  0.00    -0.338 N 
HETATM    6  C7  UNL     1      27.792  42.233  20.258  1.00  0.00     0.153 A 
ATOM      7  H7  UNL     1      28.084  41.283  21.987  1.00  0.00     0.167 HD
HETATM    8  N6  UNL     1      26.556  42.642  20.589  1.00  0.00    -0.174 N 
HETATM    9  C14 UNL     1      28.312  42.590  19.027  1.00  0.00     0.139 A 
HETATM   10  C6  UNL     1      25.886  43.396  19.670  1.00  0.00     0.679 A 
ATOM     11  H6  UNL     1      26.138  42.400  21.487  1.00  0.00     0.186 HD
HETATM   12  N4  UNL     1      26.383  43.736  18.484  1.00  0.00    -0.162 N 
HETATM   13  C5  UNL     1      27.637  43.343  18.097  1.00  0.00     0.223 A 
ATOM     14  H4  UNL     1      25.818  44.300  17.850  1.00  0.00     0.187 HD
HETATM   15  N10 UNL     1      29.596  42.191  18.775  1.00  0.00    -0.315 N 
HETATM   16  C13 UNL     1      30.312  41.487  19.646  1.00  0.00     0.270 A 
ATOM     17  H10 UNL     1      30.021  42.442  17.882  1.00  0.00     0.169 HD
HETATM   18  O1  UNL     1      31.521  41.144  19.361  1.00  0.00    -0.266 OA
BRANCH  10  19
HETATM   19  N5  UNL     1      24.692  43.785  20.057  1.00  0.00    -0.234 N 
ATOM     20  H52 UNL     1      24.364  44.641  19.611  1.00  0.00     0.174 HD
ATOM     21  H51 UNL     1      24.148  43.255  20.739  1.00  0.00     0.174 HD
ENDBRANCH  10  19
BRANCH  13  22
HETATM   22  N3  UNL     1      28.043  43.581  17.004  1.00  0.00    -0.393 NA
BRANCH  22  23
HETATM   23  C4  UNL     1      28.636  44.042  15.892  1.00  0.00     0.234 C 
BRANCH  23  24
HETATM   24  C3  UNL     1      29.156  45.439  15.958  1.00  0.00     0.150 A 
HETATM   25  N2  UNL     1      30.435  45.847  15.975  1.00  0.00    -0.282 N 
HETATM   26  N1  UNL     1      30.505  47.161  16.036  1.00  0.00    -0.288 N 
ATOM     27  H2  UNL     1      31.242  45.224  15.945  1.00  0.00     0.188 HD
HETATM   28  C2  UNL     1      29.219  47.666  16.066  1.00  0.00     0.093 A 
ATOM     29  H1  UNL     1      31.364  47.712  16.059  1.00  0.00     0.188 HD
HETATM   30  C1  UNL     1      28.816  49.091  16.138  1.00  0.00     0.090 C 
HETATM   31  N11 UNL     1      28.433  46.549  16.010  1.00  0.00    -0.328 N 
ATOM     32  H11 UNL     1      27.413  46.567  16.010  1.00  0.00     0.169 HD
ENDBRANCH  23  24
ENDBRANCH  22  23
ENDBRANCH  13  22
ENDBRANCH   1   4
BRANCH   1  33
HETATM   33  C11 UNL     1      31.491  41.606  22.595  1.00  0.00     0.149 C 
HETATM   34  C12 UNL     1      32.868  41.170  22.696  1.00  0.00     0.060 C 
HETATM   35  N9  UNL     1      33.994  40.847  22.782  1.00  0.00    -0.197 NA
ENDBRANCH   1  33
TORSDOF 6
ENDMDL
MODEL 5
REMARK VINA RESULT: -7.422161608      2.911      6.288
REMARK  6 active torsions:
REMARK  status: ('A' for Active; 'I' for Inactive)
REMARK    1  A    between atoms: C3_7  and  C4_8 
REMARK    2  A    between atoms: C4_8  and  N3_9 
REMARK    3  A    between atoms: N3_9  and  C5_10 
REMARK    4  A    between atoms: C6_13  and  N5_14 
REMARK    5  A    between atoms: C8_22  and  C9_23 
REMARK    6  A    between atoms: C9_23  and  C11_26 
ROOT
HETATM    1  C9  UNL     1      30.847  40.905  22.152  1.00  0.00     0.161 C 
HETATM    2  C10 UNL     1      30.062  39.984  22.853  1.00  0.00     0.071 C 
HETATM    3  N8  UNL     1      29.419  39.214  23.463  1.00  0.00    -0.196 NA
ENDROOT
BRANCH   1   4
HETATM    4  C8  UNL     1      30.781  40.879  20.668  1.00  0.00     0.098 A 
HETATM    5  N7  UNL     1      29.586  40.976  20.030  1.00  0.00    -0.338 N 
HETATM    6  C7  UNL     1      29.438  41.131  18.742  1.00  0.00     0.153 A 
ATOM      7  H7  UNL     1      28.741  40.923  20.599  1.00  0.00     0.167 HD
HETATM    8  N6  UNL     1      28.215  41.266  18.203  1.00  0.00    -0.174 N 
HETATM    9  C14 UNL     1      30.548  41.195  17.919  1.00  0.00     0.139 A 
HETATM   10  C6  UNL     1      28.152  41.459  16.854  1.00  0.00     0.679 A 
ATOM     11  H6  UNL     1      27.373  41.227  18.776  1.00  0.00     0.186 HD
HETATM   12  N4  UNL     1      29.218  41.514  16.060  1.00  0.00    -0.162 N 
HETATM   13  C5  UNL     1      30.487  41.381  16.559  1.00  0.00     0.223 A 
ATOM     14  H4  UNL     1      29.087  41.658  15.059  1.00  0.00     0.187 HD
HETATM   15  N10 UNL     1      31.765  41.107  18.538  1.00  0.00    -0.315 N 
HETATM   16  C13 UNL     1      31.891  40.958  19.852  1.00  0.00     0.270 A 
ATOM     17  H10 UNL     1      32.610  41.159  17.968  1.00  0.00     0.169 HD
HETATM   18  O1  UNL     1      33.063  40.890  20.385  1.00  0.00    -0.266 OA
BRANCH  10  19
HETATM   19  N5  UNL     1      26.932  41.605  16.386  1.00  0.00    -0.234 N 
ATOM     20  H52 UNL     1      26.833  42.354  15.701  1.00  0.00     0.174 HD
ATOM     21  H51 UNL     1      26.166  41.002  16.685  1.00  0.00     0.174 HD
ENDBRANCH  10  19
BRANCH  13  22
HETATM   22  N3  UNL     1      31.430  41.350  15.834  1.00  0.00    -0.393 NA
BRANCH  22  23
HETATM   23  C4  UNL     1      32.318  41.236  14.835  1.00  0.00     0.234 C 
BRANCH  23  24
HETATM   24  C3  UNL     1      33.361  40.183  15.002  1.00  0.00     0.150 A 
HETATM   25  N2  UNL     1      33.275  39.034  15.692  1.00  0.00    -0.282 N 
HETATM   26  N1  UNL     1      34.401  38.355  15.610  1.00  0.00    -0.288 N 
ATOM     27  H2  UNL     1      32.450  38.729  16.208  1.00  0.00     0.188 HD
HETATM   28  C2  UNL     1      35.291  39.076  14.835  1.00  0.00     0.093 A 
ATOM     29  H1  UNL     1      34.585  37.451  16.045  1.00  0.00     0.188 HD
HETATM   30  C1  UNL     1      36.680  38.699  14.478  1.00  0.00     0.090 C 
HETATM   31  N11 UNL     1      34.583  40.193  14.488  1.00  0.00    -0.328 N 
ATOM     32  H11 UNL     1      34.951  40.944  13.905  1.00  0.00     0.169 HD
ENDBRANCH  23  24
ENDBRANCH  22  23
ENDBRANCH  13  22
ENDBRANCH   1   4
BRANCH   1  33
HETATM   33  C11 UNL     1      30.669  42.381  22.636  1.00  0.00     0.149 C 
HETATM   34  C12 UNL     1      31.929  43.093  22.655  1.00  0.00     0.060 C 
HETATM   35  N9  UNL     1      32.936  43.699  22.673  1.00  0.00    -0.197 NA
ENDBRANCH   1  33
TORSDOF 6
ENDMDL
