MODEL 1
REMARK VINA RESULT: -6.787731597      0.000      0.000
REMARK  3 active torsions:
REMARK  status: ('A' for Active; 'I' for Inactive)
REMARK    1  A    between atoms: N1_1  and  C1_4 
REMARK    2  A    between atoms: C1_4  and  C2_6 
REMARK       I    between atoms: C2_6  and  N3_8 
REMARK    3  A    between atoms: N3_8  and  C3_10 
ROOT
HETATM    1  C3  UNL     1      -1.166   9.371  11.123  1.00  0.00     0.192 A 
HETATM    2  N4  UNL     1       0.136   9.136  10.875  1.00  0.00    -0.277 N 
ATOM      3  H4  UNL     1       0.654   9.805  10.306  1.00  0.00     0.189 HD
HETATM    4  N5  UNL     1       0.772   8.070  11.342  1.00  0.00    -0.250 N 
ATOM      5  H5  UNL     1       1.760   7.946  11.120  1.00  0.00     0.192 HD
HETATM    6  C4  UNL     1       0.151   7.143  12.103  1.00  0.00     0.341 A 
HETATM    7  O2  UNL     1       0.772   6.134  12.539  1.00  0.00    -0.245 OA
HETATM    8  N6  UNL     1      -1.152   7.349  12.371  1.00  0.00    -0.271 N 
ATOM      9  H6  UNL     1      -1.653   6.669  12.943  1.00  0.00     0.174 HD
HETATM   10  C5  UNL     1      -1.822   8.438  11.899  1.00  0.00     0.295 A 
HETATM   11  O3  UNL     1      -3.030   8.634  12.144  1.00  0.00    -0.264 OA
ENDROOT
BRANCH   1  12
HETATM   12  N3  UNL     1      -1.691  10.417  10.635  1.00  0.00    -0.301 N 
HETATM   13  C2  UNL     1      -2.056  10.648   9.309  1.00  0.00     0.287 C 
HETATM   14  O1  UNL     1      -3.139  10.229   8.792  1.00  0.00    -0.264 OA
ATOM     15  H3  UNL     1      -1.867  11.179  11.289  1.00  0.00     0.171 HD
BRANCH  13  16
HETATM   16  C1  UNL     1      -1.163  11.409   8.450  1.00  0.00     0.178 C 
HETATM   17  N2  UNL     1      -0.823  10.909   7.158  1.00  0.00    -0.077 NA
BRANCH  16  18
HETATM   18  N1  UNL     1      -0.656  12.547   8.820  1.00  0.00    -0.383 N 
ATOM     19  H12 UNL     1      -0.252  13.201   8.151  1.00  0.00     0.157 HD
ATOM     20  H11 UNL     1      -0.670  12.779   9.813  1.00  0.00     0.157 HD
ENDBRANCH  16  18
ENDBRANCH  13  16
ENDBRANCH   1  12
TORSDOF 3
ENDMDL
MODEL 2
REMARK VINA RESULT: -6.669580449      2.186      4.924
REMARK  3 active torsions:
REMARK  status: ('A' for Active; 'I' for Inactive)
REMARK    1  A    between atoms: N1_1  and  C1_4 
REMARK    2  A    between atoms: C1_4  and  C2_6 
REMARK       I    between atoms: C2_6  and  N3_8 
REMARK    3  A    between atoms: N3_8  and  C3_10 
ROOT
HETATM    1  C3  UNL     1      -1.537   9.618  11.041  1.00  0.00     0.192 A 
HETATM    2  N4  UNL     1      -1.223  10.878  11.395  1.00  0.00    -0.277 N 
ATOM      3  H4  UNL     1      -1.657  11.275  12.229  1.00  0.00     0.189 HD
HETATM    4  N5  UNL     1      -0.373  11.625  10.703  1.00  0.00    -0.250 N 
ATOM      5  H5  UNL     1      -0.175  12.574  11.021  1.00  0.00     0.192 HD
HETATM    6  C4  UNL     1       0.240  11.167   9.590  1.00  0.00     0.341 A 
HETATM    7  O2  UNL     1       1.046  11.892   8.944  1.00  0.00    -0.245 OA
HETATM    8  N6  UNL     1      -0.052   9.909   9.209  1.00  0.00    -0.271 N 
ATOM      9  H6  UNL     1       0.392   9.530   8.373  1.00  0.00     0.174 HD
HETATM   10  C5  UNL     1      -0.923   9.127   9.907  1.00  0.00     0.295 A 
HETATM   11  O3  UNL     1      -1.197   7.961   9.559  1.00  0.00    -0.264 OA
ENDROOT
BRANCH   1  12
HETATM   12  N3  UNL     1      -2.360   8.980  11.763  1.00  0.00    -0.301 N 
HETATM   13  C2  UNL     1      -2.122   8.372  12.995  1.00  0.00     0.287 C 
HETATM   14  O1  UNL     1      -2.104   8.999  14.100  1.00  0.00    -0.264 OA
ATOM     15  H3  UNL     1      -3.310   8.901  11.400  1.00  0.00     0.171 HD
BRANCH  13  16
HETATM   16  C1  UNL     1      -1.876   6.939  13.043  1.00  0.00     0.178 C 
HETATM   17  N2  UNL     1      -2.592   6.126  13.971  1.00  0.00    -0.077 NA
BRANCH  16  18
HETATM   18  N1  UNL     1      -1.014   6.362  12.260  1.00  0.00    -0.383 N 
ATOM     19  H12 UNL     1      -0.082   6.746  12.107  1.00  0.00     0.157 HD
ATOM     20  H11 UNL     1      -1.292   5.500  11.791  1.00  0.00     0.157 HD
ENDBRANCH  16  18
ENDBRANCH  13  16
ENDBRANCH   1  12
TORSDOF 3
ENDMDL
MODEL 3
REMARK VINA RESULT: -6.669440234      1.837      4.938
REMARK  3 active torsions:
REMARK  status: ('A' for Active; 'I' for Inactive)
REMARK    1  A    between atoms: N1_1  and  C1_4 
REMARK    2  A    between atoms: C1_4  and  C2_6 
REMARK       I    between atoms: C2_6  and  N3_8 
REMARK    3  A    between atoms: N3_8  and  C3_10 
ROOT
HETATM    1  C3  UNL     1      -1.947   9.909  10.788  1.00  0.00     0.192 A 
HETATM    2  N4  UNL     1      -0.816  10.542  11.155  1.00  0.00    -0.277 N 
ATOM      3  H4  UNL     1      -0.397  10.311  12.056  1.00  0.00     0.189 HD
HETATM    4  N5  UNL     1      -0.227  11.452  10.392  1.00  0.00    -0.250 N 
ATOM      5  H5  UNL     1       0.628  11.898  10.724  1.00  0.00     0.192 HD
HETATM    6  C4  UNL     1      -0.724  11.807   9.188  1.00  0.00     0.341 A 
HETATM    7  O2  UNL     1      -0.150  12.676   8.475  1.00  0.00    -0.245 OA
HETATM    8  N6  UNL     1      -1.854  11.192   8.791  1.00  0.00    -0.271 N 
ATOM      9  H6  UNL     1      -2.258  11.435   7.887  1.00  0.00     0.174 HD
HETATM   10  C5  UNL     1      -2.474  10.254   9.561  1.00  0.00     0.295 A 
HETATM   11  O3  UNL     1      -3.521   9.681   9.198  1.00  0.00    -0.264 OA
ENDROOT
BRANCH   1  12
HETATM   12  N3  UNL     1      -2.440   9.053  11.583  1.00  0.00    -0.301 N 
HETATM   13  C2  UNL     1      -1.954   8.670  12.832  1.00  0.00     0.287 C 
HETATM   14  O1  UNL     1      -2.154   9.329  13.900  1.00  0.00    -0.264 OA
ATOM     15  H3  UNL     1      -3.293   8.590  11.271  1.00  0.00     0.171 HD
BRANCH  13  16
HETATM   16  C1  UNL     1      -1.170   7.450  12.945  1.00  0.00     0.178 C 
HETATM   17  N2  UNL     1      -1.821   6.208  13.206  1.00  0.00    -0.077 NA
BRANCH  16  18
HETATM   18  N1  UNL     1       0.123   7.449  12.815  1.00  0.00    -0.383 N 
ATOM     19  H12 UNL     1       0.736   7.024  13.511  1.00  0.00     0.157 HD
ATOM     20  H11 UNL     1       0.524   7.890  11.987  1.00  0.00     0.157 HD
ENDBRANCH  16  18
ENDBRANCH  13  16
ENDBRANCH   1  12
TORSDOF 3
ENDMDL
MODEL 4
REMARK VINA RESULT: -6.576016789      2.166      2.530
REMARK  3 active torsions:
REMARK  status: ('A' for Active; 'I' for Inactive)
REMARK    1  A    between atoms: N1_1  and  C1_4 
REMARK    2  A    between atoms: C1_4  and  C2_6 
REMARK       I    between atoms: C2_6  and  N3_8 
REMARK    3  A    between atoms: N3_8  and  C3_10 
ROOT
HETATM    1  C3  UNL     1      -0.173   8.160  10.431  1.00  0.00     0.192 A 
HETATM    2  N4  UNL     1      -0.222   7.884   9.115  1.00  0.00    -0.277 N 
ATOM      3  H4  UNL     1      -0.553   8.607   8.475  1.00  0.00     0.189 HD
HETATM    4  N5  UNL     1       0.142   6.710   8.616  1.00  0.00    -0.250 N 
ATOM      5  H5  UNL     1       0.082   6.560   7.609  1.00  0.00     0.192 HD
HETATM    6  C4  UNL     1       0.590   5.707   9.401  1.00  0.00     0.341 A 
HETATM    7  O2  UNL     1       0.932   4.596   8.910  1.00  0.00    -0.245 OA
HETATM    8  N6  UNL     1       0.652   5.952  10.724  1.00  0.00    -0.271 N 
ATOM      9  H6  UNL     1       0.985   5.217  11.347  1.00  0.00     0.174 HD
HETATM   10  C5  UNL     1       0.282   7.151  11.255  1.00  0.00     0.295 A 
HETATM   11  O3  UNL     1       0.337   7.383  12.479  1.00  0.00    -0.264 OA
ENDROOT
BRANCH   1  12
HETATM   12  N3  UNL     1      -0.542   9.311  10.817  1.00  0.00    -0.301 N 
HETATM   13  C2  UNL     1      -0.874  10.409  10.026  1.00  0.00     0.287 C 
HETATM   14  O1  UNL     1      -2.008  10.564   9.473  1.00  0.00    -0.264 OA
ATOM     15  H3  UNL     1      -0.602   9.448  11.825  1.00  0.00     0.171 HD
BRANCH  13  16
HETATM   16  C1  UNL     1       0.117  11.451   9.805  1.00  0.00     0.178 C 
HETATM   17  N2  UNL     1       0.766  11.558   8.539  1.00  0.00    -0.077 NA
BRANCH  16  18
HETATM   18  N1  UNL     1       0.439  12.302  10.733  1.00  0.00    -0.383 N 
ATOM     19  H12 UNL     1       1.196  12.973  10.611  1.00  0.00     0.157 HD
ATOM     20  H11 UNL     1      -0.091  12.286  11.605  1.00  0.00     0.157 HD
ENDBRANCH  16  18
ENDBRANCH  13  16
ENDBRANCH   1  12
TORSDOF 3
ENDMDL
MODEL 5
REMARK VINA RESULT: -6.567110264      1.927      2.477
REMARK  3 active torsions:
REMARK  status: ('A' for Active; 'I' for Inactive)
REMARK    1  A    between atoms: N1_1  and  C1_4 
REMARK    2  A    between atoms: C1_4  and  C2_6 
REMARK       I    between atoms: C2_6  and  N3_8 
REMARK    3  A    between atoms: N3_8  and  C3_10 
ROOT
HETATM    1  C3  UNL     1      -0.914   8.734  11.237  1.00  0.00     0.192 A 
HETATM    2  N4  UNL     1      -1.348   9.619  12.153  1.00  0.00    -0.277 N 
ATOM      3  H4  UNL     1      -1.231  10.614  11.966  1.00  0.00     0.189 HD
HETATM    4  N5  UNL     1      -1.923   9.247  13.290  1.00  0.00    -0.250 N 
ATOM      5  H5  UNL     1      -2.231   9.965  13.946  1.00  0.00     0.192 HD
HETATM    6  C4  UNL     1      -2.112   7.948  13.605  1.00  0.00     0.341 A 
HETATM    7  O2  UNL     1      -2.660   7.613  14.691  1.00  0.00    -0.245 OA
HETATM    8  N6  UNL     1      -1.688   7.037  12.709  1.00  0.00    -0.271 N 
ATOM      9  H6  UNL     1      -1.815   6.046  12.914  1.00  0.00     0.174 HD
HETATM   10  C5  UNL     1      -1.096   7.399  11.536  1.00  0.00     0.295 A 
HETATM   11  O3  UNL     1      -0.702   6.559  10.702  1.00  0.00    -0.264 OA
ENDROOT
BRANCH   1  12
HETATM   12  N3  UNL     1      -0.376   9.180  10.179  1.00  0.00    -0.301 N 
HETATM   13  C2  UNL     1      -0.343  10.500   9.732  1.00  0.00     0.287 C 
HETATM   14  O1  UNL     1       0.481  11.370  10.156  1.00  0.00    -0.264 OA
ATOM     15  H3  UNL     1       0.087   8.493   9.586  1.00  0.00     0.171 HD
BRANCH  13  16
HETATM   16  C1  UNL     1      -1.298  10.931   8.722  1.00  0.00     0.178 C 
HETATM   17  N2  UNL     1      -0.915  10.958   7.348  1.00  0.00    -0.077 NA
BRANCH  16  18
HETATM   18  N1  UNL     1      -2.506  11.298   9.029  1.00  0.00    -0.383 N 
ATOM     19  H12 UNL     1      -3.261  10.623   9.148  1.00  0.00     0.157 HD
ATOM     20  H11 UNL     1      -2.690  12.293   9.152  1.00  0.00     0.157 HD
ENDBRANCH  16  18
ENDBRANCH  13  16
ENDBRANCH   1  12
TORSDOF 3
ENDMDL
