MODEL 1
REMARK VINA RESULT: -6.258095364      0.000      0.000
REMARK  1 active torsions:
REMARK  status: ('A' for Active; 'I' for Inactive)
REMARK       I    between atoms: C1_4  and  N3_6 
REMARK    1  A    between atoms: N5_11  and  N6_12 
ROOT
HETATM    1  N1  UNL     1       0.383  12.082  10.068  1.00  0.00    -0.371 N 
ATOM      2  H11 UNL     1       0.692  11.894  11.022  1.00  0.00     0.158 HD
ATOM      3  H12 UNL     1       0.499  13.003   9.645  1.00  0.00     0.158 HD
HETATM    4  C1  UNL     1      -0.162  11.154   9.375  1.00  0.00     0.224 C 
HETATM    5  N2  UNL     1      -0.586  11.413   8.064  1.00  0.00    -0.060 NA
HETATM    6  N3  UNL     1      -0.321   9.882   9.960  1.00  0.00    -0.159 N 
HETATM    7  N4  UNL     1      -1.019   9.777  11.159  1.00  0.00    -0.226 N 
ATOM      8  H4  UNL     1      -1.405  10.613  11.597  1.00  0.00     0.194 HD
HETATM    9  C2  UNL     1      -1.198   8.498  11.778  1.00  0.00     0.363 A 
HETATM   10  O1  UNL     1      -1.824   8.373  12.860  1.00  0.00    -0.243 OA
HETATM   11  N5  UNL     1      -0.668   7.328  11.181  1.00  0.00    -0.182 N 
HETATM   12  C3  UNL     1       0.039   7.450   9.963  1.00  0.00     0.217 A 
HETATM   13  S1  UNL     1       0.645   6.105   9.281  1.00  0.00    -0.037 SA
HETATM   14  N7  UNL     1       0.209   8.747   9.354  1.00  0.00    -0.250 N 
ATOM     15  H7  UNL     1       0.719   8.832   8.475  1.00  0.00     0.191 HD
ENDROOT
BRANCH  11  16
HETATM   16  N6  UNL     1      -0.856   6.101  11.804  1.00  0.00    -0.332 N 
ATOM     17  H62 UNL     1      -1.599   5.948  12.485  1.00  0.00     0.177 HD
ATOM     18  H61 UNL     1      -0.235   5.325  11.577  1.00  0.00     0.177 HD
ENDBRANCH  11  16
TORSDOF 1
ENDMDL
MODEL 2
REMARK VINA RESULT: -6.211208438      2.628      4.401
REMARK  1 active torsions:
REMARK  status: ('A' for Active; 'I' for Inactive)
REMARK       I    between atoms: C1_4  and  N3_6 
REMARK    1  A    between atoms: N5_11  and  N6_12 
ROOT
HETATM    1  N1  UNL     1       0.684   7.218  12.176  1.00  0.00    -0.371 N 
ATOM      2  H11 UNL     1       0.653   8.091  12.703  1.00  0.00     0.158 HD
ATOM      3  H12 UNL     1       1.006   6.350  12.604  1.00  0.00     0.158 HD
HETATM    4  C1  UNL     1       0.315   7.197  10.950  1.00  0.00     0.224 C 
HETATM    5  N2  UNL     1       0.358   5.997  10.225  1.00  0.00    -0.060 NA
HETATM    6  N3  UNL     1      -0.130   8.396  10.359  1.00  0.00    -0.159 N 
HETATM    7  N4  UNL     1       0.712   9.503  10.373  1.00  0.00    -0.226 N 
ATOM      8  H4  UNL     1       1.633   9.437  10.807  1.00  0.00     0.194 HD
HETATM    9  C2  UNL     1       0.289  10.737   9.780  1.00  0.00     0.363 A 
HETATM   10  O1  UNL     1       1.028  11.752   9.778  1.00  0.00    -0.243 OA
HETATM   11  N5  UNL     1      -0.987  10.845   9.174  1.00  0.00    -0.182 N 
HETATM   12  C3  UNL     1      -1.831   9.711   9.167  1.00  0.00     0.217 A 
HETATM   13  S1  UNL     1      -3.294   9.840   8.471  1.00  0.00    -0.037 SA
HETATM   14  N7  UNL     1      -1.387   8.477   9.769  1.00  0.00    -0.250 N 
ATOM     15  H7  UNL     1      -1.999   7.661   9.763  1.00  0.00     0.191 HD
ENDROOT
BRANCH  11  16
HETATM   16  N6  UNL     1      -1.370  12.053   8.608  1.00  0.00    -0.332 N 
ATOM     17  H62 UNL     1      -1.467  12.172   7.600  1.00  0.00     0.177 HD
ATOM     18  H61 UNL     1      -1.563  12.850   9.214  1.00  0.00     0.177 HD
ENDBRANCH  11  16
TORSDOF 1
ENDMDL
MODEL 3
REMARK VINA RESULT: -6.203040711      2.015      2.624
REMARK  1 active torsions:
REMARK  status: ('A' for Active; 'I' for Inactive)
REMARK       I    between atoms: C1_4  and  N3_6 
REMARK    1  A    between atoms: N5_11  and  N6_12 
ROOT
HETATM    1  N1  UNL     1      -0.492  11.413   8.158  1.00  0.00    -0.371 N 
ATOM      2  H11 UNL     1      -1.034  10.702   7.666  1.00  0.00     0.158 HD
ATOM      3  H12 UNL     1      -0.357  12.345   7.765  1.00  0.00     0.158 HD
HETATM    4  C1  UNL     1       0.034  11.145   9.294  1.00  0.00     0.224 C 
HETATM    5  N2  UNL     1       0.779  12.122   9.971  1.00  0.00    -0.060 NA
HETATM    6  N3  UNL     1      -0.152   9.858   9.836  1.00  0.00    -0.159 N 
HETATM    7  N4  UNL     1       0.232   8.751   9.086  1.00  0.00    -0.226 N 
ATOM      8  H4  UNL     1       0.641   8.881   8.161  1.00  0.00     0.194 HD
HETATM    9  C2  UNL     1       0.055   7.430   9.610  1.00  0.00     0.363 A 
HETATM   10  O1  UNL     1       0.393   6.413   8.955  1.00  0.00    -0.243 OA
HETATM   11  N5  UNL     1      -0.511   7.233  10.893  1.00  0.00    -0.182 N 
HETATM   12  C3  UNL     1      -0.897   8.368  11.643  1.00  0.00     0.217 A 
HETATM   13  S1  UNL     1      -1.547   8.137  13.116  1.00  0.00    -0.037 SA
HETATM   14  N7  UNL     1      -0.711   9.691  11.100  1.00  0.00    -0.250 N 
ATOM     15  H7  UNL     1      -0.990  10.507  11.643  1.00  0.00     0.191 HD
ENDROOT
BRANCH  11  16
HETATM   16  N6  UNL     1      -0.672   5.941  11.375  1.00  0.00    -0.332 N 
ATOM     17  H62 UNL     1      -0.719   5.133  10.755  1.00  0.00     0.177 HD
ATOM     18  H61 UNL     1      -0.744   5.789  12.381  1.00  0.00     0.177 HD
ENDBRANCH  11  16
TORSDOF 1
ENDMDL
MODEL 4
REMARK VINA RESULT: -5.911308116      1.069      1.069
REMARK  1 active torsions:
REMARK  status: ('A' for Active; 'I' for Inactive)
REMARK       I    between atoms: C1_4  and  N3_6 
REMARK    1  A    between atoms: N5_11  and  N6_12 
ROOT
HETATM    1  N1  UNL     1      -0.609  11.602   9.364  1.00  0.00    -0.371 N 
ATOM      2  H11 UNL     1       0.066  11.559  10.127  1.00  0.00     0.158 HD
ATOM      3  H12 UNL     1      -0.705  12.436   8.786  1.00  0.00     0.158 HD
HETATM    4  C1  UNL     1      -1.358  10.594   9.114  1.00  0.00     0.224 C 
HETATM    5  N2  UNL     1      -2.287  10.653   8.064  1.00  0.00    -0.060 NA
HETATM    6  N3  UNL     1      -1.226   9.441   9.912  1.00  0.00    -0.159 N 
HETATM    7  N4  UNL     1      -1.373   9.558  11.291  1.00  0.00    -0.226 N 
ATOM      8  H4  UNL     1      -1.574  10.469  11.705  1.00  0.00     0.194 HD
HETATM    9  C2  UNL     1      -1.244   8.404  12.129  1.00  0.00     0.363 A 
HETATM   10  O1  UNL     1      -1.372   8.481  13.376  1.00  0.00    -0.243 OA
HETATM   11  N5  UNL     1      -0.965   7.134  11.569  1.00  0.00    -0.182 N 
HETATM   12  C3  UNL     1      -0.818   7.030  10.167  1.00  0.00     0.217 A 
HETATM   13  S1  UNL     1      -0.497   5.570   9.528  1.00  0.00    -0.037 SA
HETATM   14  N7  UNL     1      -0.952   8.203   9.338  1.00  0.00    -0.250 N 
ATOM     15  H7  UNL     1      -0.845   8.125   8.327  1.00  0.00     0.191 HD
ENDROOT
BRANCH  11  16
HETATM   16  N6  UNL     1      -0.844   6.032  12.406  1.00  0.00    -0.332 N 
ATOM     17  H62 UNL     1      -1.542   5.813  13.117  1.00  0.00     0.177 HD
ATOM     18  H61 UNL     1      -0.034   5.420  12.312  1.00  0.00     0.177 HD
ENDBRANCH  11  16
TORSDOF 1
ENDMDL
MODEL 5
REMARK VINA RESULT: -5.831664321      2.260      2.783
REMARK  1 active torsions:
REMARK  status: ('A' for Active; 'I' for Inactive)
REMARK       I    between atoms: C1_4  and  N3_6 
REMARK    1  A    between atoms: N5_11  and  N6_12 
ROOT
HETATM    1  N1  UNL     1      -1.174   9.915   7.880  1.00  0.00    -0.371 N 
ATOM      2  H11 UNL     1      -1.876   9.188   7.742  1.00  0.00     0.158 HD
ATOM      3  H12 UNL     1      -1.070  10.685   7.219  1.00  0.00     0.158 HD
HETATM    4  C1  UNL     1      -0.400   9.875   8.900  1.00  0.00     0.224 C 
HETATM    5  N2  UNL     1       0.565  10.875   9.089  1.00  0.00    -0.060 NA
HETATM    6  N3  UNL     1      -0.544   8.812   9.813  1.00  0.00    -0.159 N 
HETATM    7  N4  UNL     1      -0.449   7.506   9.343  1.00  0.00    -0.226 N 
ATOM      8  H4  UNL     1      -0.278   7.333   8.352  1.00  0.00     0.194 HD
HETATM    9  C2  UNL     1      -0.591   6.404  10.247  1.00  0.00     0.363 A 
HETATM   10  O1  UNL     1      -0.509   5.215   9.850  1.00  0.00    -0.243 OA
HETATM   11  N5  UNL     1      -0.829   6.628  11.625  1.00  0.00    -0.182 N 
HETATM   12  C3  UNL     1      -0.923   7.960  12.087  1.00  0.00     0.217 A 
HETATM   13  S1  UNL     1      -1.197   8.213  13.670  1.00  0.00    -0.037 SA
HETATM   14  N7  UNL     1      -0.777   9.058  11.162  1.00  0.00    -0.250 N 
ATOM     15  H7  UNL     1      -0.845  10.018  11.499  1.00  0.00     0.191 HD
ENDROOT
BRANCH  11  16
HETATM   16  N6  UNL     1      -0.963   5.540  12.478  1.00  0.00    -0.332 N 
ATOM     17  H62 UNL     1      -0.589   4.620  12.245  1.00  0.00     0.177 HD
ATOM     18  H61 UNL     1      -1.449   5.659  13.366  1.00  0.00     0.177 HD
ENDBRANCH  11  16
TORSDOF 1
ENDMDL
