MODEL 1
REMARK VINA RESULT: -6.319541926      0.000      0.000
REMARK  3 active torsions:
REMARK  status: ('A' for Active; 'I' for Inactive)
REMARK    1  A    between atoms: N1_2  and  C2_4 
REMARK    2  A    between atoms: C3_9  and  N4_10 
REMARK       I    between atoms: N4_10  and  C4_12 
REMARK    3  A    between atoms: N7_17  and  N8_18 
ROOT
HETATM    1  C2  UNL     1      -0.475   8.020  11.249  1.00  0.00     0.728 A 
HETATM    2  N2  UNL     1      -1.008   8.853  12.199  1.00  0.00    -0.116 N 
ATOM      3  H2  UNL     1      -0.979   8.687  13.205  1.00  0.00     0.206 HD
HETATM    4  N3  UNL     1      -1.562   9.899  11.618  1.00  0.00    -0.115 N 
ATOM      5  H3  UNL     1      -2.027  10.667  12.104  1.00  0.00     0.206 HD
HETATM    6  C3  UNL     1      -1.419   9.796  10.285  1.00  0.00     0.735 A 
HETATM    7  N7  UNL     1      -0.753   8.645  10.083  1.00  0.00     0.086 N 
ENDROOT
BRANCH   6   8
HETATM    8  N4  UNL     1      -1.835  10.633   9.403  1.00  0.00    -0.160 N 
HETATM    9  C4  UNL     1      -1.071  11.370   8.500  1.00  0.00     0.200 C 
HETATM   10  N5  UNL     1      -0.542  12.528   8.729  1.00  0.00    -0.373 N 
HETATM   11  N6  UNL     1      -0.841  10.813   7.191  1.00  0.00    -0.063 NA
ATOM     12  H52 UNL     1      -0.705  12.922   9.656  1.00  0.00     0.158 HD
ATOM     13  H51 UNL     1       0.017  13.068   8.069  1.00  0.00     0.158 HD
ATOM     14  H4  UNL     1      -2.844  10.774   9.358  1.00  0.00     0.187 HD
ENDBRANCH   6   8
BRANCH   7  15
HETATM   15  N8  UNL     1      -0.410   8.183   8.810  1.00  0.00    -0.309 N 
ATOM     16  H82 UNL     1      -0.518   8.749   7.968  1.00  0.00     0.178 HD
ATOM     17  H81 UNL     1      -0.028   7.261   8.595  1.00  0.00     0.178 HD
ENDBRANCH   7  15
BRANCH   1  18
HETATM   18  N1  UNL     1       0.138   6.909  11.475  1.00  0.00    -0.227 N 
HETATM   19  C1  UNL     1       0.387   6.475  12.828  1.00  0.00     0.165 C 
ATOM     20  H1  UNL     1       0.449   6.334  10.692  1.00  0.00     0.177 HD
ENDBRANCH   1  18
TORSDOF 3
ENDMDL
MODEL 2
REMARK VINA RESULT: -6.076882574      4.259      6.969
REMARK  3 active torsions:
REMARK  status: ('A' for Active; 'I' for Inactive)
REMARK    1  A    between atoms: N1_2  and  C2_4 
REMARK    2  A    between atoms: C3_9  and  N4_10 
REMARK       I    between atoms: N4_10  and  C4_12 
REMARK    3  A    between atoms: N7_17  and  N8_18 
ROOT
HETATM    1  C2  UNL     1      -1.309   8.328  13.886  1.00  0.00     0.728 A 
HETATM    2  N2  UNL     1      -1.884   9.394  14.528  1.00  0.00    -0.116 N 
ATOM      3  H2  UNL     1      -1.930  10.344  14.160  1.00  0.00     0.206 HD
HETATM    4  N3  UNL     1      -2.369   9.008  15.692  1.00  0.00    -0.115 N 
ATOM      5  H3  UNL     1      -2.847   9.611  16.362  1.00  0.00     0.206 HD
HETATM    6  C3  UNL     1      -2.134   7.694  15.858  1.00  0.00     0.735 A 
HETATM    7  N7  UNL     1      -1.489   7.300  14.745  1.00  0.00     0.086 N 
ENDROOT
BRANCH   6   8
HETATM    8  N4  UNL     1      -2.466   6.979  16.872  1.00  0.00    -0.160 N 
HETATM    9  C4  UNL     1      -3.565   6.129  16.994  1.00  0.00     0.200 C 
HETATM   10  N5  UNL     1      -4.746   6.476  17.391  1.00  0.00    -0.373 N 
HETATM   11  N6  UNL     1      -3.389   4.739  16.656  1.00  0.00    -0.063 NA
ATOM     12  H52 UNL     1      -4.870   7.460  17.629  1.00  0.00     0.158 HD
ATOM     13  H51 UNL     1      -5.550   5.854  17.480  1.00  0.00     0.158 HD
ATOM     14  H4  UNL     1      -1.854   7.040  17.685  1.00  0.00     0.187 HD
ENDBRANCH   6   8
BRANCH   7  15
HETATM   15  N8  UNL     1      -1.070   5.983  14.539  1.00  0.00    -0.309 N 
ATOM     16  H82 UNL     1      -0.559   5.690  13.706  1.00  0.00     0.178 HD
ATOM     17  H81 UNL     1      -1.227   5.203  15.177  1.00  0.00     0.178 HD
ENDBRANCH   7  15
BRANCH   1  18
HETATM   18  N1  UNL     1      -0.741   8.358  12.729  1.00  0.00    -0.227 N 
HETATM   19  C1  UNL     1      -1.490   8.748  11.559  1.00  0.00     0.165 C 
ATOM     20  H1  UNL     1       0.243   8.104  12.640  1.00  0.00     0.177 HD
ENDBRANCH   1  18
TORSDOF 3
ENDMDL
MODEL 3
REMARK VINA RESULT: -5.998627368      1.275      1.353
REMARK  3 active torsions:
REMARK  status: ('A' for Active; 'I' for Inactive)
REMARK    1  A    between atoms: N1_2  and  C2_4 
REMARK    2  A    between atoms: C3_9  and  N4_10 
REMARK       I    between atoms: N4_10  and  C4_12 
REMARK    3  A    between atoms: N7_17  and  N8_18 
ROOT
HETATM    1  C2  UNL     1       0.543   7.391  11.042  1.00  0.00     0.728 A 
HETATM    2  N2  UNL     1      -0.009   8.343  11.859  1.00  0.00    -0.116 N 
ATOM      3  H2  UNL     1       0.213   8.467  12.846  1.00  0.00     0.206 HD
HETATM    4  N3  UNL     1      -0.869   9.075  11.177  1.00  0.00    -0.115 N 
ATOM      5  H3  UNL     1      -1.413   9.851  11.555  1.00  0.00     0.206 HD
HETATM    6  C3  UNL     1      -0.915   8.638   9.906  1.00  0.00     0.735 A 
HETATM    7  N7  UNL     1      -0.047   7.613   9.846  1.00  0.00     0.086 N 
ENDROOT
BRANCH   6   8
HETATM    8  N4  UNL     1      -1.642   9.114   8.959  1.00  0.00    -0.160 N 
HETATM    9  C4  UNL     1      -1.662  10.421   8.474  1.00  0.00     0.200 C 
HETATM   10  N5  UNL     1      -2.387  11.387   8.938  1.00  0.00    -0.373 N 
HETATM   11  N6  UNL     1      -0.811  10.744   7.357  1.00  0.00    -0.063 NA
ATOM     12  H52 UNL     1      -2.989  11.158   9.729  1.00  0.00     0.158 HD
ATOM     13  H51 UNL     1      -2.402  12.343   8.583  1.00  0.00     0.158 HD
ATOM     14  H4  UNL     1      -2.280   8.458   8.509  1.00  0.00     0.187 HD
ENDBRANCH   6   8
BRANCH   7  15
HETATM   15  N8  UNL     1       0.189   6.889   8.674  1.00  0.00    -0.309 N 
ATOM     16  H82 UNL     1      -0.548   6.396   8.171  1.00  0.00     0.178 HD
ATOM     17  H81 UNL     1       1.094   6.781   8.215  1.00  0.00     0.178 HD
ENDBRANCH   7  15
BRANCH   1  18
HETATM   18  N1  UNL     1       1.419   6.512  11.389  1.00  0.00    -0.227 N 
HETATM   19  C1  UNL     1       1.041   5.393  12.219  1.00  0.00     0.165 C 
ATOM     20  H1  UNL     1       2.385   6.607  11.076  1.00  0.00     0.177 HD
ENDBRANCH   1  18
TORSDOF 3
ENDMDL
MODEL 4
REMARK VINA RESULT: -5.985083167      1.469      1.740
REMARK  3 active torsions:
REMARK  status: ('A' for Active; 'I' for Inactive)
REMARK    1  A    between atoms: N1_2  and  C2_4 
REMARK    2  A    between atoms: C3_9  and  N4_10 
REMARK       I    between atoms: N4_10  and  C4_12 
REMARK    3  A    between atoms: N7_17  and  N8_18 
ROOT
HETATM    1  C2  UNL     1      -0.885   7.328  11.726  1.00  0.00     0.728 A 
HETATM    2  N2  UNL     1      -0.736   8.637  12.107  1.00  0.00    -0.116 N 
ATOM      3  H2  UNL     1      -0.745   8.971  13.071  1.00  0.00     0.206 HD
HETATM    4  N3  UNL     1      -0.581   9.399  11.042  1.00  0.00    -0.115 N 
ATOM      5  H3  UNL     1      -0.450  10.410  11.054  1.00  0.00     0.206 HD
HETATM    6  C3  UNL     1      -0.621   8.633   9.937  1.00  0.00     0.735 A 
HETATM    7  N7  UNL     1      -0.806   7.375  10.378  1.00  0.00     0.086 N 
ENDROOT
BRANCH   6   8
HETATM    8  N4  UNL     1      -0.503   9.034   8.723  1.00  0.00    -0.160 N 
HETATM    9  C4  UNL     1      -1.001  10.209   8.161  1.00  0.00     0.200 C 
HETATM   10  N5  UNL     1      -2.179  10.359   7.646  1.00  0.00    -0.373 N 
HETATM   11  N6  UNL     1      -0.144  11.367   8.138  1.00  0.00    -0.063 NA
ATOM     12  H52 UNL     1      -2.784   9.538   7.662  1.00  0.00     0.158 HD
ATOM     13  H51 UNL     1      -2.543  11.218   7.235  1.00  0.00     0.158 HD
ATOM     14  H4  UNL     1       0.016   8.421   8.095  1.00  0.00     0.187 HD
ENDBRANCH   6   8
BRANCH   7  15
HETATM   15  N8  UNL     1      -0.901   6.278   9.518  1.00  0.00    -0.309 N 
ATOM     16  H82 UNL     1      -1.658   5.597   9.573  1.00  0.00     0.178 HD
ATOM     17  H81 UNL     1      -0.245   6.051   8.770  1.00  0.00     0.178 HD
ENDBRANCH   7  15
BRANCH   1  18
HETATM   18  N1  UNL     1      -1.058   6.325  12.517  1.00  0.00    -0.227 N 
HETATM   19  C1  UNL     1      -1.978   6.419  13.624  1.00  0.00     0.165 C 
ATOM     20  H1  UNL     1      -0.540   5.461  12.360  1.00  0.00     0.177 HD
ENDBRANCH   1  18
TORSDOF 3
ENDMDL
MODEL 5
REMARK VINA RESULT: -5.917590746      1.104      2.045
REMARK  3 active torsions:
REMARK  status: ('A' for Active; 'I' for Inactive)
REMARK    1  A    between atoms: N1_2  and  C2_4 
REMARK    2  A    between atoms: C3_9  and  N4_10 
REMARK       I    between atoms: N4_10  and  C4_12 
REMARK    3  A    between atoms: N7_17  and  N8_18 
ROOT
HETATM    1  C2  UNL     1      -0.537   7.185  10.706  1.00  0.00     0.728 A 
HETATM    2  N2  UNL     1      -0.252   7.065   9.370  1.00  0.00    -0.116 N 
ATOM      3  H2  UNL     1       0.024   6.199   8.907  1.00  0.00     0.206 HD
HETATM    4  N3  UNL     1      -0.388   8.234   8.775  1.00  0.00    -0.115 N 
ATOM      5  H3  UNL     1      -0.235   8.413   7.783  1.00  0.00     0.206 HD
HETATM    6  C3  UNL     1      -0.761   9.154   9.683  1.00  0.00     0.735 A 
HETATM    7  N7  UNL     1      -0.847   8.493  10.851  1.00  0.00     0.086 N 
ENDROOT
BRANCH   6   8
HETATM    8  N4  UNL     1      -0.987  10.399   9.462  1.00  0.00    -0.160 N 
HETATM    9  C4  UNL     1      -0.053  11.429   9.360  1.00  0.00     0.200 C 
HETATM   10  N5  UNL     1       0.411  12.127  10.345  1.00  0.00    -0.373 N 
HETATM   11  N6  UNL     1       0.448  11.764   8.051  1.00  0.00    -0.063 NA
ATOM     12  H52 UNL     1       0.056  11.890  11.271  1.00  0.00     0.158 HD
ATOM     13  H51 UNL     1       1.094  12.881  10.271  1.00  0.00     0.158 HD
ATOM     14  H4  UNL     1      -1.964  10.666   9.348  1.00  0.00     0.187 HD
ENDBRANCH   6   8
BRANCH   7  15
HETATM   15  N8  UNL     1      -1.213   9.115  12.047  1.00  0.00    -0.309 N 
ATOM     16  H82 UNL     1      -1.301   8.609  12.929  1.00  0.00     0.178 HD
ATOM     17  H81 UNL     1      -1.425  10.107  12.161  1.00  0.00     0.178 HD
ENDBRANCH   7  15
BRANCH   1  18
HETATM   18  N1  UNL     1      -0.501   6.235  11.576  1.00  0.00    -0.227 N 
HETATM   19  C1  UNL     1       0.750   5.844  12.179  1.00  0.00     0.165 C 
ATOM     20  H1  UNL     1      -1.363   5.756  11.839  1.00  0.00     0.177 HD
ENDBRANCH   1  18
TORSDOF 3
ENDMDL
