MODEL 1
REMARK VINA RESULT: -6.367684745      0.000      0.000
REMARK  10 active torsions:
REMARK  status: ('A' for Active; 'I' for Inactive)
REMARK    1  A    between atoms: C2_2  and  C3_3 
REMARK    2  A    between atoms: C2_2  and  C4_6 
REMARK    3  A    between atoms: C3_3  and  O1_4 
REMARK    4  A    between atoms: C7_9  and  O2_10 
REMARK    5  A    between atoms: C10_14  and  O3_15 
REMARK    6  A    between atoms: O3_15  and  C11_16 
REMARK    7  A    between atoms: C12_18  and  O5_19 
REMARK    8  A    between atoms: C13_21  and  O6_22 
REMARK    9  A    between atoms: C14_24  and  O7_25 
REMARK   10  A    between atoms: C17_29  and  O8_30 
ROOT
HETATM    1  C4  UNL     1       2.149  18.588   1.019  1.00  0.00     0.152 C 
HETATM    2  C5  UNL     1       2.970  19.394   2.037  1.00  0.00     0.040 C 
HETATM    3  C6  UNL     1       3.565  18.388   2.955  1.00  0.00     0.046 C 
HETATM    4  C7  UNL     1       2.672  17.189   3.215  1.00  0.00     0.110 C 
HETATM    5  C8  UNL     1       1.262  17.376   2.792  1.00  0.00     0.161 C 
HETATM    6  C9  UNL     1       0.376  17.936   3.907  1.00  0.00     0.067 C 
HETATM    7  C10 UNL     1       0.385  16.858   4.980  1.00  0.00     0.133 C 
HETATM    8  C15 UNL     1       1.749  16.876   5.562  1.00  0.00     0.042 C 
HETATM    9  C16 UNL     1       1.810  15.765   6.619  1.00  0.00     0.015 C 
HETATM   10  C17 UNL     1       2.893  16.760   4.617  1.00  0.00     0.161 C 
HETATM   11  O9  UNL     1       1.036  18.178   1.715  1.00  0.00    -0.373 OA
ENDROOT
BRANCH   7  12
HETATM   12  O3  UNL     1      -0.518  17.240   5.988  1.00  0.00    -0.353 OA
BRANCH  12  13
HETATM   13  C11 UNL     1      -1.405  18.157   5.435  1.00  0.00     0.294 C 
HETATM   14  O4  UNL     1      -1.444  19.228   6.319  1.00  0.00    -0.326 OA
HETATM   15  C12 UNL     1      -2.714  19.763   6.275  1.00  0.00     0.291 C 
HETATM   16  C13 UNL     1      -3.654  18.744   5.691  1.00  0.00     0.206 C 
HETATM   17  C14 UNL     1      -2.766  17.555   5.398  1.00  0.00     0.207 C 
BRANCH  15  18
HETATM   18  O5  UNL     1      -2.659  20.907   5.455  1.00  0.00    -0.368 OA
ATOM     19  H5  UNL     1      -3.221  21.564   5.849  1.00  0.00     0.212 HD
ENDBRANCH  15  18
BRANCH  16  20
HETATM   20  O6  UNL     1      -4.651  18.437   6.603  1.00  0.00    -0.388 OA
ATOM     21  H6  UNL     1      -5.506  18.556   6.206  1.00  0.00     0.210 HD
ENDBRANCH  16  20
BRANCH  17  22
HETATM   22  O7  UNL     1      -2.947  16.539   6.335  1.00  0.00    -0.388 OA
ATOM     23  H7  UNL     1      -3.462  16.807   7.086  1.00  0.00     0.210 HD
ENDBRANCH  17  22
ENDBRANCH  12  13
ENDBRANCH   7  12
BRANCH  10  24
HETATM   24  O8  UNL     1       3.345  15.415   4.706  1.00  0.00    -0.392 OA
ATOM     25  H8  UNL     1       2.820  14.896   5.304  1.00  0.00     0.210 HD
ENDBRANCH  10  24
BRANCH   4  26
HETATM   26  O2  UNL     1       3.196  16.162   2.398  1.00  0.00    -0.385 OA
ATOM     27  H2  UNL     1       4.134  16.190   2.544  1.00  0.00     0.210 HD
ENDBRANCH   4  26
BRANCH   1  28
HETATM   28  C2  UNL     1       1.722  19.552  -0.017  1.00  0.00    -0.037 C 
HETATM   29  C1  UNL     1       2.005  20.832   0.153  1.00  0.00     0.019 C 
BRANCH  28  30
HETATM   30  C3  UNL     1       0.987  19.092  -1.224  1.00  0.00     0.200 C 
BRANCH  30  31
HETATM   31  O1  UNL     1       1.344  17.768  -1.479  1.00  0.00    -0.397 OA
ATOM     32  H1  UNL     1       0.693  17.388  -2.057  1.00  0.00     0.209 HD
ENDBRANCH  30  31
ENDBRANCH  28  30
ENDBRANCH   1  28
TORSDOF 10
ENDMDL
MODEL 2
REMARK VINA RESULT: -6.194643811      1.118      1.331
REMARK  10 active torsions:
REMARK  status: ('A' for Active; 'I' for Inactive)
REMARK    1  A    between atoms: C2_2  and  C3_3 
REMARK    2  A    between atoms: C2_2  and  C4_6 
REMARK    3  A    between atoms: C3_3  and  O1_4 
REMARK    4  A    between atoms: C7_9  and  O2_10 
REMARK    5  A    between atoms: C10_14  and  O3_15 
REMARK    6  A    between atoms: O3_15  and  C11_16 
REMARK    7  A    between atoms: C12_18  and  O5_19 
REMARK    8  A    between atoms: C13_21  and  O6_22 
REMARK    9  A    between atoms: C14_24  and  O7_25 
REMARK   10  A    between atoms: C17_29  and  O8_30 
ROOT
HETATM    1  C4  UNL     1       2.296  19.353   1.239  1.00  0.00     0.152 C 
HETATM    2  C5  UNL     1       3.137  19.955   2.375  1.00  0.00     0.040 C 
HETATM    3  C6  UNL     1       3.690  18.794   3.120  1.00  0.00     0.046 C 
HETATM    4  C7  UNL     1       2.753  17.601   3.182  1.00  0.00     0.110 C 
HETATM    5  C8  UNL     1       1.354  17.905   2.793  1.00  0.00     0.161 C 
HETATM    6  C9  UNL     1       0.480  18.309   3.982  1.00  0.00     0.067 C 
HETATM    7  C10 UNL     1       0.443  17.073   4.867  1.00  0.00     0.133 C 
HETATM    8  C15 UNL     1       1.803  16.948   5.447  1.00  0.00     0.042 C 
HETATM    9  C16 UNL     1       1.817  15.680   6.311  1.00  0.00     0.015 C 
HETATM   10  C17 UNL     1       2.949  16.944   4.497  1.00  0.00     0.161 C 
HETATM   11  O9  UNL     1       1.164  18.876   1.858  1.00  0.00    -0.373 OA
ENDROOT
BRANCH   7  12
HETATM   12  O3  UNL     1      -0.454  17.319   5.922  1.00  0.00    -0.353 OA
BRANCH  12  13
HETATM   13  C11 UNL     1      -1.388  18.247   5.474  1.00  0.00     0.294 C 
HETATM   14  O4  UNL     1      -1.422  19.247   6.438  1.00  0.00    -0.326 OA
HETATM   15  C12 UNL     1      -2.708  19.743   6.482  1.00  0.00     0.291 C 
HETATM   16  C13 UNL     1      -3.641  18.742   5.857  1.00  0.00     0.206 C 
HETATM   17  C14 UNL     1      -2.731  17.608   5.441  1.00  0.00     0.207 C 
BRANCH  15  18
HETATM   18  O5  UNL     1      -2.718  20.947   5.751  1.00  0.00    -0.368 OA
ATOM     19  H5  UNL     1      -2.420  21.635   6.334  1.00  0.00     0.212 HD
ENDBRANCH  15  18
BRANCH  16  20
HETATM   20  O6  UNL     1      -4.592  18.336   6.779  1.00  0.00    -0.388 OA
ATOM     21  H6  UNL     1      -5.426  18.190   6.347  1.00  0.00     0.210 HD
ENDBRANCH  16  20
BRANCH  17  22
HETATM   22  O7  UNL     1      -2.846  16.519   6.304  1.00  0.00    -0.388 OA
ATOM     23  H7  UNL     1      -3.645  16.528   6.817  1.00  0.00     0.210 HD
ENDBRANCH  17  22
ENDBRANCH  12  13
ENDBRANCH   7  12
BRANCH  10  24
HETATM   24  O8  UNL     1       3.353  15.587   4.369  1.00  0.00    -0.392 OA
ATOM     25  H8  UNL     1       4.268  15.461   4.591  1.00  0.00     0.210 HD
ENDBRANCH  10  24
BRANCH   4  26
HETATM   26  O2  UNL     1       3.247  16.701   2.211  1.00  0.00    -0.385 OA
ATOM     27  H2  UNL     1       2.497  16.497   1.664  1.00  0.00     0.210 HD
ENDBRANCH   4  26
BRANCH   1  28
HETATM   28  C2  UNL     1       1.910  20.486   0.371  1.00  0.00    -0.037 C 
HETATM   29  C1  UNL     1       1.381  20.226  -0.812  1.00  0.00     0.019 C 
BRANCH  28  30
HETATM   30  C3  UNL     1       2.114  21.888   0.819  1.00  0.00     0.200 C 
BRANCH  30  31
HETATM   31  O1  UNL     1       2.485  22.653  -0.285  1.00  0.00    -0.397 OA
ATOM     32  H1  UNL     1       3.433  22.706  -0.308  1.00  0.00     0.209 HD
ENDBRANCH  30  31
ENDBRANCH  28  30
ENDBRANCH   1  28
TORSDOF 10
ENDMDL
MODEL 3
REMARK VINA RESULT: -6.193397344      4.460      8.660
REMARK  10 active torsions:
REMARK  status: ('A' for Active; 'I' for Inactive)
REMARK    1  A    between atoms: C2_2  and  C3_3 
REMARK    2  A    between atoms: C2_2  and  C4_6 
REMARK    3  A    between atoms: C3_3  and  O1_4 
REMARK    4  A    between atoms: C7_9  and  O2_10 
REMARK    5  A    between atoms: C10_14  and  O3_15 
REMARK    6  A    between atoms: O3_15  and  C11_16 
REMARK    7  A    between atoms: C12_18  and  O5_19 
REMARK    8  A    between atoms: C13_21  and  O6_22 
REMARK    9  A    between atoms: C14_24  and  O7_25 
REMARK   10  A    between atoms: C17_29  and  O8_30 
ROOT
HETATM    1  C4  UNL     1       2.245  18.865   1.618  1.00  0.00     0.152 C 
HETATM    2  C5  UNL     1       0.758  19.068   1.943  1.00  0.00     0.040 C 
HETATM    3  C6  UNL     1       0.050  18.982   0.639  1.00  0.00     0.046 C 
HETATM    4  C7  UNL     1       0.837  19.551  -0.526  1.00  0.00     0.110 C 
HETATM    5  C8  UNL     1       2.003  20.378  -0.128  1.00  0.00     0.161 C 
HETATM    6  C9  UNL     1       1.659  21.862   0.012  1.00  0.00     0.067 C 
HETATM    7  C10 UNL     1       1.257  22.296  -1.389  1.00  0.00     0.133 C 
HETATM    8  C15 UNL     1      -0.051  21.648  -1.655  1.00  0.00     0.042 C 
HETATM    9  C16 UNL     1      -0.466  22.025  -3.083  1.00  0.00     0.015 C 
HETATM   10  C17 UNL     1      -0.131  20.175  -1.461  1.00  0.00     0.161 C 
HETATM   11  O9  UNL     1       2.637  20.044   1.028  1.00  0.00    -0.373 OA
ENDROOT
BRANCH   7  12
HETATM   12  O3  UNL     1       1.052  23.687  -1.373  1.00  0.00    -0.353 OA
BRANCH  12  13
HETATM   13  C11 UNL     1       2.238  24.293  -1.774  1.00  0.00     0.294 C 
HETATM   14  O4  UNL     1       2.481  25.301  -0.849  1.00  0.00    -0.326 OA
HETATM   15  C12 UNL     1       3.116  26.332  -1.509  1.00  0.00     0.291 C 
HETATM   16  C13 UNL     1       2.877  26.187  -2.987  1.00  0.00     0.206 C 
HETATM   17  C14 UNL     1       2.031  24.939  -3.099  1.00  0.00     0.207 C 
BRANCH  15  18
HETATM   18  O5  UNL     1       4.491  26.231  -1.221  1.00  0.00    -0.368 OA
ATOM     19  H5  UNL     1       4.793  27.098  -0.977  1.00  0.00     0.212 HD
ENDBRANCH  15  18
BRANCH  16  20
HETATM   20  O6  UNL     1       2.223  27.306  -3.477  1.00  0.00    -0.388 OA
ATOM     21  H6  UNL     1       1.616  27.641  -2.828  1.00  0.00     0.210 HD
ENDBRANCH  16  20
BRANCH  17  22
HETATM   22  O7  UNL     1       0.696  25.249  -3.359  1.00  0.00    -0.388 OA
ATOM     23  H7  UNL     1       0.589  25.917  -4.025  1.00  0.00     0.210 HD
ENDBRANCH  17  22
ENDBRANCH  12  13
ENDBRANCH   7  12
BRANCH  10  24
HETATM   24  O8  UNL     1      -0.075  19.600  -2.760  1.00  0.00    -0.392 OA
ATOM     25  H8  UNL     1      -0.870  19.755  -3.258  1.00  0.00     0.210 HD
ENDBRANCH  10  24
BRANCH   4  26
HETATM   26  O2  UNL     1       1.363  18.422  -1.194  1.00  0.00    -0.385 OA
ATOM     27  H2  UNL     1       1.010  17.675  -0.725  1.00  0.00     0.210 HD
ENDBRANCH   4  26
BRANCH   1  28
HETATM   28  C2  UNL     1       2.935  18.742   2.919  1.00  0.00    -0.037 C 
HETATM   29  C1  UNL     1       2.509  17.834   3.780  1.00  0.00     0.019 C 
BRANCH  28  30
HETATM   30  C3  UNL     1       4.084  19.624   3.254  1.00  0.00     0.200 C 
BRANCH  30  31
HETATM   31  O1  UNL     1       5.133  19.330   2.384  1.00  0.00    -0.397 OA
ATOM     32  H1  UNL     1       5.027  19.853   1.599  1.00  0.00     0.209 HD
ENDBRANCH  30  31
ENDBRANCH  28  30
ENDBRANCH   1  28
TORSDOF 10
ENDMDL
MODEL 4
REMARK VINA RESULT: -6.126544737      1.546      1.828
REMARK  10 active torsions:
REMARK  status: ('A' for Active; 'I' for Inactive)
REMARK    1  A    between atoms: C2_2  and  C3_3 
REMARK    2  A    between atoms: C2_2  and  C4_6 
REMARK    3  A    between atoms: C3_3  and  O1_4 
REMARK    4  A    between atoms: C7_9  and  O2_10 
REMARK    5  A    between atoms: C10_14  and  O3_15 
REMARK    6  A    between atoms: O3_15  and  C11_16 
REMARK    7  A    between atoms: C12_18  and  O5_19 
REMARK    8  A    between atoms: C13_21  and  O6_22 
REMARK    9  A    between atoms: C14_24  and  O7_25 
REMARK   10  A    between atoms: C17_29  and  O8_30 
ROOT
HETATM    1  C4  UNL     1       2.071  19.939   0.543  1.00  0.00     0.152 C 
HETATM    2  C5  UNL     1       3.111  20.462   1.545  1.00  0.00     0.040 C 
HETATM    3  C6  UNL     1       3.746  19.252   2.129  1.00  0.00     0.046 C 
HETATM    4  C7  UNL     1       2.797  18.079   2.294  1.00  0.00     0.110 C 
HETATM    5  C8  UNL     1       1.362  18.434   2.165  1.00  0.00     0.161 C 
HETATM    6  C9  UNL     1       0.716  18.796   3.504  1.00  0.00     0.067 C 
HETATM    7  C10 UNL     1       0.790  17.517   4.323  1.00  0.00     0.133 C 
HETATM    8  C15 UNL     1       2.225  17.332   4.655  1.00  0.00     0.042 C 
HETATM    9  C16 UNL     1       2.346  16.021   5.443  1.00  0.00     0.015 C 
HETATM   10  C17 UNL     1       3.192  17.351   3.524  1.00  0.00     0.161 C 
HETATM   11  O9  UNL     1       1.047  19.456   1.323  1.00  0.00    -0.373 OA
ENDROOT
BRANCH   7  12
HETATM   12  O3  UNL     1       0.095  17.729   5.526  1.00  0.00    -0.353 OA
BRANCH  12  13
HETATM   13  C11 UNL     1      -1.209  18.090   5.201  1.00  0.00     0.294 C 
HETATM   14  O4  UNL     1      -1.608  18.990   6.182  1.00  0.00    -0.326 OA
HETATM   15  C12 UNL     1      -2.963  18.823   6.378  1.00  0.00     0.291 C 
HETATM   16  C13 UNL     1      -3.373  17.478   5.842  1.00  0.00     0.206 C 
HETATM   17  C14 UNL     1      -2.086  16.892   5.306  1.00  0.00     0.207 C 
BRANCH  15  18
HETATM   18  O5  UNL     1      -3.618  19.852   5.674  1.00  0.00    -0.368 OA
ATOM     19  H5  UNL     1      -3.329  19.807   4.771  1.00  0.00     0.212 HD
ENDBRANCH  15  18
BRANCH  16  20
HETATM   20  O6  UNL     1      -3.915  16.706   6.856  1.00  0.00    -0.388 OA
ATOM     21  H6  UNL     1      -4.722  16.298   6.562  1.00  0.00     0.210 HD
ENDBRANCH  16  20
BRANCH  17  22
HETATM   22  O7  UNL     1      -1.580  15.910   6.156  1.00  0.00    -0.388 OA
ATOM     23  H7  UNL     1      -1.483  16.203   7.054  1.00  0.00     0.210 HD
ENDBRANCH  17  22
ENDBRANCH  12  13
ENDBRANCH   7  12
BRANCH  10  24
HETATM   24  O8  UNL     1       3.526  15.994   3.265  1.00  0.00    -0.392 OA
ATOM     25  H8  UNL     1       3.190  15.405   3.932  1.00  0.00     0.210 HD
ENDBRANCH  10  24
BRANCH   4  26
HETATM   26  O2  UNL     1       3.090  17.220   1.212  1.00  0.00    -0.385 OA
ATOM     27  H2  UNL     1       2.257  17.081   0.778  1.00  0.00     0.210 HD
ENDBRANCH   4  26
BRANCH   1  28
HETATM   28  C2  UNL     1       1.579  21.123  -0.192  1.00  0.00    -0.037 C 
HETATM   29  C1  UNL     1       0.990  20.944  -1.362  1.00  0.00     0.019 C 
BRANCH  28  30
HETATM   30  C3  UNL     1       1.745  22.488   0.372  1.00  0.00     0.200 C 
BRANCH  30  31
HETATM   31  O1  UNL     1       2.549  23.227  -0.493  1.00  0.00    -0.397 OA
ATOM     32  H1  UNL     1       3.257  22.670  -0.795  1.00  0.00     0.209 HD
ENDBRANCH  30  31
ENDBRANCH  28  30
ENDBRANCH   1  28
TORSDOF 10
ENDMDL
MODEL 5
REMARK VINA RESULT: -6.117762531      1.066      1.363
REMARK  10 active torsions:
REMARK  status: ('A' for Active; 'I' for Inactive)
REMARK    1  A    between atoms: C2_2  and  C3_3 
REMARK    2  A    between atoms: C2_2  and  C4_6 
REMARK    3  A    between atoms: C3_3  and  O1_4 
REMARK    4  A    between atoms: C7_9  and  O2_10 
REMARK    5  A    between atoms: C10_14  and  O3_15 
REMARK    6  A    between atoms: O3_15  and  C11_16 
REMARK    7  A    between atoms: C12_18  and  O5_19 
REMARK    8  A    between atoms: C13_21  and  O6_22 
REMARK    9  A    between atoms: C14_24  and  O7_25 
REMARK   10  A    between atoms: C17_29  and  O8_30 
ROOT
HETATM    1  C4  UNL     1       2.369  19.201   1.227  1.00  0.00     0.152 C 
HETATM    2  C5  UNL     1       3.149  19.862   2.373  1.00  0.00     0.040 C 
HETATM    3  C6  UNL     1       3.699  18.741   3.179  1.00  0.00     0.046 C 
HETATM    4  C7  UNL     1       2.789  17.528   3.245  1.00  0.00     0.110 C 
HETATM    5  C8  UNL     1       1.400  17.782   2.791  1.00  0.00     0.161 C 
HETATM    6  C9  UNL     1       0.469  18.205   3.930  1.00  0.00     0.067 C 
HETATM    7  C10 UNL     1       0.425  16.998   4.855  1.00  0.00     0.133 C 
HETATM    8  C15 UNL     1       1.764  16.928   5.492  1.00  0.00     0.042 C 
HETATM    9  C16 UNL     1       1.773  15.690   6.399  1.00  0.00     0.015 C 
HETATM   10  C17 UNL     1       2.947  16.921   4.589  1.00  0.00     0.161 C 
HETATM   11  O9  UNL     1       1.225  18.717   1.816  1.00  0.00    -0.373 OA
ENDROOT
BRANCH   7  12
HETATM   12  O3  UNL     1      -0.518  17.257   5.864  1.00  0.00    -0.353 OA
BRANCH  12  13
HETATM   13  C11 UNL     1      -1.724  17.570   5.244  1.00  0.00     0.294 C 
HETATM   14  O4  UNL     1      -2.594  17.928   6.267  1.00  0.00    -0.326 OA
HETATM   15  C12 UNL     1      -3.864  17.541   5.892  1.00  0.00     0.291 C 
HETATM   16  C13 UNL     1      -3.759  16.505   4.807  1.00  0.00     0.206 C 
HETATM   17  C14 UNL     1      -2.270  16.345   4.598  1.00  0.00     0.207 C 
BRANCH  15  18
HETATM   18  O5  UNL     1      -4.527  18.688   5.413  1.00  0.00    -0.368 OA
ATOM     19  H5  UNL     1      -5.460  18.526   5.484  1.00  0.00     0.212 HD
ENDBRANCH  15  18
BRANCH  16  20
HETATM   20  O6  UNL     1      -4.357  15.324   5.216  1.00  0.00    -0.388 OA
ATOM     21  H6  UNL     1      -4.182  15.169   6.136  1.00  0.00     0.210 HD
ENDBRANCH  16  20
BRANCH  17  22
HETATM   22  O7  UNL     1      -1.798  15.163   5.166  1.00  0.00    -0.388 OA
ATOM     23  H7  UNL     1      -1.395  14.578   4.537  1.00  0.00     0.210 HD
ENDBRANCH  17  22
ENDBRANCH  12  13
ENDBRANCH   7  12
BRANCH  10  24
HETATM   24  O8  UNL     1       3.388  15.571   4.524  1.00  0.00    -0.392 OA
ATOM     25  H8  UNL     1       4.252  15.455   4.902  1.00  0.00     0.210 HD
ENDBRANCH  10  24
BRANCH   4  26
HETATM   26  O2  UNL     1       3.343  16.609   2.327  1.00  0.00    -0.385 OA
ATOM     27  H2  UNL     1       3.039  15.758   2.620  1.00  0.00     0.210 HD
ENDBRANCH   4  26
BRANCH   1  28
HETATM   28  C2  UNL     1       1.992  20.294   0.306  1.00  0.00    -0.037 C 
HETATM   29  C1  UNL     1       2.355  21.530   0.605  1.00  0.00     0.019 C 
BRANCH  28  30
HETATM   30  C3  UNL     1       1.218  20.010  -0.931  1.00  0.00     0.200 C 
BRANCH  30  31
HETATM   31  O1  UNL     1       1.322  18.649  -1.214  1.00  0.00    -0.397 OA
ATOM     32  H1  UNL     1       1.960  18.268  -0.622  1.00  0.00     0.209 HD
ENDBRANCH  30  31
ENDBRANCH  28  30
ENDBRANCH   1  28
TORSDOF 10
ENDMDL
