MODEL 1
REMARK VINA RESULT: -7.608048020      0.000      0.000
REMARK  4 active torsions:
REMARK  status: ('A' for Active; 'I' for Inactive)
REMARK    1  A    between atoms: O1_2  and  C2_3 
REMARK    2  A    between atoms: C4_5  and  C5_6 
REMARK    3  A    between atoms: C10_18  and  O4_19 
REMARK    4  A    between atoms: C12_21  and  O5_22 
ROOT
HETATM    1  C2  UNL     1      -0.969   5.949  16.937  1.00  0.00     0.105 A 
HETATM    2  C3  UNL     1      -0.949   7.057  16.111  1.00  0.00     0.053 A 
HETATM    3  C4  UNL     1      -1.830   7.227  15.089  1.00  0.00    -0.004 A 
HETATM    4  C9  UNL     1      -2.785   6.239  14.879  1.00  0.00     0.093 A 
HETATM    5  N3  UNL     1      -3.724   6.376  13.827  1.00  0.00    -0.099 NA
HETATM    6  C10 UNL     1      -2.827   5.114  15.696  1.00  0.00     0.129 A 
HETATM    7  C12 UNL     1      -1.926   4.961  16.724  1.00  0.00     0.137 A 
ENDROOT
BRANCH   3   8
HETATM    8  C5  UNL     1      -1.816   8.364  14.185  1.00  0.00     0.049 C 
HETATM    9  C6  UNL     1      -1.127   8.522  13.105  1.00  0.00     0.105 A 
HETATM   10  N1  UNL     1      -1.167   9.690  12.261  1.00  0.00    -0.304 N 
HETATM   11  C8  UNL     1      -0.207   7.632  12.429  1.00  0.00     0.276 A 
HETATM   12  C7  UNL     1      -0.326   9.527  11.141  1.00  0.00     0.327 A 
ATOM     13  H1  UNL     1      -1.727  10.521  12.450  1.00  0.00     0.171 HD
HETATM   14  O2  UNL     1      -0.160  10.378  10.239  1.00  0.00    -0.247 OA
HETATM   15  N2  UNL     1       0.287   8.255  11.216  1.00  0.00    -0.274 N 
ATOM     16  H2  UNL     1       0.946   7.855  10.550  1.00  0.00     0.173 HD
HETATM   17  O3  UNL     1       0.147   6.473  12.793  1.00  0.00    -0.266 OA
ENDBRANCH   3   8
BRANCH   1  18
HETATM   18  O1  UNL     1      -0.076   5.771  17.977  1.00  0.00    -0.353 OA
HETATM   19  C1  UNL     1      -0.328   5.956  19.336  1.00  0.00     0.210 C 
ENDBRANCH   1  18
BRANCH   6  20
HETATM   20  O4  UNL     1      -3.808   4.131  15.456  1.00  0.00    -0.351 OA
HETATM   21  C11 UNL     1      -3.383   3.135  14.511  1.00  0.00     0.210 C 
ENDBRANCH   6  20
BRANCH   7  22
HETATM   22  O5  UNL     1      -2.004   3.818  17.516  1.00  0.00    -0.351 OA
HETATM   23  C13 UNL     1      -1.137   2.719  17.361  1.00  0.00     0.210 C 
ENDBRANCH   7  22
TORSDOF 4
ENDMDL
MODEL 2
REMARK VINA RESULT: -7.461294671      2.555      4.058
REMARK  4 active torsions:
REMARK  status: ('A' for Active; 'I' for Inactive)
REMARK    1  A    between atoms: O1_2  and  C2_3 
REMARK    2  A    between atoms: C4_5  and  C5_6 
REMARK    3  A    between atoms: C10_18  and  O4_19 
REMARK    4  A    between atoms: C12_21  and  O5_22 
ROOT
HETATM    1  C2  UNL     1      -1.710   7.607  14.046  1.00  0.00     0.105 A 
HETATM    2  C3  UNL     1      -1.746   7.837  12.683  1.00  0.00     0.053 A 
HETATM    3  C4  UNL     1      -0.767   7.409  11.840  1.00  0.00    -0.004 A 
HETATM    4  C9  UNL     1       0.305   6.711  12.385  1.00  0.00     0.093 A 
HETATM    5  N3  UNL     1       1.346   6.245  11.545  1.00  0.00    -0.099 NA
HETATM    6  C10 UNL     1       0.365   6.467  13.754  1.00  0.00     0.129 A 
HETATM    7  C12 UNL     1      -0.636   6.909  14.589  1.00  0.00     0.137 A 
ENDROOT
BRANCH   3   8
HETATM    8  C5  UNL     1      -0.759   7.660  10.410  1.00  0.00     0.049 C 
HETATM    9  C6  UNL     1      -0.840   8.791   9.793  1.00  0.00     0.105 A 
HETATM   10  N1  UNL     1      -0.830   8.954   8.361  1.00  0.00    -0.304 N 
HETATM   11  C8  UNL     1      -0.912  10.143  10.302  1.00  0.00     0.276 A 
HETATM   12  C7  UNL     1      -0.893  10.320   8.014  1.00  0.00     0.327 A 
ATOM     13  H1  UNL     1      -0.784   8.188   7.691  1.00  0.00     0.171 HD
HETATM   14  O2  UNL     1      -0.901  10.763   6.843  1.00  0.00    -0.247 OA
HETATM   15  N2  UNL     1      -0.946  11.087   9.200  1.00  0.00    -0.274 N 
ATOM     16  H2  UNL     1      -0.997  12.103   9.268  1.00  0.00     0.173 HD
HETATM   17  O3  UNL     1      -0.942  10.508  11.512  1.00  0.00    -0.266 OA
ENDBRANCH   3   8
BRANCH   1  18
HETATM   18  O1  UNL     1      -2.701   8.041  14.906  1.00  0.00    -0.353 OA
HETATM   19  C1  UNL     1      -2.658   9.162  15.734  1.00  0.00     0.210 C 
ENDBRANCH   1  18
BRANCH   6  20
HETATM   20  O4  UNL     1       1.465   5.757  14.275  1.00  0.00    -0.351 OA
HETATM   21  C11 UNL     1       1.297   4.332  14.203  1.00  0.00     0.210 C 
ENDBRANCH   6  20
BRANCH   7  22
HETATM   22  O5  UNL     1      -0.534   6.644  15.952  1.00  0.00    -0.351 OA
HETATM   23  C13 UNL     1      -1.218   5.583  16.578  1.00  0.00     0.210 C 
ENDBRANCH   7  22
TORSDOF 4
ENDMDL
MODEL 3
REMARK VINA RESULT: -7.332707797      2.795      6.629
REMARK  4 active torsions:
REMARK  status: ('A' for Active; 'I' for Inactive)
REMARK    1  A    between atoms: O1_2  and  C2_3 
REMARK    2  A    between atoms: C4_5  and  C5_6 
REMARK    3  A    between atoms: C10_18  and  O4_19 
REMARK    4  A    between atoms: C12_21  and  O5_22 
ROOT
HETATM    1  C2  UNL     1      -1.205   8.335  10.412  1.00  0.00     0.105 A 
HETATM    2  C3  UNL     1      -1.897   8.520  11.595  1.00  0.00     0.053 A 
HETATM    3  C4  UNL     1      -1.394   8.152  12.804  1.00  0.00    -0.004 A 
HETATM    4  C9  UNL     1      -0.131   7.571  12.837  1.00  0.00     0.093 A 
HETATM    5  N3  UNL     1       0.433   7.175  14.074  1.00  0.00    -0.099 NA
HETATM    6  C10 UNL     1       0.586   7.374  11.660  1.00  0.00     0.129 A 
HETATM    7  C12 UNL     1       0.058   7.752  10.447  1.00  0.00     0.137 A 
ENDROOT
BRANCH   3   8
HETATM    8  C5  UNL     1      -2.105   8.304  14.060  1.00  0.00     0.049 C 
HETATM    9  C6  UNL     1      -2.791   7.421  14.706  1.00  0.00     0.105 A 
HETATM   10  N1  UNL     1      -3.477   7.655  15.952  1.00  0.00    -0.304 N 
HETATM   11  C8  UNL     1      -3.031   6.021  14.430  1.00  0.00     0.276 A 
HETATM   12  C7  UNL     1      -4.096   6.475  16.411  1.00  0.00     0.327 A 
ATOM     13  H1  UNL     1      -3.509   8.552  16.436  1.00  0.00     0.171 HD
HETATM   14  O2  UNL     1      -4.763   6.377  17.466  1.00  0.00    -0.247 OA
HETATM   15  N2  UNL     1      -3.838   5.438  15.485  1.00  0.00    -0.274 N 
ATOM     16  H2  UNL     1      -4.157   4.471  15.546  1.00  0.00     0.173 HD
HETATM   17  O3  UNL     1      -2.621   5.353  13.438  1.00  0.00    -0.266 OA
ENDBRANCH   3   8
BRANCH   1  18
HETATM   18  O1  UNL     1      -1.713   8.706   9.180  1.00  0.00    -0.353 OA
HETATM   19  C1  UNL     1      -3.004   9.157   8.911  1.00  0.00     0.210 C 
ENDBRANCH   1  18
BRANCH   6  20
HETATM   20  O4  UNL     1       1.862   6.782  11.727  1.00  0.00    -0.351 OA
HETATM   21  C11 UNL     1       1.813   5.346  11.746  1.00  0.00     0.210 C 
ENDBRANCH   6  20
BRANCH   7  22
HETATM   22  O5  UNL     1       0.809   7.535   9.295  1.00  0.00    -0.351 OA
HETATM   23  C13 UNL     1       0.664   6.387   8.492  1.00  0.00     0.210 C 
ENDBRANCH   7  22
TORSDOF 4
ENDMDL
MODEL 4
REMARK VINA RESULT: -7.280855436      1.324      2.782
REMARK  4 active torsions:
REMARK  status: ('A' for Active; 'I' for Inactive)
REMARK    1  A    between atoms: O1_2  and  C2_3 
REMARK    2  A    between atoms: C4_5  and  C5_6 
REMARK    3  A    between atoms: C10_18  and  O4_19 
REMARK    4  A    between atoms: C12_21  and  O5_22 
ROOT
HETATM    1  C2  UNL     1      -2.378   4.276  14.691  1.00  0.00     0.105 A 
HETATM    2  C3  UNL     1      -2.415   5.305  13.767  1.00  0.00     0.053 A 
HETATM    3  C4  UNL     1      -2.335   6.615  14.125  1.00  0.00    -0.004 A 
HETATM    4  C9  UNL     1      -2.209   6.917  15.476  1.00  0.00     0.093 A 
HETATM    5  N3  UNL     1      -2.120   8.268  15.893  1.00  0.00    -0.099 NA
HETATM    6  C10 UNL     1      -2.168   5.900  16.425  1.00  0.00     0.129 A 
HETATM    7  C12 UNL     1      -2.251   4.581  16.043  1.00  0.00     0.137 A 
ENDROOT
BRANCH   3   8
HETATM    8  C5  UNL     1      -2.402   7.719  13.184  1.00  0.00     0.049 C 
HETATM    9  C6  UNL     1      -1.469   8.184  12.424  1.00  0.00     0.105 A 
HETATM   10  N1  UNL     1      -1.617   9.295  11.517  1.00  0.00    -0.304 N 
HETATM   11  C8  UNL     1      -0.104   7.745  12.224  1.00  0.00     0.276 A 
HETATM   12  C7  UNL     1      -0.420   9.522  10.806  1.00  0.00     0.327 A 
ATOM     13  H1  UNL     1      -2.470   9.841  11.405  1.00  0.00     0.171 HD
HETATM   14  O2  UNL     1      -0.253  10.420   9.951  1.00  0.00    -0.247 OA
HETATM   15  N2  UNL     1       0.542   8.574  11.224  1.00  0.00    -0.274 N 
ATOM     16  H2  UNL     1       1.502   8.489  10.889  1.00  0.00     0.173 HD
HETATM   17  O3  UNL     1       0.487   6.789  12.802  1.00  0.00    -0.266 OA
ENDBRANCH   3   8
BRANCH   1  18
HETATM   18  O1  UNL     1      -2.459   2.944  14.333  1.00  0.00    -0.353 OA
HETATM   19  C1  UNL     1      -1.732   2.301  13.332  1.00  0.00     0.210 C 
ENDBRANCH   1  18
BRANCH   6  20
HETATM   20  O4  UNL     1      -2.039   6.240  17.787  1.00  0.00    -0.351 OA
HETATM   21  C11 UNL     1      -0.676   6.230  18.240  1.00  0.00     0.210 C 
ENDBRANCH   6  20
BRANCH   7  22
HETATM   22  O5  UNL     1      -2.209   3.597  17.027  1.00  0.00    -0.351 OA
HETATM   23  C13 UNL     1      -1.061   2.821  17.283  1.00  0.00     0.210 C 
ENDBRANCH   7  22
TORSDOF 4
ENDMDL
MODEL 5
REMARK VINA RESULT: -7.244165885      1.880      2.912
REMARK  4 active torsions:
REMARK  status: ('A' for Active; 'I' for Inactive)
REMARK    1  A    between atoms: O1_2  and  C2_3 
REMARK    2  A    between atoms: C4_5  and  C5_6 
REMARK    3  A    between atoms: C10_18  and  O4_19 
REMARK    4  A    between atoms: C12_21  and  O5_22 
ROOT
HETATM    1  C2  UNL     1      -2.674   5.203  15.469  1.00  0.00     0.105 A 
HETATM    2  C3  UNL     1      -2.462   5.747  14.215  1.00  0.00     0.053 A 
HETATM    3  C4  UNL     1      -1.258   5.688  13.584  1.00  0.00    -0.004 A 
HETATM    4  C9  UNL     1      -0.209   5.050  14.237  1.00  0.00     0.093 A 
HETATM    5  N3  UNL     1       1.061   4.964  13.616  1.00  0.00    -0.099 NA
HETATM    6  C10 UNL     1      -0.397   4.494  15.498  1.00  0.00     0.129 A 
HETATM    7  C12 UNL     1      -1.622   4.566  16.120  1.00  0.00     0.137 A 
ENDROOT
BRANCH   3   8
HETATM    8  C5  UNL     1      -0.994   6.275  12.283  1.00  0.00     0.049 C 
HETATM    9  C6  UNL     1      -0.950   7.524  11.959  1.00  0.00     0.105 A 
HETATM   10  N1  UNL     1      -0.685   8.027  10.635  1.00  0.00    -0.304 N 
HETATM   11  C8  UNL     1      -1.095   8.716  12.766  1.00  0.00     0.276 A 
HETATM   12  C7  UNL     1      -0.668   9.437  10.630  1.00  0.00     0.327 A 
ATOM     13  H1  UNL     1      -0.531   7.443   9.814  1.00  0.00     0.171 HD
HETATM   14  O2  UNL     1      -0.464  10.149   9.621  1.00  0.00    -0.247 OA
HETATM   15  N2  UNL     1      -0.922   9.897  11.942  1.00  0.00    -0.274 N 
ATOM     16  H2  UNL     1      -0.972  10.869  12.249  1.00  0.00     0.173 HD
HETATM   17  O3  UNL     1      -1.334   8.780  14.006  1.00  0.00    -0.266 OA
ENDBRANCH   3   8
BRANCH   1  18
HETATM   18  O1  UNL     1      -3.895   5.260  16.114  1.00  0.00    -0.353 OA
HETATM   19  C1  UNL     1      -4.372   6.302  16.909  1.00  0.00     0.210 C 
ENDBRANCH   1  18
BRANCH   6  20
HETATM   20  O4  UNL     1       0.687   3.855  16.133  1.00  0.00    -0.351 OA
HETATM   21  C11 UNL     1       0.712   2.437  15.905  1.00  0.00     0.210 C 
ENDBRANCH   6  20
BRANCH   7  22
HETATM   22  O5  UNL     1      -1.765   3.997  17.383  1.00  0.00    -0.351 OA
HETATM   23  C13 UNL     1      -1.475   4.694  18.573  1.00  0.00     0.210 C 
ENDBRANCH   7  22
TORSDOF 4
ENDMDL
