MODEL 1
REMARK VINA RESULT: -6.751802960      0.000      0.000
REMARK  9 active torsions:
REMARK  status: ('A' for Active; 'I' for Inactive)
REMARK       I    between atoms: C2_2  and  N1_4 
REMARK    1  A    between atoms: N1_4  and  S1_6 
REMARK    2  A    between atoms: S1_6  and  N2_8 
REMARK    3  A    between atoms: S1_6  and  N5_21 
REMARK    4  A    between atoms: N2_8  and  O3_10 
REMARK    5  A    between atoms: O3_10  and  C3_11 
REMARK    6  A    between atoms: C3_11  and  N4_15 
REMARK    7  A    between atoms: N4_15  and  C4_17 
REMARK    8  A    between atoms: N5_21  and  C8_23 
REMARK    9  A    between atoms: C8_23  and  C9_24 
ROOT
HETATM    1  C9  UNL     1      -2.841  10.124   8.528  1.00  0.00     0.144 C 
HETATM    2  C10 UNL     1      -1.651  10.495   7.766  1.00  0.00     0.060 C 
HETATM    3  N6  UNL     1      -0.702  10.798   7.180  1.00  0.00    -0.197 NA
ENDROOT
BRANCH   1   4
HETATM    4  C8  UNL     1      -2.468   9.096   9.575  1.00  0.00     0.146 C 
BRANCH   4   5
HETATM    5  N5  UNL     1      -1.832   7.983   8.892  1.00  0.00    -0.317 N 
ATOM      6  H5  UNL     1      -2.196   7.551   8.043  1.00  0.00     0.172 HD
BRANCH   5   7
HETATM    7  S1  UNL     1      -0.394   7.478   9.683  1.00  0.00     0.220 S 
HETATM    8  O2  UNL     1       0.389   8.716  10.057  1.00  0.00    -0.204 OA
BRANCH   7   9
HETATM    9  N1  UNL     1       0.510   6.539   8.547  1.00  0.00    -0.254 N 
HETATM   10  C2  UNL     1       0.037   5.275   8.108  1.00  0.00     0.227 C 
HETATM   11  C1  UNL     1       0.792   4.462   7.145  1.00  0.00     0.118 C 
HETATM   12  O1  UNL     1      -1.043   4.830   8.543  1.00  0.00    -0.273 OA
ATOM     13  H1  UNL     1       1.395   6.898   8.187  1.00  0.00     0.181 HD
ENDBRANCH   7   9
BRANCH   7  14
HETATM   14  N2  UNL     1      -0.687   6.625  10.960  1.00  0.00    -0.183 N 
ATOM     15  H2  UNL     1      -1.086   5.693  10.849  1.00  0.00     0.208 HD
BRANCH  14  16
HETATM   16  O3  UNL     1      -0.429   7.079  12.209  1.00  0.00    -0.192 OA
BRANCH  16  17
HETATM   17  C3  UNL     1      -1.251   7.953  12.882  1.00  0.00     0.238 C 
HETATM   18  N3  UNL     1      -0.863   9.151  13.088  1.00  0.00    -0.364 N 
ATOM     19  H32 UNL     1       0.049   9.466  12.756  1.00  0.00     0.159 HD
ATOM     20  H31 UNL     1      -1.473   9.800  13.587  1.00  0.00     0.159 HD
BRANCH  17  21
HETATM   21  N4  UNL     1      -2.499   7.523  13.337  1.00  0.00    -0.347 N 
ATOM     22  H4  UNL     1      -3.307   7.722  12.747  1.00  0.00     0.163 HD
BRANCH  21  23
HETATM   23  C4  UNL     1      -2.739   6.824  14.568  1.00  0.00     0.022 C 
HETATM   24  C5  UNL     1      -3.184   7.821  15.614  1.00  0.00     0.037 C 
HETATM   25  C6  UNL     1      -3.869   5.838  14.331  1.00  0.00     0.037 C 
HETATM   26  C7  UNL     1      -1.506   6.090  15.061  1.00  0.00     0.037 C 
ENDBRANCH  21  23
ENDBRANCH  17  21
ENDBRANCH  16  17
ENDBRANCH  14  16
ENDBRANCH   7  14
ENDBRANCH   5   7
ENDBRANCH   4   5
ENDBRANCH   1   4
TORSDOF 9
ENDMDL
MODEL 2
REMARK VINA RESULT: -6.728769376      3.424      7.355
REMARK  9 active torsions:
REMARK  status: ('A' for Active; 'I' for Inactive)
REMARK       I    between atoms: C2_2  and  N1_4 
REMARK    1  A    between atoms: N1_4  and  S1_6 
REMARK    2  A    between atoms: S1_6  and  N2_8 
REMARK    3  A    between atoms: S1_6  and  N5_21 
REMARK    4  A    between atoms: N2_8  and  O3_10 
REMARK    5  A    between atoms: O3_10  and  C3_11 
REMARK    6  A    between atoms: C3_11  and  N4_15 
REMARK    7  A    between atoms: N4_15  and  C4_17 
REMARK    8  A    between atoms: N5_21  and  C8_23 
REMARK    9  A    between atoms: C8_23  and  C9_24 
ROOT
HETATM    1  C9  UNL     1      -1.587   5.131  18.290  1.00  0.00     0.144 C 
HETATM    2  C10 UNL     1      -1.403   3.681  18.270  1.00  0.00     0.060 C 
HETATM    3  N6  UNL     1      -1.274   2.533  18.266  1.00  0.00    -0.197 NA
ENDROOT
BRANCH   1   4
HETATM    4  C8  UNL     1      -2.857   5.488  17.549  1.00  0.00     0.146 C 
BRANCH   4   5
HETATM    5  N5  UNL     1      -2.608   6.718  16.817  1.00  0.00    -0.317 N 
ATOM      6  H5  UNL     1      -2.365   7.605  17.257  1.00  0.00     0.172 HD
BRANCH   5   7
HETATM    7  S1  UNL     1      -2.772   6.503  15.122  1.00  0.00     0.220 S 
HETATM    8  O2  UNL     1      -4.150   5.940  14.856  1.00  0.00    -0.204 OA
BRANCH   7   9
HETATM    9  N1  UNL     1      -1.572   5.358  14.634  1.00  0.00    -0.254 N 
HETATM   10  C2  UNL     1      -0.207   5.543  14.980  1.00  0.00     0.227 C 
HETATM   11  C1  UNL     1       0.827   4.582  14.574  1.00  0.00     0.118 C 
HETATM   12  O1  UNL     1       0.136   6.539  15.645  1.00  0.00    -0.273 OA
ATOM     13  H1  UNL     1      -1.847   4.540  14.090  1.00  0.00     0.181 HD
ENDBRANCH   7   9
BRANCH   7  14
HETATM   14  N2  UNL     1      -2.581   7.840  14.332  1.00  0.00    -0.183 N 
ATOM     15  H2  UNL     1      -2.917   8.709  14.747  1.00  0.00     0.208 HD
BRANCH  14  16
HETATM   16  O3  UNL     1      -1.985   7.884  13.118  1.00  0.00    -0.192 OA
BRANCH  16  17
HETATM   17  C3  UNL     1      -0.893   8.672  12.838  1.00  0.00     0.238 C 
HETATM   18  N3  UNL     1       0.195   8.495  13.482  1.00  0.00    -0.364 N 
ATOM     19  H32 UNL     1       0.260   7.774  14.200  1.00  0.00     0.159 HD
ATOM     20  H31 UNL     1       1.005   9.079  13.274  1.00  0.00     0.159 HD
BRANCH  17  21
HETATM   21  N4  UNL     1      -0.982   9.660  11.855  1.00  0.00    -0.347 N 
ATOM     22  H4  UNL     1      -1.109  10.623  12.168  1.00  0.00     0.163 HD
BRANCH  21  23
HETATM   23  C4  UNL     1      -0.910   9.432  10.440  1.00  0.00     0.022 C 
HETATM   24  C5  UNL     1      -2.314   9.384   9.882  1.00  0.00     0.037 C 
HETATM   25  C6  UNL     1      -0.184  10.611   9.814  1.00  0.00     0.037 C 
HETATM   26  C7  UNL     1      -0.188   8.141  10.102  1.00  0.00     0.037 C 
ENDBRANCH  21  23
ENDBRANCH  17  21
ENDBRANCH  16  17
ENDBRANCH  14  16
ENDBRANCH   7  14
ENDBRANCH   5   7
ENDBRANCH   4   5
ENDBRANCH   1   4
TORSDOF 9
ENDMDL
MODEL 3
REMARK VINA RESULT: -6.713660593      1.513      1.671
REMARK  9 active torsions:
REMARK  status: ('A' for Active; 'I' for Inactive)
REMARK       I    between atoms: C2_2  and  N1_4 
REMARK    1  A    between atoms: N1_4  and  S1_6 
REMARK    2  A    between atoms: S1_6  and  N2_8 
REMARK    3  A    between atoms: S1_6  and  N5_21 
REMARK    4  A    between atoms: N2_8  and  O3_10 
REMARK    5  A    between atoms: O3_10  and  C3_11 
REMARK    6  A    between atoms: C3_11  and  N4_15 
REMARK    7  A    between atoms: N4_15  and  C4_17 
REMARK    8  A    between atoms: N5_21  and  C8_23 
REMARK    9  A    between atoms: C8_23  and  C9_24 
ROOT
HETATM    1  C9  UNL     1      -1.622  11.471   8.846  1.00  0.00     0.144 C 
HETATM    2  C10 UNL     1      -0.291  11.656   8.271  1.00  0.00     0.060 C 
HETATM    3  N6  UNL     1       0.767  11.786   7.828  1.00  0.00    -0.197 NA
ENDROOT
BRANCH   1   4
HETATM    4  C8  UNL     1      -2.191  10.147   8.385  1.00  0.00     0.146 C 
BRANCH   4   5
HETATM    5  N5  UNL     1      -1.075   9.267   8.085  1.00  0.00    -0.317 N 
ATOM      6  H5  UNL     1      -0.592   9.243   7.187  1.00  0.00     0.172 HD
BRANCH   5   7
HETATM    7  S1  UNL     1      -0.662   8.271   9.421  1.00  0.00     0.220 S 
HETATM    8  O2  UNL     1       0.726   8.658   9.878  1.00  0.00    -0.204 OA
BRANCH   7   9
HETATM    9  N1  UNL     1      -0.654   6.637   8.855  1.00  0.00    -0.254 N 
HETATM   10  C2  UNL     1      -0.483   5.556   9.760  1.00  0.00     0.227 C 
HETATM   11  C1  UNL     1      -0.472   4.161   9.298  1.00  0.00     0.118 C 
HETATM   12  O1  UNL     1      -0.338   5.780  10.976  1.00  0.00    -0.273 OA
ATOM     13  H1  UNL     1      -0.773   6.447   7.860  1.00  0.00     0.181 HD
ENDBRANCH   7   9
BRANCH   7  14
HETATM   14  N2  UNL     1      -1.674   8.416  10.605  1.00  0.00    -0.183 N 
ATOM     15  H2  UNL     1      -2.567   7.925  10.552  1.00  0.00     0.208 HD
BRANCH  14  16
HETATM   16  O3  UNL     1      -1.407   9.168  11.698  1.00  0.00    -0.192 OA
BRANCH  16  17
HETATM   17  C3  UNL     1      -0.834   8.665  12.843  1.00  0.00     0.238 C 
HETATM   18  N3  UNL     1       0.305   8.094  12.780  1.00  0.00    -0.364 N 
ATOM     19  H32 UNL     1       0.794   8.009  11.888  1.00  0.00     0.159 HD
ATOM     20  H31 UNL     1       0.730   7.722  13.629  1.00  0.00     0.159 HD
BRANCH  17  21
HETATM   21  N4  UNL     1      -1.503   8.781  14.063  1.00  0.00    -0.347 N 
ATOM     22  H4  UNL     1      -1.567   9.712  14.476  1.00  0.00     0.163 HD
BRANCH  21  23
HETATM   23  C4  UNL     1      -2.108   7.698  14.785  1.00  0.00     0.022 C 
HETATM   24  C5  UNL     1      -3.046   8.269  15.824  1.00  0.00     0.037 C 
HETATM   25  C6  UNL     1      -2.923   6.879  13.799  1.00  0.00     0.037 C 
HETATM   26  C7  UNL     1      -1.079   6.815  15.465  1.00  0.00     0.037 C 
ENDBRANCH  21  23
ENDBRANCH  17  21
ENDBRANCH  16  17
ENDBRANCH  14  16
ENDBRANCH   7  14
ENDBRANCH   5   7
ENDBRANCH   4   5
ENDBRANCH   1   4
TORSDOF 9
ENDMDL
MODEL 4
REMARK VINA RESULT: -6.695513972      2.149      3.929
REMARK  9 active torsions:
REMARK  status: ('A' for Active; 'I' for Inactive)
REMARK       I    between atoms: C2_2  and  N1_4 
REMARK    1  A    between atoms: N1_4  and  S1_6 
REMARK    2  A    between atoms: S1_6  and  N2_8 
REMARK    3  A    between atoms: S1_6  and  N5_21 
REMARK    4  A    between atoms: N2_8  and  O3_10 
REMARK    5  A    between atoms: O3_10  and  C3_11 
REMARK    6  A    between atoms: C3_11  and  N4_15 
REMARK    7  A    between atoms: N4_15  and  C4_17 
REMARK    8  A    between atoms: N5_21  and  C8_23 
REMARK    9  A    between atoms: C8_23  and  C9_24 
ROOT
HETATM    1  C9  UNL     1       0.030   6.041   9.736  1.00  0.00     0.144 C 
HETATM    2  C10 UNL     1       0.551   5.455   8.503  1.00  0.00     0.060 C 
HETATM    3  N6  UNL     1       0.947   5.001   7.517  1.00  0.00    -0.197 NA
ENDROOT
BRANCH   1   4
HETATM    4  C8  UNL     1       0.082   7.550   9.639  1.00  0.00     0.146 C 
BRANCH   4   5
HETATM    5  N5  UNL     1      -1.100   7.986   8.916  1.00  0.00    -0.317 N 
ATOM      6  H5  UNL     1      -1.349   7.662   7.981  1.00  0.00     0.172 HD
BRANCH   5   7
HETATM    7  S1  UNL     1      -2.030   9.111   9.818  1.00  0.00     0.220 S 
HETATM    8  O2  UNL     1      -3.395   9.209   9.174  1.00  0.00    -0.204 OA
BRANCH   7   9
HETATM    9  N1  UNL     1      -1.227  10.639   9.712  1.00  0.00    -0.254 N 
HETATM   10  C2  UNL     1      -0.660  11.079   8.487  1.00  0.00     0.227 C 
HETATM   11  C1  UNL     1       0.028  12.373   8.377  1.00  0.00     0.118 C 
HETATM   12  O1  UNL     1      -0.738  10.361   7.472  1.00  0.00    -0.273 OA
ATOM     13  H1  UNL     1      -1.159  11.232  10.540  1.00  0.00     0.181 HD
ENDBRANCH   7   9
BRANCH   7  14
HETATM   14  N2  UNL     1      -2.176   8.694  11.318  1.00  0.00    -0.183 N 
ATOM     15  H2  UNL     1      -2.821   7.941  11.559  1.00  0.00     0.208 HD
BRANCH  14  16
HETATM   16  O3  UNL     1      -1.479   9.297  12.309  1.00  0.00    -0.192 OA
BRANCH  16  17
HETATM   17  C3  UNL     1      -0.884   8.611  13.342  1.00  0.00     0.238 C 
HETATM   18  N3  UNL     1       0.285   8.123  13.185  1.00  0.00    -0.364 N 
ATOM     19  H32 UNL     1       0.780   8.238  12.301  1.00  0.00     0.159 HD
ATOM     20  H31 UNL     1       0.726   7.615  13.951  1.00  0.00     0.159 HD
BRANCH  17  21
HETATM   21  N4  UNL     1      -1.561   8.453  14.553  1.00  0.00    -0.347 N 
ATOM     22  H4  UNL     1      -1.625   9.268  15.164  1.00  0.00     0.163 HD
BRANCH  21  23
HETATM   23  C4  UNL     1      -2.174   7.238  15.010  1.00  0.00     0.022 C 
HETATM   24  C5  UNL     1      -1.240   6.558  15.984  1.00  0.00     0.037 C 
HETATM   25  C6  UNL     1      -3.451   7.608  15.744  1.00  0.00     0.037 C 
HETATM   26  C7  UNL     1      -2.490   6.290  13.867  1.00  0.00     0.037 C 
ENDBRANCH  21  23
ENDBRANCH  17  21
ENDBRANCH  16  17
ENDBRANCH  14  16
ENDBRANCH   7  14
ENDBRANCH   5   7
ENDBRANCH   4   5
ENDBRANCH   1   4
TORSDOF 9
ENDMDL
MODEL 5
REMARK VINA RESULT: -6.679257660      2.038      2.347
REMARK  9 active torsions:
REMARK  status: ('A' for Active; 'I' for Inactive)
REMARK       I    between atoms: C2_2  and  N1_4 
REMARK    1  A    between atoms: N1_4  and  S1_6 
REMARK    2  A    between atoms: S1_6  and  N2_8 
REMARK    3  A    between atoms: S1_6  and  N5_21 
REMARK    4  A    between atoms: N2_8  and  O3_10 
REMARK    5  A    between atoms: O3_10  and  C3_11 
REMARK    6  A    between atoms: C3_11  and  N4_15 
REMARK    7  A    between atoms: N4_15  and  C4_17 
REMARK    8  A    between atoms: N5_21  and  C8_23 
REMARK    9  A    between atoms: C8_23  and  C9_24 
ROOT
HETATM    1  C9  UNL     1      -3.036   9.956   8.135  1.00  0.00     0.144 C 
HETATM    2  C10 UNL     1      -1.688  10.412   7.800  1.00  0.00     0.060 C 
HETATM    3  N6  UNL     1      -0.624  10.785   7.552  1.00  0.00    -0.197 NA
ENDROOT
BRANCH   1   4
HETATM    4  C8  UNL     1      -3.006   9.224   9.459  1.00  0.00     0.146 C 
BRANCH   4   5
HETATM    5  N5  UNL     1      -1.694   8.615   9.597  1.00  0.00    -0.317 N 
ATOM      6  H5  UNL     1      -1.260   8.028   8.884  1.00  0.00     0.172 HD
BRANCH   5   7
HETATM    7  S1  UNL     1      -0.960   8.999  11.099  1.00  0.00     0.220 S 
HETATM    8  O2  UNL     1      -0.780  10.499  11.159  1.00  0.00    -0.204 OA
BRANCH   7   9
HETATM    9  N1  UNL     1       0.588   8.227  11.123  1.00  0.00    -0.254 N 
HETATM   10  C2  UNL     1       0.693   6.811  11.171  1.00  0.00     0.227 C 
HETATM   11  C1  UNL     1       1.999   6.137  11.193  1.00  0.00     0.118 C 
HETATM   12  O1  UNL     1      -0.337   6.111  11.196  1.00  0.00    -0.273 OA
ATOM     13  H1  UNL     1       1.435   8.795  11.102  1.00  0.00     0.181 HD
ENDBRANCH   7   9
BRANCH   7  14
HETATM   14  N2  UNL     1      -1.811   8.514  12.318  1.00  0.00    -0.183 N 
ATOM     15  H2  UNL     1      -2.689   8.025  12.142  1.00  0.00     0.208 HD
BRANCH  14  16
HETATM   16  O3  UNL     1      -1.425   8.721  13.599  1.00  0.00    -0.192 OA
BRANCH  16  17
HETATM   17  C3  UNL     1      -1.210   7.704  14.499  1.00  0.00     0.238 C 
HETATM   18  N3  UNL     1      -0.183   6.956  14.372  1.00  0.00    -0.364 N 
ATOM     19  H32 UNL     1       0.477   7.108  13.609  1.00  0.00     0.159 HD
ATOM     20  H31 UNL     1      -0.023   6.202  15.040  1.00  0.00     0.159 HD
BRANCH  17  21
HETATM   21  N4  UNL     1      -2.114   7.496  15.543  1.00  0.00    -0.347 N 
ATOM     22  H4  UNL     1      -2.069   8.136  16.337  1.00  0.00     0.163 HD
BRANCH  21  23
HETATM   23  C4  UNL     1      -3.101   6.455  15.592  1.00  0.00     0.022 C 
HETATM   24  C5  UNL     1      -2.499   5.245  16.268  1.00  0.00     0.037 C 
HETATM   25  C6  UNL     1      -4.261   6.952  16.436  1.00  0.00     0.037 C 
HETATM   26  C7  UNL     1      -3.595   6.068  14.210  1.00  0.00     0.037 C 
ENDBRANCH  21  23
ENDBRANCH  17  21
ENDBRANCH  16  17
ENDBRANCH  14  16
ENDBRANCH   7  14
ENDBRANCH   5   7
ENDBRANCH   4   5
ENDBRANCH   1   4
TORSDOF 9
ENDMDL
