MODEL 1
REMARK VINA RESULT: -8.371998569      0.000      0.000
REMARK  6 active torsions:
REMARK  status: ('A' for Active; 'I' for Inactive)
REMARK    1  A    between atoms: C2_2  and  N1_3 
REMARK    2  A    between atoms: C2_2  and  C20_31 
REMARK       I    between atoms: N1_3  and  C3_5 
REMARK    3  A    between atoms: C3_5  and  C4_7 
REMARK    4  A    between atoms: C4_7  and  C5_8 
REMARK    5  A    between atoms: C4_7  and  N3_13 
REMARK    6  A    between atoms: C5_8  and  N2_9 
REMARK       I    between atoms: N3_13  and  C9_15 
REMARK       I    between atoms: C9_15  and  N6_26 
REMARK       I    between atoms: N4_16  and  C10_18 
REMARK       I    between atoms: C10_18  and  N5_20 
REMARK       I    between atoms: C20_31  and  N7_33 
ROOT
HETATM    1  N3  UNL     1      17.375 -14.267  20.802  1.00  0.00    -0.211 N 
ATOM      2  H3  UNL     1      17.008 -15.213  20.908  1.00  0.00     0.178 HD
HETATM    3  C9  UNL     1      18.734 -14.040  21.100  1.00  0.00     0.680 C 
HETATM    4  N4  UNL     1      19.335 -14.773  21.938  1.00  0.00    -0.141 N 
ATOM      5  H4  UNL     1      20.318 -14.589  22.136  1.00  0.00     0.189 HD
HETATM    6  C10 UNL     1      18.696 -15.832  22.605  1.00  0.00     0.336 C 
HETATM    7  O2  UNL     1      18.382 -16.918  21.992  1.00  0.00    -0.246 OA
HETATM    8  N5  UNL     1      18.371 -15.746  23.983  1.00  0.00    -0.334 N 
HETATM    9  C11 UNL     1      17.704 -16.818  24.683  1.00  0.00     0.127 C 
HETATM   10  C12 UNL     1      18.453 -17.169  25.956  1.00  0.00     0.020 C 
HETATM   11  C13 UNL     1      18.880 -15.933  26.711  1.00  0.00     0.003 C 
HETATM   12  C14 UNL     1      19.672 -14.997  25.832  1.00  0.00     0.020 C 
HETATM   13  C15 UNL     1      18.727 -14.555  24.710  1.00  0.00     0.127 C 
HETATM   14  N6  UNL     1      19.525 -13.008  20.485  1.00  0.00    -0.218 N 
HETATM   15  C16 UNL     1      19.935 -13.106  19.079  1.00  0.00     0.141 C 
HETATM   16  C17 UNL     1      21.108 -12.169  18.920  1.00  0.00     0.022 C 
HETATM   17  C18 UNL     1      21.421 -11.663  20.291  1.00  0.00     0.022 C 
HETATM   18  C19 UNL     1      20.059 -11.786  20.990  1.00  0.00     0.141 C 
ENDROOT
BRANCH   1  19
HETATM   19  C4  UNL     1      16.467 -13.223  20.350  1.00  0.00     0.217 C 
BRANCH  19  20
HETATM   20  C3  UNL     1      15.332 -13.087  21.296  1.00  0.00     0.243 C 
HETATM   21  N1  UNL     1      14.397 -12.033  21.209  1.00  0.00    -0.346 N 
ATOM     22  H1  UNL     1      14.516 -11.346  20.465  1.00  0.00     0.163 HD
HETATM   23  O1  UNL     1      15.199 -13.931  22.200  1.00  0.00    -0.271 OA
BRANCH  21  24
HETATM   24  C2  UNL     1      13.280 -11.870  22.115  1.00  0.00     0.172 C 
HETATM   25  C1  UNL     1      11.973 -12.272  21.432  1.00  0.00     0.042 C 
BRANCH  24  26
HETATM   26  C20 UNL     1      13.140 -10.512  22.628  1.00  0.00     0.241 C 
HETATM   27  O3  UNL     1      13.804  -9.560  22.147  1.00  0.00    -0.271 OA
HETATM   28  N7  UNL     1      12.245 -10.228  23.694  1.00  0.00    -0.359 N 
HETATM   29  C21 UNL     1      12.080  -8.871  24.215  1.00  0.00     0.152 C 
HETATM   30  C22 UNL     1      11.452 -11.264  24.326  1.00  0.00     0.152 C 
ENDBRANCH  24  26
ENDBRANCH  21  24
ENDBRANCH  19  20
BRANCH  19  31
HETATM   31  C5  UNL     1      16.005 -13.563  18.964  1.00  0.00     0.271 C 
BRANCH  31  32
HETATM   32  N2  UNL     1      16.028 -12.537  17.992  1.00  0.00    -0.076 N 
HETATM   33  C6  UNL     1      16.755 -12.945  16.779  1.00  0.00     0.271 C 
HETATM   34  C7  UNL     1      16.786 -11.401  18.520  1.00  0.00     0.271 C 
HETATM   35  C8  UNL     1      14.765 -12.039  17.529  1.00  0.00     0.271 C 
ENDBRANCH  31  32
ENDBRANCH  19  31
ENDBRANCH   1  19
TORSDOF 6
ENDMDL
MODEL 2
REMARK VINA RESULT: -8.140556317      3.693      7.659
REMARK  6 active torsions:
REMARK  status: ('A' for Active; 'I' for Inactive)
REMARK    1  A    between atoms: C2_2  and  N1_3 
REMARK    2  A    between atoms: C2_2  and  C20_31 
REMARK       I    between atoms: N1_3  and  C3_5 
REMARK    3  A    between atoms: C3_5  and  C4_7 
REMARK    4  A    between atoms: C4_7  and  C5_8 
REMARK    5  A    between atoms: C4_7  and  N3_13 
REMARK    6  A    between atoms: C5_8  and  N2_9 
REMARK       I    between atoms: N3_13  and  C9_15 
REMARK       I    between atoms: C9_15  and  N6_26 
REMARK       I    between atoms: N4_16  and  C10_18 
REMARK       I    between atoms: C10_18  and  N5_20 
REMARK       I    between atoms: C20_31  and  N7_33 
ROOT
HETATM    1  N3  UNL     1      15.617 -11.429  18.104  1.00  0.00    -0.211 N 
ATOM      2  H3  UNL     1      15.236 -10.714  17.483  1.00  0.00     0.178 HD
HETATM    3  C9  UNL     1      17.005 -11.675  18.066  1.00  0.00     0.680 C 
HETATM    4  N4  UNL     1      17.663 -11.454  17.008  1.00  0.00    -0.141 N 
ATOM      5  H4  UNL     1      18.666 -11.640  17.006  1.00  0.00     0.189 HD
HETATM    6  C10 UNL     1      17.063 -10.963  15.836  1.00  0.00     0.336 C 
HETATM    7  O2  UNL     1      16.660  -9.745  15.751  1.00  0.00    -0.246 OA
HETATM    8  N5  UNL     1      16.878 -11.791  14.701  1.00  0.00    -0.334 N 
HETATM    9  C11 UNL     1      16.253 -11.308  13.492  1.00  0.00     0.127 C 
HETATM   10  C12 UNL     1      17.111 -11.629  12.283  1.00  0.00     0.020 C 
HETATM   11  C13 UNL     1      17.645 -13.040  12.337  1.00  0.00     0.003 C 
HETATM   12  C14 UNL     1      18.373 -13.304  13.632  1.00  0.00     0.020 C 
HETATM   13  C15 UNL     1      17.336 -13.155  14.749  1.00  0.00     0.127 C 
HETATM   14  N6  UNL     1      17.761 -12.160  19.189  1.00  0.00    -0.218 N 
HETATM   15  C16 UNL     1      18.028 -11.301  20.348  1.00  0.00     0.141 C 
HETATM   16  C17 UNL     1      19.206 -11.918  21.063  1.00  0.00     0.022 C 
HETATM   17  C18 UNL     1      19.666 -13.048  20.199  1.00  0.00     0.022 C 
HETATM   18  C19 UNL     1      18.376 -13.419  19.453  1.00  0.00     0.141 C 
ENDROOT
BRANCH   1  19
HETATM   19  C4  UNL     1      14.700 -12.140  18.981  1.00  0.00     0.217 C 
BRANCH  19  20
HETATM   20  C3  UNL     1      14.263 -13.408  18.346  1.00  0.00     0.243 C 
HETATM   21  N1  UNL     1      13.494 -14.373  19.032  1.00  0.00    -0.346 N 
ATOM     22  H1  UNL     1      13.235 -14.180  19.999  1.00  0.00     0.163 HD
HETATM   23  O1  UNL     1      14.586 -13.631  17.165  1.00  0.00    -0.271 OA
BRANCH  21  24
HETATM   24  C2  UNL     1      13.053 -15.619  18.443  1.00  0.00     0.172 C 
HETATM   25  C1  UNL     1      11.534 -15.754  18.551  1.00  0.00     0.042 C 
BRANCH  24  26
HETATM   26  C20 UNL     1      13.670 -16.797  19.043  1.00  0.00     0.241 C 
HETATM   27  O3  UNL     1      13.339 -17.198  20.186  1.00  0.00    -0.271 OA
HETATM   28  N7  UNL     1      14.670 -17.525  18.345  1.00  0.00    -0.359 N 
HETATM   29  C21 UNL     1      15.293 -18.716  18.923  1.00  0.00     0.152 C 
HETATM   30  C22 UNL     1      15.131 -17.128  17.029  1.00  0.00     0.152 C 
ENDBRANCH  24  26
ENDBRANCH  21  24
ENDBRANCH  19  20
BRANCH  19  31
HETATM   31  C5  UNL     1      13.541 -11.238  19.288  1.00  0.00     0.271 C 
BRANCH  31  32
HETATM   32  N2  UNL     1      13.203 -11.040  20.646  1.00  0.00    -0.076 N 
HETATM   33  C6  UNL     1      12.556  -9.736  20.867  1.00  0.00     0.271 C 
HETATM   34  C7  UNL     1      14.433 -10.988  21.438  1.00  0.00     0.271 C 
HETATM   35  C8  UNL     1      12.333 -12.004  21.257  1.00  0.00     0.271 C 
ENDBRANCH  31  32
ENDBRANCH  19  31
ENDBRANCH   1  19
TORSDOF 6
ENDMDL
MODEL 3
REMARK VINA RESULT: -8.055433148      3.364      7.151
REMARK  6 active torsions:
REMARK  status: ('A' for Active; 'I' for Inactive)
REMARK    1  A    between atoms: C2_2  and  N1_3 
REMARK    2  A    between atoms: C2_2  and  C20_31 
REMARK       I    between atoms: N1_3  and  C3_5 
REMARK    3  A    between atoms: C3_5  and  C4_7 
REMARK    4  A    between atoms: C4_7  and  C5_8 
REMARK    5  A    between atoms: C4_7  and  N3_13 
REMARK    6  A    between atoms: C5_8  and  N2_9 
REMARK       I    between atoms: N3_13  and  C9_15 
REMARK       I    between atoms: C9_15  and  N6_26 
REMARK       I    between atoms: N4_16  and  C10_18 
REMARK       I    between atoms: C10_18  and  N5_20 
REMARK       I    between atoms: C20_31  and  N7_33 
ROOT
HETATM    1  N3  UNL     1      15.798 -11.280  18.660  1.00  0.00    -0.211 N 
ATOM      2  H3  UNL     1      15.393 -10.576  18.043  1.00  0.00     0.178 HD
HETATM    3  C9  UNL     1      17.095 -11.752  18.375  1.00  0.00     0.680 C 
HETATM    4  N4  UNL     1      17.530 -11.746  17.187  1.00  0.00    -0.141 N 
ATOM      5  H4  UNL     1      18.472 -12.092  17.006  1.00  0.00     0.189 HD
HETATM    6  C10 UNL     1      16.762 -11.278  16.107  1.00  0.00     0.336 C 
HETATM    7  O2  UNL     1      16.524 -10.024  15.948  1.00  0.00    -0.246 OA
HETATM    8  N5  UNL     1      16.218 -12.170  15.149  1.00  0.00    -0.334 N 
HETATM    9  C11 UNL     1      15.416 -11.710  14.040  1.00  0.00     0.127 C 
HETATM   10  C12 UNL     1      15.935 -12.282  12.733  1.00  0.00     0.020 C 
HETATM   11  C13 UNL     1      16.266 -13.750  12.860  1.00  0.00     0.003 C 
HETATM   12  C14 UNL     1      17.216 -14.004  14.004  1.00  0.00     0.020 C 
HETATM   13  C15 UNL     1      16.481 -13.580  15.279  1.00  0.00     0.127 C 
HETATM   14  N6  UNL     1      18.004 -12.244  19.376  1.00  0.00    -0.218 N 
HETATM   15  C16 UNL     1      18.637 -11.333  20.336  1.00  0.00     0.141 C 
HETATM   16  C17 UNL     1      19.844 -12.064  20.872  1.00  0.00     0.022 C 
HETATM   17  C18 UNL     1      19.941 -13.331  20.086  1.00  0.00     0.022 C 
HETATM   18  C19 UNL     1      18.481 -13.556  19.670  1.00  0.00     0.141 C 
ENDROOT
BRANCH   1  19
HETATM   19  C4  UNL     1      15.005 -11.744  19.789  1.00  0.00     0.217 C 
BRANCH  19  20
HETATM   20  C3  UNL     1      14.923 -13.225  19.783  1.00  0.00     0.243 C 
HETATM   21  N1  UNL     1      14.437 -13.951  18.673  1.00  0.00    -0.346 N 
ATOM     22  H1  UNL     1      14.136 -13.427  17.852  1.00  0.00     0.163 HD
HETATM   23  O1  UNL     1      15.294 -13.853  20.791  1.00  0.00    -0.271 OA
BRANCH  21  24
HETATM   24  C2  UNL     1      14.342 -15.395  18.634  1.00  0.00     0.172 C 
HETATM   25  C1  UNL     1      14.784 -15.923  17.269  1.00  0.00     0.042 C 
BRANCH  24  26
HETATM   26  C20 UNL     1      13.003 -15.898  18.918  1.00  0.00     0.241 C 
HETATM   27  O3  UNL     1      12.031 -15.627  18.170  1.00  0.00    -0.271 OA
HETATM   28  N7  UNL     1      12.761 -16.712  20.056  1.00  0.00    -0.359 N 
HETATM   29  C21 UNL     1      11.429 -17.237  20.353  1.00  0.00     0.152 C 
HETATM   30  C22 UNL     1      13.817 -17.062  20.987  1.00  0.00     0.152 C 
ENDBRANCH  24  26
ENDBRANCH  21  24
ENDBRANCH  19  20
BRANCH  19  31
HETATM   31  C5  UNL     1      13.650 -11.106  19.712  1.00  0.00     0.271 C 
BRANCH  31  32
HETATM   32  N2  UNL     1      13.068 -10.649  20.916  1.00  0.00    -0.076 N 
HETATM   33  C6  UNL     1      12.284  -9.419  20.717  1.00  0.00     0.271 C 
HETATM   34  C7  UNL     1      14.134 -10.268  21.844  1.00  0.00     0.271 C 
HETATM   35  C8  UNL     1      12.191 -11.550  21.608  1.00  0.00     0.271 C 
ENDBRANCH  31  32
ENDBRANCH  19  31
ENDBRANCH   1  19
TORSDOF 6
ENDMDL
MODEL 4
REMARK VINA RESULT: -7.980548880      2.593      6.194
REMARK  6 active torsions:
REMARK  status: ('A' for Active; 'I' for Inactive)
REMARK    1  A    between atoms: C2_2  and  N1_3 
REMARK    2  A    between atoms: C2_2  and  C20_31 
REMARK       I    between atoms: N1_3  and  C3_5 
REMARK    3  A    between atoms: C3_5  and  C4_7 
REMARK    4  A    between atoms: C4_7  and  C5_8 
REMARK    5  A    between atoms: C4_7  and  N3_13 
REMARK    6  A    between atoms: C5_8  and  N2_9 
REMARK       I    between atoms: N3_13  and  C9_15 
REMARK       I    between atoms: C9_15  and  N6_26 
REMARK       I    between atoms: N4_16  and  C10_18 
REMARK       I    between atoms: C10_18  and  N5_20 
REMARK       I    between atoms: C20_31  and  N7_33 
ROOT
HETATM    1  N3  UNL     1      15.481 -13.024  21.767  1.00  0.00    -0.211 N 
ATOM      2  H3  UNL     1      15.991 -12.450  22.438  1.00  0.00     0.178 HD
HETATM    3  C9  UNL     1      16.056 -14.244  21.357  1.00  0.00     0.680 C 
HETATM    4  N4  UNL     1      17.313 -14.392  21.365  1.00  0.00    -0.141 N 
ATOM      5  H4  UNL     1      17.705 -15.283  21.065  1.00  0.00     0.189 HD
HETATM    6  C10 UNL     1      18.188 -13.370  21.775  1.00  0.00     0.336 C 
HETATM    7  O2  UNL     1      18.293 -13.035  23.012  1.00  0.00    -0.246 OA
HETATM    8  N5  UNL     1      18.990 -12.669  20.840  1.00  0.00    -0.334 N 
HETATM    9  C11 UNL     1      19.885 -11.609  21.239  1.00  0.00     0.127 C 
HETATM   10  C12 UNL     1      21.274 -11.842  20.672  1.00  0.00     0.020 C 
HETATM   11  C13 UNL     1      21.220 -12.272  19.225  1.00  0.00     0.003 C 
HETATM   12  C14 UNL     1      20.326 -13.473  19.040  1.00  0.00     0.020 C 
HETATM   13  C15 UNL     1      18.917 -13.031  19.447  1.00  0.00     0.127 C 
HETATM   14  N6  UNL     1      15.291 -15.385  20.929  1.00  0.00    -0.218 N 
HETATM   15  C16 UNL     1      14.508 -16.172  21.888  1.00  0.00     0.141 C 
HETATM   16  C17 UNL     1      14.263 -17.508  21.230  1.00  0.00     0.022 C 
HETATM   17  C18 UNL     1      15.044 -17.489  19.956  1.00  0.00     0.022 C 
HETATM   18  C19 UNL     1      15.109 -15.987  19.650  1.00  0.00     0.141 C 
ENDROOT
BRANCH   1  19
HETATM   19  C4  UNL     1      14.197 -12.540  21.283  1.00  0.00     0.217 C 
BRANCH  19  20
HETATM   20  C3  UNL     1      14.154 -12.596  19.800  1.00  0.00     0.243 C 
HETATM   21  N1  UNL     1      15.254 -12.224  18.997  1.00  0.00    -0.346 N 
ATOM     22  H1  UNL     1      16.103 -11.907  19.464  1.00  0.00     0.163 HD
HETATM   23  O1  UNL     1      13.112 -12.985  19.243  1.00  0.00    -0.271 OA
BRANCH  21  24
HETATM   24  C2  UNL     1      15.246 -12.266  17.550  1.00  0.00     0.172 C 
HETATM   25  C1  UNL     1      15.545 -13.681  17.054  1.00  0.00     0.042 C 
BRANCH  24  26
HETATM   26  C20 UNL     1      16.196 -11.345  16.936  1.00  0.00     0.241 C 
HETATM   27  O3  UNL     1      17.157 -10.866  17.588  1.00  0.00    -0.271 OA
HETATM   28  N7  UNL     1      16.058 -10.962  15.576  1.00  0.00    -0.359 N 
HETATM   29  C21 UNL     1      17.006 -10.050  14.937  1.00  0.00     0.152 C 
HETATM   30  C22 UNL     1      14.970 -11.448  14.748  1.00  0.00     0.152 C 
ENDBRANCH  24  26
ENDBRANCH  21  24
ENDBRANCH  19  20
BRANCH  19  31
HETATM   31  C5  UNL     1      13.990 -11.147  21.797  1.00  0.00     0.271 C 
BRANCH  31  32
HETATM   32  N2  UNL     1      12.670 -10.750  22.111  1.00  0.00    -0.076 N 
HETATM   33  C6  UNL     1      12.111  -9.843  21.094  1.00  0.00     0.271 C 
HETATM   34  C7  UNL     1      12.692  -9.962  23.344  1.00  0.00     0.271 C 
HETATM   35  C8  UNL     1      11.691 -11.786  22.274  1.00  0.00     0.271 C 
ENDBRANCH  31  32
ENDBRANCH  19  31
ENDBRANCH   1  19
TORSDOF 6
ENDMDL
MODEL 5
REMARK VINA RESULT: -7.805689347      3.057      6.609
REMARK  6 active torsions:
REMARK  status: ('A' for Active; 'I' for Inactive)
REMARK    1  A    between atoms: C2_2  and  N1_3 
REMARK    2  A    between atoms: C2_2  and  C20_31 
REMARK       I    between atoms: N1_3  and  C3_5 
REMARK    3  A    between atoms: C3_5  and  C4_7 
REMARK    4  A    between atoms: C4_7  and  C5_8 
REMARK    5  A    between atoms: C4_7  and  N3_13 
REMARK    6  A    between atoms: C5_8  and  N2_9 
REMARK       I    between atoms: N3_13  and  C9_15 
REMARK       I    between atoms: C9_15  and  N6_26 
REMARK       I    between atoms: N4_16  and  C10_18 
REMARK       I    between atoms: C10_18  and  N5_20 
REMARK       I    between atoms: C20_31  and  N7_33 
ROOT
HETATM    1  N3  UNL     1      15.106 -12.880  20.065  1.00  0.00    -0.211 N 
ATOM      2  H3  UNL     1      15.332 -12.196  20.788  1.00  0.00     0.178 HD
HETATM    3  C9  UNL     1      15.788 -14.114  20.076  1.00  0.00     0.680 C 
HETATM    4  N4  UNL     1      16.950 -14.196  20.568  1.00  0.00    -0.141 N 
ATOM      5  H4  UNL     1      17.423 -15.099  20.565  1.00  0.00     0.189 HD
HETATM    6  C10 UNL     1      17.614 -13.086  21.121  1.00  0.00     0.336 C 
HETATM    7  O2  UNL     1      17.253 -12.583  22.247  1.00  0.00    -0.246 OA
HETATM    8  N5  UNL     1      18.709 -12.478  20.457  1.00  0.00    -0.334 N 
HETATM    9  C11 UNL     1      19.396 -11.331  21.002  1.00  0.00     0.127 C 
HETATM   10  C12 UNL     1      20.895 -11.569  21.027  1.00  0.00     0.020 C 
HETATM   11  C13 UNL     1      21.381 -12.191  19.740  1.00  0.00     0.003 C 
HETATM   12  C14 UNL     1      20.616 -13.450  19.412  1.00  0.00     0.020 C 
HETATM   13  C15 UNL     1      19.158 -13.027  19.204  1.00  0.00     0.127 C 
HETATM   14  N6  UNL     1      15.232 -15.338  19.564  1.00  0.00    -0.218 N 
HETATM   15  C16 UNL     1      14.146 -16.027  20.269  1.00  0.00     0.141 C 
HETATM   16  C17 UNL     1      14.158 -17.450  19.766  1.00  0.00     0.022 C 
HETATM   17  C18 UNL     1      15.357 -17.564  18.881  1.00  0.00     0.022 C 
HETATM   18  C19 UNL     1      15.538 -16.115  18.408  1.00  0.00     0.141 C 
ENDROOT
BRANCH   1  19
HETATM   19  C4  UNL     1      14.096 -12.530  19.077  1.00  0.00     0.217 C 
BRANCH  19  20
HETATM   20  C3  UNL     1      14.696 -12.501  17.720  1.00  0.00     0.243 C 
HETATM   21  N1  UNL     1      15.488 -11.425  17.266  1.00  0.00    -0.346 N 
ATOM     22  H1  UNL     1      15.647 -10.644  17.902  1.00  0.00     0.163 HD
HETATM   23  O1  UNL     1      14.494 -13.460  16.953  1.00  0.00    -0.271 OA
BRANCH  21  24
HETATM   24  C2  UNL     1      16.087 -11.364  15.949  1.00  0.00     0.172 C 
HETATM   25  C1  UNL     1      17.385 -10.559  15.988  1.00  0.00     0.042 C 
BRANCH  24  26
HETATM   26  C20 UNL     1      15.209 -10.787  14.937  1.00  0.00     0.241 C 
HETATM   27  O3  UNL     1      14.603  -9.706  15.138  1.00  0.00    -0.271 OA
HETATM   28  N7  UNL     1      15.016 -11.438  13.689  1.00  0.00    -0.359 N 
HETATM   29  C21 UNL     1      14.150 -10.870  12.655  1.00  0.00     0.152 C 
HETATM   30  C22 UNL     1      15.658 -12.699  13.374  1.00  0.00     0.152 C 
ENDBRANCH  24  26
ENDBRANCH  21  24
ENDBRANCH  19  20
BRANCH  19  31
HETATM   31  C5  UNL     1      13.501 -11.207  19.455  1.00  0.00     0.271 C 
BRANCH  31  32
HETATM   32  N2  UNL     1      13.090 -11.029  20.796  1.00  0.00    -0.076 N 
HETATM   33  C6  UNL     1      12.174 -12.093  21.237  1.00  0.00     0.271 C 
HETATM   34  C7  UNL     1      12.306  -9.796  20.892  1.00  0.00     0.271 C 
HETATM   35  C8  UNL     1      14.115 -10.971  21.798  1.00  0.00     0.271 C 
ENDBRANCH  31  32
ENDBRANCH  19  31
ENDBRANCH   1  19
TORSDOF 6
ENDMDL
