MODEL 1
REMARK VINA RESULT: -7.242443816      0.000      0.000
REMARK  2 active torsions:
REMARK  status: ('A' for Active; 'I' for Inactive)
REMARK    1  A    between atoms: C7_12  and  C8_13 
REMARK    2  A    between atoms: C14_21  and  N4_22 
ROOT
HETATM    1  C1  UNL     1     -22.553  34.255  -2.372  1.00  0.00     0.158 C 
HETATM    2  N1  UNL     1     -22.168  33.315  -3.361  1.00  0.00    -0.335 N 
HETATM    3  C2  UNL     1     -23.271  32.500  -3.853  1.00  0.00     0.069 A 
HETATM    4  C3  UNL     1     -24.296  32.481  -2.934  1.00  0.00     0.099 A 
HETATM    5  S1  UNL     1     -25.480  31.504  -3.641  1.00  0.00    -0.024 SA
HETATM    6  N2  UNL     1     -24.680  31.140  -5.062  1.00  0.00    -0.326 N 
ATOM      7  H2  UNL     1     -25.017  30.557  -5.828  1.00  0.00     0.174 HD
HETATM    8  C4  UNL     1     -23.522  31.762  -4.985  1.00  0.00     0.072 A 
HETATM    9  C5  UNL     1     -22.705  31.476  -6.287  1.00  0.00     0.201 C 
HETATM   10 CL1  UNL     1     -23.809  31.984  -7.589  1.00  0.00    -0.106 Cl
HETATM   11  C6  UNL     1     -21.526  32.138  -6.099  1.00  0.00    -0.146 C 
HETATM   12  C7  UNL     1     -20.277  32.793  -6.227  1.00  0.00     0.099 C 
HETATM   13  C12 UNL     1     -19.968  33.171  -4.774  1.00  0.00     0.018 A 
HETATM   14  C13 UNL     1     -18.618  33.291  -4.662  1.00  0.00     0.118 A 
HETATM   15  N3  UNL     1     -18.065  33.627  -3.470  1.00  0.00    -0.201 N 
ATOM     16  H3  UNL     1     -17.053  33.717  -3.386  1.00  0.00     0.183 HD
HETATM   17  C14 UNL     1     -18.852  33.845  -2.389  1.00  0.00     0.677 A 
HETATM   18  N5  UNL     1     -20.184  33.731  -2.470  1.00  0.00    -0.176 N 
ATOM     19  H5  UNL     1     -20.764  33.897  -1.647  1.00  0.00     0.186 HD
HETATM   20  C15 UNL     1     -20.751  33.398  -3.641  1.00  0.00     0.132 A 
ENDROOT
BRANCH  12  21
HETATM   21  C8  UNL     1     -20.269  34.029  -7.107  1.00  0.00    -0.034 C 
HETATM   22  C9  UNL     1     -18.952  34.733  -7.214  1.00  0.00     0.016 C 
HETATM   23  C10 UNL     1     -20.683  33.602  -8.501  1.00  0.00     0.016 C 
HETATM   24  C11 UNL     1     -21.283  35.057  -6.665  1.00  0.00     0.016 C 
ENDBRANCH  12  21
BRANCH  17  25
HETATM   25  N4  UNL     1     -18.237  34.164  -1.288  1.00  0.00    -0.234 N 
ATOM     26  H42 UNL     1     -18.514  34.957  -0.710  1.00  0.00     0.174 HD
ATOM     27  H41 UNL     1     -17.450  33.570  -1.025  1.00  0.00     0.174 HD
ENDBRANCH  17  25
TORSDOF 2
ENDMDL
MODEL 2
REMARK VINA RESULT: -6.985264025      3.098      6.186
REMARK  2 active torsions:
REMARK  status: ('A' for Active; 'I' for Inactive)
REMARK    1  A    between atoms: C7_12  and  C8_13 
REMARK    2  A    between atoms: C14_21  and  N4_22 
ROOT
HETATM    1  C1  UNL     1     -25.143  32.530  -6.189  1.00  0.00     0.158 C 
HETATM    2  N1  UNL     1     -24.141  32.578  -5.188  1.00  0.00    -0.335 N 
HETATM    3  C2  UNL     1     -22.917  33.241  -5.617  1.00  0.00     0.069 A 
HETATM    4  C3  UNL     1     -22.827  33.230  -6.992  1.00  0.00     0.099 A 
HETATM    5  S1  UNL     1     -21.371  34.021  -7.325  1.00  0.00    -0.024 SA
HETATM    6  N2  UNL     1     -20.905  34.348  -5.755  1.00  0.00    -0.326 N 
ATOM      7  H2  UNL     1     -20.059  34.831  -5.450  1.00  0.00     0.174 HD
HETATM    8  C4  UNL     1     -21.858  33.854  -4.993  1.00  0.00     0.072 A 
HETATM    9  C5  UNL     1     -21.501  34.124  -3.495  1.00  0.00     0.201 C 
HETATM   10 CL1  UNL     1     -21.255  35.888  -3.439  1.00  0.00    -0.106 Cl
HETATM   11  C6  UNL     1     -22.526  33.558  -2.795  1.00  0.00    -0.146 C 
HETATM   12  C7  UNL     1     -23.481  33.161  -1.827  1.00  0.00     0.099 C 
HETATM   13  C12 UNL     1     -24.320  32.145  -2.611  1.00  0.00     0.018 A 
HETATM   14  C13 UNL     1     -24.887  31.301  -1.708  1.00  0.00     0.118 A 
HETATM   15  N3  UNL     1     -25.694  30.297  -2.133  1.00  0.00    -0.201 N 
ATOM     16  H3  UNL     1     -26.119  29.665  -1.455  1.00  0.00     0.183 HD
HETATM   17  C14 UNL     1     -25.938  30.131  -3.455  1.00  0.00     0.677 A 
HETATM   18  N5  UNL     1     -25.391  30.945  -4.367  1.00  0.00    -0.176 N 
ATOM     19  H5  UNL     1     -25.584  30.807  -5.359  1.00  0.00     0.186 HD
HETATM   20  C15 UNL     1     -24.589  31.944  -3.966  1.00  0.00     0.132 A 
ENDROOT
BRANCH  12  21
HETATM   21  C8  UNL     1     -24.366  34.267  -1.283  1.00  0.00    -0.034 C 
HETATM   22  C9  UNL     1     -25.457  33.822  -0.360  1.00  0.00     0.016 C 
HETATM   23  C10 UNL     1     -23.478  35.231  -0.522  1.00  0.00     0.016 C 
HETATM   24  C11 UNL     1     -25.018  35.075  -2.379  1.00  0.00     0.016 C 
ENDBRANCH  12  21
BRANCH  17  25
HETATM   25  N4  UNL     1     -26.724  29.144  -3.772  1.00  0.00    -0.234 N 
ATOM     26  H42 UNL     1     -27.492  28.834  -3.176  1.00  0.00     0.174 HD
ATOM     27  H41 UNL     1     -26.533  28.686  -4.664  1.00  0.00     0.174 HD
ENDBRANCH  17  25
TORSDOF 2
ENDMDL
MODEL 3
REMARK VINA RESULT: -6.744705874      2.873      5.996
REMARK  2 active torsions:
REMARK  status: ('A' for Active; 'I' for Inactive)
REMARK    1  A    between atoms: C7_12  and  C8_13 
REMARK    2  A    between atoms: C14_21  and  N4_22 
ROOT
HETATM    1  C1  UNL     1     -21.143  32.917  -6.520  1.00  0.00     0.158 C 
HETATM    2  N1  UNL     1     -21.214  32.655  -5.129  1.00  0.00    -0.335 N 
HETATM    3  C2  UNL     1     -19.919  32.688  -4.461  1.00  0.00     0.069 A 
HETATM    4  C3  UNL     1     -18.908  32.482  -5.373  1.00  0.00     0.099 A 
HETATM    5  S1  UNL     1     -17.491  32.544  -4.454  1.00  0.00    -0.024 SA
HETATM    6  N2  UNL     1     -18.182  32.824  -2.959  1.00  0.00    -0.326 N 
ATOM      7  H2  UNL     1     -17.698  32.938  -2.067  1.00  0.00     0.174 HD
HETATM    8  C4  UNL     1     -19.481  32.867  -3.171  1.00  0.00     0.072 A 
HETATM    9  C5  UNL     1     -20.208  33.132  -1.814  1.00  0.00     0.201 C 
HETATM   10 CL1  UNL     1     -19.438  34.623  -1.215  1.00  0.00    -0.106 Cl
HETATM   11  C6  UNL     1     -21.535  33.134  -2.135  1.00  0.00    -0.146 C 
HETATM   12  C7  UNL     1     -22.942  33.289  -2.182  1.00  0.00     0.099 C 
HETATM   13  C12 UNL     1     -23.285  32.637  -3.526  1.00  0.00     0.018 A 
HETATM   14  C13 UNL     1     -24.578  32.219  -3.458  1.00  0.00     0.118 A 
HETATM   15  N3  UNL     1     -25.148  31.605  -4.525  1.00  0.00    -0.201 N 
ATOM     16  H3  UNL     1     -26.118  31.293  -4.473  1.00  0.00     0.183 HD
HETATM   17  C14 UNL     1     -24.436  31.406  -5.659  1.00  0.00     0.677 A 
HETATM   18  N5  UNL     1     -23.161  31.804  -5.754  1.00  0.00    -0.176 N 
ATOM     19  H5  UNL     1     -22.636  31.647  -6.614  1.00  0.00     0.186 HD
HETATM   20  C15 UNL     1     -22.577  32.413  -4.708  1.00  0.00     0.132 A 
ENDROOT
BRANCH  12  21
HETATM   21  C8  UNL     1     -23.448  34.719  -2.145  1.00  0.00    -0.034 C 
HETATM   22  C9  UNL     1     -24.849  34.917  -2.634  1.00  0.00     0.016 C 
HETATM   23  C10 UNL     1     -23.386  35.189  -0.707  1.00  0.00     0.016 C 
HETATM   24  C11 UNL     1     -22.570  35.661  -2.933  1.00  0.00     0.016 C 
ENDBRANCH  12  21
BRANCH  17  25
HETATM   25  N4  UNL     1     -25.063  30.811  -6.632  1.00  0.00    -0.234 N 
ATOM     26  H42 UNL     1     -25.904  30.252  -6.488  1.00  0.00     0.174 HD
ATOM     27  H41 UNL     1     -24.666  30.934  -7.564  1.00  0.00     0.174 HD
ENDBRANCH  17  25
TORSDOF 2
ENDMDL
MODEL 4
REMARK VINA RESULT: -6.614370013      3.289      6.059
REMARK  2 active torsions:
REMARK  status: ('A' for Active; 'I' for Inactive)
REMARK    1  A    between atoms: C7_12  and  C8_13 
REMARK    2  A    between atoms: C14_21  and  N4_22 
ROOT
HETATM    1  C1  UNL     1     -21.198  35.569  -7.724  1.00  0.00     0.158 C 
HETATM    2  N1  UNL     1     -20.867  34.499  -6.855  1.00  0.00    -0.335 N 
HETATM    3  C2  UNL     1     -19.444  34.406  -6.558  1.00  0.00     0.069 A 
HETATM    4  C3  UNL     1     -18.711  35.040  -7.537  1.00  0.00     0.099 A 
HETATM    5  S1  UNL     1     -17.103  34.841  -7.056  1.00  0.00    -0.024 SA
HETATM    6  N2  UNL     1     -17.373  33.977  -5.652  1.00  0.00    -0.326 N 
ATOM      7  H2  UNL     1     -16.671  33.624  -5.001  1.00  0.00     0.174 HD
HETATM    8  C4  UNL     1     -18.680  33.847  -5.562  1.00  0.00     0.072 A 
HETATM    9  C5  UNL     1     -19.022  33.048  -4.263  1.00  0.00     0.201 C 
HETATM   10 CL1  UNL     1     -18.213  33.980  -2.978  1.00  0.00    -0.106 Cl
HETATM   11  C6  UNL     1     -20.383  32.948  -4.276  1.00  0.00    -0.146 C 
HETATM   12  C7  UNL     1     -21.756  32.776  -3.973  1.00  0.00     0.099 C 
HETATM   13  C12 UNL     1     -22.414  33.032  -5.334  1.00  0.00     0.018 A 
HETATM   14  C13 UNL     1     -23.609  32.383  -5.337  1.00  0.00     0.118 A 
HETATM   15  N3  UNL     1     -24.410  32.447  -6.430  1.00  0.00    -0.201 N 
ATOM     16  H3  UNL     1     -25.306  31.960  -6.433  1.00  0.00     0.183 HD
HETATM   17  C14 UNL     1     -24.026  33.155  -7.519  1.00  0.00     0.677 A 
HETATM   18  N5  UNL     1     -22.853  33.802  -7.544  1.00  0.00    -0.176 N 
ATOM     19  H5  UNL     1     -22.576  34.330  -8.371  1.00  0.00     0.186 HD
HETATM   20  C15 UNL     1     -22.045  33.750  -6.473  1.00  0.00     0.132 A 
ENDROOT
BRANCH  12  21
HETATM   21  C8  UNL     1     -22.322  33.719  -2.927  1.00  0.00    -0.034 C 
HETATM   22  C9  UNL     1     -23.742  33.460  -2.530  1.00  0.00     0.016 C 
HETATM   23  C10 UNL     1     -21.462  33.596  -1.686  1.00  0.00     0.016 C 
HETATM   24  C11 UNL     1     -22.241  35.166  -3.352  1.00  0.00     0.016 C 
ENDBRANCH  12  21
BRANCH  17  25
HETATM   25  N4  UNL     1     -24.856  33.162  -8.520  1.00  0.00    -0.234 N 
ATOM     26  H42 UNL     1     -25.869  33.180  -8.398  1.00  0.00     0.174 HD
ATOM     27  H41 UNL     1     -24.438  33.150  -9.451  1.00  0.00     0.174 HD
ENDBRANCH  17  25
TORSDOF 2
ENDMDL
MODEL 5
REMARK VINA RESULT: -6.612547138      3.404      5.465
REMARK  2 active torsions:
REMARK  status: ('A' for Active; 'I' for Inactive)
REMARK    1  A    between atoms: C7_12  and  C8_13 
REMARK    2  A    between atoms: C14_21  and  N4_22 
ROOT
HETATM    1  C1  UNL     1     -24.276  35.888  -6.577  1.00  0.00     0.158 C 
HETATM    2  N1  UNL     1     -23.424  34.770  -6.394  1.00  0.00    -0.335 N 
HETATM    3  C2  UNL     1     -22.341  34.695  -7.365  1.00  0.00     0.069 A 
HETATM    4  C3  UNL     1     -22.663  35.414  -8.494  1.00  0.00     0.099 A 
HETATM    5  S1  UNL     1     -21.326  35.226  -9.510  1.00  0.00    -0.024 SA
HETATM    6  N2  UNL     1     -20.396  34.260  -8.515  1.00  0.00    -0.326 N 
ATOM      7  H2  UNL     1     -19.469  33.882  -8.712  1.00  0.00     0.174 HD
HETATM    8  C4  UNL     1     -21.109  34.089  -7.421  1.00  0.00     0.072 A 
HETATM    9  C5  UNL     1     -20.303  33.193  -6.425  1.00  0.00     0.201 C 
HETATM   10 CL1  UNL     1     -18.754  34.055  -6.252  1.00  0.00    -0.106 Cl
HETATM   11  C6  UNL     1     -21.129  33.057  -5.347  1.00  0.00    -0.146 C 
HETATM   12  C7  UNL     1     -21.712  32.828  -4.077  1.00  0.00     0.099 C 
HETATM   13  C12 UNL     1     -23.185  33.160  -4.342  1.00  0.00     0.018 A 
HETATM   14  C13 UNL     1     -23.927  32.481  -3.426  1.00  0.00     0.118 A 
HETATM   15  N3  UNL     1     -25.279  32.598  -3.429  1.00  0.00    -0.201 N 
ATOM     16  H3  UNL     1     -25.834  32.089  -2.742  1.00  0.00     0.183 HD
HETATM   17  C14 UNL     1     -25.894  33.390  -4.339  1.00  0.00     0.677 A 
HETATM   18  N5  UNL     1     -25.188  34.068  -5.254  1.00  0.00    -0.176 N 
ATOM     19  H5  UNL     1     -25.666  34.660  -5.934  1.00  0.00     0.186 HD
HETATM   20  C15 UNL     1     -23.850  33.965  -5.269  1.00  0.00     0.132 A 
ENDROOT
BRANCH  12  21
HETATM   21  C8  UNL     1     -21.175  33.681  -2.943  1.00  0.00    -0.034 C 
HETATM   22  C9  UNL     1     -22.058  33.778  -1.738  1.00  0.00     0.016 C 
HETATM   23  C10 UNL     1     -19.854  33.082  -2.506  1.00  0.00     0.016 C 
HETATM   24  C11 UNL     1     -20.870  35.094  -3.380  1.00  0.00     0.016 C 
ENDBRANCH  12  21
BRANCH  17  25
HETATM   25  N4  UNL     1     -27.192  33.444  -4.267  1.00  0.00    -0.234 N 
ATOM     26  H42 UNL     1     -27.704  33.281  -3.401  1.00  0.00     0.174 HD
ATOM     27  H41 UNL     1     -27.681  33.662  -5.135  1.00  0.00     0.174 HD
ENDBRANCH  17  25
TORSDOF 2
ENDMDL
