MODEL 1
REMARK VINA RESULT: -7.169695204      0.000      0.000
REMARK  9 active torsions:
REMARK  status: ('A' for Active; 'I' for Inactive)
REMARK    1  A    between atoms: C4_6  and  N2_7 
REMARK    2  A    between atoms: N2_7  and  C5_9 
REMARK    3  A    between atoms: C5_9  and  C6_10 
REMARK    4  A    between atoms: C6_10  and  C7_11 
REMARK    5  A    between atoms: C7_11  and  N3_12 
REMARK    6  A    between atoms: N3_12  and  C8_14 
REMARK    7  A    between atoms: C8_14  and  N4_16 
REMARK    8  A    between atoms: N4_16  and  C9_18 
REMARK    9  A    between atoms: C9_18  and  C10_19 
ROOT
HETATM    1  C8  UNL     1      -9.299  42.198  19.698  1.00  0.00     0.167 C 
HETATM    2  S1  UNL     1      -9.516  43.191  20.962  1.00  0.00    -0.041 SA
ENDROOT
BRANCH   1   3
HETATM    3  N3  UNL     1      -8.427  41.062  19.791  1.00  0.00    -0.367 N 
ATOM      4  H3  UNL     1      -7.528  41.074  19.308  1.00  0.00     0.161 HD
BRANCH   3   5
HETATM    5  C7  UNL     1      -8.802  39.910  20.555  1.00  0.00     0.123 C 
BRANCH   5   6
HETATM    6  C6  UNL     1      -8.525  38.608  19.883  1.00  0.00     0.040 C 
BRANCH   6   7
HETATM    7  C5  UNL     1      -8.130  38.787  18.432  1.00  0.00     0.139 C 
BRANCH   7   8
HETATM    8  N2  UNL     1      -7.734  37.571  17.793  1.00  0.00    -0.226 N 
ATOM      9  H2  UNL     1      -8.271  36.733  18.015  1.00  0.00     0.177 HD
BRANCH   8  10
HETATM   10  C4  UNL     1      -6.764  37.442  16.965  1.00  0.00     0.678 A 
HETATM   11  N1  UNL     1      -6.650  38.020  15.762  1.00  0.00    -0.200 N 
HETATM   12  C3  UNL     1      -5.498  37.654  15.173  1.00  0.00     0.131 A 
ATOM     13  H1  UNL     1      -7.339  38.650  15.352  1.00  0.00     0.183 HD
HETATM   14  C2  UNL     1      -4.871  36.805  16.063  1.00  0.00     0.038 A 
HETATM   15  C1  UNL     1      -3.565  36.112  15.904  1.00  0.00     0.070 C 
HETATM   16  N6  UNL     1      -5.664  36.694  17.143  1.00  0.00    -0.195 N 
ATOM     17  H6  UNL     1      -5.462  36.130  17.968  1.00  0.00     0.184 HD
ENDBRANCH   8  10
ENDBRANCH   7   8
ENDBRANCH   6   7
ENDBRANCH   5   6
ENDBRANCH   3   5
ENDBRANCH   1   3
BRANCH   1  18
HETATM   18  N4  UNL     1     -10.012  42.438  18.496  1.00  0.00    -0.367 N 
ATOM     19  H4  UNL     1     -10.216  43.400  18.225  1.00  0.00     0.161 HD
BRANCH  18  20
HETATM   20  C9  UNL     1     -10.449  41.382  17.664  1.00  0.00     0.126 C 
BRANCH  20  21
HETATM   21  C10 UNL     1     -11.935  41.105  17.659  1.00  0.00     0.007 C 
HETATM   22  C11 UNL     1     -12.360  40.591  18.995  1.00  0.00     0.034 C 
HETATM   23  C12 UNL     1     -12.225  39.118  19.187  1.00  0.00     0.238 C 
HETATM   24  N5  UNL     1     -12.532  38.288  18.086  1.00  0.00    -0.063 N 
HETATM   25  C13 UNL     1     -11.400  37.439  17.750  1.00  0.00     0.238 C 
HETATM   26  C16 UNL     1     -13.588  37.347  18.500  1.00  0.00     0.238 C 
HETATM   27  C17 UNL     1     -13.043  38.971  16.939  1.00  0.00     0.187 C 
HETATM   28  C14 UNL     1     -11.461  36.290  18.753  1.00  0.00     0.029 C 
HETATM   29  C15 UNL     1     -12.925  36.078  18.903  1.00  0.00     0.029 C 
HETATM   30  C18 UNL     1     -14.483  39.347  17.077  1.00  0.00     0.040 C 
HETATM   31  C19 UNL     1     -12.265  40.185  16.516  1.00  0.00     0.039 C 
ENDBRANCH  20  21
ENDBRANCH  18  20
ENDBRANCH   1  18
TORSDOF 9
ENDMDL
MODEL 2
REMARK VINA RESULT: -7.099051535      3.051      6.028
REMARK  9 active torsions:
REMARK  status: ('A' for Active; 'I' for Inactive)
REMARK    1  A    between atoms: C4_6  and  N2_7 
REMARK    2  A    between atoms: N2_7  and  C5_9 
REMARK    3  A    between atoms: C5_9  and  C6_10 
REMARK    4  A    between atoms: C6_10  and  C7_11 
REMARK    5  A    between atoms: C7_11  and  N3_12 
REMARK    6  A    between atoms: N3_12  and  C8_14 
REMARK    7  A    between atoms: C8_14  and  N4_16 
REMARK    8  A    between atoms: N4_16  and  C9_18 
REMARK    9  A    between atoms: C9_18  and  C10_19 
ROOT
HETATM    1  C8  UNL     1      -8.567  37.565  18.476  1.00  0.00     0.167 C 
HETATM    2  S1  UNL     1     -10.139  37.212  18.659  1.00  0.00    -0.041 SA
ENDROOT
BRANCH   1   3
HETATM    3  N3  UNL     1      -7.789  36.962  17.431  1.00  0.00    -0.367 N 
ATOM      4  H3  UNL     1      -8.187  36.200  16.882  1.00  0.00     0.161 HD
BRANCH   3   5
HETATM    5  C7  UNL     1      -6.461  37.416  17.150  1.00  0.00     0.123 C 
BRANCH   5   6
HETATM    6  C6  UNL     1      -6.296  38.048  15.810  1.00  0.00     0.040 C 
BRANCH   6   7
HETATM    7  C5  UNL     1      -6.333  39.560  15.883  1.00  0.00     0.139 C 
BRANCH   7   8
HETATM    8  N2  UNL     1      -7.626  40.113  15.627  1.00  0.00    -0.226 N 
ATOM      9  H2  UNL     1      -7.987  40.031  14.678  1.00  0.00     0.177 HD
BRANCH   8  10
HETATM   10  C4  UNL     1      -8.371  40.703  16.487  1.00  0.00     0.678 A 
HETATM   11  N1  UNL     1      -9.664  40.455  16.735  1.00  0.00    -0.200 N 
HETATM   12  C3  UNL     1     -10.120  41.270  17.703  1.00  0.00     0.131 A 
ATOM     13  H1  UNL     1     -10.223  39.748  16.258  1.00  0.00     0.183 HD
HETATM   14  C2  UNL     1      -9.048  42.060  18.068  1.00  0.00     0.038 A 
HETATM   15  C1  UNL     1      -9.009  43.134  19.097  1.00  0.00     0.070 C 
HETATM   16  N6  UNL     1      -7.999  41.694  17.312  1.00  0.00    -0.195 N 
ATOM     17  H6  UNL     1      -7.067  42.104  17.358  1.00  0.00     0.184 HD
ENDBRANCH   8  10
ENDBRANCH   7   8
ENDBRANCH   6   7
ENDBRANCH   5   6
ENDBRANCH   3   5
ENDBRANCH   1   3
BRANCH   1  18
HETATM   18  N4  UNL     1      -7.964  38.515  19.339  1.00  0.00    -0.367 N 
ATOM     19  H4  UNL     1      -7.217  39.109  18.978  1.00  0.00     0.161 HD
BRANCH  18  20
HETATM   20  C9  UNL     1      -8.368  38.663  20.686  1.00  0.00     0.126 C 
BRANCH  20  21
HETATM   21  C10 UNL     1      -9.027  39.974  21.046  1.00  0.00     0.007 C 
HETATM   22  C11 UNL     1      -8.174  40.724  22.015  1.00  0.00     0.034 C 
HETATM   23  C12 UNL     1      -8.385  40.381  23.452  1.00  0.00     0.238 C 
HETATM   24  N5  UNL     1      -9.711  40.126  23.872  1.00  0.00    -0.063 N 
HETATM   25  C13 UNL     1      -9.815  38.806  24.474  1.00  0.00     0.238 C 
HETATM   26  C16 UNL     1     -10.033  41.057  24.968  1.00  0.00     0.238 C 
HETATM   27  C17 UNL     1     -10.711  40.336  22.873  1.00  0.00     0.187 C 
HETATM   28  C14 UNL     1      -9.298  38.983  25.899  1.00  0.00     0.029 C 
HETATM   29  C15 UNL     1      -9.796  40.340  26.249  1.00  0.00     0.029 C 
HETATM   30  C18 UNL     1     -11.037  41.780  22.666  1.00  0.00     0.040 C 
HETATM   31  C19 UNL     1     -10.424  39.709  21.537  1.00  0.00     0.039 C 
ENDBRANCH  20  21
ENDBRANCH  18  20
ENDBRANCH   1  18
TORSDOF 9
ENDMDL
MODEL 3
REMARK VINA RESULT: -6.879375972      3.128      5.307
REMARK  9 active torsions:
REMARK  status: ('A' for Active; 'I' for Inactive)
REMARK    1  A    between atoms: C4_6  and  N2_7 
REMARK    2  A    between atoms: N2_7  and  C5_9 
REMARK    3  A    between atoms: C5_9  and  C6_10 
REMARK    4  A    between atoms: C6_10  and  C7_11 
REMARK    5  A    between atoms: C7_11  and  N3_12 
REMARK    6  A    between atoms: N3_12  and  C8_14 
REMARK    7  A    between atoms: C8_14  and  N4_16 
REMARK    8  A    between atoms: N4_16  and  C9_18 
REMARK    9  A    between atoms: C9_18  and  C10_19 
ROOT
HETATM    1  C8  UNL     1     -10.097  37.960  18.966  1.00  0.00     0.167 C 
HETATM    2  S1  UNL     1     -10.198  36.351  18.793  1.00  0.00    -0.041 SA
ENDROOT
BRANCH   1   3
HETATM    3  N3  UNL     1     -10.364  38.842  17.865  1.00  0.00    -0.367 N 
ATOM      4  H3  UNL     1     -10.108  38.559  16.919  1.00  0.00     0.161 HD
BRANCH   3   5
HETATM    5  C7  UNL     1     -10.985  40.114  18.078  1.00  0.00     0.123 C 
BRANCH   5   6
HETATM    6  C6  UNL     1     -10.199  41.276  17.573  1.00  0.00     0.040 C 
BRANCH   6   7
HETATM    7  C5  UNL     1      -8.708  41.064  17.722  1.00  0.00     0.139 C 
BRANCH   7   8
HETATM    8  N2  UNL     1      -8.014  40.986  16.474  1.00  0.00    -0.226 N 
ATOM      9  H2  UNL     1      -8.089  41.788  15.849  1.00  0.00     0.177 HD
BRANCH   8  10
HETATM   10  C4  UNL     1      -7.306  39.996  16.072  1.00  0.00     0.678 A 
HETATM   11  N1  UNL     1      -6.843  39.790  14.831  1.00  0.00    -0.200 N 
HETATM   12  C3  UNL     1      -6.138  38.646  14.778  1.00  0.00     0.131 A 
ATOM     13  H1  UNL     1      -7.002  40.413  14.040  1.00  0.00     0.183 HD
HETATM   14  C2  UNL     1      -6.170  38.122  16.055  1.00  0.00     0.038 A 
HETATM   15  C1  UNL     1      -5.548  36.863  16.546  1.00  0.00     0.070 C 
HETATM   16  N6  UNL     1      -6.888  38.964  16.820  1.00  0.00    -0.195 N 
ATOM     17  H6  UNL     1      -7.084  38.837  17.813  1.00  0.00     0.184 HD
ENDBRANCH   8  10
ENDBRANCH   7   8
ENDBRANCH   6   7
ENDBRANCH   5   6
ENDBRANCH   3   5
ENDBRANCH   1   3
BRANCH   1  18
HETATM   18  N4  UNL     1      -9.777  38.503  20.237  1.00  0.00    -0.367 N 
ATOM     19  H4  UNL     1     -10.533  38.827  20.841  1.00  0.00     0.161 HD
BRANCH  18  20
HETATM   20  C9  UNL     1      -8.443  38.607  20.690  1.00  0.00     0.126 C 
BRANCH  20  21
HETATM   21  C10 UNL     1      -8.074  39.892  21.395  1.00  0.00     0.007 C 
HETATM   22  C11 UNL     1      -7.631  39.599  22.790  1.00  0.00     0.034 C 
HETATM   23  C12 UNL     1      -8.723  39.517  23.804  1.00  0.00     0.238 C 
HETATM   24  N5  UNL     1      -9.794  40.430  23.681  1.00  0.00    -0.063 N 
HETATM   25  C13 UNL     1     -11.063  39.726  23.580  1.00  0.00     0.238 C 
HETATM   26  C16 UNL     1      -9.896  41.193  24.938  1.00  0.00     0.238 C 
HETATM   27  C17 UNL     1      -9.643  41.403  22.644  1.00  0.00     0.187 C 
HETATM   28  C14 UNL     1     -11.420  39.355  25.017  1.00  0.00     0.029 C 
HETATM   29  C15 UNL     1     -10.932  40.535  25.778  1.00  0.00     0.029 C 
HETATM   30  C18 UNL     1      -8.716  42.515  23.017  1.00  0.00     0.040 C 
HETATM   31  C19 UNL     1      -9.226  40.855  21.308  1.00  0.00     0.039 C 
ENDBRANCH  20  21
ENDBRANCH  18  20
ENDBRANCH   1  18
TORSDOF 9
ENDMDL
MODEL 4
REMARK VINA RESULT: -6.843513031      2.951      6.481
REMARK  9 active torsions:
REMARK  status: ('A' for Active; 'I' for Inactive)
REMARK    1  A    between atoms: C4_6  and  N2_7 
REMARK    2  A    between atoms: N2_7  and  C5_9 
REMARK    3  A    between atoms: C5_9  and  C6_10 
REMARK    4  A    between atoms: C6_10  and  C7_11 
REMARK    5  A    between atoms: C7_11  and  N3_12 
REMARK    6  A    between atoms: N3_12  and  C8_14 
REMARK    7  A    between atoms: C8_14  and  N4_16 
REMARK    8  A    between atoms: N4_16  and  C9_18 
REMARK    9  A    between atoms: C9_18  and  C10_19 
ROOT
HETATM    1  C8  UNL     1      -8.673  37.646  18.629  1.00  0.00     0.167 C 
HETATM    2  S1  UNL     1     -10.265  37.379  18.789  1.00  0.00    -0.041 SA
ENDROOT
BRANCH   1   3
HETATM    3  N3  UNL     1      -7.934  37.079  17.538  1.00  0.00    -0.367 N 
ATOM      4  H3  UNL     1      -8.375  36.382  16.937  1.00  0.00     0.161 HD
BRANCH   3   5
HETATM    5  C7  UNL     1      -6.583  37.478  17.281  1.00  0.00     0.123 C 
BRANCH   5   6
HETATM    6  C6  UNL     1      -6.349  38.014  15.910  1.00  0.00     0.040 C 
BRANCH   6   7
HETATM    7  C5  UNL     1      -6.348  39.528  15.881  1.00  0.00     0.139 C 
BRANCH   7   8
HETATM    8  N2  UNL     1      -7.630  40.095  15.602  1.00  0.00    -0.226 N 
ATOM      9  H2  UNL     1      -7.971  40.023  14.644  1.00  0.00     0.177 HD
BRANCH   8  10
HETATM   10  C4  UNL     1      -8.388  40.686  16.449  1.00  0.00     0.678 A 
HETATM   11  N1  UNL     1      -9.698  40.478  16.639  1.00  0.00    -0.200 N 
HETATM   12  C3  UNL     1     -10.164  41.280  17.613  1.00  0.00     0.131 A 
ATOM     13  H1  UNL     1     -10.262  39.807  16.118  1.00  0.00     0.183 HD
HETATM   14  C2  UNL     1      -9.081  42.019  18.045  1.00  0.00     0.038 A 
HETATM   15  C1  UNL     1      -9.046  43.060  19.107  1.00  0.00     0.070 C 
HETATM   16  N6  UNL     1      -8.015  41.638  17.319  1.00  0.00    -0.195 N 
ATOM     17  H6  UNL     1      -7.072  42.012  17.415  1.00  0.00     0.184 HD
ENDBRANCH   8  10
ENDBRANCH   7   8
ENDBRANCH   6   7
ENDBRANCH   5   6
ENDBRANCH   3   5
ENDBRANCH   1   3
BRANCH   1  18
HETATM   18  N4  UNL     1      -8.013  38.485  19.563  1.00  0.00    -0.367 N 
ATOM     19  H4  UNL     1      -7.005  38.390  19.687  1.00  0.00     0.161 HD
BRANCH  18  20
HETATM   20  C9  UNL     1      -8.711  39.448  20.326  1.00  0.00     0.126 C 
BRANCH  20  21
HETATM   21  C10 UNL     1      -8.865  39.152  21.800  1.00  0.00     0.007 C 
HETATM   22  C11 UNL     1     -10.158  39.707  22.298  1.00  0.00     0.034 C 
HETATM   23  C12 UNL     1     -10.116  41.134  22.730  1.00  0.00     0.238 C 
HETATM   24  N5  UNL     1      -8.958  41.575  23.410  1.00  0.00    -0.063 N 
HETATM   25  C13 UNL     1      -8.355  42.705  22.720  1.00  0.00     0.238 C 
HETATM   26  C16 UNL     1      -9.369  42.118  24.717  1.00  0.00     0.238 C 
HETATM   27  C17 UNL     1      -7.999  40.553  23.694  1.00  0.00     0.187 C 
HETATM   28  C14 UNL     1      -9.182  43.914  23.152  1.00  0.00     0.029 C 
HETATM   29  C15 UNL     1      -9.493  43.593  24.570  1.00  0.00     0.029 C 
HETATM   30  C18 UNL     1      -8.381  39.703  24.863  1.00  0.00     0.040 C 
HETATM   31  C19 UNL     1      -7.656  39.657  22.537  1.00  0.00     0.039 C 
ENDBRANCH  20  21
ENDBRANCH  18  20
ENDBRANCH   1  18
TORSDOF 9
ENDMDL
MODEL 5
REMARK VINA RESULT: -6.795035761      1.232      1.684
REMARK  9 active torsions:
REMARK  status: ('A' for Active; 'I' for Inactive)
REMARK    1  A    between atoms: C4_6  and  N2_7 
REMARK    2  A    between atoms: N2_7  and  C5_9 
REMARK    3  A    between atoms: C5_9  and  C6_10 
REMARK    4  A    between atoms: C6_10  and  C7_11 
REMARK    5  A    between atoms: C7_11  and  N3_12 
REMARK    6  A    between atoms: N3_12  and  C8_14 
REMARK    7  A    between atoms: C8_14  and  N4_16 
REMARK    8  A    between atoms: N4_16  and  C9_18 
REMARK    9  A    between atoms: C9_18  and  C10_19 
ROOT
HETATM    1  C8  UNL     1      -8.630  41.606  20.724  1.00  0.00     0.167 C 
HETATM    2  S1  UNL     1      -8.782  42.428  22.114  1.00  0.00    -0.041 SA
ENDROOT
BRANCH   1   3
HETATM    3  N3  UNL     1      -8.053  40.292  20.701  1.00  0.00    -0.367 N 
ATOM      4  H3  UNL     1      -7.066  40.178  20.466  1.00  0.00     0.161 HD
BRANCH   3   5
HETATM    5  C7  UNL     1      -8.845  39.138  21.001  1.00  0.00     0.123 C 
BRANCH   5   6
HETATM    6  C6  UNL     1      -8.954  38.157  19.884  1.00  0.00     0.040 C 
BRANCH   6   7
HETATM    7  C5  UNL     1      -8.138  38.572  18.678  1.00  0.00     0.139 C 
BRANCH   7   8
HETATM    8  N2  UNL     1      -7.902  37.508  17.752  1.00  0.00    -0.226 N 
ATOM      9  H2  UNL     1      -8.596  36.762  17.717  1.00  0.00     0.177 HD
BRANCH   8  10
HETATM   10  C4  UNL     1      -6.897  37.411  16.963  1.00  0.00     0.678 A 
HETATM   11  N1  UNL     1      -6.639  38.172  15.892  1.00  0.00    -0.200 N 
HETATM   12  C3  UNL     1      -5.495  37.780  15.302  1.00  0.00     0.131 A 
ATOM     13  H1  UNL     1      -7.226  38.941  15.568  1.00  0.00     0.183 HD
HETATM   14  C2  UNL     1      -5.027  36.721  16.054  1.00  0.00     0.038 A 
HETATM   15  C1  UNL     1      -3.795  35.916  15.837  1.00  0.00     0.070 C 
HETATM   16  N6  UNL     1      -5.899  36.518  17.057  1.00  0.00    -0.195 N 
ATOM     17  H6  UNL     1      -5.816  35.800  17.775  1.00  0.00     0.184 HD
ENDBRANCH   8  10
ENDBRANCH   7   8
ENDBRANCH   6   7
ENDBRANCH   5   6
ENDBRANCH   3   5
ENDBRANCH   1   3
BRANCH   1  18
HETATM   18  N4  UNL     1      -9.110  42.182  19.521  1.00  0.00    -0.367 N 
ATOM     19  H4  UNL     1      -8.463  42.320  18.745  1.00  0.00     0.161 HD
BRANCH  18  20
HETATM   20  C9  UNL     1     -10.460  42.572  19.366  1.00  0.00     0.126 C 
BRANCH  20  21
HETATM   21  C10 UNL     1     -11.080  42.315  18.011  1.00  0.00     0.007 C 
HETATM   22  C11 UNL     1     -12.566  42.419  18.103  1.00  0.00     0.034 C 
HETATM   23  C12 UNL     1     -13.270  41.168  18.510  1.00  0.00     0.238 C 
HETATM   24  N5  UNL     1     -12.772  39.947  18.002  1.00  0.00    -0.063 N 
HETATM   25  C13 UNL     1     -12.435  39.038  19.087  1.00  0.00     0.238 C 
HETATM   26  C16 UNL     1     -13.863  39.269  17.280  1.00  0.00     0.238 C 
HETATM   27  C17 UNL     1     -11.701  40.075  17.064  1.00  0.00     0.187 C 
HETATM   28  C14 UNL     1     -13.767  38.425  19.513  1.00  0.00     0.029 C 
HETATM   29  C15 UNL     1     -14.483  38.295  18.216  1.00  0.00     0.029 C 
HETATM   30  C18 UNL     1     -12.165  40.471  15.699  1.00  0.00     0.040 C 
HETATM   31  C19 UNL     1     -10.589  40.995  17.483  1.00  0.00     0.039 C 
ENDBRANCH  20  21
ENDBRANCH  18  20
ENDBRANCH   1  18
TORSDOF 9
ENDMDL
