MODEL 1
REMARK VINA RESULT: -9.996502708      0.000      0.000
REMARK  15 active torsions:
REMARK  status: ('A' for Active; 'I' for Inactive)
REMARK    1  A    between atoms: O1_2  and  C2_3 
REMARK    2  A    between atoms: C2_3  and  C3_4 
REMARK    3  A    between atoms: C2_3  and  C20_26 
REMARK    4  A    between atoms: C3_4  and  C4_5 
REMARK    5  A    between atoms: C4_5  and  O2_6 
REMARK    6  A    between atoms: C4_5  and  C5_8 
REMARK    7  A    between atoms: C5_8  and  C6_9 
REMARK    8  A    between atoms: C8_11  and  C9_12 
REMARK    9  A    between atoms: C9_12  and  C10_13 
REMARK   10  A    between atoms: C10_13  and  C11_14 
REMARK   11  A    between atoms: C13_16  and  C14_17 
REMARK   12  A    between atoms: C14_17  and  O3_18 
REMARK   13  A    between atoms: C14_17  and  C16_22 
REMARK   14  A    between atoms: C23_29  and  C24_30 
REMARK   15  A    between atoms: C29_35  and  C30_36 
ROOT
HETATM    1  C14 UNL     1       4.668  68.137  64.553  1.00  0.00     0.183 C 
HETATM    2  C15 UNL     1       5.448  68.672  63.441  1.00  0.00     0.106 C 
HETATM    3  N1  UNL     1       6.110  69.122  62.578  1.00  0.00    -0.193 NA
ENDROOT
BRANCH   1   4
HETATM    4  C13 UNL     1       3.233  68.157  64.458  1.00  0.00     0.033 C 
HETATM    5  C11 UNL     1       2.385  68.178  63.469  1.00  0.00    -0.083 C 
HETATM    6  C12 UNL     1       2.901  67.844  62.102  1.00  0.00     0.043 C 
BRANCH   5   7
HETATM    7  C10 UNL     1       0.954  68.224  63.731  1.00  0.00     0.037 C 
BRANCH   7   8
HETATM    8  C9  UNL     1       0.680  67.741  65.257  1.00  0.00     0.032 C 
BRANCH   8   9
HETATM    9  C8  UNL     1      -0.657  68.219  65.265  1.00  0.00    -0.012 C 
HETATM   10  C6  UNL     1      -1.584  67.910  66.183  1.00  0.00    -0.022 C 
HETATM   11  C7  UNL     1      -2.937  68.510  65.850  1.00  0.00     0.057 C 
BRANCH  10  12
HETATM   12  C5  UNL     1      -1.385  67.097  67.333  1.00  0.00    -0.118 C 
BRANCH  12  13
HETATM   13  C4  UNL     1      -1.261  66.392  68.329  1.00  0.00     0.192 C 
BRANCH  13  14
HETATM   14  C3  UNL     1       0.064  66.104  69.002  1.00  0.00     0.081 C 
BRANCH  14  15
HETATM   15  C2  UNL     1      -0.295  65.052  70.090  1.00  0.00     0.157 C 
BRANCH  15  16
HETATM   16  O1  UNL     1      -0.129  65.834  71.270  1.00  0.00    -0.386 OA
HETATM   17  C1  UNL     1      -0.838  65.425  72.342  1.00  0.00     0.202 C 
ENDBRANCH  15  16
BRANCH  15  18
HETATM   18  C20 UNL     1       0.691  63.977  70.122  1.00  0.00    -0.023 A 
HETATM   19  C21 UNL     1       2.031  64.205  69.986  1.00  0.00     0.011 A 
HETATM   20  C22 UNL     1       3.023  63.210  70.125  1.00  0.00     0.008 A 
HETATM   21  C23 UNL     1       2.609  61.930  70.424  1.00  0.00    -0.050 A 
HETATM   22  C28 UNL     1       1.260  61.690  70.563  1.00  0.00     0.016 A 
HETATM   23  C29 UNL     1       0.299  62.655  70.426  1.00  0.00    -0.045 A 
BRANCH  21  24
HETATM   24  C24 UNL     1       3.586  60.811  70.587  1.00  0.00    -0.024 C 
HETATM   25  C25 UNL     1       3.808  60.131  69.253  1.00  0.00     0.019 C 
HETATM   26  C26 UNL     1       4.891  61.166  71.150  1.00  0.00     0.019 C 
HETATM   27  C27 UNL     1       2.883  59.757  71.448  1.00  0.00     0.019 C 
ENDBRANCH  21  24
BRANCH  23  28
HETATM   28  C30 UNL     1      -1.127  62.269  70.592  1.00  0.00     0.011 C 
HETATM   29  C31 UNL     1      -1.519  61.395  69.365  1.00  0.00     0.015 C 
HETATM   30  C32 UNL     1      -1.229  61.298  71.795  1.00  0.00     0.015 C 
ENDBRANCH  23  28
ENDBRANCH  15  18
ENDBRANCH  14  15
ENDBRANCH  13  14
BRANCH  13  31
HETATM   31  O2  UNL     1      -2.401  65.768  68.956  1.00  0.00    -0.384 OA
ATOM     32  H2  UNL     1      -2.322  64.828  69.076  1.00  0.00     0.211 HD
ENDBRANCH  13  31
ENDBRANCH  12  13
ENDBRANCH  10  12
ENDBRANCH   8   9
ENDBRANCH   7   8
ENDBRANCH   5   7
ENDBRANCH   1   4
BRANCH   1  33
HETATM   33  O3  UNL     1       5.110  66.796  64.780  1.00  0.00    -0.369 OA
ATOM     34  H3  UNL     1       5.991  66.811  65.136  1.00  0.00     0.212 HD
ENDBRANCH   1  33
BRANCH   1  35
HETATM   35  C16 UNL     1       5.137  68.924  65.771  1.00  0.00     0.032 C 
HETATM   36  C17 UNL     1       4.582  69.214  66.874  1.00  0.00    -0.087 C 
HETATM   37  C18 UNL     1       5.505  70.048  67.798  1.00  0.00     0.043 C 
HETATM   38  C19 UNL     1       3.265  68.922  67.444  1.00  0.00     0.043 C 
ENDBRANCH   1  35
TORSDOF 15
ENDMDL
MODEL 2
REMARK VINA RESULT: -9.916898626      3.098      8.462
REMARK  15 active torsions:
REMARK  status: ('A' for Active; 'I' for Inactive)
REMARK    1  A    between atoms: O1_2  and  C2_3 
REMARK    2  A    between atoms: C2_3  and  C3_4 
REMARK    3  A    between atoms: C2_3  and  C20_26 
REMARK    4  A    between atoms: C3_4  and  C4_5 
REMARK    5  A    between atoms: C4_5  and  O2_6 
REMARK    6  A    between atoms: C4_5  and  C5_8 
REMARK    7  A    between atoms: C5_8  and  C6_9 
REMARK    8  A    between atoms: C8_11  and  C9_12 
REMARK    9  A    between atoms: C9_12  and  C10_13 
REMARK   10  A    between atoms: C10_13  and  C11_14 
REMARK   11  A    between atoms: C13_16  and  C14_17 
REMARK   12  A    between atoms: C14_17  and  O3_18 
REMARK   13  A    between atoms: C14_17  and  C16_22 
REMARK   14  A    between atoms: C23_29  and  C24_30 
REMARK   15  A    between atoms: C29_35  and  C30_36 
ROOT
HETATM    1  C14 UNL     1       1.711  61.051  71.883  1.00  0.00     0.183 C 
HETATM    2  C15 UNL     1       2.307  60.598  73.136  1.00  0.00     0.106 C 
HETATM    3  N1  UNL     1       2.741  60.215  74.161  1.00  0.00    -0.193 NA
ENDROOT
BRANCH   1   4
HETATM    4  C13 UNL     1       2.134  62.313  71.337  1.00  0.00     0.033 C 
HETATM    5  C11 UNL     1       2.652  62.687  70.201  1.00  0.00    -0.083 C 
HETATM    6  C12 UNL     1       2.587  61.722  69.054  1.00  0.00     0.043 C 
BRANCH   5   7
HETATM    7  C10 UNL     1       2.999  64.082  69.977  1.00  0.00     0.037 C 
BRANCH   7   8
HETATM    8  C9  UNL     1       1.778  64.811  69.195  1.00  0.00     0.032 C 
BRANCH   8   9
HETATM    9  C8  UNL     1       0.941  64.845  70.342  1.00  0.00    -0.012 C 
HETATM   10  C6  UNL     1      -0.313  65.318  70.371  1.00  0.00    -0.022 C 
HETATM   11  C7  UNL     1      -0.897  65.296  71.771  1.00  0.00     0.057 C 
BRANCH  10  12
HETATM   12  C5  UNL     1      -1.046  65.819  69.260  1.00  0.00    -0.118 C 
BRANCH  12  13
HETATM   13  C4  UNL     1      -1.717  66.236  68.322  1.00  0.00     0.192 C 
BRANCH  13  14
HETATM   14  C3  UNL     1      -1.144  66.607  66.970  1.00  0.00     0.081 C 
BRANCH  14  15
HETATM   15  C2  UNL     1      -0.268  67.856  67.272  1.00  0.00     0.157 C 
BRANCH  15  16
HETATM   16  O1  UNL     1      -1.086  68.885  66.719  1.00  0.00    -0.386 OA
HETATM   17  C1  UNL     1      -1.995  68.478  65.810  1.00  0.00     0.202 C 
ENDBRANCH  15  16
BRANCH  15  18
HETATM   18  C20 UNL     1       0.977  67.816  66.512  1.00  0.00    -0.023 A 
HETATM   19  C21 UNL     1       1.075  67.207  65.294  1.00  0.00     0.011 A 
HETATM   20  C22 UNL     1       2.227  67.245  64.479  1.00  0.00     0.008 A 
HETATM   21  C23 UNL     1       3.317  67.948  64.942  1.00  0.00    -0.050 A 
HETATM   22  C28 UNL     1       3.229  68.566  66.170  1.00  0.00     0.016 A 
HETATM   23  C29 UNL     1       2.112  68.527  66.961  1.00  0.00    -0.045 A 
BRANCH  21  24
HETATM   24  C24 UNL     1       4.581  68.041  64.150  1.00  0.00    -0.024 C 
HETATM   25  C25 UNL     1       5.262  66.689  64.117  1.00  0.00     0.019 C 
HETATM   26  C26 UNL     1       4.450  68.528  62.775  1.00  0.00     0.019 C 
HETATM   27  C27 UNL     1       5.526  68.931  64.963  1.00  0.00     0.019 C 
ENDBRANCH  21  24
BRANCH  23  28
HETATM   28  C30 UNL     1       2.142  69.228  68.271  1.00  0.00     0.011 C 
HETATM   29  C31 UNL     1       1.961  68.151  69.380  1.00  0.00     0.015 C 
HETATM   30  C32 UNL     1       3.577  69.766  68.499  1.00  0.00     0.015 C 
ENDBRANCH  23  28
ENDBRANCH  15  18
ENDBRANCH  14  15
ENDBRANCH  13  14
BRANCH  13  31
HETATM   31  O2  UNL     1      -3.146  66.405  68.436  1.00  0.00    -0.384 OA
ATOM     32  H2  UNL     1      -3.477  66.378  69.326  1.00  0.00     0.211 HD
ENDBRANCH  13  31
ENDBRANCH  12  13
ENDBRANCH  10  12
ENDBRANCH   8   9
ENDBRANCH   7   8
ENDBRANCH   5   7
ENDBRANCH   1   4
BRANCH   1  33
HETATM   33  O3  UNL     1       1.919  60.021  70.913  1.00  0.00    -0.369 OA
ATOM     34  H3  UNL     1       2.357  60.388  70.153  1.00  0.00     0.212 HD
ENDBRANCH   1  33
BRANCH   1  35
HETATM   35  C16 UNL     1       0.210  61.055  72.145  1.00  0.00     0.032 C 
HETATM   36  C17 UNL     1      -0.792  61.298  71.406  1.00  0.00    -0.087 C 
HETATM   37  C18 UNL     1      -2.135  61.156  72.166  1.00  0.00     0.043 C 
HETATM   38  C19 UNL     1      -0.935  61.678  69.998  1.00  0.00     0.043 C 
ENDBRANCH   1  35
TORSDOF 15
ENDMDL
MODEL 3
REMARK VINA RESULT: -9.890676195      1.494      2.491
REMARK  15 active torsions:
REMARK  status: ('A' for Active; 'I' for Inactive)
REMARK    1  A    between atoms: O1_2  and  C2_3 
REMARK    2  A    between atoms: C2_3  and  C3_4 
REMARK    3  A    between atoms: C2_3  and  C20_26 
REMARK    4  A    between atoms: C3_4  and  C4_5 
REMARK    5  A    between atoms: C4_5  and  O2_6 
REMARK    6  A    between atoms: C4_5  and  C5_8 
REMARK    7  A    between atoms: C5_8  and  C6_9 
REMARK    8  A    between atoms: C8_11  and  C9_12 
REMARK    9  A    between atoms: C9_12  and  C10_13 
REMARK   10  A    between atoms: C10_13  and  C11_14 
REMARK   11  A    between atoms: C13_16  and  C14_17 
REMARK   12  A    between atoms: C14_17  and  O3_18 
REMARK   13  A    between atoms: C14_17  and  C16_22 
REMARK   14  A    between atoms: C23_29  and  C24_30 
REMARK   15  A    between atoms: C29_35  and  C30_36 
ROOT
HETATM    1  C14 UNL     1       3.995  67.737  63.220  1.00  0.00     0.183 C 
HETATM    2  C15 UNL     1       5.153  68.442  62.681  1.00  0.00     0.106 C 
HETATM    3  N1  UNL     1       6.106  68.966  62.230  1.00  0.00    -0.193 NA
ENDROOT
BRANCH   1   4
HETATM    4  C13 UNL     1       3.448  68.171  64.478  1.00  0.00     0.033 C 
HETATM    5  C11 UNL     1       3.963  68.528  65.620  1.00  0.00    -0.083 C 
HETATM    6  C12 UNL     1       5.428  68.847  65.655  1.00  0.00     0.043 C 
BRANCH   5   7
HETATM    7  C10 UNL     1       3.098  68.894  66.731  1.00  0.00     0.037 C 
BRANCH   7   8
HETATM    8  C9  UNL     1       2.254  67.588  67.197  1.00  0.00     0.032 C 
BRANCH   8   9
HETATM    9  C8  UNL     1       1.051  68.036  66.590  1.00  0.00    -0.012 C 
HETATM   10  C6  UNL     1      -0.186  67.677  66.965  1.00  0.00    -0.022 C 
HETATM   11  C7  UNL     1      -1.248  68.257  66.051  1.00  0.00     0.057 C 
BRANCH  10  12
HETATM   12  C5  UNL     1      -0.517  66.832  68.060  1.00  0.00    -0.118 C 
BRANCH  12  13
HETATM   13  C4  UNL     1      -0.772  66.128  69.032  1.00  0.00     0.192 C 
BRANCH  13  14
HETATM   14  C3  UNL     1       0.096  66.047  70.270  1.00  0.00     0.081 C 
BRANCH  14  15
HETATM   15  C2  UNL     1      -0.421  64.775  71.000  1.00  0.00     0.157 C 
BRANCH  15  16
HETATM   16  O1  UNL     1      -0.300  65.190  72.359  1.00  0.00    -0.386 OA
HETATM   17  C1  UNL     1      -1.020  64.478  73.249  1.00  0.00     0.202 C 
ENDBRANCH  15  16
BRANCH  15  18
HETATM   18  C20 UNL     1       0.485  63.650  70.792  1.00  0.00    -0.023 A 
HETATM   19  C21 UNL     1       1.844  63.784  70.831  1.00  0.00     0.011 A 
HETATM   20  C22 UNL     1       2.750  62.705  70.749  1.00  0.00     0.008 A 
HETATM   21  C23 UNL     1       2.226  61.436  70.630  1.00  0.00    -0.050 A 
HETATM   22  C28 UNL     1       0.857  61.290  70.591  1.00  0.00     0.016 A 
HETATM   23  C29 UNL     1      -0.021  62.337  70.668  1.00  0.00    -0.045 A 
BRANCH  21  24
HETATM   24  C24 UNL     1       3.107  60.232  70.535  1.00  0.00    -0.024 C 
HETATM   25  C25 UNL     1       2.748  59.252  71.631  1.00  0.00     0.019 C 
HETATM   26  C26 UNL     1       3.097  59.521  69.254  1.00  0.00     0.019 C 
HETATM   27  C27 UNL     1       4.518  60.711  70.889  1.00  0.00     0.019 C 
ENDBRANCH  21  24
BRANCH  23  28
HETATM   28  C30 UNL     1      -1.478  62.052  70.605  1.00  0.00     0.011 C 
HETATM   29  C31 UNL     1      -1.738  61.238  69.304  1.00  0.00     0.015 C 
HETATM   30  C32 UNL     1      -1.827  61.061  71.745  1.00  0.00     0.015 C 
ENDBRANCH  23  28
ENDBRANCH  15  18
ENDBRANCH  14  15
ENDBRANCH  13  14
BRANCH  13  31
HETATM   31  O2  UNL     1      -1.955  65.303  69.073  1.00  0.00    -0.384 OA
ATOM     32  H2  UNL     1      -1.844  64.433  68.707  1.00  0.00     0.211 HD
ENDBRANCH  13  31
ENDBRANCH  12  13
ENDBRANCH  10  12
ENDBRANCH   8   9
ENDBRANCH   7   8
ENDBRANCH   5   7
ENDBRANCH   1   4
BRANCH   1  33
HETATM   33  O3  UNL     1       2.971  67.770  62.221  1.00  0.00    -0.369 OA
ATOM     34  H3  UNL     1       3.276  68.270  61.474  1.00  0.00     0.212 HD
ENDBRANCH   1  33
BRANCH   1  35
HETATM   35  C16 UNL     1       4.430  66.278  63.298  1.00  0.00     0.032 C 
HETATM   36  C17 UNL     1       3.930  65.260  63.867  1.00  0.00    -0.087 C 
HETATM   37  C18 UNL     1       4.771  63.980  63.633  1.00  0.00     0.043 C 
HETATM   38  C19 UNL     1       2.734  65.053  64.688  1.00  0.00     0.043 C 
ENDBRANCH   1  35
TORSDOF 15
ENDMDL
MODEL 4
REMARK VINA RESULT: -9.861456146      1.374      2.821
REMARK  15 active torsions:
REMARK  status: ('A' for Active; 'I' for Inactive)
REMARK    1  A    between atoms: O1_2  and  C2_3 
REMARK    2  A    between atoms: C2_3  and  C3_4 
REMARK    3  A    between atoms: C2_3  and  C20_26 
REMARK    4  A    between atoms: C3_4  and  C4_5 
REMARK    5  A    between atoms: C4_5  and  O2_6 
REMARK    6  A    between atoms: C4_5  and  C5_8 
REMARK    7  A    between atoms: C5_8  and  C6_9 
REMARK    8  A    between atoms: C8_11  and  C9_12 
REMARK    9  A    between atoms: C9_12  and  C10_13 
REMARK   10  A    between atoms: C10_13  and  C11_14 
REMARK   11  A    between atoms: C13_16  and  C14_17 
REMARK   12  A    between atoms: C14_17  and  O3_18 
REMARK   13  A    between atoms: C14_17  and  C16_22 
REMARK   14  A    between atoms: C23_29  and  C24_30 
REMARK   15  A    between atoms: C29_35  and  C30_36 
ROOT
HETATM    1  C14 UNL     1       3.829  68.147  62.814  1.00  0.00     0.183 C 
HETATM    2  C15 UNL     1       4.117  66.756  62.475  1.00  0.00     0.106 C 
HETATM    3  N1  UNL     1       4.325  65.642  62.158  1.00  0.00    -0.193 NA
ENDROOT
BRANCH   1   4
HETATM    4  C13 UNL     1       3.513  68.471  64.180  1.00  0.00     0.033 C 
HETATM    5  C11 UNL     1       4.199  68.519  65.287  1.00  0.00    -0.083 C 
HETATM    6  C12 UNL     1       5.695  68.515  65.180  1.00  0.00     0.043 C 
BRANCH   5   7
HETATM    7  C10 UNL     1       3.545  68.869  66.539  1.00  0.00     0.037 C 
BRANCH   7   8
HETATM    8  C9  UNL     1       2.589  67.640  66.998  1.00  0.00     0.032 C 
BRANCH   8   9
HETATM    9  C8  UNL     1       1.394  68.308  66.618  1.00  0.00    -0.012 C 
HETATM   10  C6  UNL     1       0.172  68.044  67.104  1.00  0.00    -0.022 C 
HETATM   11  C7  UNL     1      -0.901  68.871  66.422  1.00  0.00     0.057 C 
BRANCH  10  12
HETATM   12  C5  UNL     1      -0.140  67.093  68.115  1.00  0.00    -0.118 C 
BRANCH  12  13
HETATM   13  C4  UNL     1      -0.367  66.253  68.979  1.00  0.00     0.192 C 
BRANCH  13  14
HETATM   14  C3  UNL     1       0.528  66.005  70.175  1.00  0.00     0.081 C 
BRANCH  14  15
HETATM   15  C2  UNL     1      -0.115  64.769  70.866  1.00  0.00     0.157 C 
BRANCH  15  16
HETATM   16  O1  UNL     1      -0.070  65.183  72.230  1.00  0.00    -0.386 OA
HETATM   17  C1  UNL     1      -1.236  65.094  72.901  1.00  0.00     0.202 C 
ENDBRANCH  15  16
BRANCH  15  18
HETATM   18  C20 UNL     1       0.737  63.592  70.727  1.00  0.00    -0.023 A 
HETATM   19  C21 UNL     1       2.100  63.673  70.682  1.00  0.00     0.011 A 
HETATM   20  C22 UNL     1       2.961  62.554  70.664  1.00  0.00     0.008 A 
HETATM   21  C23 UNL     1       2.386  61.303  70.700  1.00  0.00    -0.050 A 
HETATM   22  C28 UNL     1       1.012  61.210  70.746  1.00  0.00     0.016 A 
HETATM   23  C29 UNL     1       0.178  62.296  70.762  1.00  0.00    -0.045 A 
BRANCH  21  24
HETATM   24  C24 UNL     1       3.216  60.060  70.682  1.00  0.00    -0.024 C 
HETATM   25  C25 UNL     1       2.794  59.150  71.817  1.00  0.00     0.019 C 
HETATM   26  C26 UNL     1       3.200  59.288  69.438  1.00  0.00     0.019 C 
HETATM   27  C27 UNL     1       4.639  60.496  71.043  1.00  0.00     0.019 C 
ENDBRANCH  21  24
BRANCH  23  28
HETATM   28  C30 UNL     1      -1.290  62.066  70.803  1.00  0.00     0.011 C 
HETATM   29  C31 UNL     1      -1.680  61.308  69.501  1.00  0.00     0.015 C 
HETATM   30  C32 UNL     1      -1.589  61.051  71.935  1.00  0.00     0.015 C 
ENDBRANCH  23  28
ENDBRANCH  15  18
ENDBRANCH  14  15
ENDBRANCH  13  14
BRANCH  13  31
HETATM   31  O2  UNL     1      -1.541  65.415  68.923  1.00  0.00    -0.384 OA
ATOM     32  H2  UNL     1      -2.238  65.747  68.369  1.00  0.00     0.211 HD
ENDBRANCH  13  31
ENDBRANCH  12  13
ENDBRANCH  10  12
ENDBRANCH   8   9
ENDBRANCH   7   8
ENDBRANCH   5   7
ENDBRANCH   1   4
BRANCH   1  33
HETATM   33  O3  UNL     1       4.945  68.932  62.386  1.00  0.00    -0.369 OA
ATOM     34  H3  UNL     1       4.629  69.718  61.954  1.00  0.00     0.212 HD
ENDBRANCH   1  33
BRANCH   1  35
HETATM   35  C16 UNL     1       2.684  68.543  61.889  1.00  0.00     0.032 C 
HETATM   36  C17 UNL     1       1.423  68.545  62.033  1.00  0.00    -0.087 C 
HETATM   37  C18 UNL     1       0.686  69.056  60.769  1.00  0.00     0.043 C 
HETATM   38  C19 UNL     1       0.536  68.168  63.136  1.00  0.00     0.043 C 
ENDBRANCH   1  35
TORSDOF 15
ENDMDL
MODEL 5
REMARK VINA RESULT: -9.799870236      2.573      8.309
REMARK  15 active torsions:
REMARK  status: ('A' for Active; 'I' for Inactive)
REMARK    1  A    between atoms: O1_2  and  C2_3 
REMARK    2  A    between atoms: C2_3  and  C3_4 
REMARK    3  A    between atoms: C2_3  and  C20_26 
REMARK    4  A    between atoms: C3_4  and  C4_5 
REMARK    5  A    between atoms: C4_5  and  O2_6 
REMARK    6  A    between atoms: C4_5  and  C5_8 
REMARK    7  A    between atoms: C5_8  and  C6_9 
REMARK    8  A    between atoms: C8_11  and  C9_12 
REMARK    9  A    between atoms: C9_12  and  C10_13 
REMARK   10  A    between atoms: C10_13  and  C11_14 
REMARK   11  A    between atoms: C13_16  and  C14_17 
REMARK   12  A    between atoms: C14_17  and  O3_18 
REMARK   13  A    between atoms: C14_17  and  C16_22 
REMARK   14  A    between atoms: C23_29  and  C24_30 
REMARK   15  A    between atoms: C29_35  and  C30_36 
ROOT
HETATM    1  C14 UNL     1       1.680  61.467  71.291  1.00  0.00     0.183 C 
HETATM    2  C15 UNL     1       1.580  61.437  69.835  1.00  0.00     0.106 C 
HETATM    3  N1  UNL     1       1.549  61.398  68.659  1.00  0.00    -0.193 NA
ENDROOT
BRANCH   1   4
HETATM    4  C13 UNL     1       0.976  62.498  72.007  1.00  0.00     0.033 C 
HETATM    5  C11 UNL     1      -0.269  62.878  72.068  1.00  0.00    -0.083 C 
HETATM    6  C12 UNL     1      -1.310  61.944  71.526  1.00  0.00     0.043 C 
BRANCH   5   7
HETATM    7  C10 UNL     1      -0.650  64.011  72.897  1.00  0.00     0.037 C 
BRANCH   7   8
HETATM    8  C9  UNL     1      -1.128  65.231  71.939  1.00  0.00     0.032 C 
BRANCH   8   9
HETATM    9  C8  UNL     1       0.130  65.333  71.287  1.00  0.00    -0.012 C 
HETATM   10  C6  UNL     1       0.309  65.631  69.992  1.00  0.00    -0.022 C 
HETATM   11  C7  UNL     1       1.770  65.567  69.590  1.00  0.00     0.057 C 
BRANCH  10  12
HETATM   12  C5  UNL     1      -0.715  65.947  69.056  1.00  0.00    -0.118 C 
BRANCH  12  13
HETATM   13  C4  UNL     1      -1.627  66.228  68.286  1.00  0.00     0.192 C 
BRANCH  13  14
HETATM   14  C3  UNL     1      -1.418  66.680  66.856  1.00  0.00     0.081 C 
BRANCH  14  15
HETATM   15  C2  UNL     1      -0.632  68.014  67.003  1.00  0.00     0.157 C 
BRANCH  15  16
HETATM   16  O1  UNL     1      -1.452  68.884  66.226  1.00  0.00    -0.386 OA
HETATM   17  C1  UNL     1      -2.630  68.366  65.825  1.00  0.00     0.202 C 
ENDBRANCH  15  16
BRANCH  15  18
HETATM   18  C20 UNL     1       0.672  67.926  66.352  1.00  0.00    -0.023 A 
HETATM   19  C21 UNL     1       0.821  67.505  65.061  1.00  0.00     0.011 A 
HETATM   20  C22 UNL     1       2.047  67.514  64.361  1.00  0.00     0.008 A 
HETATM   21  C23 UNL     1       3.159  67.985  65.023  1.00  0.00    -0.050 A 
HETATM   22  C28 UNL     1       3.019  68.412  66.324  1.00  0.00     0.016 A 
HETATM   23  C29 UNL     1       1.831  68.401  67.004  1.00  0.00    -0.045 A 
BRANCH  21  24
HETATM   24  C24 UNL     1       4.500  68.031  64.363  1.00  0.00    -0.024 C 
HETATM   25  C25 UNL     1       4.351  68.536  62.943  1.00  0.00     0.019 C 
HETATM   26  C26 UNL     1       5.526  68.832  65.035  1.00  0.00     0.019 C 
HETATM   27  C27 UNL     1       4.947  66.574  64.213  1.00  0.00     0.019 C 
ENDBRANCH  21  24
BRANCH  23  28
HETATM   28  C30 UNL     1       1.809  68.881  68.411  1.00  0.00     0.011 C 
HETATM   29  C31 UNL     1       3.222  69.453  68.729  1.00  0.00     0.015 C 
HETATM   30  C32 UNL     1       0.876  70.116  68.487  1.00  0.00     0.015 C 
ENDBRANCH  23  28
ENDBRANCH  15  18
ENDBRANCH  14  15
ENDBRANCH  13  14
BRANCH  13  31
HETATM   31  O2  UNL     1      -3.009  66.142  68.693  1.00  0.00    -0.384 OA
ATOM     32  H2  UNL     1      -3.212  65.397  69.246  1.00  0.00     0.211 HD
ENDBRANCH  13  31
ENDBRANCH  12  13
ENDBRANCH  10  12
ENDBRANCH   8   9
ENDBRANCH   7   8
ENDBRANCH   5   7
ENDBRANCH   1   4
BRANCH   1  33
HETATM   33  O3  UNL     1       1.267  60.187  71.776  1.00  0.00    -0.369 OA
ATOM     34  H3  UNL     1       0.863  59.697  71.068  1.00  0.00     0.212 HD
ENDBRANCH   1  33
BRANCH   1  35
HETATM   35  C16 UNL     1       3.174  61.539  71.577  1.00  0.00     0.032 C 
HETATM   36  C17 UNL     1       4.140  60.758  71.316  1.00  0.00    -0.087 C 
HETATM   37  C18 UNL     1       5.497  61.305  71.827  1.00  0.00     0.043 C 
HETATM   38  C19 UNL     1       4.229  59.463  70.637  1.00  0.00     0.043 C 
ENDBRANCH   1  35
TORSDOF 15
ENDMDL
