MODEL 1
REMARK VINA RESULT: -10.233587728      0.000      0.000
REMARK  12 active torsions:
REMARK  status: ('A' for Active; 'I' for Inactive)
REMARK    1  A    between atoms: C2_2  and  C3_3 
REMARK    2  A    between atoms: C6_6  and  C7_7 
REMARK    3  A    between atoms: C7_7  and  C8_8 
REMARK    4  A    between atoms: C7_7  and  C14_14 
REMARK    5  A    between atoms: C7_7  and  S1_18 
REMARK    6  A    between atoms: C8_8  and  C9_9 
REMARK    7  A    between atoms: C9_9  and  C10_10 
REMARK    8  A    between atoms: S1_18  and  C18_19 
REMARK    9  A    between atoms: C18_19  and  C19_20 
REMARK   10  A    between atoms: C19_20  and  C20_21 
REMARK   11  A    between atoms: C29_30  and  O1_32 
REMARK   12  A    between atoms: C31_34  and  O2_35 
ROOT
HETATM    1  C7  UNL     1       1.324  63.031  71.065  1.00  0.00     0.049 C 
ENDROOT
BRANCH   1   2
HETATM    2  C6  UNL     1       1.008  62.888  72.494  1.00  0.00    -0.057 C 
HETATM    3  C5  UNL     1       1.692  62.033  73.480  1.00  0.00     0.051 C 
HETATM    4  C3  UNL     1       0.809  61.367  74.498  1.00  0.00     0.006 C 
HETATM    5  C4  UNL     1       0.384  59.990  74.039  1.00  0.00     0.022 C 
HETATM    6  C31 UNL     1      -0.413  62.137  74.864  1.00  0.00     0.168 C 
HETATM    7  C29 UNL     1      -0.384  63.591  74.449  1.00  0.00     0.099 C 
HETATM    8  C28 UNL     1       0.001  63.629  73.039  1.00  0.00     0.017 C 
HETATM    9  C30 UNL     1       0.415  64.393  75.402  1.00  0.00     0.053 C 
BRANCH   4  10
HETATM   10  C2  UNL     1       1.689  61.150  75.709  1.00  0.00    -0.025 C 
HETATM   11  C1  UNL     1       2.433  60.070  75.838  1.00  0.00     0.008 C 
ENDBRANCH   4  10
BRANCH   6  12
HETATM   12  O2  UNL     1      -0.607  62.120  76.263  1.00  0.00    -0.391 OA
ATOM     13  H2  UNL     1      -0.953  62.954  76.560  1.00  0.00     0.210 HD
ENDBRANCH   6  12
BRANCH   7  14
HETATM   14  O1  UNL     1      -1.725  64.039  74.558  1.00  0.00    -0.384 OA
ATOM     15  H1  UNL     1      -1.946  64.102  75.479  1.00  0.00     0.211 HD
ENDBRANCH   7  14
ENDBRANCH   1   2
BRANCH   1  16
HETATM   16  C8  UNL     1       0.680  62.010  70.195  1.00  0.00     0.033 C 
BRANCH  16  17
HETATM   17  C9  UNL     1      -0.702  61.891  69.818  1.00  0.00     0.029 C 
BRANCH  17  18
HETATM   18  C10 UNL     1      -1.690  61.362  70.766  1.00  0.00    -0.025 C 
HETATM   19  C11 UNL     1      -2.876  60.890  70.370  1.00  0.00    -0.091 C 
HETATM   20  C12 UNL     1      -3.863  60.358  71.347  1.00  0.00     0.042 C 
HETATM   21  C13 UNL     1      -3.219  60.892  68.933  1.00  0.00     0.042 C 
ENDBRANCH  17  18
ENDBRANCH  16  17
ENDBRANCH   1  16
BRANCH   1  22
HETATM   22  C14 UNL     1       2.782  63.126  70.756  1.00  0.00     0.000 C 
HETATM   23  C15 UNL     1       3.478  62.180  69.912  1.00  0.00    -0.090 C 
HETATM   24  C16 UNL     1       3.491  60.733  70.277  1.00  0.00     0.042 C 
HETATM   25  C17 UNL     1       3.249  62.328  68.440  1.00  0.00     0.042 C 
ENDBRANCH   1  22
BRANCH   1  26
HETATM   26  S1  UNL     1       0.487  64.584  70.494  1.00  0.00    -0.150 SA
BRANCH  26  27
HETATM   27  C18 UNL     1       1.468  65.775  69.681  1.00  0.00     0.076 C 
BRANCH  27  28
HETATM   28  C19 UNL     1       0.917  67.044  69.182  1.00  0.00     0.020 C 
BRANCH  28  29
HETATM   29  C20 UNL     1       1.182  67.337  67.734  1.00  0.00     0.018 C 
HETATM   30  C21 UNL     1       2.227  68.307  67.416  1.00  0.00    -0.083 C 
HETATM   31  C22 UNL     1       2.941  69.177  68.378  1.00  0.00     0.043 C 
HETATM   32  C23 UNL     1       2.491  68.409  66.091  1.00  0.00    -0.024 C 
HETATM   33  C24 UNL     1       1.709  67.556  65.178  1.00  0.00     0.028 C 
HETATM   34  C25 UNL     1       0.236  67.872  65.492  1.00  0.00     0.009 C 
HETATM   35  C26 UNL     1      -0.074  67.706  66.965  1.00  0.00    -0.010 C 
HETATM   36  C27 UNL     1      -1.171  66.695  67.107  1.00  0.00     0.010 C 
ENDBRANCH  28  29
ENDBRANCH  27  28
ENDBRANCH  26  27
ENDBRANCH   1  26
TORSDOF 12
ENDMDL
MODEL 2
REMARK VINA RESULT: -10.156439368      0.835      1.114
REMARK  12 active torsions:
REMARK  status: ('A' for Active; 'I' for Inactive)
REMARK    1  A    between atoms: C2_2  and  C3_3 
REMARK    2  A    between atoms: C6_6  and  C7_7 
REMARK    3  A    between atoms: C7_7  and  C8_8 
REMARK    4  A    between atoms: C7_7  and  C14_14 
REMARK    5  A    between atoms: C7_7  and  S1_18 
REMARK    6  A    between atoms: C8_8  and  C9_9 
REMARK    7  A    between atoms: C9_9  and  C10_10 
REMARK    8  A    between atoms: S1_18  and  C18_19 
REMARK    9  A    between atoms: C18_19  and  C19_20 
REMARK   10  A    between atoms: C19_20  and  C20_21 
REMARK   11  A    between atoms: C29_30  and  O1_32 
REMARK   12  A    between atoms: C31_34  and  O2_35 
ROOT
HETATM    1  C7  UNL     1       0.606  63.258  70.997  1.00  0.00     0.049 C 
ENDROOT
BRANCH   1   2
HETATM    2  C6  UNL     1       0.233  63.153  72.417  1.00  0.00    -0.057 C 
HETATM    3  C5  UNL     1       0.586  62.075  73.356  1.00  0.00     0.051 C 
HETATM    4  C3  UNL     1      -0.485  61.678  74.334  1.00  0.00     0.006 C 
HETATM    5  C4  UNL     1      -1.321  60.537  73.800  1.00  0.00     0.022 C 
HETATM    6  C31 UNL     1      -1.400  62.782  74.739  1.00  0.00     0.168 C 
HETATM    7  C29 UNL     1      -0.897  64.167  74.404  1.00  0.00     0.099 C 
HETATM    8  C28 UNL     1      -0.492  64.151  72.998  1.00  0.00     0.017 C 
HETATM    9  C30 UNL     1       0.099  64.620  75.400  1.00  0.00     0.053 C 
BRANCH   4  10
HETATM   10  C2  UNL     1       0.255  61.128  75.534  1.00  0.00    -0.025 C 
HETATM   11  C1  UNL     1       1.570  61.155  75.606  1.00  0.00     0.008 C 
ENDBRANCH   4  10
BRANCH   6  12
HETATM   12  O2  UNL     1      -1.617  62.757  76.135  1.00  0.00    -0.391 OA
ATOM     13  H2  UNL     1      -2.528  62.569  76.326  1.00  0.00     0.210 HD
ENDBRANCH   6  12
BRANCH   7  14
HETATM   14  O1  UNL     1      -2.024  65.019  74.533  1.00  0.00    -0.384 OA
ATOM     15  H1  UNL     1      -2.336  64.966  75.428  1.00  0.00     0.211 HD
ENDBRANCH   7  14
ENDBRANCH   1   2
BRANCH   1  16
HETATM   16  C8  UNL     1      -0.203  62.400  70.091  1.00  0.00     0.033 C 
BRANCH  16  17
HETATM   17  C9  UNL     1      -1.423  61.694  70.370  1.00  0.00     0.029 C 
BRANCH  17  18
HETATM   18  C10 UNL     1      -2.336  61.324  69.281  1.00  0.00    -0.025 C 
HETATM   19  C11 UNL     1      -3.497  60.703  69.506  1.00  0.00    -0.091 C 
HETATM   20  C12 UNL     1      -4.408  60.337  68.388  1.00  0.00     0.042 C 
HETATM   21  C13 UNL     1      -3.892  60.373  70.890  1.00  0.00     0.042 C 
ENDBRANCH  17  18
ENDBRANCH  16  17
ENDBRANCH   1  16
BRANCH   1  22
HETATM   22  C14 UNL     1       2.062  63.074  70.721  1.00  0.00     0.000 C 
HETATM   23  C15 UNL     1       2.620  61.848  70.193  1.00  0.00    -0.090 C 
HETATM   24  C16 UNL     1       2.441  60.570  70.941  1.00  0.00     0.042 C 
HETATM   25  C17 UNL     1       2.405  61.613  68.730  1.00  0.00     0.042 C 
ENDBRANCH   1  22
BRANCH   1  26
HETATM   26  S1  UNL     1       0.102  64.956  70.446  1.00  0.00    -0.150 SA
BRANCH  26  27
HETATM   27  C18 UNL     1       1.310  65.940  69.665  1.00  0.00     0.076 C 
BRANCH  27  28
HETATM   28  C19 UNL     1       1.011  67.274  69.120  1.00  0.00     0.020 C 
BRANCH  28  29
HETATM   29  C20 UNL     1       1.439  67.500  67.700  1.00  0.00     0.018 C 
HETATM   30  C21 UNL     1       2.511  68.463  67.457  1.00  0.00    -0.083 C 
HETATM   31  C22 UNL     1       3.107  69.383  68.451  1.00  0.00     0.043 C 
HETATM   32  C23 UNL     1       2.924  68.505  66.167  1.00  0.00    -0.024 C 
HETATM   33  C24 UNL     1       2.254  67.603  65.212  1.00  0.00     0.028 C 
HETATM   34  C25 UNL     1       0.755  67.921  65.341  1.00  0.00     0.009 C 
HETATM   35  C26 UNL     1       0.279  67.822  66.775  1.00  0.00    -0.010 C 
HETATM   36  C27 UNL     1      -0.825  66.809  66.839  1.00  0.00     0.010 C 
ENDBRANCH  28  29
ENDBRANCH  27  28
ENDBRANCH  26  27
ENDBRANCH   1  26
TORSDOF 12
ENDMDL
MODEL 3
REMARK VINA RESULT: -9.870794759      1.008      2.077
REMARK  12 active torsions:
REMARK  status: ('A' for Active; 'I' for Inactive)
REMARK    1  A    between atoms: C2_2  and  C3_3 
REMARK    2  A    between atoms: C6_6  and  C7_7 
REMARK    3  A    between atoms: C7_7  and  C8_8 
REMARK    4  A    between atoms: C7_7  and  C14_14 
REMARK    5  A    between atoms: C7_7  and  S1_18 
REMARK    6  A    between atoms: C8_8  and  C9_9 
REMARK    7  A    between atoms: C9_9  and  C10_10 
REMARK    8  A    between atoms: S1_18  and  C18_19 
REMARK    9  A    between atoms: C18_19  and  C19_20 
REMARK   10  A    between atoms: C19_20  and  C20_21 
REMARK   11  A    between atoms: C29_30  and  O1_32 
REMARK   12  A    between atoms: C31_34  and  O2_35 
ROOT
HETATM    1  C7  UNL     1       1.424  62.702  71.019  1.00  0.00     0.049 C 
ENDROOT
BRANCH   1   2
HETATM    2  C6  UNL     1       1.169  62.296  72.409  1.00  0.00    -0.057 C 
HETATM    3  C5  UNL     1      -0.022  62.593  73.224  1.00  0.00     0.051 C 
HETATM    4  C3  UNL     1       0.233  62.897  74.675  1.00  0.00     0.006 C 
HETATM    5  C4  UNL     1       0.396  64.383  74.904  1.00  0.00     0.022 C 
HETATM    6  C31 UNL     1       1.412  62.199  75.261  1.00  0.00     0.168 C 
HETATM    7  C29 UNL     1       1.928  61.043  74.436  1.00  0.00     0.099 C 
HETATM    8  C28 UNL     1       2.085  61.527  73.065  1.00  0.00     0.017 C 
HETATM    9  C30 UNL     1       1.100  59.835  74.647  1.00  0.00     0.053 C 
BRANCH   4  10
HETATM   10  C2  UNL     1      -1.038  62.501  75.394  1.00  0.00    -0.025 C 
HETATM   11  C1  UNL     1      -1.977  61.795  74.798  1.00  0.00     0.008 C 
ENDBRANCH   4  10
BRANCH   6  12
HETATM   12  O2  UNL     1       1.092  61.676  76.534  1.00  0.00    -0.391 OA
ATOM     13  H2  UNL     1       1.359  60.766  76.595  1.00  0.00     0.210 HD
ENDBRANCH   6  12
BRANCH   7  14
HETATM   14  O1  UNL     1       3.216  60.755  74.958  1.00  0.00    -0.384 OA
ATOM     15  H1  UNL     1       3.108  60.286  75.776  1.00  0.00     0.211 HD
ENDBRANCH   7  14
ENDBRANCH   1   2
BRANCH   1  16
HETATM   16  C8  UNL     1       0.690  61.897  70.005  1.00  0.00     0.033 C 
BRANCH  16  17
HETATM   17  C9  UNL     1      -0.714  61.902  69.697  1.00  0.00     0.029 C 
BRANCH  17  18
HETATM   18  C10 UNL     1      -1.689  61.372  70.658  1.00  0.00    -0.025 C 
HETATM   19  C11 UNL     1      -2.877  60.892  70.276  1.00  0.00    -0.091 C 
HETATM   20  C12 UNL     1      -3.852  60.360  71.266  1.00  0.00     0.042 C 
HETATM   21  C13 UNL     1      -3.234  60.886  68.843  1.00  0.00     0.042 C 
ENDBRANCH  17  18
ENDBRANCH  16  17
ENDBRANCH   1  16
BRANCH   1  22
HETATM   22  C14 UNL     1       2.868  62.799  70.653  1.00  0.00     0.000 C 
HETATM   23  C15 UNL     1       3.470  62.033  69.584  1.00  0.00    -0.090 C 
HETATM   24  C16 UNL     1       3.419  60.542  69.622  1.00  0.00     0.042 C 
HETATM   25  C17 UNL     1       3.179  62.514  68.196  1.00  0.00     0.042 C 
ENDBRANCH   1  22
BRANCH   1  26
HETATM   26  S1  UNL     1       0.638  64.369  70.806  1.00  0.00    -0.150 SA
BRANCH  26  27
HETATM   27  C18 UNL     1       1.462  65.524  69.794  1.00  0.00     0.076 C 
BRANCH  27  28
HETATM   28  C19 UNL     1       0.869  66.820  69.430  1.00  0.00     0.020 C 
BRANCH  28  29
HETATM   29  C20 UNL     1       0.990  67.200  67.983  1.00  0.00     0.018 C 
HETATM   30  C21 UNL     1       1.995  68.197  67.622  1.00  0.00    -0.083 C 
HETATM   31  C22 UNL     1       2.796  69.016  68.560  1.00  0.00     0.043 C 
HETATM   32  C23 UNL     1       2.126  68.380  66.286  1.00  0.00    -0.024 C 
HETATM   33  C24 UNL     1       1.262  67.575  65.405  1.00  0.00     0.028 C 
HETATM   34  C25 UNL     1      -0.174  67.857  65.880  1.00  0.00     0.009 C 
HETATM   35  C26 UNL     1      -0.337  67.602  67.364  1.00  0.00    -0.010 C 
HETATM   36  C27 UNL     1      -1.411  66.574  67.552  1.00  0.00     0.010 C 
ENDBRANCH  28  29
ENDBRANCH  27  28
ENDBRANCH  26  27
ENDBRANCH   1  26
TORSDOF 12
ENDMDL
MODEL 4
REMARK VINA RESULT: -9.716117619      0.571      1.630
REMARK  12 active torsions:
REMARK  status: ('A' for Active; 'I' for Inactive)
REMARK    1  A    between atoms: C2_2  and  C3_3 
REMARK    2  A    between atoms: C6_6  and  C7_7 
REMARK    3  A    between atoms: C7_7  and  C8_8 
REMARK    4  A    between atoms: C7_7  and  C14_14 
REMARK    5  A    between atoms: C7_7  and  S1_18 
REMARK    6  A    between atoms: C8_8  and  C9_9 
REMARK    7  A    between atoms: C9_9  and  C10_10 
REMARK    8  A    between atoms: S1_18  and  C18_19 
REMARK    9  A    between atoms: C18_19  and  C19_20 
REMARK   10  A    between atoms: C19_20  and  C20_21 
REMARK   11  A    between atoms: C29_30  and  O1_32 
REMARK   12  A    between atoms: C31_34  and  O2_35 
ROOT
HETATM    1  C7  UNL     1       1.374  63.111  71.069  1.00  0.00     0.049 C 
ENDROOT
BRANCH   1   2
HETATM    2  C6  UNL     1       1.089  62.910  72.498  1.00  0.00    -0.057 C 
HETATM    3  C5  UNL     1       1.810  62.036  73.440  1.00  0.00     0.051 C 
HETATM    4  C3  UNL     1       0.961  61.313  74.449  1.00  0.00     0.006 C 
HETATM    5  C4  UNL     1       0.560  59.944  73.947  1.00  0.00     0.022 C 
HETATM    6  C31 UNL     1      -0.271  62.041  74.864  1.00  0.00     0.168 C 
HETATM    7  C29 UNL     1      -0.282  63.509  74.502  1.00  0.00     0.099 C 
HETATM    8  C28 UNL     1       0.075  63.607  73.087  1.00  0.00     0.017 C 
HETATM    9  C30 UNL     1       0.515  64.296  75.468  1.00  0.00     0.053 C 
BRANCH   4  10
HETATM   10  C2  UNL     1       1.869  61.074  75.635  1.00  0.00    -0.025 C 
HETATM   11  C1  UNL     1       2.554  59.956  75.766  1.00  0.00     0.008 C 
ENDBRANCH   4  10
BRANCH   6  12
HETATM   12  O2  UNL     1      -0.438  61.969  76.265  1.00  0.00    -0.391 OA
ATOM     13  H2  UNL     1      -1.117  62.570  76.549  1.00  0.00     0.210 HD
ENDBRANCH   6  12
BRANCH   7  14
HETATM   14  O1  UNL     1      -1.632  63.922  74.650  1.00  0.00    -0.384 OA
ATOM     15  H1  UNL     1      -1.966  64.162  73.795  1.00  0.00     0.211 HD
ENDBRANCH   7  14
ENDBRANCH   1   2
BRANCH   1  16
HETATM   16  C8  UNL     1       0.722  62.118  70.173  1.00  0.00     0.033 C 
BRANCH  16  17
HETATM   17  C9  UNL     1      -0.667  61.994  69.827  1.00  0.00     0.029 C 
BRANCH  17  18
HETATM   18  C10 UNL     1      -1.629  61.448  70.792  1.00  0.00    -0.025 C 
HETATM   19  C11 UNL     1      -2.806  60.940  70.414  1.00  0.00    -0.091 C 
HETATM   20  C12 UNL     1      -3.767  60.391  71.409  1.00  0.00     0.042 C 
HETATM   21  C13 UNL     1      -3.165  60.919  68.982  1.00  0.00     0.042 C 
ENDBRANCH  17  18
ENDBRANCH  16  17
ENDBRANCH   1  16
BRANCH   1  22
HETATM   22  C14 UNL     1       2.825  63.233  70.736  1.00  0.00     0.000 C 
HETATM   23  C15 UNL     1       3.526  62.296  69.886  1.00  0.00    -0.090 C 
HETATM   24  C16 UNL     1       3.573  60.851  70.258  1.00  0.00     0.042 C 
HETATM   25  C17 UNL     1       3.270  62.432  68.417  1.00  0.00     0.042 C 
ENDBRANCH   1  22
BRANCH   1  26
HETATM   26  S1  UNL     1       0.512  64.677  70.576  1.00  0.00    -0.150 SA
BRANCH  26  27
HETATM   27  C18 UNL     1       1.282  65.675  69.373  1.00  0.00     0.076 C 
BRANCH  27  28
HETATM   28  C19 UNL     1       0.974  67.106  69.218  1.00  0.00     0.020 C 
BRANCH  28  29
HETATM   29  C20 UNL     1       0.266  67.478  67.948  1.00  0.00     0.018 C 
HETATM   30  C21 UNL     1      -1.074  66.939  67.732  1.00  0.00    -0.083 C 
HETATM   31  C22 UNL     1      -1.750  65.910  68.555  1.00  0.00     0.043 C 
HETATM   32  C23 UNL     1      -1.689  67.432  66.630  1.00  0.00    -0.024 C 
HETATM   33  C24 UNL     1      -0.944  68.413  65.821  1.00  0.00     0.028 C 
HETATM   34  C25 UNL     1       0.385  67.721  65.471  1.00  0.00     0.009 C 
HETATM   35  C26 UNL     1       1.100  67.217  66.706  1.00  0.00    -0.010 C 
HETATM   36  C27 UNL     1       2.456  67.854  66.762  1.00  0.00     0.010 C 
ENDBRANCH  28  29
ENDBRANCH  27  28
ENDBRANCH  26  27
ENDBRANCH   1  26
TORSDOF 12
ENDMDL
MODEL 5
REMARK VINA RESULT: -9.525542480      1.173      2.244
REMARK  12 active torsions:
REMARK  status: ('A' for Active; 'I' for Inactive)
REMARK    1  A    between atoms: C2_2  and  C3_3 
REMARK    2  A    between atoms: C6_6  and  C7_7 
REMARK    3  A    between atoms: C7_7  and  C8_8 
REMARK    4  A    between atoms: C7_7  and  C14_14 
REMARK    5  A    between atoms: C7_7  and  S1_18 
REMARK    6  A    between atoms: C8_8  and  C9_9 
REMARK    7  A    between atoms: C9_9  and  C10_10 
REMARK    8  A    between atoms: S1_18  and  C18_19 
REMARK    9  A    between atoms: C18_19  and  C19_20 
REMARK   10  A    between atoms: C19_20  and  C20_21 
REMARK   11  A    between atoms: C29_30  and  O1_32 
REMARK   12  A    between atoms: C31_34  and  O2_35 
ROOT
HETATM    1  C7  UNL     1       0.491  63.123  71.216  1.00  0.00     0.049 C 
ENDROOT
BRANCH   1   2
HETATM    2  C6  UNL     1       0.005  62.898  72.586  1.00  0.00    -0.057 C 
HETATM    3  C5  UNL     1      -0.378  63.918  73.578  1.00  0.00     0.051 C 
HETATM    4  C3  UNL     1       0.008  63.628  75.002  1.00  0.00     0.006 C 
HETATM    5  C4  UNL     1       1.353  64.230  75.340  1.00  0.00     0.022 C 
HETATM    6  C31 UNL     1       0.037  62.182  75.359  1.00  0.00     0.168 C 
HETATM    7  C29 UNL     1      -0.666  61.279  74.371  1.00  0.00     0.099 C 
HETATM    8  C28 UNL     1      -0.166  61.623  73.040  1.00  0.00     0.017 C 
HETATM    9  C30 UNL     1      -2.131  61.308  74.582  1.00  0.00     0.053 C 
BRANCH   4  10
HETATM   10  C2  UNL     1      -1.005  64.369  75.848  1.00  0.00    -0.025 C 
HETATM   11  C1  UNL     1      -1.760  65.322  75.344  1.00  0.00     0.008 C 
ENDBRANCH   4  10
BRANCH   6  12
HETATM   12  O2  UNL     1      -0.581  61.969  76.611  1.00  0.00    -0.391 OA
ATOM     13  H2  UNL     1      -0.718  61.041  76.760  1.00  0.00     0.210 HD
ENDBRANCH   6  12
BRANCH   7  14
HETATM   14  O1  UNL     1      -0.231  59.966  74.685  1.00  0.00    -0.384 OA
ATOM     15  H1  UNL     1      -0.936  59.362  74.486  1.00  0.00     0.211 HD
ENDBRANCH   7  14
ENDBRANCH   1   2
BRANCH   1  16
HETATM   16  C8  UNL     1      -0.269  62.384  70.172  1.00  0.00     0.033 C 
BRANCH  16  17
HETATM   17  C9  UNL     1      -1.361  61.464  70.335  1.00  0.00     0.029 C 
BRANCH  17  18
HETATM   18  C10 UNL     1      -2.291  61.209  69.227  1.00  0.00    -0.025 C 
HETATM   19  C11 UNL     1      -3.503  60.681  69.423  1.00  0.00    -0.091 C 
HETATM   20  C12 UNL     1      -4.430  60.429  68.286  1.00  0.00     0.042 C 
HETATM   21  C13 UNL     1      -3.938  60.340  70.792  1.00  0.00     0.042 C 
ENDBRANCH  17  18
ENDBRANCH  16  17
ENDBRANCH   1  16
BRANCH   1  22
HETATM   22  C14 UNL     1       1.958  62.912  71.034  1.00  0.00     0.000 C 
HETATM   23  C15 UNL     1       2.519  61.737  70.404  1.00  0.00    -0.090 C 
HETATM   24  C16 UNL     1       2.237  60.387  70.973  1.00  0.00     0.042 C 
HETATM   25  C17 UNL     1       2.418  61.688  68.911  1.00  0.00     0.042 C 
ENDBRANCH   1  22
BRANCH   1  26
HETATM   26  S1  UNL     1       0.081  64.882  70.796  1.00  0.00    -0.150 SA
BRANCH  26  27
HETATM   27  C18 UNL     1       1.171  65.731  69.733  1.00  0.00     0.076 C 
BRANCH  27  28
HETATM   28  C19 UNL     1       0.932  67.115  69.297  1.00  0.00     0.020 C 
BRANCH  28  29
HETATM   29  C20 UNL     1       1.237  67.398  67.855  1.00  0.00     0.018 C 
HETATM   30  C21 UNL     1       2.283  68.375  67.559  1.00  0.00    -0.083 C 
HETATM   31  C22 UNL     1       2.961  69.258  68.535  1.00  0.00     0.043 C 
HETATM   32  C23 UNL     1       2.585  68.468  66.242  1.00  0.00    -0.024 C 
HETATM   33  C24 UNL     1       1.837  67.601  65.313  1.00  0.00     0.028 C 
HETATM   34  C25 UNL     1       0.353  67.907  65.581  1.00  0.00     0.009 C 
HETATM   35  C26 UNL     1       0.002  67.750  67.046  1.00  0.00    -0.010 C 
HETATM   36  C27 UNL     1      -1.091  66.731  67.164  1.00  0.00     0.010 C 
ENDBRANCH  28  29
ENDBRANCH  27  28
ENDBRANCH  26  27
ENDBRANCH   1  26
TORSDOF 12
ENDMDL
