MODEL 1
REMARK VINA RESULT: -5.949788621      0.000      0.000
REMARK  10 active torsions:
REMARK  status: ('A' for Active; 'I' for Inactive)
REMARK    1  A    between atoms: N1_1  and  C1_5 
REMARK    2  A    between atoms: C1_5  and  C2_6 
REMARK    3  A    between atoms: C1_5  and  C9_21 
REMARK    4  A    between atoms: C2_6  and  S1_7 
REMARK    5  A    between atoms: S1_7  and  O1_8 
REMARK    6  A    between atoms: O1_8  and  C3_9 
REMARK    7  A    between atoms: C4_10  and  O2_11 
REMARK    8  A    between atoms: C6_14  and  C7_15 
REMARK    9  A    between atoms: C7_15  and  O3_16 
REMARK   10  A    between atoms: C8_18  and  O4_19 
ROOT
HETATM    1  C3  UNL     1      48.491  28.209  12.530  1.00  0.00     0.195 C 
HETATM    2  C4  UNL     1      49.653  28.118  11.566  1.00  0.00     0.151 C 
HETATM    3  C5  UNL     1      49.594  29.524  10.960  1.00  0.00     0.043 C 
HETATM    4  C6  UNL     1      48.114  29.736  10.787  1.00  0.00     0.043 C 
HETATM    5  C8  UNL     1      47.401  28.693  11.616  1.00  0.00     0.157 C 
ENDROOT
BRANCH   1   6
HETATM    6  O1  UNL     1      48.226  27.029  13.182  1.00  0.00    -0.309 OA
BRANCH   6   7
HETATM    7  S1  UNL     1      49.010  26.863  14.673  1.00  0.00    -0.009 SA
BRANCH   7   8
HETATM    8  C2  UNL     1      49.777  25.236  14.778  1.00  0.00     0.142 C 
BRANCH   8   9
HETATM    9  C1  UNL     1      51.015  25.120  13.908  1.00  0.00     0.248 C 
BRANCH   9  10
HETATM   10  N1  UNL     1      51.738  26.384  14.049  1.00  0.00    -0.070 N 
ATOM     11  H13 UNL     1      51.125  27.187  14.188  1.00  0.00     0.274 HD
ATOM     12  H12 UNL     1      52.249  26.463  14.928  1.00  0.00     0.274 HD
ATOM     13  H11 UNL     1      52.333  26.469  13.226  1.00  0.00     0.274 HD
ENDBRANCH   9  10
BRANCH   9  14
HETATM   14  C9  UNL     1      51.943  24.049  14.473  1.00  0.00     0.217 C 
HETATM   15 CL1  UNL     1      53.273  24.829  15.337  1.00  0.00    -0.081 Cl
HETATM   16 CL2  UNL     1      51.030  23.078  15.665  1.00  0.00    -0.081 Cl
HETATM   17 CL3  UNL     1      52.544  22.946  13.233  1.00  0.00    -0.081 Cl
ENDBRANCH   9  14
ENDBRANCH   8   9
ENDBRANCH   7   8
ENDBRANCH   6   7
ENDBRANCH   1   6
BRANCH   2  18
HETATM   18  O2  UNL     1      49.415  27.248  10.503  1.00  0.00    -0.393 OA
ATOM     19  H2  UNL     1      48.814  27.602   9.859  1.00  0.00     0.210 HD
ENDBRANCH   2  18
BRANCH   5  20
HETATM   20  O4  UNL     1      46.321  29.236  12.306  1.00  0.00    -0.392 OA
ATOM     21  H4  UNL     1      46.567  29.975  12.850  1.00  0.00     0.210 HD
ENDBRANCH   5  20
BRANCH   4  22
HETATM   22  C7  UNL     1      47.672  29.615   9.345  1.00  0.00     0.171 C 
BRANCH  22  23
HETATM   23  O3  UNL     1      46.279  29.688   9.295  1.00  0.00    -0.400 OA
ATOM     24  H3  UNL     1      46.002  29.600   8.391  1.00  0.00     0.209 HD
ENDBRANCH  22  23
ENDBRANCH   4  22
TORSDOF 10
ENDMDL
MODEL 2
REMARK VINA RESULT: -5.933929496      0.115      1.185
REMARK  10 active torsions:
REMARK  status: ('A' for Active; 'I' for Inactive)
REMARK    1  A    between atoms: N1_1  and  C1_5 
REMARK    2  A    between atoms: C1_5  and  C2_6 
REMARK    3  A    between atoms: C1_5  and  C9_21 
REMARK    4  A    between atoms: C2_6  and  S1_7 
REMARK    5  A    between atoms: S1_7  and  O1_8 
REMARK    6  A    between atoms: O1_8  and  C3_9 
REMARK    7  A    between atoms: C4_10  and  O2_11 
REMARK    8  A    between atoms: C6_14  and  C7_15 
REMARK    9  A    between atoms: C7_15  and  O3_16 
REMARK   10  A    between atoms: C8_18  and  O4_19 
ROOT
HETATM    1  C3  UNL     1      48.526  28.143  12.490  1.00  0.00     0.195 C 
HETATM    2  C4  UNL     1      49.650  28.095  11.479  1.00  0.00     0.151 C 
HETATM    3  C5  UNL     1      49.553  29.519  10.922  1.00  0.00     0.043 C 
HETATM    4  C6  UNL     1      48.065  29.719  10.812  1.00  0.00     0.043 C 
HETATM    5  C8  UNL     1      47.397  28.642  11.635  1.00  0.00     0.157 C 
ENDROOT
BRANCH   1   6
HETATM    6  O1  UNL     1      48.299  26.940  13.114  1.00  0.00    -0.309 OA
BRANCH   6   7
HETATM    7  S1  UNL     1      48.912  26.843  14.689  1.00  0.00    -0.009 SA
BRANCH   7   8
HETATM    8  C2  UNL     1      49.733  25.257  14.925  1.00  0.00     0.142 C 
BRANCH   8   9
HETATM    9  C1  UNL     1      50.901  25.061  13.976  1.00  0.00     0.248 C 
BRANCH   9  10
HETATM   10  N1  UNL     1      51.597  26.346  13.908  1.00  0.00    -0.070 N 
ATOM     11  H13 UNL     1      51.707  26.697  12.957  1.00  0.00     0.274 HD
ATOM     12  H12 UNL     1      51.044  27.125  14.265  1.00  0.00     0.274 HD
ATOM     13  H11 UNL     1      52.482  26.220  14.398  1.00  0.00     0.274 HD
ENDBRANCH   9  10
BRANCH   9  14
HETATM   14  C9  UNL     1      51.901  24.082  14.584  1.00  0.00     0.217 C 
HETATM   15 CL1  UNL     1      51.059  23.028  15.728  1.00  0.00    -0.081 Cl
HETATM   16 CL2  UNL     1      52.545  23.043  13.279  1.00  0.00    -0.081 Cl
HETATM   17 CL3  UNL     1      53.270  24.892  15.347  1.00  0.00    -0.081 Cl
ENDBRANCH   9  14
ENDBRANCH   8   9
ENDBRANCH   7   8
ENDBRANCH   6   7
ENDBRANCH   1   6
BRANCH   2  18
HETATM   18  O2  UNL     1      49.380  27.256  10.400  1.00  0.00    -0.393 OA
ATOM     19  H2  UNL     1      50.092  27.216   9.772  1.00  0.00     0.210 HD
ENDBRANCH   2  18
BRANCH   5  20
HETATM   20  O4  UNL     1      46.339  29.151  12.383  1.00  0.00    -0.392 OA
ATOM     21  H4  UNL     1      45.785  29.739  11.884  1.00  0.00     0.210 HD
ENDBRANCH   5  20
BRANCH   4  22
HETATM   22  C7  UNL     1      47.569  29.638   9.385  1.00  0.00     0.171 C 
BRANCH  22  23
HETATM   23  O3  UNL     1      46.174  29.694   9.392  1.00  0.00    -0.400 OA
ATOM     24  H3  UNL     1      45.840  29.031   8.799  1.00  0.00     0.209 HD
ENDBRANCH  22  23
ENDBRANCH   4  22
TORSDOF 10
ENDMDL
MODEL 3
REMARK VINA RESULT: -5.905348742      1.441      2.027
REMARK  10 active torsions:
REMARK  status: ('A' for Active; 'I' for Inactive)
REMARK    1  A    between atoms: N1_1  and  C1_5 
REMARK    2  A    between atoms: C1_5  and  C2_6 
REMARK    3  A    between atoms: C1_5  and  C9_21 
REMARK    4  A    between atoms: C2_6  and  S1_7 
REMARK    5  A    between atoms: S1_7  and  O1_8 
REMARK    6  A    between atoms: O1_8  and  C3_9 
REMARK    7  A    between atoms: C4_10  and  O2_11 
REMARK    8  A    between atoms: C6_14  and  C7_15 
REMARK    9  A    between atoms: C7_15  and  O3_16 
REMARK   10  A    between atoms: C8_18  and  O4_19 
ROOT
HETATM    1  C3  UNL     1      49.206  28.481  12.132  1.00  0.00     0.195 C 
HETATM    2  C4  UNL     1      48.327  27.474  11.425  1.00  0.00     0.151 C 
HETATM    3  C5  UNL     1      48.771  27.717   9.979  1.00  0.00     0.043 C 
HETATM    4  C6  UNL     1      48.882  29.217   9.927  1.00  0.00     0.043 C 
HETATM    5  C8  UNL     1      48.898  29.725  11.349  1.00  0.00     0.157 C 
ENDROOT
BRANCH   1   6
HETATM    6  O1  UNL     1      48.967  28.565  13.483  1.00  0.00    -0.309 OA
BRANCH   6   7
HETATM    7  S1  UNL     1      49.272  27.136  14.337  1.00  0.00    -0.009 SA
BRANCH   7   8
HETATM    8  C2  UNL     1      51.031  26.754  14.272  1.00  0.00     0.142 C 
BRANCH   8   9
HETATM    9  C1  UNL     1      51.333  25.556  13.390  1.00  0.00     0.248 C 
BRANCH   9  10
HETATM   10  N1  UNL     1      52.454  25.946  12.535  1.00  0.00    -0.070 N 
ATOM     11  H13 UNL     1      52.859  26.848  12.785  1.00  0.00     0.274 HD
ATOM     12  H12 UNL     1      53.293  25.386  12.685  1.00  0.00     0.274 HD
ATOM     13  H11 UNL     1      52.110  25.910  11.575  1.00  0.00     0.274 HD
ENDBRANCH   9  10
BRANCH   9  14
HETATM   14  C9  UNL     1      51.849  24.403  14.246  1.00  0.00     0.217 C 
HETATM   15 CL1  UNL     1      50.505  23.722  15.172  1.00  0.00    -0.081 Cl
HETATM   16 CL2  UNL     1      52.454  23.116  13.162  1.00  0.00    -0.081 Cl
HETATM   17 CL3  UNL     1      53.179  24.881  15.303  1.00  0.00    -0.081 Cl
ENDBRANCH   9  14
ENDBRANCH   8   9
ENDBRANCH   7   8
ENDBRANCH   6   7
ENDBRANCH   1   6
BRANCH   2  18
HETATM   18  O2  UNL     1      46.974  27.810  11.458  1.00  0.00    -0.393 OA
ATOM     19  H2  UNL     1      46.540  27.525  12.253  1.00  0.00     0.210 HD
ENDBRANCH   2  18
BRANCH   5  20
HETATM   20  O4  UNL     1      49.853  30.723  11.527  1.00  0.00    -0.392 OA
ATOM     21  H4  UNL     1      49.470  31.590  11.597  1.00  0.00     0.210 HD
ENDBRANCH   5  20
BRANCH   4  22
HETATM   22  C7  UNL     1      47.736  29.862   9.179  1.00  0.00     0.171 C 
BRANCH  22  23
HETATM   23  O3  UNL     1      46.940  30.557  10.091  1.00  0.00    -0.400 OA
ATOM     24  H3  UNL     1      46.539  31.294   9.646  1.00  0.00     0.209 HD
ENDBRANCH  22  23
ENDBRANCH   4  22
TORSDOF 10
ENDMDL
MODEL 4
REMARK VINA RESULT: -5.821846707      1.649      2.544
REMARK  10 active torsions:
REMARK  status: ('A' for Active; 'I' for Inactive)
REMARK    1  A    between atoms: N1_1  and  C1_5 
REMARK    2  A    between atoms: C1_5  and  C2_6 
REMARK    3  A    between atoms: C1_5  and  C9_21 
REMARK    4  A    between atoms: C2_6  and  S1_7 
REMARK    5  A    between atoms: S1_7  and  O1_8 
REMARK    6  A    between atoms: O1_8  and  C3_9 
REMARK    7  A    between atoms: C4_10  and  O2_11 
REMARK    8  A    between atoms: C6_14  and  C7_15 
REMARK    9  A    between atoms: C7_15  and  O3_16 
REMARK   10  A    between atoms: C8_18  and  O4_19 
ROOT
HETATM    1  C3  UNL     1      49.444  27.725  11.498  1.00  0.00     0.195 C 
HETATM    2  C4  UNL     1      48.662  28.922  11.003  1.00  0.00     0.151 C 
HETATM    3  C5  UNL     1      48.352  28.452   9.578  1.00  0.00     0.043 C 
HETATM    4  C6  UNL     1      49.650  27.814   9.162  1.00  0.00     0.043 C 
HETATM    5  C8  UNL     1      50.469  27.585  10.410  1.00  0.00     0.157 C 
ENDROOT
BRANCH   1   6
HETATM    6  O1  UNL     1      49.952  27.888  12.765  1.00  0.00    -0.309 OA
BRANCH   6   7
HETATM    7  S1  UNL     1      49.124  27.032  13.967  1.00  0.00    -0.009 SA
BRANCH   7   8
HETATM    8  C2  UNL     1      50.230  25.831  14.729  1.00  0.00     0.142 C 
BRANCH   8   9
HETATM    9  C1  UNL     1      51.127  25.143  13.715  1.00  0.00     0.248 C 
BRANCH   9  10
HETATM   10  N1  UNL     1      52.135  26.127  13.321  1.00  0.00    -0.070 N 
ATOM     11  H13 UNL     1      51.763  26.876  12.739  1.00  0.00     0.274 HD
ATOM     12  H12 UNL     1      52.452  26.713  14.093  1.00  0.00     0.274 HD
ATOM     13  H11 UNL     1      52.888  25.604  12.875  1.00  0.00     0.274 HD
ENDBRANCH   9  10
BRANCH   9  14
HETATM   14  C9  UNL     1      51.895  24.011  14.392  1.00  0.00     0.217 C 
HETATM   15 CL1  UNL     1      53.243  24.694  15.311  1.00  0.00    -0.081 Cl
HETATM   16 CL2  UNL     1      50.808  23.206  15.562  1.00  0.00    -0.081 Cl
HETATM   17 CL3  UNL     1      52.452  22.788  13.250  1.00  0.00    -0.081 Cl
ENDBRANCH   9  14
ENDBRANCH   8   9
ENDBRANCH   7   8
ENDBRANCH   6   7
ENDBRANCH   1   6
BRANCH   2  18
HETATM   18  O2  UNL     1      49.448  30.063  10.854  1.00  0.00    -0.393 OA
ATOM     19  H2  UNL     1      48.972  30.797  10.483  1.00  0.00     0.210 HD
ENDBRANCH   2  18
BRANCH   5  20
HETATM   20  O4  UNL     1      51.079  26.333  10.402  1.00  0.00    -0.392 OA
ATOM     21  H4  UNL     1      51.719  26.232  11.096  1.00  0.00     0.210 HD
ENDBRANCH   5  20
BRANCH   4  22
HETATM   22  C7  UNL     1      50.439  28.671   8.196  1.00  0.00     0.171 C 
BRANCH  22  23
HETATM   23  O3  UNL     1      51.566  29.165   8.854  1.00  0.00    -0.400 OA
ATOM     24  H3  UNL     1      52.336  28.954   8.339  1.00  0.00     0.209 HD
ENDBRANCH  22  23
ENDBRANCH   4  22
TORSDOF 10
ENDMDL
MODEL 5
REMARK VINA RESULT: -5.801825331      2.399      3.519
REMARK  10 active torsions:
REMARK  status: ('A' for Active; 'I' for Inactive)
REMARK    1  A    between atoms: N1_1  and  C1_5 
REMARK    2  A    between atoms: C1_5  and  C2_6 
REMARK    3  A    between atoms: C1_5  and  C9_21 
REMARK    4  A    between atoms: C2_6  and  S1_7 
REMARK    5  A    between atoms: S1_7  and  O1_8 
REMARK    6  A    between atoms: O1_8  and  C3_9 
REMARK    7  A    between atoms: C4_10  and  O2_11 
REMARK    8  A    between atoms: C6_14  and  C7_15 
REMARK    9  A    between atoms: C7_15  and  O3_16 
REMARK   10  A    between atoms: C8_18  and  O4_19 
ROOT
HETATM    1  C3  UNL     1      50.340  27.540  10.677  1.00  0.00     0.195 C 
HETATM    2  C4  UNL     1      49.393  27.743   9.515  1.00  0.00     0.151 C 
HETATM    3  C5  UNL     1      50.156  26.982   8.427  1.00  0.00     0.043 C 
HETATM    4  C6  UNL     1      51.581  27.392   8.690  1.00  0.00     0.043 C 
HETATM    5  C8  UNL     1      51.635  28.001  10.071  1.00  0.00     0.157 C 
ENDROOT
BRANCH   1   6
HETATM    6  O1  UNL     1      49.959  28.204  11.818  1.00  0.00    -0.309 OA
BRANCH   6   7
HETATM    7  S1  UNL     1      49.445  27.196  13.076  1.00  0.00    -0.009 SA
BRANCH   7   8
HETATM    8  C2  UNL     1      50.876  26.557  13.965  1.00  0.00     0.142 C 
BRANCH   8   9
HETATM    9  C1  UNL     1      51.458  25.316  13.312  1.00  0.00     0.248 C 
BRANCH   9  10
HETATM   10  N1  UNL     1      52.822  25.661  12.913  1.00  0.00    -0.070 N 
ATOM     11  H13 UNL     1      53.292  26.281  13.573  1.00  0.00     0.274 HD
ATOM     12  H12 UNL     1      53.476  24.882  12.987  1.00  0.00     0.274 HD
ATOM     13  H11 UNL     1      52.758  26.047  11.971  1.00  0.00     0.274 HD
ENDBRANCH   9  10
BRANCH   9  14
HETATM   14  C9  UNL     1      51.599  24.206  14.350  1.00  0.00     0.217 C 
HETATM   15 CL1  UNL     1      52.139  22.726  13.547  1.00  0.00    -0.081 Cl
HETATM   16 CL2  UNL     1      52.874  24.675  15.514  1.00  0.00    -0.081 Cl
HETATM   17 CL3  UNL     1      50.114  23.935  15.263  1.00  0.00    -0.081 Cl
ENDBRANCH   9  14
ENDBRANCH   8   9
ENDBRANCH   7   8
ENDBRANCH   6   7
ENDBRANCH   1   6
BRANCH   2  18
HETATM   18  O2  UNL     1      49.342  29.065   9.077  1.00  0.00    -0.393 OA
ATOM     19  H2  UNL     1      48.462  29.351   8.858  1.00  0.00     0.210 HD
ENDBRANCH   2  18
BRANCH   5  20
HETATM   20  O4  UNL     1      52.749  27.562  10.783  1.00  0.00    -0.392 OA
ATOM     21  H4  UNL     1      53.500  27.400  10.225  1.00  0.00     0.210 HD
ENDBRANCH   5  20
BRANCH   4  22
HETATM   22  C7  UNL     1      52.096  28.395   7.681  1.00  0.00     0.171 C 
BRANCH  22  23
HETATM   23  O3  UNL     1      52.311  29.612   8.329  1.00  0.00    -0.400 OA
ATOM     24  H3  UNL     1      53.214  29.874   8.194  1.00  0.00     0.209 HD
ENDBRANCH  22  23
ENDBRANCH   4  22
TORSDOF 10
ENDMDL
