MODEL 1
REMARK VINA RESULT: -4.892559240      0.000      0.000
REMARK  7 active torsions:
REMARK  status: ('A' for Active; 'I' for Inactive)
REMARK    1  A    between atoms: N1_2  and  N2_4 
REMARK       I    between atoms: N2_4  and  C3_6 
REMARK    2  A    between atoms: C3_6  and  C4_8 
REMARK    3  A    between atoms: C12_16  and  C13_17 
REMARK    4  A    between atoms: C14_18  and  C15_19 
REMARK    5  A    between atoms: C15_19  and  N3_20 
REMARK    6  A    between atoms: C15_19  and  C16_24 
REMARK    7  A    between atoms: N5_26  and  O2_28 
ROOT
HETATM    1  C4  UNL     1      50.701  21.044  12.581  1.00  0.00     0.096 C 
HETATM    2  C5  UNL     1      49.936  19.878  13.165  1.00  0.00     0.000 C 
HETATM    3  C6  UNL     1      48.875  20.355  14.106  1.00  0.00     0.010 C 
HETATM    4  C7  UNL     1      49.486  21.066  15.302  1.00  0.00    -0.013 C 
HETATM    5  C8  UNL     1      50.402  20.178  16.055  1.00  0.00     0.009 C 
HETATM    6  C9  UNL     1      51.455  19.706  15.075  1.00  0.00    -0.013 C 
HETATM    7  C10 UNL     1      50.837  18.937  13.918  1.00  0.00     0.010 C 
HETATM    8  C11 UNL     1      52.192  20.869  14.567  1.00  0.00     0.019 C 
HETATM    9  C12 UNL     1      51.291  21.848  13.713  1.00  0.00    -0.010 C 
HETATM   10  C17 UNL     1      50.198  22.269  14.649  1.00  0.00     0.019 C 
ENDROOT
BRANCH   9  11
HETATM   11  C13 UNL     1      52.227  22.921  13.388  1.00  0.00    -0.018 C 
HETATM   12  C14 UNL     1      52.185  24.335  13.633  1.00  0.00     0.010 C 
BRANCH  12  13
HETATM   13  C15 UNL     1      52.229  24.977  14.972  1.00  0.00     0.272 C 
BRANCH  13  14
HETATM   14  N3  UNL     1      52.181  24.228  16.148  1.00  0.00    -0.065 N 
ATOM     15  H33 UNL     1      51.668  23.369  15.950  1.00  0.00     0.275 HD
ATOM     16  H32 UNL     1      53.121  23.877  16.333  1.00  0.00     0.275 HD
ATOM     17  H31 UNL     1      51.816  24.617  17.017  1.00  0.00     0.275 HD
ENDBRANCH  13  14
BRANCH  13  18
HETATM   18  C16 UNL     1      51.112  26.015  15.090  1.00  0.00     0.147 C 
HETATM   19  N4  UNL     1      49.769  25.517  15.027  1.00  0.00    -0.083 NA
HETATM   20  N5  UNL     1      51.357  27.249  15.231  1.00  0.00    -0.257 N 
ATOM     21  H5  UNL     1      52.331  27.553  15.265  1.00  0.00     0.195 HD
BRANCH  20  22
HETATM   22  O2  UNL     1      50.378  28.189  15.340  1.00  0.00    -0.289 OA
ATOM     23  H2  UNL     1      50.336  28.808  16.059  1.00  0.00     0.244 HD
ENDBRANCH  20  22
ENDBRANCH  13  18
ENDBRANCH  12  13
ENDBRANCH   9  11
BRANCH   1  24
HETATM   24  C3  UNL     1      51.703  20.539  11.609  1.00  0.00     0.241 C 
HETATM   25  N2  UNL     1      53.091  20.837  11.652  1.00  0.00    -0.273 N 
ATOM     26  H2  UNL     1      53.392  21.445  12.413  1.00  0.00     0.189 HD
HETATM   27  O1  UNL     1      51.339  19.796  10.676  1.00  0.00    -0.271 OA
BRANCH  25  28
HETATM   28  N1  UNL     1      54.064  20.418  10.812  1.00  0.00    -0.334 N 
HETATM   29  C1  UNL     1      55.036  21.328  10.354  1.00  0.00     0.170 C 
HETATM   30  C2  UNL     1      54.238  19.058  10.524  1.00  0.00     0.170 C 
ENDBRANCH  25  28
ENDBRANCH   1  24
TORSDOF 7
ENDMDL
MODEL 2
REMARK VINA RESULT: -4.415671410      1.379      1.771
REMARK  7 active torsions:
REMARK  status: ('A' for Active; 'I' for Inactive)
REMARK    1  A    between atoms: N1_2  and  N2_4 
REMARK       I    between atoms: N2_4  and  C3_6 
REMARK    2  A    between atoms: C3_6  and  C4_8 
REMARK    3  A    between atoms: C12_16  and  C13_17 
REMARK    4  A    between atoms: C14_18  and  C15_19 
REMARK    5  A    between atoms: C15_19  and  N3_20 
REMARK    6  A    between atoms: C15_19  and  C16_24 
REMARK    7  A    between atoms: N5_26  and  O2_28 
ROOT
HETATM    1  C4  UNL     1      50.858  21.555  13.079  1.00  0.00     0.096 C 
HETATM    2  C5  UNL     1      50.080  20.273  13.276  1.00  0.00     0.000 C 
HETATM    3  C6  UNL     1      48.658  20.564  13.640  1.00  0.00     0.010 C 
HETATM    4  C7  UNL     1      48.574  21.286  14.974  1.00  0.00    -0.013 C 
HETATM    5  C8  UNL     1      49.174  20.486  16.067  1.00  0.00     0.009 C 
HETATM    6  C9  UNL     1      50.605  20.201  15.663  1.00  0.00    -0.013 C 
HETATM    7  C10 UNL     1      50.674  19.418  14.362  1.00  0.00     0.010 C 
HETATM    8  C11 UNL     1      51.325  21.473  15.523  1.00  0.00     0.019 C 
HETATM    9  C12 UNL     1      50.770  22.371  14.345  1.00  0.00    -0.010 C 
HETATM   10  C17 UNL     1      49.330  22.602  14.692  1.00  0.00     0.019 C 
ENDROOT
BRANCH   9  11
HETATM   11  C13 UNL     1      51.597  23.569  14.458  1.00  0.00    -0.018 C 
HETATM   12  C14 UNL     1      51.307  24.957  14.233  1.00  0.00     0.010 C 
BRANCH  12  13
HETATM   13  C15 UNL     1      50.365  25.779  15.035  1.00  0.00     0.272 C 
BRANCH  13  14
HETATM   14  N3  UNL     1      49.046  25.987  14.632  1.00  0.00    -0.065 N 
ATOM     15  H33 UNL     1      48.983  26.927  14.240  1.00  0.00     0.275 HD
ATOM     16  H32 UNL     1      48.873  25.403  13.814  1.00  0.00     0.275 HD
ATOM     17  H31 UNL     1      48.263  25.864  15.274  1.00  0.00     0.275 HD
ENDBRANCH  13  14
BRANCH  13  18
HETATM   18  C16 UNL     1      50.956  27.169  15.269  1.00  0.00     0.147 C 
HETATM   19  N4  UNL     1      50.175  28.280  14.810  1.00  0.00    -0.083 NA
HETATM   20  N5  UNL     1      52.077  27.334  15.835  1.00  0.00    -0.257 N 
ATOM     21  H5  UNL     1      52.596  26.510  16.139  1.00  0.00     0.195 HD
BRANCH  20  22
HETATM   22  O2  UNL     1      52.620  28.564  16.054  1.00  0.00    -0.289 OA
ATOM     23  H2  UNL     1      52.134  29.370  15.932  1.00  0.00     0.244 HD
ENDBRANCH  20  22
ENDBRANCH  13  18
ENDBRANCH  12  13
ENDBRANCH   9  11
BRANCH   1  24
HETATM   24  C3  UNL     1      52.244  21.231  12.660  1.00  0.00     0.241 C 
HETATM   25  N2  UNL     1      52.628  20.886  11.336  1.00  0.00    -0.273 N 
ATOM     26  H2  UNL     1      51.878  20.865  10.647  1.00  0.00     0.189 HD
HETATM   27  O1  UNL     1      53.165  21.254  13.500  1.00  0.00    -0.271 OA
BRANCH  25  28
HETATM   28  N1  UNL     1      53.862  20.582  10.874  1.00  0.00    -0.334 N 
HETATM   29  C1  UNL     1      54.220  19.236  10.662  1.00  0.00     0.170 C 
HETATM   30  C2  UNL     1      54.737  21.581  10.430  1.00  0.00     0.170 C 
ENDBRANCH  25  28
ENDBRANCH   1  24
TORSDOF 7
ENDMDL
MODEL 3
REMARK VINA RESULT: -4.361132487      2.036      6.066
REMARK  7 active torsions:
REMARK  status: ('A' for Active; 'I' for Inactive)
REMARK    1  A    between atoms: N1_2  and  N2_4 
REMARK       I    between atoms: N2_4  and  C3_6 
REMARK    2  A    between atoms: C3_6  and  C4_8 
REMARK    3  A    between atoms: C12_16  and  C13_17 
REMARK    4  A    between atoms: C14_18  and  C15_19 
REMARK    5  A    between atoms: C15_19  and  N3_20 
REMARK    6  A    between atoms: C15_19  and  C16_24 
REMARK    7  A    between atoms: N5_26  and  O2_28 
ROOT
HETATM    1  C4  UNL     1      51.145  22.172  15.210  1.00  0.00     0.096 C 
HETATM    2  C5  UNL     1      50.123  21.278  15.876  1.00  0.00     0.000 C 
HETATM    3  C6  UNL     1      50.649  19.884  16.021  1.00  0.00     0.010 C 
HETATM    4  C7  UNL     1      50.901  19.253  14.662  1.00  0.00    -0.013 C 
HETATM    5  C8  UNL     1      49.664  19.195  13.849  1.00  0.00     0.009 C 
HETATM    6  C9  UNL     1      49.153  20.616  13.731  1.00  0.00    -0.013 C 
HETATM    7  C10 UNL     1      48.840  21.212  15.093  1.00  0.00     0.010 C 
HETATM    8  C11 UNL     1      50.164  21.431  13.045  1.00  0.00     0.019 C 
HETATM    9  C12 UNL     1      51.504  21.578  13.871  1.00  0.00    -0.010 C 
HETATM   10  C17 UNL     1      51.986  20.170  14.061  1.00  0.00     0.019 C 
ENDROOT
BRANCH   9  11
HETATM   11  C13 UNL     1      52.338  22.362  12.964  1.00  0.00    -0.018 C 
HETATM   12  C14 UNL     1      53.399  21.987  12.073  1.00  0.00     0.010 C 
BRANCH  12  13
HETATM   13  C15 UNL     1      53.247  21.133  10.868  1.00  0.00     0.272 C 
BRANCH  13  14
HETATM   14  N3  UNL     1      52.264  20.145  10.786  1.00  0.00    -0.065 N 
ATOM     15  H33 UNL     1      51.635  20.394  10.022  1.00  0.00     0.275 HD
ATOM     16  H32 UNL     1      52.704  19.296  10.431  1.00  0.00     0.275 HD
ATOM     17  H31 UNL     1      51.693  19.889  11.590  1.00  0.00     0.275 HD
ENDBRANCH  13  14
BRANCH  13  18
HETATM   18  C16 UNL     1      54.570  20.433  10.554  1.00  0.00     0.147 C 
HETATM   19  N4  UNL     1      54.480  19.133   9.959  1.00  0.00    -0.083 NA
HETATM   20  N5  UNL     1      55.688  20.971  10.809  1.00  0.00    -0.257 N 
ATOM     21  H5  UNL     1      55.699  21.897  11.238  1.00  0.00     0.195 HD
BRANCH  20  22
HETATM   22  O2  UNL     1      56.877  20.366  10.536  1.00  0.00    -0.289 OA
ATOM     23  H2  UNL     1      57.709  20.825  10.572  1.00  0.00     0.244 HD
ENDBRANCH  20  22
ENDBRANCH  13  18
ENDBRANCH  12  13
ENDBRANCH   9  11
BRANCH   1  24
HETATM   24  C3  UNL     1      50.616  23.556  15.138  1.00  0.00     0.241 C 
HETATM   25  N2  UNL     1      49.271  23.922  15.414  1.00  0.00    -0.273 N 
ATOM     26  H2  UNL     1      48.647  23.159  15.675  1.00  0.00     0.189 HD
HETATM   27  O1  UNL     1      51.375  24.492  14.818  1.00  0.00    -0.271 OA
BRANCH  25  28
HETATM   28  N1  UNL     1      48.713  25.153  15.374  1.00  0.00    -0.334 N 
HETATM   29  C1  UNL     1      48.029  25.650  16.502  1.00  0.00     0.170 C 
HETATM   30  C2  UNL     1      48.949  26.023  14.303  1.00  0.00     0.170 C 
ENDBRANCH  25  28
ENDBRANCH   1  24
TORSDOF 7
ENDMDL
MODEL 4
REMARK VINA RESULT: -4.321925877      1.683      5.930
REMARK  7 active torsions:
REMARK  status: ('A' for Active; 'I' for Inactive)
REMARK    1  A    between atoms: N1_2  and  N2_4 
REMARK       I    between atoms: N2_4  and  C3_6 
REMARK    2  A    between atoms: C3_6  and  C4_8 
REMARK    3  A    between atoms: C12_16  and  C13_17 
REMARK    4  A    between atoms: C14_18  and  C15_19 
REMARK    5  A    between atoms: C15_19  and  N3_20 
REMARK    6  A    between atoms: C15_19  and  C16_24 
REMARK    7  A    between atoms: N5_26  and  O2_28 
ROOT
HETATM    1  C4  UNL     1      51.440  22.861  14.948  1.00  0.00     0.096 C 
HETATM    2  C5  UNL     1      50.473  22.436  16.030  1.00  0.00     0.000 C 
HETATM    3  C6  UNL     1      50.731  21.023  16.450  1.00  0.00     0.010 C 
HETATM    4  C7  UNL     1      50.486  20.060  15.302  1.00  0.00    -0.013 C 
HETATM    5  C8  UNL     1      49.093  20.144  14.804  1.00  0.00     0.009 C 
HETATM    6  C9  UNL     1      48.862  21.584  14.398  1.00  0.00    -0.013 C 
HETATM    7  C10 UNL     1      49.043  22.532  15.573  1.00  0.00     0.010 C 
HETATM    8  C11 UNL     1      49.798  21.934  13.322  1.00  0.00     0.019 C 
HETATM    9  C12 UNL     1      51.310  21.908  13.785  1.00  0.00    -0.010 C 
HETATM   10  C17 UNL     1      51.536  20.505  14.261  1.00  0.00     0.019 C 
ENDROOT
BRANCH   9  11
HETATM   11  C13 UNL     1      52.014  22.225  12.545  1.00  0.00    -0.018 C 
HETATM   12  C14 UNL     1      53.149  21.620  11.908  1.00  0.00     0.010 C 
BRANCH  12  13
HETATM   13  C15 UNL     1      53.185  20.248  11.339  1.00  0.00     0.272 C 
BRANCH  13  14
HETATM   14  N3  UNL     1      54.112  19.883  10.362  1.00  0.00    -0.065 N 
ATOM     15  H33 UNL     1      54.911  19.457  10.833  1.00  0.00     0.275 HD
ATOM     16  H32 UNL     1      53.725  19.094   9.844  1.00  0.00     0.275 HD
ATOM     17  H31 UNL     1      54.472  20.555   9.685  1.00  0.00     0.275 HD
ENDBRANCH  13  14
BRANCH  13  18
HETATM   18  C16 UNL     1      51.814  19.882  10.772  1.00  0.00     0.147 C 
HETATM   19  N4  UNL     1      50.949  19.126  11.630  1.00  0.00    -0.083 NA
HETATM   20  N5  UNL     1      51.459  20.224   9.605  1.00  0.00    -0.257 N 
ATOM     21  H5  UNL     1      52.113  20.758   9.033  1.00  0.00     0.195 HD
BRANCH  20  22
HETATM   22  O2  UNL     1      50.241  19.910   9.082  1.00  0.00    -0.289 OA
ATOM     23  H2  UNL     1      49.534  20.539   9.010  1.00  0.00     0.244 HD
ENDBRANCH  20  22
ENDBRANCH  13  18
ENDBRANCH  12  13
ENDBRANCH   9  11
BRANCH   1  24
HETATM   24  C3  UNL     1      51.196  24.282  14.599  1.00  0.00     0.241 C 
HETATM   25  N2  UNL     1      50.115  25.061  15.091  1.00  0.00    -0.273 N 
ATOM     26  H2  UNL     1      49.475  24.583  15.726  1.00  0.00     0.189 HD
HETATM   27  O1  UNL     1      51.975  24.871  13.823  1.00  0.00    -0.271 OA
BRANCH  25  28
HETATM   28  N1  UNL     1      49.825  26.354  14.827  1.00  0.00    -0.334 N 
HETATM   29  C1  UNL     1      48.650  26.680  14.122  1.00  0.00     0.170 C 
HETATM   30  C2  UNL     1      50.572  27.396  15.391  1.00  0.00     0.170 C 
ENDBRANCH  25  28
ENDBRANCH   1  24
TORSDOF 7
ENDMDL
MODEL 5
REMARK VINA RESULT: -4.182107027      2.652      4.227
REMARK  7 active torsions:
REMARK  status: ('A' for Active; 'I' for Inactive)
REMARK    1  A    between atoms: N1_2  and  N2_4 
REMARK       I    between atoms: N2_4  and  C3_6 
REMARK    2  A    between atoms: C3_6  and  C4_8 
REMARK    3  A    between atoms: C12_16  and  C13_17 
REMARK    4  A    between atoms: C14_18  and  C15_19 
REMARK    5  A    between atoms: C15_19  and  N3_20 
REMARK    6  A    between atoms: C15_19  and  C16_24 
REMARK    7  A    between atoms: N5_26  and  O2_28 
ROOT
HETATM    1  C4  UNL     1      50.705  22.323  13.963  1.00  0.00     0.096 C 
HETATM    2  C5  UNL     1      51.750  21.392  13.392  1.00  0.00     0.000 C 
HETATM    3  C6  UNL     1      51.142  20.459  12.391  1.00  0.00     0.010 C 
HETATM    4  C7  UNL     1      50.117  19.550  13.047  1.00  0.00    -0.013 C 
HETATM    5  C8  UNL     1      50.721  18.735  14.127  1.00  0.00     0.009 C 
HETATM    6  C9  UNL     1      51.335  19.705  15.114  1.00  0.00    -0.013 C 
HETATM    7  C10 UNL     1      52.407  20.563  14.461  1.00  0.00     0.010 C 
HETATM    8  C11 UNL     1      50.276  20.559  15.666  1.00  0.00     0.019 C 
HETATM    9  C12 UNL     1      49.607  21.494  14.580  1.00  0.00    -0.010 C 
HETATM   10  C17 UNL     1      49.057  20.549  13.555  1.00  0.00     0.019 C 
ENDROOT
BRANCH   9  11
HETATM   11  C13 UNL     1      48.575  22.176  15.359  1.00  0.00    -0.018 C 
HETATM   12  C14 UNL     1      48.459  23.533  15.811  1.00  0.00     0.010 C 
BRANCH  12  13
HETATM   13  C15 UNL     1      48.295  24.721  14.934  1.00  0.00     0.272 C 
BRANCH  13  14
HETATM   14  N3  UNL     1      49.345  25.211  14.156  1.00  0.00    -0.065 N 
ATOM     15  H33 UNL     1      49.780  24.418  13.685  1.00  0.00     0.275 HD
ATOM     16  H32 UNL     1      48.940  25.727  13.375  1.00  0.00     0.275 HD
ATOM     17  H31 UNL     1      50.088  25.783  14.557  1.00  0.00     0.275 HD
ENDBRANCH  13  14
BRANCH  13  18
HETATM   18  C16 UNL     1      47.791  25.909  15.754  1.00  0.00     0.147 C 
HETATM   19  N4  UNL     1      47.782  25.745  17.178  1.00  0.00    -0.083 NA
HETATM   20  N5  UNL     1      47.399  26.982  15.206  1.00  0.00    -0.257 N 
ATOM     21  H5  UNL     1      47.421  27.047  14.188  1.00  0.00     0.195 HD
BRANCH  20  22
HETATM   22  O2  UNL     1      46.948  28.052  15.918  1.00  0.00    -0.289 OA
ATOM     23  H2  UNL     1      46.375  28.712  15.548  1.00  0.00     0.244 HD
ENDBRANCH  20  22
ENDBRANCH  13  18
ENDBRANCH  12  13
ENDBRANCH   9  11
BRANCH   1  24
HETATM   24  C3  UNL     1      51.352  23.272  14.903  1.00  0.00     0.241 C 
HETATM   25  N2  UNL     1      51.862  24.548  14.541  1.00  0.00    -0.273 N 
ATOM     26  H2  UNL     1      51.765  24.802  13.558  1.00  0.00     0.189 HD
HETATM   27  O1  UNL     1      51.474  22.965  16.105  1.00  0.00    -0.271 OA
BRANCH  25  28
HETATM   28  N1  UNL     1      52.459  25.467  15.331  1.00  0.00    -0.334 N 
HETATM   29  C1  UNL     1      51.843  26.716  15.544  1.00  0.00     0.170 C 
HETATM   30  C2  UNL     1      53.590  25.146  16.092  1.00  0.00     0.170 C 
ENDBRANCH  25  28
ENDBRANCH   1  24
TORSDOF 7
ENDMDL
