MODEL 1
REMARK VINA RESULT: -5.808696988      0.000      0.000
REMARK  6 active torsions:
REMARK  status: ('A' for Active; 'I' for Inactive)
REMARK    1  A    between atoms: N1_2  and  C2_5 
REMARK    2  A    between atoms: C2_5  and  C3_6 
REMARK    3  A    between atoms: C3_6  and  N2_7 
REMARK    4  A    between atoms: N2_7  and  O1_8 
REMARK    5  A    between atoms: N2_7  and  C4_10 
REMARK    6  A    between atoms: C5_13  and  N4_14 
ROOT
HETATM    1  C4  UNL     1      46.986  29.192  10.522  1.00  0.00     0.733 A 
HETATM    2  N3  UNL     1      46.117  30.018   9.898  1.00  0.00    -0.018 N 
ATOM      3  H3  UNL     1      45.139  30.160  10.153  1.00  0.00     0.203 HD
HETATM    4  C5  UNL     1      46.761  30.620   8.884  1.00  0.00     0.705 A 
HETATM    5  N5  UNL     1      48.033  30.185   8.855  1.00  0.00    -0.117 N 
ATOM      6  H5  UNL     1      48.763  30.461   8.199  1.00  0.00     0.206 HD
HETATM    7  N6  UNL     1      48.141  29.326   9.852  1.00  0.00    -0.115 N 
ATOM      8  H6  UNL     1      48.998  28.826  10.085  1.00  0.00     0.206 HD
ENDROOT
BRANCH   1   9
HETATM    9  N2  UNL     1      46.764  28.352  11.643  1.00  0.00    -0.087 N 
BRANCH   9  10
HETATM   10  C3  UNL     1      47.841  27.868  12.485  1.00  0.00     0.202 C 
BRANCH  10  11
HETATM   11  C2  UNL     1      48.063  28.889  13.564  1.00  0.00     0.254 C 
BRANCH  11  12
HETATM   12  N1  UNL     1      48.567  28.340  14.788  1.00  0.00    -0.077 N 
HETATM   13  C1  UNL     1      50.009  28.537  14.797  1.00  0.00     0.267 C 
ATOM     14  H12 UNL     1      48.298  27.365  14.927  1.00  0.00     0.276 HD
ATOM     15  H11 UNL     1      48.108  28.724  15.614  1.00  0.00     0.276 HD
ENDBRANCH  11  12
ENDBRANCH  10  11
ENDBRANCH   9  10
BRANCH   9  16
HETATM   16  O1  UNL     1      45.513  27.977  11.954  1.00  0.00    -0.274 OA
ATOM     17  H1  UNL     1      44.958  27.664  11.249  1.00  0.00     0.245 HD
ENDBRANCH   9  16
ENDBRANCH   1   9
BRANCH   4  18
HETATM   18  N4  UNL     1      46.253  31.466   8.077  1.00  0.00    -0.233 N 
ATOM     19  H42 UNL     1      45.320  31.870   8.156  1.00  0.00     0.174 HD
ATOM     20  H41 UNL     1      46.711  31.850   7.250  1.00  0.00     0.174 HD
ENDBRANCH   4  18
TORSDOF 6
ENDMDL
MODEL 2
REMARK VINA RESULT: -5.723805105      1.259      5.224
REMARK  6 active torsions:
REMARK  status: ('A' for Active; 'I' for Inactive)
REMARK    1  A    between atoms: N1_2  and  C2_5 
REMARK    2  A    between atoms: C2_5  and  C3_6 
REMARK    3  A    between atoms: C3_6  and  N2_7 
REMARK    4  A    between atoms: N2_7  and  O1_8 
REMARK    5  A    between atoms: N2_7  and  C4_10 
REMARK    6  A    between atoms: C5_13  and  N4_14 
ROOT
HETATM    1  C4  UNL     1      47.490  28.441  13.024  1.00  0.00     0.733 A 
HETATM    2  N3  UNL     1      48.794  28.776  13.137  1.00  0.00    -0.018 N 
ATOM      3  H3  UNL     1      49.382  29.151  12.391  1.00  0.00     0.203 HD
HETATM    4  C5  UNL     1      49.185  28.532  14.399  1.00  0.00     0.705 A 
HETATM    5  N5  UNL     1      48.141  28.042  15.092  1.00  0.00    -0.117 N 
ATOM      6  H5  UNL     1      48.130  27.764  16.073  1.00  0.00     0.206 HD
HETATM    7  N6  UNL     1      47.134  27.998  14.241  1.00  0.00    -0.115 N 
ATOM      8  H6  UNL     1      46.199  27.668  14.478  1.00  0.00     0.206 HD
ENDROOT
BRANCH   1   9
HETATM    9  N2  UNL     1      46.646  28.524  11.887  1.00  0.00    -0.087 N 
BRANCH   9  10
HETATM   10  C3  UNL     1      47.050  29.175  10.657  1.00  0.00     0.202 C 
BRANCH  10  11
HETATM   11  C2  UNL     1      45.803  29.509   9.891  1.00  0.00     0.254 C 
BRANCH  11  12
HETATM   12  N1  UNL     1      45.812  30.816   9.306  1.00  0.00    -0.077 N 
HETATM   13  C1  UNL     1      46.935  30.876   8.382  1.00  0.00     0.267 C 
ATOM     14  H12 UNL     1      45.829  31.563  10.001  1.00  0.00     0.276 HD
ATOM     15  H11 UNL     1      44.924  31.062   8.868  1.00  0.00     0.276 HD
ENDBRANCH  11  12
ENDBRANCH  10  11
ENDBRANCH   9  10
BRANCH   9  16
HETATM   16  O1  UNL     1      45.418  27.982  11.932  1.00  0.00    -0.274 OA
ATOM     17  H1  UNL     1      44.686  28.561  12.112  1.00  0.00     0.245 HD
ENDBRANCH   9  16
ENDBRANCH   1   9
BRANCH   4  18
HETATM   18  N4  UNL     1      50.354  28.729  14.868  1.00  0.00    -0.233 N 
ATOM     19  H42 UNL     1      51.223  28.416  14.436  1.00  0.00     0.174 HD
ATOM     20  H41 UNL     1      50.573  29.224  15.733  1.00  0.00     0.174 HD
ENDBRANCH   4  18
TORSDOF 6
ENDMDL
MODEL 3
REMARK VINA RESULT: -5.544213351      0.977      1.442
REMARK  6 active torsions:
REMARK  status: ('A' for Active; 'I' for Inactive)
REMARK    1  A    between atoms: N1_2  and  C2_5 
REMARK    2  A    between atoms: C2_5  and  C3_6 
REMARK    3  A    between atoms: C3_6  and  N2_7 
REMARK    4  A    between atoms: N2_7  and  O1_8 
REMARK    5  A    between atoms: N2_7  and  C4_10 
REMARK    6  A    between atoms: C5_13  and  N4_14 
ROOT
HETATM    1  C4  UNL     1      46.902  29.232  10.752  1.00  0.00     0.733 A 
HETATM    2  N3  UNL     1      47.365  30.106   9.831  1.00  0.00    -0.018 N 
ATOM      3  H3  UNL     1      48.336  30.402   9.723  1.00  0.00     0.203 HD
HETATM    4  C5  UNL     1      46.328  30.519   9.083  1.00  0.00     0.705 A 
HETATM    5  N5  UNL     1      45.208  29.917   9.519  1.00  0.00    -0.117 N 
ATOM      6  H5  UNL     1      44.264  30.030   9.149  1.00  0.00     0.206 HD
HETATM    7  N6  UNL     1      45.582  29.147  10.524  1.00  0.00    -0.115 N 
ATOM      8  H6  UNL     1      44.946  28.560  11.062  1.00  0.00     0.206 HD
ENDROOT
BRANCH   1   9
HETATM    9  N2  UNL     1      47.622  28.535  11.756  1.00  0.00    -0.087 N 
BRANCH   9  10
HETATM   10  C3  UNL     1      48.748  29.116  12.460  1.00  0.00     0.202 C 
BRANCH  10  11
HETATM   11  C2  UNL     1      48.416  29.111  13.924  1.00  0.00     0.254 C 
BRANCH  11  12
HETATM   12  N1  UNL     1      49.037  28.049  14.657  1.00  0.00    -0.077 N 
HETATM   13  C1  UNL     1      50.401  28.460  14.956  1.00  0.00     0.267 C 
ATOM     14  H12 UNL     1      48.990  27.151  14.174  1.00  0.00     0.276 HD
ATOM     15  H11 UNL     1      48.512  27.780  15.490  1.00  0.00     0.276 HD
ENDBRANCH  11  12
ENDBRANCH  10  11
ENDBRANCH   9  10
BRANCH   9  16
HETATM   16  O1  UNL     1      47.260  27.283  12.083  1.00  0.00    -0.274 OA
ATOM     17  H1  UNL     1      47.640  26.570  11.583  1.00  0.00     0.245 HD
ENDBRANCH   9  16
ENDBRANCH   1   9
BRANCH   4  18
HETATM   18  N4  UNL     1      46.391  31.349   8.117  1.00  0.00    -0.233 N 
ATOM     19  H42 UNL     1      47.230  31.844   7.818  1.00  0.00     0.174 HD
ATOM     20  H41 UNL     1      45.613  31.623   7.516  1.00  0.00     0.174 HD
ENDBRANCH   4  18
TORSDOF 6
ENDMDL
MODEL 4
REMARK VINA RESULT: -5.481095460      1.848      5.394
REMARK  6 active torsions:
REMARK  status: ('A' for Active; 'I' for Inactive)
REMARK    1  A    between atoms: N1_2  and  C2_5 
REMARK    2  A    between atoms: C2_5  and  C3_6 
REMARK    3  A    between atoms: C3_6  and  N2_7 
REMARK    4  A    between atoms: N2_7  and  O1_8 
REMARK    5  A    between atoms: N2_7  and  C4_10 
REMARK    6  A    between atoms: C5_13  and  N4_14 
ROOT
HETATM    1  C4  UNL     1      48.277  28.757  12.959  1.00  0.00     0.733 A 
HETATM    2  N3  UNL     1      47.201  28.280  13.623  1.00  0.00    -0.018 N 
ATOM      3  H3  UNL     1      46.274  28.126  13.226  1.00  0.00     0.203 HD
HETATM    4  C5  UNL     1      47.562  28.042  14.895  1.00  0.00     0.705 A 
HETATM    5  N5  UNL     1      48.858  28.365  15.049  1.00  0.00    -0.117 N 
ATOM      6  H5  UNL     1      49.413  28.294  15.902  1.00  0.00     0.206 HD
HETATM    7  N6  UNL     1      49.264  28.792  13.868  1.00  0.00    -0.115 N 
ATOM      8  H6  UNL     1      50.212  29.110  13.670  1.00  0.00     0.206 HD
ENDROOT
BRANCH   1   9
HETATM    9  N2  UNL     1      48.382  29.146  11.599  1.00  0.00    -0.087 N 
BRANCH   9  10
HETATM   10  C3  UNL     1      47.590  28.539  10.547  1.00  0.00     0.202 C 
BRANCH  10  11
HETATM   11  C2  UNL     1      46.785  29.629   9.901  1.00  0.00     0.254 C 
BRANCH  11  12
HETATM   12  N1  UNL     1      47.441  30.258   8.794  1.00  0.00    -0.077 N 
HETATM   13  C1  UNL     1      46.567  31.315   8.308  1.00  0.00     0.267 C 
ATOM     14  H12 UNL     1      47.710  29.598   8.064  1.00  0.00     0.276 HD
ATOM     15  H11 UNL     1      48.378  30.592   9.025  1.00  0.00     0.276 HD
ENDBRANCH  11  12
ENDBRANCH  10  11
ENDBRANCH   9  10
BRANCH   9  16
HETATM   16  O1  UNL     1      49.243  30.115  11.251  1.00  0.00    -0.274 OA
ATOM     17  H1  UNL     1      49.653  30.613  11.949  1.00  0.00     0.245 HD
ENDBRANCH   9  16
ENDBRANCH   1   9
BRANCH   4  18
HETATM   18  N4  UNL     1      46.802  27.587  15.812  1.00  0.00    -0.233 N 
ATOM     19  H42 UNL     1      46.130  28.136  16.348  1.00  0.00     0.174 HD
ATOM     20  H41 UNL     1      46.764  26.618  16.128  1.00  0.00     0.174 HD
ENDBRANCH   4  18
TORSDOF 6
ENDMDL
MODEL 5
REMARK VINA RESULT: -5.441253724      1.171      1.685
REMARK  6 active torsions:
REMARK  status: ('A' for Active; 'I' for Inactive)
REMARK    1  A    between atoms: N1_2  and  C2_5 
REMARK    2  A    between atoms: C2_5  and  C3_6 
REMARK    3  A    between atoms: C3_6  and  N2_7 
REMARK    4  A    between atoms: N2_7  and  O1_8 
REMARK    5  A    between atoms: N2_7  and  C4_10 
REMARK    6  A    between atoms: C5_13  and  N4_14 
ROOT
HETATM    1  C4  UNL     1      46.864  29.175  10.753  1.00  0.00     0.733 A 
HETATM    2  N3  UNL     1      47.368  30.020   9.827  1.00  0.00    -0.018 N 
ATOM      3  H3  UNL     1      48.353  30.257   9.706  1.00  0.00     0.203 HD
HETATM    4  C5  UNL     1      46.348  30.497   9.092  1.00  0.00     0.705 A 
HETATM    5  N5  UNL     1      45.199  29.963   9.543  1.00  0.00    -0.117 N 
ATOM      6  H5  UNL     1      44.259  30.134   9.186  1.00  0.00     0.206 HD
HETATM    7  N6  UNL     1      45.539  29.171  10.543  1.00  0.00    -0.115 N 
ATOM      8  H6  UNL     1      44.875  28.622  11.089  1.00  0.00     0.206 HD
ENDROOT
BRANCH   1   9
HETATM    9  N2  UNL     1      47.554  28.433  11.747  1.00  0.00    -0.087 N 
BRANCH   9  10
HETATM   10  C3  UNL     1      48.650  28.986  12.517  1.00  0.00     0.202 C 
BRANCH  10  11
HETATM   11  C2  UNL     1      48.211  29.044  13.952  1.00  0.00     0.254 C 
BRANCH  11  12
HETATM   12  N1  UNL     1      48.114  27.761  14.582  1.00  0.00    -0.077 N 
HETATM   13  C1  UNL     1      47.118  27.864  15.638  1.00  0.00     0.267 C 
ATOM     14  H12 UNL     1      49.013  27.414  14.917  1.00  0.00     0.276 HD
ATOM     15  H11 UNL     1      47.917  27.008  13.922  1.00  0.00     0.276 HD
ENDBRANCH  11  12
ENDBRANCH  10  11
ENDBRANCH   9  10
BRANCH   9  16
HETATM   16  O1  UNL     1      47.190  27.166  12.000  1.00  0.00    -0.274 OA
ATOM     17  H1  UNL     1      46.714  26.699  11.323  1.00  0.00     0.245 HD
ENDBRANCH   9  16
ENDBRANCH   1   9
BRANCH   4  18
HETATM   18  N4  UNL     1      46.448  31.322   8.126  1.00  0.00    -0.233 N 
ATOM     19  H42 UNL     1      47.117  31.254   7.359  1.00  0.00     0.174 HD
ATOM     20  H41 UNL     1      45.874  32.155   7.992  1.00  0.00     0.174 HD
ENDBRANCH   4  18
TORSDOF 6
ENDMDL
