MODEL 1
REMARK VINA RESULT: -5.316205450      0.000      0.000
REMARK  3 active torsions:
REMARK  status: ('A' for Active; 'I' for Inactive)
REMARK    1  A    between atoms: C2_2  and  C3_3 
REMARK    2  A    between atoms: C3_3  and  N1_4 
REMARK    3  A    between atoms: N1_4  and  C4_6 
ROOT
HETATM    1  C4  UNL     1      -2.544  29.279  -9.318  1.00  0.00     0.088 C 
HETATM    2  C5  UNL     1      -3.634  29.689 -10.229  1.00  0.00     0.041 C 
HETATM    3  C6  UNL     1      -3.215  29.432 -11.687  1.00  0.00     0.041 C 
HETATM    4  C7  UNL     1      -2.205  30.525 -11.905  1.00  0.00     0.187 C 
HETATM    5  C8  UNL     1      -1.069  30.480 -10.891  1.00  0.00     0.041 C 
HETATM    6  C9  UNL     1      -1.878  30.623  -9.602  1.00  0.00     0.041 C 
HETATM    7  C10 UNL     1      -3.225  31.123 -10.036  1.00  0.00     0.198 C 
HETATM    8  N2  UNL     1      -2.957  31.674 -11.369  1.00  0.00    -0.066 N 
ATOM      9  H21 UNL     1      -3.764  31.988 -11.908  1.00  0.00     0.278 HD
ATOM     10  H22 UNL     1      -2.497  32.584 -11.407  1.00  0.00     0.278 HD
ENDROOT
BRANCH   1  11
HETATM   11  N1  UNL     1      -2.744  29.083  -7.951  1.00  0.00    -0.416 N 
ATOM     12  H1  UNL     1      -3.629  28.700  -7.620  1.00  0.00     0.153 HD
BRANCH  11  13
HETATM   13  C3  UNL     1      -1.734  29.410  -7.023  1.00  0.00     0.113 C 
BRANCH  13  14
HETATM   14  C2  UNL     1      -2.380  29.249  -5.635  1.00  0.00     0.015 C 
HETATM   15  C1  UNL     1      -3.112  30.489  -5.218  1.00  0.00     0.006 C 
ENDBRANCH  13  14
ENDBRANCH  11  13
ENDBRANCH   1  11
TORSDOF 3
ENDMDL
MODEL 2
REMARK VINA RESULT: -5.289357114      1.095      1.743
REMARK  3 active torsions:
REMARK  status: ('A' for Active; 'I' for Inactive)
REMARK    1  A    between atoms: C2_2  and  C3_3 
REMARK    2  A    between atoms: C3_3  and  N1_4 
REMARK    3  A    between atoms: N1_4  and  C4_6 
ROOT
HETATM    1  C4  UNL     1      -2.776  30.693  -9.050  1.00  0.00     0.088 C 
HETATM    2  C5  UNL     1      -2.093  31.543 -10.047  1.00  0.00     0.041 C 
HETATM    3  C6  UNL     1      -3.053  31.853 -11.209  1.00  0.00     0.041 C 
HETATM    4  C7  UNL     1      -3.102  30.527 -11.918  1.00  0.00     0.187 C 
HETATM    5  C8  UNL     1      -3.543  29.392 -11.002  1.00  0.00     0.041 C 
HETATM    6  C9  UNL     1      -2.452  29.492  -9.936  1.00  0.00     0.041 C 
HETATM    7  C10 UNL     1      -1.370  30.327 -10.557  1.00  0.00     0.198 C 
HETATM    8  N2  UNL     1      -1.660  30.227 -11.991  1.00  0.00    -0.066 N 
ATOM      9  H21 UNL     1      -1.100  30.807 -12.616  1.00  0.00     0.278 HD
ATOM     10  H22 UNL     1      -1.393  29.359 -12.456  1.00  0.00     0.278 HD
ENDROOT
BRANCH   1  11
HETATM   11  N1  UNL     1      -2.289  30.520  -7.754  1.00  0.00    -0.416 N 
ATOM     12  H1  UNL     1      -1.977  31.331  -7.220  1.00  0.00     0.153 HD
BRANCH  11  13
HETATM   13  C3  UNL     1      -2.224  29.236  -7.174  1.00  0.00     0.113 C 
BRANCH  13  14
HETATM   14  C2  UNL     1      -2.000  29.472  -5.670  1.00  0.00     0.015 C 
HETATM   15  C1  UNL     1      -3.289  29.440  -4.906  1.00  0.00     0.006 C 
ENDBRANCH  13  14
ENDBRANCH  11  13
ENDBRANCH   1  11
TORSDOF 3
ENDMDL
MODEL 3
REMARK VINA RESULT: -5.251747518      1.752      4.737
REMARK  3 active torsions:
REMARK  status: ('A' for Active; 'I' for Inactive)
REMARK    1  A    between atoms: C2_2  and  C3_3 
REMARK    2  A    between atoms: C3_3  and  N1_4 
REMARK    3  A    between atoms: N1_4  and  C4_6 
ROOT
HETATM    1  C4  UNL     1      -2.565  30.179 -11.316  1.00  0.00     0.088 C 
HETATM    2  C5  UNL     1      -1.970  31.283 -10.536  1.00  0.00     0.041 C 
HETATM    3  C6  UNL     1      -0.930  30.721  -9.550  1.00  0.00     0.041 C 
HETATM    4  C7  UNL     1      -1.814  30.062  -8.526  1.00  0.00     0.187 C 
HETATM    5  C8  UNL     1      -2.746  29.025  -9.142  1.00  0.00     0.041 C 
HETATM    6  C9  UNL     1      -3.493  29.918 -10.133  1.00  0.00     0.041 C 
HETATM    7  C10 UNL     1      -3.212  31.323  -9.688  1.00  0.00     0.198 C 
HETATM    8  N2  UNL     1      -2.785  31.148  -8.296  1.00  0.00    -0.066 N 
ATOM      9  H21 UNL     1      -2.441  31.977  -7.811  1.00  0.00     0.278 HD
ATOM     10  H22 UNL     1      -3.518  30.971  -7.608  1.00  0.00     0.278 HD
ENDROOT
BRANCH   1  11
HETATM   11  N1  UNL     1      -3.281  30.395 -12.494  1.00  0.00    -0.416 N 
ATOM     12  H1  UNL     1      -3.424  31.347 -12.831  1.00  0.00     0.153 HD
BRANCH  11  13
HETATM   13  C3  UNL     1      -3.810  29.310 -13.224  1.00  0.00     0.113 C 
BRANCH  13  14
HETATM   14  C2  UNL     1      -2.596  28.460 -13.639  1.00  0.00     0.015 C 
HETATM   15  C1  UNL     1      -2.940  27.003 -13.713  1.00  0.00     0.006 C 
ENDBRANCH  13  14
ENDBRANCH  11  13
ENDBRANCH   1  11
TORSDOF 3
ENDMDL
MODEL 4
REMARK VINA RESULT: -5.237687555      0.982      1.592
REMARK  3 active torsions:
REMARK  status: ('A' for Active; 'I' for Inactive)
REMARK    1  A    between atoms: C2_2  and  C3_3 
REMARK    2  A    between atoms: C3_3  and  N1_4 
REMARK    3  A    between atoms: N1_4  and  C4_6 
ROOT
HETATM    1  C4  UNL     1      -2.204  30.730  -8.727  1.00  0.00     0.088 C 
HETATM    2  C5  UNL     1      -1.718  29.662  -9.626  1.00  0.00     0.041 C 
HETATM    3  C6  UNL     1      -0.924  30.284 -10.788  1.00  0.00     0.041 C 
HETATM    4  C7  UNL     1      -2.025  30.900 -11.608  1.00  0.00     0.187 C 
HETATM    5  C8  UNL     1      -2.869  31.882 -10.805  1.00  0.00     0.041 C 
HETATM    6  C9  UNL     1      -3.359  30.946  -9.700  1.00  0.00     0.041 C 
HETATM    7  C10 UNL     1      -3.099  29.560 -10.213  1.00  0.00     0.198 C 
HETATM    8  N2  UNL     1      -2.965  29.765 -11.660  1.00  0.00    -0.066 N 
ATOM      9  H21 UNL     1      -2.681  28.958 -12.215  1.00  0.00     0.278 HD
ATOM     10  H22 UNL     1      -3.826  29.905 -12.187  1.00  0.00     0.278 HD
ENDROOT
BRANCH   1  11
HETATM   11  N1  UNL     1      -2.662  30.470  -7.435  1.00  0.00    -0.416 N 
ATOM     12  H1  UNL     1      -3.397  31.052  -7.033  1.00  0.00     0.153 HD
BRANCH  11  13
HETATM   13  C3  UNL     1      -2.119  29.410  -6.679  1.00  0.00     0.113 C 
BRANCH  13  14
HETATM   14  C2  UNL     1      -2.874  29.429  -5.338  1.00  0.00     0.015 C 
HETATM   15  C1  UNL     1      -3.343  30.809  -4.986  1.00  0.00     0.006 C 
ENDBRANCH  13  14
ENDBRANCH  11  13
ENDBRANCH   1  11
TORSDOF 3
ENDMDL
MODEL 5
REMARK VINA RESULT: -5.189716065      2.065      4.761
REMARK  3 active torsions:
REMARK  status: ('A' for Active; 'I' for Inactive)
REMARK    1  A    between atoms: C2_2  and  C3_3 
REMARK    2  A    between atoms: C3_3  and  N1_4 
REMARK    3  A    between atoms: N1_4  and  C4_6 
ROOT
HETATM    1  C4  UNL     1      -1.604  30.950 -11.698  1.00  0.00     0.088 C 
HETATM    2  C5  UNL     1      -3.021  31.032 -11.287  1.00  0.00     0.041 C 
HETATM    3  C6  UNL     1      -3.140  31.861  -9.996  1.00  0.00     0.041 C 
HETATM    4  C7  UNL     1      -2.578  30.909  -8.976  1.00  0.00     0.187 C 
HETATM    5  C8  UNL     1      -1.166  30.452  -9.321  1.00  0.00     0.041 C 
HETATM    6  C9  UNL     1      -1.434  29.819 -10.687  1.00  0.00     0.041 C 
HETATM    7  C10 UNL     1      -2.922  29.631 -10.748  1.00  0.00     0.198 C 
HETATM    8  N2  UNL     1      -3.319  29.686  -9.337  1.00  0.00    -0.066 N 
ATOM      9  H21 UNL     1      -4.320  29.679  -9.140  1.00  0.00     0.278 HD
ATOM     10  H22 UNL     1      -3.138  28.855  -8.775  1.00  0.00     0.278 HD
ENDROOT
BRANCH   1  11
HETATM   11  N1  UNL     1      -1.217  30.556 -12.980  1.00  0.00    -0.416 N 
ATOM     12  H1  UNL     1      -1.170  31.247 -13.728  1.00  0.00     0.153 HD
BRANCH  11  13
HETATM   13  C3  UNL     1      -0.891  29.210 -13.250  1.00  0.00     0.113 C 
BRANCH  13  14
HETATM   14  C2  UNL     1      -1.934  28.730 -14.275  1.00  0.00     0.015 C 
HETATM   15  C1  UNL     1      -2.710  27.553 -13.765  1.00  0.00     0.006 C 
ENDBRANCH  13  14
ENDBRANCH  11  13
ENDBRANCH   1  11
TORSDOF 3
ENDMDL
