MODEL 1
REMARK VINA RESULT: -7.292383338      0.000      0.000
REMARK  14 active torsions:
REMARK  status: ('A' for Active; 'I' for Inactive)
REMARK    1  A    between atoms: C2_2  and  C3_3 
REMARK    2  A    between atoms: C4_4  and  C5_5 
REMARK    3  A    between atoms: C5_5  and  C6_6 
REMARK    4  A    between atoms: C6_6  and  C7_7 
REMARK    5  A    between atoms: C7_7  and  N1_8 
REMARK    6  A    between atoms: N1_8  and  C8_11 
REMARK    7  A    between atoms: C11_14  and  O1_15 
REMARK    8  A    between atoms: O1_15  and  C12_16 
REMARK    9  A    between atoms: C13_18  and  C15_20 
REMARK   10  A    between atoms: C17_23  and  O4_24 
REMARK   11  A    between atoms: C18_26  and  O5_27 
REMARK   12  A    between atoms: C19_29  and  O6_30 
REMARK   13  A    between atoms: C20_32  and  O7_33 
REMARK   14  A    between atoms: C21_35  and  O8_36 
ROOT
HETATM    1  C8  UNL     1      28.726  -2.981  10.541  1.00  0.00     0.217 C 
HETATM    2  C9  UNL     1      29.877  -2.180  10.013  1.00  0.00     0.038 C 
HETATM    3  C10 UNL     1      29.436  -0.898   9.346  1.00  0.00     0.037 C 
HETATM    4  C11 UNL     1      28.439  -1.132   8.241  1.00  0.00     0.156 C 
HETATM    5  C20 UNL     1      27.655  -2.411   8.434  1.00  0.00     0.178 C 
HETATM    6  C21 UNL     1      27.410  -2.576   9.916  1.00  0.00     0.179 C 
ENDROOT
BRANCH   4   7
HETATM    7  O1  UNL     1      27.610  -0.032   8.177  1.00  0.00    -0.351 OA
BRANCH   7   8
HETATM    8  C12 UNL     1      27.723   0.685   6.993  1.00  0.00     0.293 C 
HETATM    9  O2  UNL     1      28.721   0.193   6.208  1.00  0.00    -0.338 OA
HETATM   10  C13 UNL     1      28.564   0.276   4.858  1.00  0.00     0.148 C 
HETATM   11  C14 UNL     1      29.745  -0.476   4.258  1.00  0.00     0.057 C 
HETATM   12  C17 UNL     1      27.325  -0.444   4.392  1.00  0.00     0.191 C 
HETATM   13  C18 UNL     1      26.149  -0.256   5.285  1.00  0.00     0.183 C 
HETATM   14  C19 UNL     1      26.377   0.782   6.360  1.00  0.00     0.204 C 
BRANCH  10  15
HETATM   15  C15 UNL     1      28.687   1.650   4.325  1.00  0.00     0.159 C 
HETATM   16  C16 UNL     1      28.796   2.883   5.089  1.00  0.00     0.094 C 
HETATM   17  O3  UNL     1      28.699   1.754   3.106  1.00  0.00    -0.295 OA
ENDBRANCH  10  15
BRANCH  12  18
HETATM   18  O4  UNL     1      27.091  -0.200   3.045  1.00  0.00    -0.389 OA
ATOM     19  H4  UNL     1      26.370   0.409   2.933  1.00  0.00     0.210 HD
ENDBRANCH  12  18
BRANCH  13  20
HETATM   20  O5  UNL     1      25.025   0.056   4.538  1.00  0.00    -0.390 OA
ATOM     21  H5  UNL     1      24.245   0.001   5.079  1.00  0.00     0.210 HD
ENDBRANCH  13  20
BRANCH  14  22
HETATM   22  O6  UNL     1      25.361   0.653   7.308  1.00  0.00    -0.388 OA
ATOM     23  H6  UNL     1      24.827   1.438   7.351  1.00  0.00     0.210 HD
ENDBRANCH  14  22
ENDBRANCH   7   8
ENDBRANCH   4   7
BRANCH   5  24
HETATM   24  O7  UNL     1      28.406  -3.494   7.952  1.00  0.00    -0.390 OA
ATOM     25  H7  UNL     1      27.889  -4.289   8.014  1.00  0.00     0.210 HD
ENDBRANCH   5  24
BRANCH   6  26
HETATM   26  O8  UNL     1      26.910  -1.412  10.462  1.00  0.00    -0.391 OA
ATOM     27  H8  UNL     1      26.546  -1.550  11.329  1.00  0.00     0.210 HD
ENDBRANCH   6  26
BRANCH   1  28
HETATM   28  N1  UNL     1      28.564  -2.973  11.960  1.00  0.00    -0.068 N 
ATOM     29  H12 UNL     1      27.576  -3.051  12.204  1.00  0.00     0.277 HD
ATOM     30  H11 UNL     1      28.765  -2.045  12.333  1.00  0.00     0.277 HD
BRANCH  28  31
HETATM   31  C7  UNL     1      29.330  -3.968  12.658  1.00  0.00     0.233 C 
BRANCH  31  32
HETATM   32  C6  UNL     1      30.290  -3.244  13.575  1.00  0.00     0.031 C 
BRANCH  32  33
HETATM   33  C5  UNL     1      29.732  -1.909  13.961  1.00  0.00     0.028 C 
BRANCH  33  34
HETATM   34  C4  UNL     1      30.794  -1.073  14.537  1.00  0.00    -0.031 C 
HETATM   35  C3  UNL     1      31.458  -0.132  13.918  1.00  0.00    -0.031 C 
BRANCH  35  36
HETATM   36  C2  UNL     1      31.251   0.257  12.518  1.00  0.00     0.022 C 
HETATM   37  C1  UNL     1      32.478  -0.225  11.737  1.00  0.00     0.009 C 
ENDBRANCH  35  36
ENDBRANCH  33  34
ENDBRANCH  32  33
ENDBRANCH  31  32
ENDBRANCH  28  31
ENDBRANCH   1  28
TORSDOF 14
ENDMDL
MODEL 2
REMARK VINA RESULT: -7.163085303      2.949      7.529
REMARK  14 active torsions:
REMARK  status: ('A' for Active; 'I' for Inactive)
REMARK    1  A    between atoms: C2_2  and  C3_3 
REMARK    2  A    between atoms: C4_4  and  C5_5 
REMARK    3  A    between atoms: C5_5  and  C6_6 
REMARK    4  A    between atoms: C6_6  and  C7_7 
REMARK    5  A    between atoms: C7_7  and  N1_8 
REMARK    6  A    between atoms: N1_8  and  C8_11 
REMARK    7  A    between atoms: C11_14  and  O1_15 
REMARK    8  A    between atoms: O1_15  and  C12_16 
REMARK    9  A    between atoms: C13_18  and  C15_20 
REMARK   10  A    between atoms: C17_23  and  O4_24 
REMARK   11  A    between atoms: C18_26  and  O5_27 
REMARK   12  A    between atoms: C19_29  and  O6_30 
REMARK   13  A    between atoms: C20_32  and  O7_33 
REMARK   14  A    between atoms: C21_35  and  O8_36 
ROOT
HETATM    1  C8  UNL     1      27.940  -1.209   5.676  1.00  0.00     0.217 C 
HETATM    2  C9  UNL     1      26.831  -0.811   6.602  1.00  0.00     0.038 C 
HETATM    3  C10 UNL     1      27.317  -0.535   8.006  1.00  0.00     0.037 C 
HETATM    4  C11 UNL     1      28.073  -1.697   8.598  1.00  0.00     0.156 C 
HETATM    5  C20 UNL     1      28.702  -2.574   7.538  1.00  0.00     0.178 C 
HETATM    6  C21 UNL     1      29.172  -1.671   6.421  1.00  0.00     0.179 C 
ENDROOT
BRANCH   4   7
HETATM    7  O1  UNL     1      29.015  -1.192   9.467  1.00  0.00    -0.351 OA
BRANCH   7   8
HETATM    8  C12 UNL     1      29.239  -1.996  10.577  1.00  0.00     0.293 C 
HETATM    9  O2  UNL     1      30.415  -2.676  10.469  1.00  0.00    -0.338 OA
HETATM   10  C13 UNL     1      31.100  -2.942  11.616  1.00  0.00     0.148 C 
HETATM   11  C14 UNL     1      32.418  -3.565  11.173  1.00  0.00     0.057 C 
HETATM   12  C17 UNL     1      31.458  -1.682  12.361  1.00  0.00     0.191 C 
HETATM   13  C18 UNL     1      30.375  -0.661  12.368  1.00  0.00     0.183 C 
HETATM   14  C19 UNL     1      29.068  -1.173  11.808  1.00  0.00     0.204 C 
BRANCH  10  15
HETATM   15  C15 UNL     1      30.468  -3.974  12.465  1.00  0.00     0.159 C 
HETATM   16  C16 UNL     1      29.043  -4.207  12.651  1.00  0.00     0.094 C 
HETATM   17  O3  UNL     1      31.231  -4.709  13.075  1.00  0.00    -0.295 OA
ENDBRANCH  10  15
BRANCH  12  18
HETATM   18  O4  UNL     1      31.998  -1.983  13.605  1.00  0.00    -0.389 OA
ATOM     19  H4  UNL     1      31.807  -1.293  14.230  1.00  0.00     0.210 HD
ENDBRANCH  12  18
BRANCH  13  20
HETATM   20  O5  UNL     1      30.195  -0.163  13.649  1.00  0.00    -0.390 OA
ATOM     21  H5  UNL     1      29.536   0.522  13.645  1.00  0.00     0.210 HD
ENDBRANCH  13  20
BRANCH  14  22
HETATM   22  O6  UNL     1      28.239  -0.076  11.573  1.00  0.00    -0.388 OA
ATOM     23  H6  UNL     1      28.551   0.697  12.029  1.00  0.00     0.210 HD
ENDBRANCH  14  22
ENDBRANCH   7   8
ENDBRANCH   4   7
BRANCH   5  24
HETATM   24  O7  UNL     1      27.744  -3.475   7.051  1.00  0.00    -0.390 OA
ATOM     25  H7  UNL     1      27.143  -3.017   6.475  1.00  0.00     0.210 HD
ENDBRANCH   5  24
BRANCH   6  26
HETATM   26  O8  UNL     1      29.907  -0.616   6.920  1.00  0.00    -0.391 OA
ATOM     27  H8  UNL     1      29.709  -0.441   7.833  1.00  0.00     0.210 HD
ENDBRANCH   6  26
BRANCH   1  28
HETATM   28  N1  UNL     1      28.341  -0.220   4.727  1.00  0.00    -0.068 N 
ATOM     29  H12 UNL     1      28.329  -0.608   3.784  1.00  0.00     0.277 HD
ATOM     30  H11 UNL     1      29.337  -0.021   4.823  1.00  0.00     0.277 HD
BRANCH  28  31
HETATM   31  C7  UNL     1      27.583   1.000   4.774  1.00  0.00     0.233 C 
BRANCH  31  32
HETATM   32  C6  UNL     1      28.521   2.133   4.422  1.00  0.00     0.031 C 
BRANCH  32  33
HETATM   33  C5  UNL     1      29.026   2.794   5.667  1.00  0.00     0.028 C 
BRANCH  33  34
HETATM   34  C4  UNL     1      27.996   2.740   6.713  1.00  0.00    -0.031 C 
HETATM   35  C3  UNL     1      28.066   3.294   7.896  1.00  0.00    -0.031 C 
BRANCH  35  36
HETATM   36  C2  UNL     1      29.204   4.079   8.387  1.00  0.00     0.022 C 
HETATM   37  C1  UNL     1      28.871   5.552   8.132  1.00  0.00     0.009 C 
ENDBRANCH  35  36
ENDBRANCH  33  34
ENDBRANCH  32  33
ENDBRANCH  31  32
ENDBRANCH  28  31
ENDBRANCH   1  28
TORSDOF 14
ENDMDL
MODEL 3
REMARK VINA RESULT: -7.139509548      1.244      1.604
REMARK  14 active torsions:
REMARK  status: ('A' for Active; 'I' for Inactive)
REMARK    1  A    between atoms: C2_2  and  C3_3 
REMARK    2  A    between atoms: C4_4  and  C5_5 
REMARK    3  A    between atoms: C5_5  and  C6_6 
REMARK    4  A    between atoms: C6_6  and  C7_7 
REMARK    5  A    between atoms: C7_7  and  N1_8 
REMARK    6  A    between atoms: N1_8  and  C8_11 
REMARK    7  A    between atoms: C11_14  and  O1_15 
REMARK    8  A    between atoms: O1_15  and  C12_16 
REMARK    9  A    between atoms: C13_18  and  C15_20 
REMARK   10  A    between atoms: C17_23  and  O4_24 
REMARK   11  A    between atoms: C18_26  and  O5_27 
REMARK   12  A    between atoms: C19_29  and  O6_30 
REMARK   13  A    between atoms: C20_32  and  O7_33 
REMARK   14  A    between atoms: C21_35  and  O8_36 
ROOT
HETATM    1  C8  UNL     1      28.661  -3.093  10.465  1.00  0.00     0.217 C 
HETATM    2  C9  UNL     1      29.838  -2.286  10.008  1.00  0.00     0.038 C 
HETATM    3  C10 UNL     1      29.434  -0.970   9.384  1.00  0.00     0.037 C 
HETATM    4  C11 UNL     1      28.469  -1.143   8.239  1.00  0.00     0.156 C 
HETATM    5  C20 UNL     1      27.665  -2.419   8.352  1.00  0.00     0.178 C 
HETATM    6  C21 UNL     1      27.370  -2.643   9.817  1.00  0.00     0.179 C 
ENDROOT
BRANCH   4   7
HETATM    7  O1  UNL     1      27.657  -0.031   8.197  1.00  0.00    -0.351 OA
BRANCH   7   8
HETATM    8  C12 UNL     1      27.761   0.694   7.016  1.00  0.00     0.293 C 
HETATM    9  O2  UNL     1      28.766   0.218   6.230  1.00  0.00    -0.338 OA
HETATM   10  C13 UNL     1      28.609   0.305   4.879  1.00  0.00     0.148 C 
HETATM   11  C14 UNL     1      29.800  -0.428   4.277  1.00  0.00     0.057 C 
HETATM   12  C17 UNL     1      27.380  -0.429   4.409  1.00  0.00     0.191 C 
HETATM   13  C18 UNL     1      26.201  -0.260   5.303  1.00  0.00     0.183 C 
HETATM   14  C19 UNL     1      26.415   0.776   6.382  1.00  0.00     0.204 C 
BRANCH  10  15
HETATM   15  C15 UNL     1      28.715   1.683   4.353  1.00  0.00     0.159 C 
HETATM   16  C16 UNL     1      28.742   2.918   5.122  1.00  0.00     0.094 C 
HETATM   17  O3  UNL     1      28.786   1.789   3.137  1.00  0.00    -0.295 OA
ENDBRANCH  10  15
BRANCH  12  18
HETATM   18  O4  UNL     1      27.144  -0.181   3.063  1.00  0.00    -0.389 OA
ATOM     19  H4  UNL     1      27.680  -0.745   2.518  1.00  0.00     0.210 HD
ENDBRANCH  12  18
BRANCH  13  20
HETATM   20  O5  UNL     1      25.073   0.040   4.556  1.00  0.00    -0.390 OA
ATOM     21  H5  UNL     1      25.321   0.472   3.746  1.00  0.00     0.210 HD
ENDBRANCH  13  20
BRANCH  14  22
HETATM   22  O6  UNL     1      25.399   0.629   7.329  1.00  0.00    -0.388 OA
ATOM     23  H6  UNL     1      24.605   1.073   7.055  1.00  0.00     0.210 HD
ENDBRANCH  14  22
ENDBRANCH   7   8
ENDBRANCH   4   7
BRANCH   5  24
HETATM   24  O7  UNL     1      28.418  -3.490   7.848  1.00  0.00    -0.390 OA
ATOM     25  H7  UNL     1      28.964  -3.182   7.133  1.00  0.00     0.210 HD
ENDBRANCH   5  24
BRANCH   6  26
HETATM   26  O8  UNL     1      26.867  -1.498  10.396  1.00  0.00    -0.391 OA
ATOM     27  H8  UNL     1      27.554  -0.894  10.653  1.00  0.00     0.210 HD
ENDBRANCH   6  26
BRANCH   1  28
HETATM   28  N1  UNL     1      28.453  -3.143  11.877  1.00  0.00    -0.068 N 
ATOM     29  H12 UNL     1      28.151  -4.077  12.157  1.00  0.00     0.277 HD
ATOM     30  H11 UNL     1      27.624  -2.607  12.132  1.00  0.00     0.277 HD
BRANCH  28  31
HETATM   31  C7  UNL     1      29.579  -2.725  12.666  1.00  0.00     0.233 C 
BRANCH  31  32
HETATM   32  C6  UNL     1      30.117  -3.947  13.375  1.00  0.00     0.031 C 
BRANCH  32  33
HETATM   33  C5  UNL     1      31.515  -4.236  12.924  1.00  0.00     0.028 C 
BRANCH  33  34
HETATM   34  C4  UNL     1      32.244  -2.977  12.725  1.00  0.00    -0.031 C 
HETATM   35  C3  UNL     1      33.260  -2.790  11.922  1.00  0.00    -0.031 C 
BRANCH  35  36
HETATM   36  C2  UNL     1      33.853  -3.824  11.068  1.00  0.00     0.022 C 
HETATM   37  C1  UNL     1      33.336  -3.577   9.647  1.00  0.00     0.009 C 
ENDBRANCH  35  36
ENDBRANCH  33  34
ENDBRANCH  32  33
ENDBRANCH  31  32
ENDBRANCH  28  31
ENDBRANCH   1  28
TORSDOF 14
ENDMDL
MODEL 4
REMARK VINA RESULT: -7.113044516      3.171      8.441
REMARK  14 active torsions:
REMARK  status: ('A' for Active; 'I' for Inactive)
REMARK    1  A    between atoms: C2_2  and  C3_3 
REMARK    2  A    between atoms: C4_4  and  C5_5 
REMARK    3  A    between atoms: C5_5  and  C6_6 
REMARK    4  A    between atoms: C6_6  and  C7_7 
REMARK    5  A    between atoms: C7_7  and  N1_8 
REMARK    6  A    between atoms: N1_8  and  C8_11 
REMARK    7  A    between atoms: C11_14  and  O1_15 
REMARK    8  A    between atoms: O1_15  and  C12_16 
REMARK    9  A    between atoms: C13_18  and  C15_20 
REMARK   10  A    between atoms: C17_23  and  O4_24 
REMARK   11  A    between atoms: C18_26  and  O5_27 
REMARK   12  A    between atoms: C19_29  and  O6_30 
REMARK   13  A    between atoms: C20_32  and  O7_33 
REMARK   14  A    between atoms: C21_35  and  O8_36 
ROOT
HETATM    1  C8  UNL     1      27.858  -1.487   8.773  1.00  0.00     0.217 C 
HETATM    2  C9  UNL     1      27.466  -2.859   9.229  1.00  0.00     0.038 C 
HETATM    3  C10 UNL     1      27.670  -3.059  10.713  1.00  0.00     0.037 C 
HETATM    4  C11 UNL     1      29.083  -2.769  11.148  1.00  0.00     0.156 C 
HETATM    5  C20 UNL     1      29.783  -1.799  10.223  1.00  0.00     0.178 C 
HETATM    6  C21 UNL     1      28.759  -0.787   9.765  1.00  0.00     0.179 C 
ENDROOT
BRANCH   4   7
HETATM    7  O1  UNL     1      29.040  -2.298  12.443  1.00  0.00    -0.351 OA
BRANCH   7   8
HETATM    8  C12 UNL     1      30.140  -2.665  13.208  1.00  0.00     0.293 C 
HETATM    9  O2  UNL     1      31.098  -3.262  12.446  1.00  0.00    -0.338 OA
HETATM   10  C13 UNL     1      32.399  -3.080  12.807  1.00  0.00     0.148 C 
HETATM   11  C14 UNL     1      33.227  -3.727  11.705  1.00  0.00     0.057 C 
HETATM   12  C17 UNL     1      32.779  -1.623  12.822  1.00  0.00     0.191 C 
HETATM   13  C18 UNL     1      31.726  -0.733  13.383  1.00  0.00     0.183 C 
HETATM   14  C19 UNL     1      30.579  -1.489  14.012  1.00  0.00     0.204 C 
BRANCH  10  15
HETATM   15  C15 UNL     1      32.784  -3.806  14.037  1.00  0.00     0.159 C 
HETATM   16  C16 UNL     1      32.627  -5.228  14.304  1.00  0.00     0.094 C 
HETATM   17  O3  UNL     1      33.289  -3.132  14.923  1.00  0.00    -0.295 OA
ENDBRANCH  10  15
BRANCH  12  18
HETATM   18  O4  UNL     1      34.049  -1.450  13.359  1.00  0.00    -0.389 OA
ATOM     19  H4  UNL     1      34.418  -0.617  13.090  1.00  0.00     0.210 HD
ENDBRANCH  12  18
BRANCH  13  20
HETATM   20  O5  UNL     1      32.282   0.154  14.291  1.00  0.00    -0.390 OA
ATOM     21  H5  UNL     1      32.362   1.017  13.901  1.00  0.00     0.210 HD
ENDBRANCH  13  20
BRANCH  14  22
HETATM   22  O6  UNL     1      29.529  -0.592  14.214  1.00  0.00    -0.388 OA
ATOM     23  H6  UNL     1      29.381  -0.436  15.139  1.00  0.00     0.210 HD
ENDBRANCH  14  22
ENDBRANCH   7   8
ENDBRANCH   4   7
BRANCH   5  24
HETATM   24  O7  UNL     1      30.293  -2.496   9.117  1.00  0.00    -0.390 OA
ATOM     25  H7  UNL     1      31.235  -2.581   9.205  1.00  0.00     0.210 HD
ENDBRANCH   5  24
BRANCH   6  26
HETATM   26  O8  UNL     1      28.058  -0.279  10.838  1.00  0.00    -0.391 OA
ATOM     27  H8  UNL     1      28.149   0.664  10.914  1.00  0.00     0.210 HD
ENDBRANCH   6  26
BRANCH   1  28
HETATM   28  N1  UNL     1      26.778  -0.606   8.457  1.00  0.00    -0.068 N 
ATOM     29  H12 UNL     1      26.480  -0.099   9.291  1.00  0.00     0.277 HD
ATOM     30  H11 UNL     1      25.931  -1.141   8.263  1.00  0.00     0.277 HD
BRANCH  28  31
HETATM   31  C7  UNL     1      27.045   0.311   7.384  1.00  0.00     0.233 C 
BRANCH  31  32
HETATM   32  C6  UNL     1      25.737   0.575   6.674  1.00  0.00     0.031 C 
BRANCH  32  33
HETATM   33  C5  UNL     1      25.846   0.201   5.228  1.00  0.00     0.028 C 
BRANCH  33  34
HETATM   34  C4  UNL     1      27.138  -0.452   4.979  1.00  0.00    -0.031 C 
HETATM   35  C3  UNL     1      28.082  -0.019   4.184  1.00  0.00    -0.031 C 
BRANCH  35  36
HETATM   36  C2  UNL     1      28.011   1.215   3.393  1.00  0.00     0.022 C 
HETATM   37  C1  UNL     1      28.729   2.302   4.200  1.00  0.00     0.009 C 
ENDBRANCH  35  36
ENDBRANCH  33  34
ENDBRANCH  32  33
ENDBRANCH  31  32
ENDBRANCH  28  31
ENDBRANCH   1  28
TORSDOF 14
ENDMDL
MODEL 5
REMARK VINA RESULT: -7.091099200      3.453      8.669
REMARK  14 active torsions:
REMARK  status: ('A' for Active; 'I' for Inactive)
REMARK    1  A    between atoms: C2_2  and  C3_3 
REMARK    2  A    between atoms: C4_4  and  C5_5 
REMARK    3  A    between atoms: C5_5  and  C6_6 
REMARK    4  A    between atoms: C6_6  and  C7_7 
REMARK    5  A    between atoms: C7_7  and  N1_8 
REMARK    6  A    between atoms: N1_8  and  C8_11 
REMARK    7  A    between atoms: C11_14  and  O1_15 
REMARK    8  A    between atoms: O1_15  and  C12_16 
REMARK    9  A    between atoms: C13_18  and  C15_20 
REMARK   10  A    between atoms: C17_23  and  O4_24 
REMARK   11  A    between atoms: C18_26  and  O5_27 
REMARK   12  A    between atoms: C19_29  and  O6_30 
REMARK   13  A    between atoms: C20_32  and  O7_33 
REMARK   14  A    between atoms: C21_35  and  O8_36 
ROOT
HETATM    1  C8  UNL     1      27.711  -1.064   9.167  1.00  0.00     0.217 C 
HETATM    2  C9  UNL     1      29.132  -0.604   9.051  1.00  0.00     0.038 C 
HETATM    3  C10 UNL     1      30.043  -1.267  10.058  1.00  0.00     0.037 C 
HETATM    4  C11 UNL     1      29.570  -1.082  11.477  1.00  0.00     0.156 C 
HETATM    5  C20 UNL     1      28.077  -0.857  11.561  1.00  0.00     0.178 C 
HETATM    6  C21 UNL     1      27.426  -1.716  10.502  1.00  0.00     0.179 C 
ENDROOT
BRANCH   4   7
HETATM    7  O1  UNL     1      29.960  -2.188  12.201  1.00  0.00    -0.351 OA
BRANCH   7   8
HETATM    8  C12 UNL     1      31.276  -2.571  11.973  1.00  0.00     0.293 C 
HETATM    9  O2  UNL     1      32.149  -1.779  12.655  1.00  0.00    -0.338 OA
HETATM   10  C13 UNL     1      33.307  -2.345  13.095  1.00  0.00     0.148 C 
HETATM   11  C14 UNL     1      33.995  -1.277  13.935  1.00  0.00     0.057 C 
HETATM   12  C17 UNL     1      33.049  -3.507  14.017  1.00  0.00     0.191 C 
HETATM   13  C18 UNL     1      31.919  -4.376  13.588  1.00  0.00     0.183 C 
HETATM   14  C19 UNL     1      31.397  -4.038  12.210  1.00  0.00     0.204 C 
BRANCH  10  15
HETATM   15  C15 UNL     1      34.272  -2.647  12.015  1.00  0.00     0.159 C 
HETATM   16  C16 UNL     1      35.146  -1.708  11.329  1.00  0.00     0.094 C 
HETATM   17  O3  UNL     1      34.335  -3.817  11.664  1.00  0.00    -0.295 OA
ENDBRANCH  10  15
BRANCH  12  18
HETATM   18  O4  UNL     1      34.231  -4.175  14.311  1.00  0.00    -0.389 OA
ATOM     19  H4  UNL     1      34.378  -4.885  13.697  1.00  0.00     0.210 HD
ENDBRANCH  12  18
BRANCH  13  20
HETATM   20  O5  UNL     1      32.288  -5.710  13.654  1.00  0.00    -0.390 OA
ATOM     21  H5  UNL     1      31.653  -6.250  13.198  1.00  0.00     0.210 HD
ENDBRANCH  13  20
BRANCH  14  22
HETATM   22  O6  UNL     1      30.170  -4.681  12.043  1.00  0.00    -0.388 OA
ATOM     23  H6  UNL     1      29.455  -4.156  12.382  1.00  0.00     0.210 HD
ENDBRANCH  14  22
ENDBRANCH   7   8
ENDBRANCH   4   7
BRANCH   5  24
HETATM   24  O7  UNL     1      27.796   0.495  11.318  1.00  0.00    -0.390 OA
ATOM     25  H7  UNL     1      27.219   0.825  11.998  1.00  0.00     0.210 HD
ENDBRANCH   5  24
BRANCH   6  26
HETATM   26  O8  UNL     1      27.898  -3.010  10.562  1.00  0.00    -0.391 OA
ATOM     27  H8  UNL     1      27.338  -3.619  10.095  1.00  0.00     0.210 HD
ENDBRANCH   6  26
BRANCH   1  28
HETATM   28  N1  UNL     1      27.259  -1.946   8.138  1.00  0.00    -0.068 N 
ATOM     29  H12 UNL     1      26.286  -2.209   8.301  1.00  0.00     0.277 HD
ATOM     30  H11 UNL     1      27.706  -2.858   8.233  1.00  0.00     0.277 HD
BRANCH  28  31
HETATM   31  C7  UNL     1      27.424  -1.445   6.802  1.00  0.00     0.233 C 
BRANCH  31  32
HETATM   32  C6  UNL     1      26.328  -0.433   6.556  1.00  0.00     0.031 C 
BRANCH  32  33
HETATM   33  C5  UNL     1      26.874   0.759   5.833  1.00  0.00     0.028 C 
BRANCH  33  34
HETATM   34  C4  UNL     1      27.501   0.333   4.575  1.00  0.00    -0.031 C 
HETATM   35  C3  UNL     1      26.877  -0.076   3.500  1.00  0.00    -0.031 C 
BRANCH  35  36
HETATM   36  C2  UNL     1      25.420  -0.181   3.366  1.00  0.00     0.022 C 
HETATM   37  C1  UNL     1      25.086   0.114   1.900  1.00  0.00     0.009 C 
ENDBRANCH  35  36
ENDBRANCH  33  34
ENDBRANCH  32  33
ENDBRANCH  31  32
ENDBRANCH  28  31
ENDBRANCH   1  28
TORSDOF 14
ENDMDL
