MODEL 1
REMARK VINA RESULT: -7.764200965      0.000      0.000
REMARK  18 active torsions:
REMARK  status: ('A' for Active; 'I' for Inactive)
REMARK    1  A    between atoms: C2_2  and  C3_3 
REMARK    2  A    between atoms: C3_3  and  N1_4 
REMARK    3  A    between atoms: N2_7  and  C6_8 
REMARK    4  A    between atoms: C6_8  and  C7_9 
REMARK    5  A    between atoms: C7_9  and  C8_10 
REMARK    6  A    between atoms: C8_10  and  C9_11 
REMARK    7  A    between atoms: C9_11  and  N3_12 
REMARK    8  A    between atoms: N3_12  and  C10_15 
REMARK    9  A    between atoms: C10_15  and  C11_16 
REMARK   10  A    between atoms: C11_16  and  C12_17 
REMARK   11  A    between atoms: C12_17  and  N4_18 
REMARK       I    between atoms: N4_18  and  C13_20 
REMARK       I    between atoms: C13_20  and  N6_24 
REMARK   12  A    between atoms: N6_24  and  C14_26 
REMARK   13  A    between atoms: C14_26  and  C15_27 
REMARK   14  A    between atoms: C15_27  and  C16_28 
REMARK   15  A    between atoms: C16_28  and  C17_29 
REMARK   16  A    between atoms: C17_29  and  N7_30 
REMARK   17  A    between atoms: N7_30  and  S1_32 
REMARK   18  A    between atoms: S1_32  and  N8_33 
ROOT
HETATM    1  C12 UNL     1     -41.104  22.957 -13.141  1.00  0.00     0.139 C 
ENDROOT
BRANCH   1   2
HETATM    2  C11 UNL     1     -41.869  22.657 -14.434  1.00  0.00     0.048 C 
BRANCH   2   3
HETATM    3  C10 UNL     1     -41.716  23.828 -15.372  1.00  0.00     0.234 C 
BRANCH   3   4
HETATM    4  N3  UNL     1     -42.885  24.661 -15.345  1.00  0.00    -0.075 N 
ATOM      5  H32 UNL     1     -43.329  24.618 -14.427  1.00  0.00     0.277 HD
ATOM      6  H31 UNL     1     -43.624  24.253 -15.917  1.00  0.00     0.277 HD
BRANCH   4   7
HETATM    7  C9  UNL     1     -42.662  26.010 -15.719  1.00  0.00     0.232 C 
BRANCH   7   8
HETATM    8  C8  UNL     1     -41.230  26.423 -15.811  1.00  0.00     0.029 C 
BRANCH   8   9
HETATM    9  C7  UNL     1     -40.960  27.860 -16.037  1.00  0.00     0.029 C 
BRANCH   9  10
HETATM   10  C6  UNL     1     -41.027  28.360 -17.427  1.00  0.00     0.237 C 
BRANCH  10  11
HETATM   11  N2  UNL     1     -42.141  29.280 -17.594  1.00  0.00    -0.062 N 
HETATM   12  C5  UNL     1     -42.701  29.689 -16.321  1.00  0.00     0.266 C 
HETATM   13  C4  UNL     1     -44.084  30.232 -16.537  1.00  0.00     0.271 C 
HETATM   14  N1  UNL     1     -44.100  30.803 -17.923  1.00  0.00    -0.042 N 
HETATM   15  C19 UNL     1     -42.842  31.493 -18.024  1.00  0.00     0.271 C 
HETATM   16  C21 UNL     1     -44.240  29.652 -18.764  1.00  0.00     0.271 C 
HETATM   17  C18 UNL     1     -41.812  30.430 -18.413  1.00  0.00     0.266 C 
HETATM   18  C20 UNL     1     -43.249  28.593 -18.288  1.00  0.00     0.266 C 
BRANCH  14  19
HETATM   19  C3  UNL     1     -45.218  31.686 -17.934  1.00  0.00     0.202 C 
BRANCH  19  20
HETATM   20  C2  UNL     1     -45.013  33.112 -17.799  1.00  0.00     0.015 C 
HETATM   21  C1  UNL     1     -45.867  34.061 -17.516  1.00  0.00     0.013 C 
ENDBRANCH  19  20
ENDBRANCH  14  19
ENDBRANCH  10  11
ENDBRANCH   9  10
ENDBRANCH   8   9
ENDBRANCH   7   8
ENDBRANCH   4   7
ENDBRANCH   3   4
ENDBRANCH   2   3
ENDBRANCH   1   2
BRANCH   1  22
HETATM   22  N4  UNL     1     -41.711  22.283 -12.021  1.00  0.00    -0.227 N 
HETATM   23  C13 UNL     1     -41.255  20.994 -11.662  1.00  0.00     0.667 C 
HETATM   24  N5  UNL     1     -40.254  20.793 -10.901  1.00  0.00    -0.235 N 
HETATM   25  N6  UNL     1     -41.973  19.860 -12.188  1.00  0.00    -0.227 N 
ATOM     26  H52 UNL     1     -39.746  21.595 -10.529  1.00  0.00     0.174 HD
ATOM     27  H51 UNL     1     -39.924  19.863 -10.643  1.00  0.00     0.174 HD
ATOM     28  H6  UNL     1     -42.273  19.829 -13.162  1.00  0.00     0.177 HD
ATOM     29  H4  UNL     1     -42.461  22.731 -11.493  1.00  0.00     0.177 HD
BRANCH  25  30
HETATM   30  C14 UNL     1     -42.251  18.771 -11.285  1.00  0.00     0.138 C 
BRANCH  30  31
HETATM   31  C15 UNL     1     -42.958  17.692 -12.020  1.00  0.00     0.022 C 
BRANCH  31  32
HETATM   32  C16 UNL     1     -44.165  18.052 -12.769  1.00  0.00     0.022 C 
BRANCH  32  33
HETATM   33  C17 UNL     1     -45.304  18.657 -12.079  1.00  0.00     0.133 C 
BRANCH  33  34
HETATM   34  N7  UNL     1     -46.037  19.647 -12.773  1.00  0.00    -0.303 N 
ATOM     35  H7  UNL     1     -46.579  19.523 -13.628  1.00  0.00     0.173 HD
BRANCH  34  36
HETATM   36  S1  UNL     1     -45.823  21.140 -11.859  1.00  0.00     0.312 S 
HETATM   37  O1  UNL     1     -45.633  20.741 -10.431  1.00  0.00    -0.183 OA
HETATM   38  O2  UNL     1     -44.591  21.826 -12.406  1.00  0.00    -0.183 OA
BRANCH  36  39
HETATM   39  N8  UNL     1     -47.230  22.079 -12.073  1.00  0.00    -0.312 N 
ATOM     40  H82 UNL     1     -47.348  22.818 -12.765  1.00  0.00     0.170 HD
ATOM     41  H81 UNL     1     -47.917  21.763 -11.388  1.00  0.00     0.170 HD
ENDBRANCH  36  39
ENDBRANCH  34  36
ENDBRANCH  33  34
ENDBRANCH  32  33
ENDBRANCH  31  32
ENDBRANCH  30  31
ENDBRANCH  25  30
ENDBRANCH   1  22
TORSDOF 18
ENDMDL
MODEL 2
REMARK VINA RESULT: -7.710623023      1.976      2.766
REMARK  18 active torsions:
REMARK  status: ('A' for Active; 'I' for Inactive)
REMARK    1  A    between atoms: C2_2  and  C3_3 
REMARK    2  A    between atoms: C3_3  and  N1_4 
REMARK    3  A    between atoms: N2_7  and  C6_8 
REMARK    4  A    between atoms: C6_8  and  C7_9 
REMARK    5  A    between atoms: C7_9  and  C8_10 
REMARK    6  A    between atoms: C8_10  and  C9_11 
REMARK    7  A    between atoms: C9_11  and  N3_12 
REMARK    8  A    between atoms: N3_12  and  C10_15 
REMARK    9  A    between atoms: C10_15  and  C11_16 
REMARK   10  A    between atoms: C11_16  and  C12_17 
REMARK   11  A    between atoms: C12_17  and  N4_18 
REMARK       I    between atoms: N4_18  and  C13_20 
REMARK       I    between atoms: C13_20  and  N6_24 
REMARK   12  A    between atoms: N6_24  and  C14_26 
REMARK   13  A    between atoms: C14_26  and  C15_27 
REMARK   14  A    between atoms: C15_27  and  C16_28 
REMARK   15  A    between atoms: C16_28  and  C17_29 
REMARK   16  A    between atoms: C17_29  and  N7_30 
REMARK   17  A    between atoms: N7_30  and  S1_32 
REMARK   18  A    between atoms: S1_32  and  N8_33 
ROOT
HETATM    1  C12 UNL     1     -41.747  23.176 -12.967  1.00  0.00     0.139 C 
ENDROOT
BRANCH   1   2
HETATM    2  C11 UNL     1     -40.640  22.915 -13.993  1.00  0.00     0.048 C 
BRANCH   2   3
HETATM    3  C10 UNL     1     -40.596  24.066 -14.966  1.00  0.00     0.234 C 
BRANCH   3   4
HETATM    4  N3  UNL     1     -41.923  24.497 -15.308  1.00  0.00    -0.075 N 
ATOM      5  H32 UNL     1     -42.582  24.223 -14.580  1.00  0.00     0.277 HD
ATOM      6  H31 UNL     1     -42.283  23.947 -16.088  1.00  0.00     0.277 HD
BRANCH   4   7
HETATM    7  C9  UNL     1     -42.044  25.881 -15.586  1.00  0.00     0.232 C 
BRANCH   7   8
HETATM    8  C8  UNL     1     -40.771  26.660 -15.543  1.00  0.00     0.029 C 
BRANCH   8   9
HETATM    9  C7  UNL     1     -40.778  27.993 -16.185  1.00  0.00     0.029 C 
BRANCH   9  10
HETATM   10  C6  UNL     1     -41.324  28.091 -17.556  1.00  0.00     0.237 C 
BRANCH  10  11
HETATM   11  N2  UNL     1     -42.388  29.081 -17.620  1.00  0.00    -0.062 N 
HETATM   12  C5  UNL     1     -42.763  29.559 -16.305  1.00  0.00     0.266 C 
HETATM   13  C4  UNL     1     -44.123  30.191 -16.374  1.00  0.00     0.271 C 
HETATM   14  N1  UNL     1     -44.268  30.726 -17.767  1.00  0.00    -0.042 N 
HETATM   15  C19 UNL     1     -42.989  31.324 -18.039  1.00  0.00     0.271 C 
HETATM   16  C21 UNL     1     -44.583  29.565 -18.546  1.00  0.00     0.271 C 
HETATM   17  C18 UNL     1     -42.085  30.184 -18.511  1.00  0.00     0.266 C 
HETATM   18  C20 UNL     1     -43.614  28.454 -18.155  1.00  0.00     0.266 C 
BRANCH  14  19
HETATM   19  C3  UNL     1     -45.319  31.683 -17.675  1.00  0.00     0.202 C 
BRANCH  19  20
HETATM   20  C2  UNL     1     -45.018  33.096 -17.748  1.00  0.00     0.015 C 
HETATM   21  C1  UNL     1     -45.802  34.132 -17.599  1.00  0.00     0.013 C 
ENDBRANCH  19  20
ENDBRANCH  14  19
ENDBRANCH  10  11
ENDBRANCH   9  10
ENDBRANCH   8   9
ENDBRANCH   7   8
ENDBRANCH   4   7
ENDBRANCH   3   4
ENDBRANCH   2   3
ENDBRANCH   1   2
BRANCH   1  22
HETATM   22  N4  UNL     1     -42.640  22.048 -12.882  1.00  0.00    -0.227 N 
HETATM   23  C13 UNL     1     -43.969  22.184 -13.346  1.00  0.00     0.667 C 
HETATM   24  N5  UNL     1     -44.304  22.020 -14.564  1.00  0.00    -0.235 N 
HETATM   25  N6  UNL     1     -44.984  22.518 -12.379  1.00  0.00    -0.227 N 
ATOM     26  H52 UNL     1     -43.586  21.783 -15.248  1.00  0.00     0.174 HD
ATOM     27  H51 UNL     1     -45.263  22.119 -14.898  1.00  0.00     0.174 HD
ATOM     28  H6  UNL     1     -44.823  23.233 -11.669  1.00  0.00     0.177 HD
ATOM     29  H4  UNL     1     -42.318  21.162 -12.492  1.00  0.00     0.177 HD
BRANCH  25  30
HETATM   30  C14 UNL     1     -46.236  21.806 -12.454  1.00  0.00     0.138 C 
BRANCH  30  31
HETATM   31  C15 UNL     1     -46.960  21.949 -11.166  1.00  0.00     0.022 C 
BRANCH  31  32
HETATM   32  C16 UNL     1     -46.669  20.979 -10.107  1.00  0.00     0.022 C 
BRANCH  32  33
HETATM   33  C17 UNL     1     -45.692  19.915 -10.336  1.00  0.00     0.133 C 
BRANCH  33  34
HETATM   34  N7  UNL     1     -44.597  19.831  -9.444  1.00  0.00    -0.303 N 
ATOM     35  H7  UNL     1     -44.605  20.019  -8.442  1.00  0.00     0.173 HD
BRANCH  34  36
HETATM   36  S1  UNL     1     -43.214  19.336 -10.420  1.00  0.00     0.312 S 
HETATM   37  O1  UNL     1     -43.718  19.166 -11.817  1.00  0.00    -0.183 OA
HETATM   38  O2  UNL     1     -42.189  20.445 -10.337  1.00  0.00    -0.183 OA
BRANCH  36  39
HETATM   39  N8  UNL     1     -42.629  17.870  -9.774  1.00  0.00    -0.312 N 
ATOM     40  H82 UNL     1     -42.239  17.099 -10.315  1.00  0.00     0.170 HD
ATOM     41  H81 UNL     1     -42.743  17.915  -8.761  1.00  0.00     0.170 HD
ENDBRANCH  36  39
ENDBRANCH  34  36
ENDBRANCH  33  34
ENDBRANCH  32  33
ENDBRANCH  31  32
ENDBRANCH  30  31
ENDBRANCH  25  30
ENDBRANCH   1  22
TORSDOF 18
ENDMDL
MODEL 3
REMARK VINA RESULT: -7.668373471      1.173      1.466
REMARK  18 active torsions:
REMARK  status: ('A' for Active; 'I' for Inactive)
REMARK    1  A    between atoms: C2_2  and  C3_3 
REMARK    2  A    between atoms: C3_3  and  N1_4 
REMARK    3  A    between atoms: N2_7  and  C6_8 
REMARK    4  A    between atoms: C6_8  and  C7_9 
REMARK    5  A    between atoms: C7_9  and  C8_10 
REMARK    6  A    between atoms: C8_10  and  C9_11 
REMARK    7  A    between atoms: C9_11  and  N3_12 
REMARK    8  A    between atoms: N3_12  and  C10_15 
REMARK    9  A    between atoms: C10_15  and  C11_16 
REMARK   10  A    between atoms: C11_16  and  C12_17 
REMARK   11  A    between atoms: C12_17  and  N4_18 
REMARK       I    between atoms: N4_18  and  C13_20 
REMARK       I    between atoms: C13_20  and  N6_24 
REMARK   12  A    between atoms: N6_24  and  C14_26 
REMARK   13  A    between atoms: C14_26  and  C15_27 
REMARK   14  A    between atoms: C15_27  and  C16_28 
REMARK   15  A    between atoms: C16_28  and  C17_29 
REMARK   16  A    between atoms: C17_29  and  N7_30 
REMARK   17  A    between atoms: N7_30  and  S1_32 
REMARK   18  A    between atoms: S1_32  and  N8_33 
ROOT
HETATM    1  C12 UNL     1     -40.909  22.569 -13.498  1.00  0.00     0.139 C 
ENDROOT
BRANCH   1   2
HETATM    2  C11 UNL     1     -40.227  23.935 -13.360  1.00  0.00     0.048 C 
BRANCH   2   3
HETATM    3  C10 UNL     1     -40.207  24.607 -14.709  1.00  0.00     0.234 C 
BRANCH   3   4
HETATM    4  N3  UNL     1     -41.529  24.675 -15.266  1.00  0.00    -0.075 N 
ATOM      5  H32 UNL     1     -42.208  24.282 -14.614  1.00  0.00     0.277 HD
ATOM      6  H31 UNL     1     -41.622  24.013 -16.037  1.00  0.00     0.277 HD
BRANCH   4   7
HETATM    7  C9  UNL     1     -41.935  25.968 -15.678  1.00  0.00     0.232 C 
BRANCH   7   8
HETATM    8  C8  UNL     1     -40.937  27.057 -15.455  1.00  0.00     0.029 C 
BRANCH   8   9
HETATM    9  C7  UNL     1     -41.122  28.305 -16.227  1.00  0.00     0.029 C 
BRANCH   9  10
HETATM   10  C6  UNL     1     -41.230  28.192 -17.698  1.00  0.00     0.237 C 
BRANCH  10  11
HETATM   11  N2  UNL     1     -42.361  28.959 -18.196  1.00  0.00    -0.062 N 
HETATM   12  C5  UNL     1     -43.625  28.329 -17.875  1.00  0.00     0.266 C 
HETATM   13  C4  UNL     1     -44.695  28.873 -18.777  1.00  0.00     0.271 C 
HETATM   14  N1  UNL     1     -44.277  30.268 -19.132  1.00  0.00    -0.042 N 
HETATM   15  C19 UNL     1     -43.795  30.808 -17.890  1.00  0.00     0.271 C 
HETATM   16  C21 UNL     1     -43.284  30.078 -20.147  1.00  0.00     0.271 C 
HETATM   17  C18 UNL     1     -42.342  30.343 -17.767  1.00  0.00     0.266 C 
HETATM   18  C20 UNL     1     -42.322  28.992 -19.672  1.00  0.00     0.266 C 
BRANCH  14  19
HETATM   19  C3  UNL     1     -45.473  30.897 -19.582  1.00  0.00     0.202 C 
BRANCH  19  20
HETATM   20  C2  UNL     1     -46.711  30.697 -18.859  1.00  0.00     0.015 C 
HETATM   21  C1  UNL     1     -47.942  30.658 -19.295  1.00  0.00     0.013 C 
ENDBRANCH  19  20
ENDBRANCH  14  19
ENDBRANCH  10  11
ENDBRANCH   9  10
ENDBRANCH   8   9
ENDBRANCH   7   8
ENDBRANCH   4   7
ENDBRANCH   3   4
ENDBRANCH   2   3
ENDBRANCH   1   2
BRANCH   1  22
HETATM   22  N4  UNL     1     -41.580  22.208 -12.275  1.00  0.00    -0.227 N 
HETATM   23  C13 UNL     1     -41.280  20.969 -11.664  1.00  0.00     0.667 C 
HETATM   24  N5  UNL     1     -40.302  20.802 -10.866  1.00  0.00    -0.235 N 
HETATM   25  N6  UNL     1     -42.136  19.849 -11.965  1.00  0.00    -0.227 N 
ATOM     26  H52 UNL     1     -39.695  21.594 -10.652  1.00  0.00     0.174 HD
ATOM     27  H51 UNL     1     -40.085  19.907 -10.426  1.00  0.00     0.174 HD
ATOM     28  H6  UNL     1     -42.449  19.664 -12.919  1.00  0.00     0.177 HD
ATOM     29  H4  UNL     1     -42.264  22.839 -11.855  1.00  0.00     0.177 HD
BRANCH  25  30
HETATM   30  C14 UNL     1     -42.534  19.002 -10.869  1.00  0.00     0.138 C 
BRANCH  30  31
HETATM   31  C15 UNL     1     -43.119  17.746 -11.406  1.00  0.00     0.022 C 
BRANCH  31  32
HETATM   32  C16 UNL     1     -44.276  17.859 -12.299  1.00  0.00     0.022 C 
BRANCH  32  33
HETATM   33  C17 UNL     1     -45.455  18.616 -11.879  1.00  0.00     0.133 C 
BRANCH  33  34
HETATM   34  N7  UNL     1     -45.938  19.612 -12.760  1.00  0.00    -0.303 N 
ATOM     35  H7  UNL     1     -46.301  19.474 -13.703  1.00  0.00     0.173 HD
BRANCH  34  36
HETATM   36  S1  UNL     1     -45.787  21.140 -11.893  1.00  0.00     0.312 S 
HETATM   37  O1  UNL     1     -45.601  20.796 -10.451  1.00  0.00    -0.183 OA
HETATM   38  O2  UNL     1     -44.572  21.850 -12.449  1.00  0.00    -0.183 OA
BRANCH  36  39
HETATM   39  N8  UNL     1     -47.222  22.023 -12.155  1.00  0.00    -0.312 N 
ATOM     40  H82 UNL     1     -47.343  22.766 -12.843  1.00  0.00     0.170 HD
ATOM     41  H81 UNL     1     -47.923  21.670 -11.502  1.00  0.00     0.170 HD
ENDBRANCH  36  39
ENDBRANCH  34  36
ENDBRANCH  33  34
ENDBRANCH  32  33
ENDBRANCH  31  32
ENDBRANCH  30  31
ENDBRANCH  25  30
ENDBRANCH   1  22
TORSDOF 18
ENDMDL
MODEL 4
REMARK VINA RESULT: -7.630157384      2.244      3.221
REMARK  18 active torsions:
REMARK  status: ('A' for Active; 'I' for Inactive)
REMARK    1  A    between atoms: C2_2  and  C3_3 
REMARK    2  A    between atoms: C3_3  and  N1_4 
REMARK    3  A    between atoms: N2_7  and  C6_8 
REMARK    4  A    between atoms: C6_8  and  C7_9 
REMARK    5  A    between atoms: C7_9  and  C8_10 
REMARK    6  A    between atoms: C8_10  and  C9_11 
REMARK    7  A    between atoms: C9_11  and  N3_12 
REMARK    8  A    between atoms: N3_12  and  C10_15 
REMARK    9  A    between atoms: C10_15  and  C11_16 
REMARK   10  A    between atoms: C11_16  and  C12_17 
REMARK   11  A    between atoms: C12_17  and  N4_18 
REMARK       I    between atoms: N4_18  and  C13_20 
REMARK       I    between atoms: C13_20  and  N6_24 
REMARK   12  A    between atoms: N6_24  and  C14_26 
REMARK   13  A    between atoms: C14_26  and  C15_27 
REMARK   14  A    between atoms: C15_27  and  C16_28 
REMARK   15  A    between atoms: C16_28  and  C17_29 
REMARK   16  A    between atoms: C17_29  and  N7_30 
REMARK   17  A    between atoms: N7_30  and  S1_32 
REMARK   18  A    between atoms: S1_32  and  N8_33 
ROOT
HETATM    1  C12 UNL     1     -41.977  22.994 -12.818  1.00  0.00     0.139 C 
ENDROOT
BRANCH   1   2
HETATM    2  C11 UNL     1     -40.750  22.585 -13.640  1.00  0.00     0.048 C 
BRANCH   2   3
HETATM    3  C10 UNL     1     -40.517  23.618 -14.713  1.00  0.00     0.234 C 
BRANCH   3   4
HETATM    4  N3  UNL     1     -41.753  23.985 -15.346  1.00  0.00    -0.075 N 
ATOM      5  H32 UNL     1     -42.540  23.549 -14.865  1.00  0.00     0.277 HD
ATOM      6  H31 UNL     1     -41.832  23.534 -16.257  1.00  0.00     0.277 HD
BRANCH   4   7
HETATM    7  C9  UNL     1     -41.966  25.381 -15.468  1.00  0.00     0.232 C 
BRANCH   7   8
HETATM    8  C8  UNL     1     -40.732  26.222 -15.461  1.00  0.00     0.029 C 
BRANCH   8   9
HETATM    9  C7  UNL     1     -40.917  27.686 -15.573  1.00  0.00     0.029 C 
BRANCH   9  10
HETATM   10  C6  UNL     1     -42.300  28.207 -15.524  1.00  0.00     0.237 C 
BRANCH  10  11
HETATM   11  N2  UNL     1     -42.625  28.931 -16.742  1.00  0.00    -0.062 N 
HETATM   12  C5  UNL     1     -41.437  29.385 -17.436  1.00  0.00     0.266 C 
HETATM   13  C4  UNL     1     -41.806  30.488 -18.386  1.00  0.00     0.271 C 
HETATM   14  N1  UNL     1     -43.226  30.235 -18.792  1.00  0.00    -0.042 N 
HETATM   15  C19 UNL     1     -43.273  28.814 -19.009  1.00  0.00     0.271 C 
HETATM   16  C21 UNL     1     -43.989  30.713 -17.678  1.00  0.00     0.271 C 
HETATM   17  C18 UNL     1     -43.497  28.188 -17.631  1.00  0.00     0.266 C 
HETATM   18  C20 UNL     1     -43.356  30.168 -16.401  1.00  0.00     0.266 C 
BRANCH  14  19
HETATM   19  C3  UNL     1     -43.394  30.984 -19.992  1.00  0.00     0.202 C 
BRANCH  19  20
HETATM   20  C2  UNL     1     -44.479  30.667 -20.896  1.00  0.00     0.015 C 
HETATM   21  C1  UNL     1     -45.590  31.313 -21.135  1.00  0.00     0.013 C 
ENDBRANCH  19  20
ENDBRANCH  14  19
ENDBRANCH  10  11
ENDBRANCH   9  10
ENDBRANCH   8   9
ENDBRANCH   7   8
ENDBRANCH   4   7
ENDBRANCH   3   4
ENDBRANCH   2   3
ENDBRANCH   1   2
BRANCH   1  22
HETATM   22  N4  UNL     1     -42.957  21.937 -12.805  1.00  0.00    -0.227 N 
HETATM   23  C13 UNL     1     -44.276  22.216 -13.234  1.00  0.00     0.667 C 
HETATM   24  N5  UNL     1     -44.637  22.177 -14.455  1.00  0.00    -0.235 N 
HETATM   25  N6  UNL     1     -45.249  22.553 -12.226  1.00  0.00    -0.227 N 
ATOM     26  H52 UNL     1     -43.948  21.938 -15.168  1.00  0.00     0.174 HD
ATOM     27  H51 UNL     1     -45.588  22.379 -14.764  1.00  0.00     0.174 HD
ATOM     28  H6  UNL     1     -45.023  23.194 -11.465  1.00  0.00     0.177 HD
ATOM     29  H4  UNL     1     -42.704  21.000 -12.491  1.00  0.00     0.177 HD
BRANCH  25  30
HETATM   30  C14 UNL     1     -46.556  21.952 -12.335  1.00  0.00     0.138 C 
BRANCH  30  31
HETATM   31  C15 UNL     1     -47.381  22.357 -11.168  1.00  0.00     0.022 C 
BRANCH  31  32
HETATM   32  C16 UNL     1     -47.473  21.424 -10.041  1.00  0.00     0.022 C 
BRANCH  32  33
HETATM   33  C17 UNL     1     -46.392  20.473  -9.785  1.00  0.00     0.133 C 
BRANCH  33  34
HETATM   34  N7  UNL     1     -46.486  19.199 -10.391  1.00  0.00    -0.303 N 
ATOM     35  H7  UNL     1     -47.316  18.609 -10.453  1.00  0.00     0.173 HD
BRANCH  34  36
HETATM   36  S1  UNL     1     -44.877  18.837 -11.015  1.00  0.00     0.312 S 
HETATM   37  O1  UNL     1     -44.026  20.029 -10.713  1.00  0.00    -0.183 OA
HETATM   38  O2  UNL     1     -44.381  17.609 -10.286  1.00  0.00    -0.183 OA
BRANCH  36  39
HETATM   39  N8  UNL     1     -45.026  18.573 -12.693  1.00  0.00    -0.312 N 
ATOM     40  H82 UNL     1     -44.762  17.719 -13.183  1.00  0.00     0.170 HD
ATOM     41  H81 UNL     1     -45.422  19.419 -13.103  1.00  0.00     0.170 HD
ENDBRANCH  36  39
ENDBRANCH  34  36
ENDBRANCH  33  34
ENDBRANCH  32  33
ENDBRANCH  31  32
ENDBRANCH  30  31
ENDBRANCH  25  30
ENDBRANCH   1  22
TORSDOF 18
ENDMDL
MODEL 5
REMARK VINA RESULT: -7.627781894      5.022      7.210
REMARK  18 active torsions:
REMARK  status: ('A' for Active; 'I' for Inactive)
REMARK    1  A    between atoms: C2_2  and  C3_3 
REMARK    2  A    between atoms: C3_3  and  N1_4 
REMARK    3  A    between atoms: N2_7  and  C6_8 
REMARK    4  A    between atoms: C6_8  and  C7_9 
REMARK    5  A    between atoms: C7_9  and  C8_10 
REMARK    6  A    between atoms: C8_10  and  C9_11 
REMARK    7  A    between atoms: C9_11  and  N3_12 
REMARK    8  A    between atoms: N3_12  and  C10_15 
REMARK    9  A    between atoms: C10_15  and  C11_16 
REMARK   10  A    between atoms: C11_16  and  C12_17 
REMARK   11  A    between atoms: C12_17  and  N4_18 
REMARK       I    between atoms: N4_18  and  C13_20 
REMARK       I    between atoms: C13_20  and  N6_24 
REMARK   12  A    between atoms: N6_24  and  C14_26 
REMARK   13  A    between atoms: C14_26  and  C15_27 
REMARK   14  A    between atoms: C15_27  and  C16_28 
REMARK   15  A    between atoms: C16_28  and  C17_29 
REMARK   16  A    between atoms: C17_29  and  N7_30 
REMARK   17  A    between atoms: N7_30  and  S1_32 
REMARK   18  A    between atoms: S1_32  and  N8_33 
ROOT
HETATM    1  C12 UNL     1     -42.097  28.718 -16.357  1.00  0.00     0.139 C 
ENDROOT
BRANCH   1   2
HETATM    2  C11 UNL     1     -42.285  29.688 -17.528  1.00  0.00     0.048 C 
BRANCH   2   3
HETATM    3  C10 UNL     1     -41.153  29.496 -18.506  1.00  0.00     0.234 C 
BRANCH   3   4
HETATM    4  N3  UNL     1     -41.654  29.316 -19.839  1.00  0.00    -0.075 N 
ATOM      5  H32 UNL     1     -41.361  28.411 -20.208  1.00  0.00     0.277 HD
ATOM      6  H31 UNL     1     -41.167  29.936 -20.487  1.00  0.00     0.277 HD
BRANCH   4   7
HETATM    7  C9  UNL     1     -43.057  29.470 -19.973  1.00  0.00     0.232 C 
BRANCH   7   8
HETATM    8  C8  UNL     1     -43.501  30.669 -20.745  1.00  0.00     0.029 C 
BRANCH   8   9
HETATM    9  C7  UNL     1     -44.188  30.422 -22.032  1.00  0.00     0.029 C 
BRANCH   9  10
HETATM   10  C6  UNL     1     -43.551  29.481 -22.978  1.00  0.00     0.237 C 
BRANCH  10  11
HETATM   11  N2  UNL     1     -43.562  30.018 -24.330  1.00  0.00    -0.062 N 
HETATM   12  C5  UNL     1     -44.691  29.532 -25.097  1.00  0.00     0.266 C 
HETATM   13  C4  UNL     1     -44.416  29.719 -26.561  1.00  0.00     0.271 C 
HETATM   14  N1  UNL     1     -43.506  30.906 -26.669  1.00  0.00    -0.042 N 
HETATM   15  C19 UNL     1     -44.059  31.848 -25.735  1.00  0.00     0.271 C 
HETATM   16  C21 UNL     1     -42.219  30.380 -26.324  1.00  0.00     0.271 C 
HETATM   17  C18 UNL     1     -43.490  31.466 -24.367  1.00  0.00     0.266 C 
HETATM   18  C20 UNL     1     -42.374  29.535 -25.063  1.00  0.00     0.266 C 
BRANCH  14  19
HETATM   19  C3  UNL     1     -43.630  31.330 -28.023  1.00  0.00     0.202 C 
BRANCH  19  20
HETATM   20  C2  UNL     1     -43.157  32.640 -28.416  1.00  0.00     0.015 C 
HETATM   21  C1  UNL     1     -42.021  32.997 -28.957  1.00  0.00     0.013 C 
ENDBRANCH  19  20
ENDBRANCH  14  19
ENDBRANCH  10  11
ENDBRANCH   9  10
ENDBRANCH   8   9
ENDBRANCH   7   8
ENDBRANCH   4   7
ENDBRANCH   3   4
ENDBRANCH   2   3
ENDBRANCH   1   2
BRANCH   1  22
HETATM   22  N4  UNL     1     -41.816  27.388 -16.837  1.00  0.00    -0.227 N 
HETATM   23  C13 UNL     1     -42.044  26.285 -15.983  1.00  0.00     0.667 C 
HETATM   24  N5  UNL     1     -43.177  25.716 -15.863  1.00  0.00    -0.235 N 
HETATM   25  N6  UNL     1     -40.926  25.787 -15.220  1.00  0.00    -0.227 N 
ATOM     26  H52 UNL     1     -43.967  26.068 -16.403  1.00  0.00     0.174 HD
ATOM     27  H51 UNL     1     -43.341  24.920 -15.247  1.00  0.00     0.174 HD
ATOM     28  H6  UNL     1     -40.282  26.422 -14.750  1.00  0.00     0.177 HD
ATOM     29  H4  UNL     1     -41.456  27.245 -17.781  1.00  0.00     0.177 HD
BRANCH  25  30
HETATM   30  C14 UNL     1     -40.755  24.357 -15.147  1.00  0.00     0.138 C 
BRANCH  30  31
HETATM   31  C15 UNL     1     -40.335  23.983 -13.772  1.00  0.00     0.022 C 
BRANCH  31  32
HETATM   32  C16 UNL     1     -40.194  22.556 -13.466  1.00  0.00     0.022 C 
BRANCH  32  33
HETATM   33  C17 UNL     1     -41.266  21.847 -12.768  1.00  0.00     0.133 C 
BRANCH  33  34
HETATM   34  N7  UNL     1     -42.436  22.577 -12.455  1.00  0.00    -0.303 N 
ATOM     35  H7  UNL     1     -42.501  23.418 -11.882  1.00  0.00     0.173 HD
BRANCH  34  36
HETATM   36  S1  UNL     1     -43.762  21.735 -13.258  1.00  0.00     0.312 S 
HETATM   37  O1  UNL     1     -43.279  20.348 -13.536  1.00  0.00    -0.183 OA
HETATM   38  O2  UNL     1     -44.932  21.728 -12.301  1.00  0.00    -0.183 OA
BRANCH  36  39
HETATM   39  N8  UNL     1     -44.112  22.584 -14.695  1.00  0.00    -0.312 N 
ATOM     40  H82 UNL     1     -43.664  23.449 -14.996  1.00  0.00     0.170 HD
ATOM     41  H81 UNL     1     -44.842  22.067 -15.187  1.00  0.00     0.170 HD
ENDBRANCH  36  39
ENDBRANCH  34  36
ENDBRANCH  33  34
ENDBRANCH  32  33
ENDBRANCH  31  32
ENDBRANCH  30  31
ENDBRANCH  25  30
ENDBRANCH   1  22
TORSDOF 18
ENDMDL
