MODEL 1
REMARK VINA RESULT: -7.827575551      0.000      0.000
REMARK  18 active torsions:
REMARK  status: ('A' for Active; 'I' for Inactive)
REMARK    1  A    between atoms: C2_2  and  C3_3 
REMARK    2  A    between atoms: C2_2  and  C14_23 
REMARK    3  A    between atoms: C3_3  and  N1_4 
REMARK    4  A    between atoms: N1_4  and  C6_7 
REMARK    5  A    between atoms: C6_7  and  C7_8 
REMARK    6  A    between atoms: C7_8  and  N2_9 
REMARK       I    between atoms: N2_9  and  C8_11 
REMARK       I    between atoms: C8_11  and  N3_13 
REMARK    7  A    between atoms: N3_13  and  C9_15 
REMARK    8  A    between atoms: C9_15  and  C10_16 
REMARK    9  A    between atoms: C10_16  and  C11_17 
REMARK   10  A    between atoms: C11_17  and  C12_18 
REMARK       I    between atoms: C12_18  and  N4_20 
REMARK       I    between atoms: C14_23  and  N5_25 
REMARK   11  A    between atoms: N5_25  and  C15_26 
REMARK   12  A    between atoms: C15_26  and  C16_27 
REMARK   13  A    between atoms: C16_27  and  C17_28 
REMARK   14  A    between atoms: C17_28  and  N6_29 
REMARK   15  A    between atoms: N6_29  and  C18_31 
REMARK   16  A    between atoms: C18_31  and  C19_35 
REMARK   17  A    between atoms: C19_35  and  C20_36 
REMARK   18  A    between atoms: C19_35  and  C22_38 
ROOT
HETATM    1  C3  UNL     1      29.973   6.562  14.840  1.00  0.00     0.219 C 
ENDROOT
BRANCH   1   2
HETATM    2  C2  UNL     1      29.418   5.224  14.673  1.00  0.00     0.060 C 
HETATM    3  C1  UNL     1      30.211   4.202  14.621  1.00  0.00     0.032 C 
BRANCH   2   4
HETATM    4  C14 UNL     1      27.972   4.875  14.485  1.00  0.00     0.321 C 
HETATM    5  O3  UNL     1      27.308   5.918  14.160  1.00  0.00    -0.251 OA
HETATM    6  N5  UNL     1      27.579   3.628  14.694  1.00  0.00    -0.411 NA
BRANCH   6   7
HETATM    7  C15 UNL     1      27.015   2.337  14.892  1.00  0.00     0.223 C 
BRANCH   7   8
HETATM    8  C16 UNL     1      25.788   2.189  13.965  1.00  0.00     0.053 C 
BRANCH   8   9
HETATM    9  C17 UNL     1      24.567   2.760  14.722  1.00  0.00     0.123 C 
BRANCH   9  10
HETATM   10  N6  UNL     1      24.495   4.148  14.560  1.00  0.00    -0.380 N 
ATOM     11  H6  UNL     1      24.778   4.703  15.367  1.00  0.00     0.160 HD
BRANCH  10  12
HETATM   12  C18 UNL     1      24.081   4.880  13.427  1.00  0.00     0.074 C 
HETATM   13  N7  UNL     1      24.741   5.275  12.495  1.00  0.00    -0.389 N 
ATOM     14  H72 UNL     1      25.754   5.177  12.554  1.00  0.00     0.157 HD
ATOM     15  H71 UNL     1      24.441   5.805  11.676  1.00  0.00     0.157 HD
BRANCH  12  16
HETATM   16  C19 UNL     1      22.557   5.028  13.337  1.00  0.00     0.052 C 
BRANCH  16  17
HETATM   17  C20 UNL     1      21.998   4.419  12.133  1.00  0.00     0.008 C 
HETATM   18  C21 UNL     1      21.956   2.947  11.988  1.00  0.00     0.006 C 
ENDBRANCH  16  17
BRANCH  16  19
HETATM   19  C22 UNL     1      22.340   6.549  13.322  1.00  0.00     0.008 C 
HETATM   20  C23 UNL     1      21.456   6.944  14.473  1.00  0.00     0.006 C 
ENDBRANCH  16  19
ENDBRANCH  12  16
ENDBRANCH  10  12
ENDBRANCH   9  10
ENDBRANCH   8   9
ENDBRANCH   7   8
ENDBRANCH   6   7
ENDBRANCH   2   4
ENDBRANCH   1   2
BRANCH   1  21
HETATM   21  N1  UNL     1      30.272   7.072  16.120  1.00  0.00    -0.049 N 
HETATM   22  C4  UNL     1      30.157   8.541  16.175  1.00  0.00     0.278 C 
HETATM   23  C5  UNL     1      29.628   6.518  17.260  1.00  0.00     0.278 C 
BRANCH  21  24
HETATM   24  C6  UNL     1      31.722   6.773  16.297  1.00  0.00     0.286 C 
BRANCH  24  25
HETATM   25  C7  UNL     1      32.671   7.823  16.000  1.00  0.00     0.093 C 
BRANCH  25  26
HETATM   26  N2  UNL     1      33.719   7.629  15.103  1.00  0.00    -0.321 N 
HETATM   27  C8  UNL     1      33.533   8.065  13.693  1.00  0.00     0.319 C 
HETATM   28  O1  UNL     1      32.439   8.406  13.295  1.00  0.00    -0.247 OA
HETATM   29  N3  UNL     1      34.722   8.045  12.969  1.00  0.00    -0.343 N 
ATOM     30  H3  UNL     1      35.551   7.754  13.489  1.00  0.00     0.164 HD
ATOM     31  H2  UNL     1      34.593   7.198  15.405  1.00  0.00     0.169 HD
BRANCH  29  32
HETATM   32  C9  UNL     1      34.936   8.377  11.603  1.00  0.00     0.125 C 
BRANCH  32  33
HETATM   33  C10 UNL     1      36.111   9.371  11.485  1.00  0.00     0.029 C 
BRANCH  33  34
HETATM   34  C11 UNL     1      36.965   9.004  10.349  1.00  0.00     0.104 C 
BRANCH  34  35
HETATM   35  C12 UNL     1      36.844   9.828   9.135  1.00  0.00     0.217 C 
HETATM   36  O2  UNL     1      35.992   9.496   8.308  1.00  0.00    -0.274 OA
HETATM   37  N4  UNL     1      37.703  10.980   8.956  1.00  0.00    -0.365 N 
HETATM   38  C13 UNL     1      37.538  11.807   7.790  1.00  0.00     0.149 C 
ATOM     39  H4  UNL     1      38.417  11.202   9.649  1.00  0.00     0.161 HD
ENDBRANCH  34  35
ENDBRANCH  33  34
ENDBRANCH  32  33
ENDBRANCH  29  32
ENDBRANCH  25  26
ENDBRANCH  24  25
ENDBRANCH  21  24
ENDBRANCH   1  21
TORSDOF 18
ENDMDL
MODEL 2
REMARK VINA RESULT: -7.618276108      1.822      2.635
REMARK  18 active torsions:
REMARK  status: ('A' for Active; 'I' for Inactive)
REMARK    1  A    between atoms: C2_2  and  C3_3 
REMARK    2  A    between atoms: C2_2  and  C14_23 
REMARK    3  A    between atoms: C3_3  and  N1_4 
REMARK    4  A    between atoms: N1_4  and  C6_7 
REMARK    5  A    between atoms: C6_7  and  C7_8 
REMARK    6  A    between atoms: C7_8  and  N2_9 
REMARK       I    between atoms: N2_9  and  C8_11 
REMARK       I    between atoms: C8_11  and  N3_13 
REMARK    7  A    between atoms: N3_13  and  C9_15 
REMARK    8  A    between atoms: C9_15  and  C10_16 
REMARK    9  A    between atoms: C10_16  and  C11_17 
REMARK   10  A    between atoms: C11_17  and  C12_18 
REMARK       I    between atoms: C12_18  and  N4_20 
REMARK       I    between atoms: C14_23  and  N5_25 
REMARK   11  A    between atoms: N5_25  and  C15_26 
REMARK   12  A    between atoms: C15_26  and  C16_27 
REMARK   13  A    between atoms: C16_27  and  C17_28 
REMARK   14  A    between atoms: C17_28  and  N6_29 
REMARK   15  A    between atoms: N6_29  and  C18_31 
REMARK   16  A    between atoms: C18_31  and  C19_35 
REMARK   17  A    between atoms: C19_35  and  C20_36 
REMARK   18  A    between atoms: C19_35  and  C22_38 
ROOT
HETATM    1  C3  UNL     1      30.776   8.508  16.256  1.00  0.00     0.219 C 
ENDROOT
BRANCH   1   2
HETATM    2  C2  UNL     1      30.061   7.243  16.141  1.00  0.00     0.060 C 
HETATM    3  C1  UNL     1      29.642   6.642  17.209  1.00  0.00     0.032 C 
BRANCH   2   4
HETATM    4  C14 UNL     1      29.790   6.484  14.877  1.00  0.00     0.321 C 
HETATM    5  O3  UNL     1      30.102   7.197  13.861  1.00  0.00    -0.251 OA
HETATM    6  N5  UNL     1      29.270   5.269  14.955  1.00  0.00    -0.411 NA
BRANCH   6   7
HETATM    7  C15 UNL     1      28.705   3.965  14.886  1.00  0.00     0.223 C 
BRANCH   7   8
HETATM    8  C16 UNL     1      27.166   4.091  14.944  1.00  0.00     0.053 C 
BRANCH   8   9
HETATM    9  C17 UNL     1      26.731   4.964  13.746  1.00  0.00     0.123 C 
BRANCH   9  10
HETATM   10  N6  UNL     1      25.803   4.281  12.952  1.00  0.00    -0.380 N 
ATOM     11  H6  UNL     1      26.184   3.543  12.361  1.00  0.00     0.160 HD
BRANCH  10  12
HETATM   12  C18 UNL     1      24.408   4.479  12.863  1.00  0.00     0.074 C 
HETATM   13  N7  UNL     1      23.802   5.425  12.417  1.00  0.00    -0.389 N 
ATOM     14  H72 UNL     1      24.337   6.255  12.161  1.00  0.00     0.157 HD
ATOM     15  H71 UNL     1      22.794   5.568  12.353  1.00  0.00     0.157 HD
BRANCH  12  16
HETATM   16  C19 UNL     1      23.604   3.232  13.248  1.00  0.00     0.052 C 
BRANCH  16  17
HETATM   17  C20 UNL     1      22.289   3.186  12.613  1.00  0.00     0.008 C 
HETATM   18  C21 UNL     1      21.923   2.055  11.732  1.00  0.00     0.006 C 
ENDBRANCH  16  17
BRANCH  16  19
HETATM   19  C22 UNL     1      23.460   3.349  14.774  1.00  0.00     0.008 C 
HETATM   20  C23 UNL     1      23.945   2.084  15.425  1.00  0.00     0.006 C 
ENDBRANCH  16  19
ENDBRANCH  12  16
ENDBRANCH  10  12
ENDBRANCH   9  10
ENDBRANCH   8   9
ENDBRANCH   7   8
ENDBRANCH   6   7
ENDBRANCH   2   4
ENDBRANCH   1   2
BRANCH   1  21
HETATM   21  N1  UNL     1      32.184   8.546  16.320  1.00  0.00    -0.049 N 
HETATM   22  C4  UNL     1      32.669   9.345  17.461  1.00  0.00     0.278 C 
HETATM   23  C5  UNL     1      32.918   7.329  16.269  1.00  0.00     0.278 C 
BRANCH  21  24
HETATM   24  C6  UNL     1      32.580   9.303  15.098  1.00  0.00     0.286 C 
BRANCH  24  25
HETATM   25  C7  UNL     1      33.161   8.561  14.001  1.00  0.00     0.093 C 
BRANCH  25  26
HETATM   26  N2  UNL     1      34.315   8.999  13.354  1.00  0.00    -0.321 N 
HETATM   27  C8  UNL     1      34.766   8.264  12.142  1.00  0.00     0.319 C 
HETATM   28  O1  UNL     1      34.254   7.209  11.836  1.00  0.00    -0.247 OA
HETATM   29  N3  UNL     1      35.772   8.940  11.455  1.00  0.00    -0.343 N 
ATOM     30  H3  UNL     1      36.054   9.836  11.853  1.00  0.00     0.164 HD
ATOM     31  H2  UNL     1      34.837   9.803  13.702  1.00  0.00     0.169 HD
BRANCH  29  32
HETATM   32  C9  UNL     1      36.457   8.548  10.272  1.00  0.00     0.125 C 
BRANCH  32  33
HETATM   33  C10 UNL     1      35.990   9.417   9.086  1.00  0.00     0.029 C 
BRANCH  33  34
HETATM   34  C11 UNL     1      36.782  10.651   9.025  1.00  0.00     0.104 C 
BRANCH  34  35
HETATM   35  C12 UNL     1      37.697  10.798   7.881  1.00  0.00     0.217 C 
HETATM   36  O2  UNL     1      37.771  11.910   7.354  1.00  0.00    -0.274 OA
HETATM   37  N4  UNL     1      38.468   9.661   7.425  1.00  0.00    -0.365 N 
HETATM   38  C13 UNL     1      39.398   9.830   6.340  1.00  0.00     0.149 C 
ATOM     39  H4  UNL     1      38.353   8.749   7.868  1.00  0.00     0.161 HD
ENDBRANCH  34  35
ENDBRANCH  33  34
ENDBRANCH  32  33
ENDBRANCH  29  32
ENDBRANCH  25  26
ENDBRANCH  24  25
ENDBRANCH  21  24
ENDBRANCH   1  21
TORSDOF 18
ENDMDL
MODEL 3
REMARK VINA RESULT: -7.513894026      2.377      3.049
REMARK  18 active torsions:
REMARK  status: ('A' for Active; 'I' for Inactive)
REMARK    1  A    between atoms: C2_2  and  C3_3 
REMARK    2  A    between atoms: C2_2  and  C14_23 
REMARK    3  A    between atoms: C3_3  and  N1_4 
REMARK    4  A    between atoms: N1_4  and  C6_7 
REMARK    5  A    between atoms: C6_7  and  C7_8 
REMARK    6  A    between atoms: C7_8  and  N2_9 
REMARK       I    between atoms: N2_9  and  C8_11 
REMARK       I    between atoms: C8_11  and  N3_13 
REMARK    7  A    between atoms: N3_13  and  C9_15 
REMARK    8  A    between atoms: C9_15  and  C10_16 
REMARK    9  A    between atoms: C10_16  and  C11_17 
REMARK   10  A    between atoms: C11_17  and  C12_18 
REMARK       I    between atoms: C12_18  and  N4_20 
REMARK       I    between atoms: C14_23  and  N5_25 
REMARK   11  A    between atoms: N5_25  and  C15_26 
REMARK   12  A    between atoms: C15_26  and  C16_27 
REMARK   13  A    between atoms: C16_27  and  C17_28 
REMARK   14  A    between atoms: C17_28  and  N6_29 
REMARK   15  A    between atoms: N6_29  and  C18_31 
REMARK   16  A    between atoms: C18_31  and  C19_35 
REMARK   17  A    between atoms: C19_35  and  C20_36 
REMARK   18  A    between atoms: C19_35  and  C22_38 
ROOT
HETATM    1  C3  UNL     1      29.007   3.805  14.227  1.00  0.00     0.219 C 
ENDROOT
BRANCH   1   2
HETATM    2  C2  UNL     1      27.685   3.220  14.412  1.00  0.00     0.060 C 
HETATM    3  C1  UNL     1      27.502   2.321  15.326  1.00  0.00     0.032 C 
BRANCH   2   4
HETATM    4  C14 UNL     1      26.462   3.503  13.592  1.00  0.00     0.321 C 
HETATM    5  O3  UNL     1      26.607   4.602  12.953  1.00  0.00    -0.251 OA
HETATM    6  N5  UNL     1      25.442   2.662  13.646  1.00  0.00    -0.411 NA
BRANCH   6   7
HETATM    7  C15 UNL     1      24.270   1.855  13.615  1.00  0.00     0.223 C 
BRANCH   7   8
HETATM    8  C16 UNL     1      23.478   2.086  14.921  1.00  0.00     0.053 C 
BRANCH   8   9
HETATM    9  C17 UNL     1      23.176   3.599  15.014  1.00  0.00     0.123 C 
BRANCH   9  10
HETATM   10  N6  UNL     1      22.525   4.042  13.858  1.00  0.00    -0.380 N 
ATOM     11  H6  UNL     1      21.736   3.475  13.549  1.00  0.00     0.160 HD
BRANCH  10  12
HETATM   12  C18 UNL     1      22.816   5.172  13.064  1.00  0.00     0.074 C 
HETATM   13  N7  UNL     1      23.805   5.405  12.408  1.00  0.00    -0.389 N 
ATOM     14  H72 UNL     1      24.599   4.773  12.504  1.00  0.00     0.157 HD
ATOM     15  H71 UNL     1      24.015   6.221  11.834  1.00  0.00     0.157 HD
BRANCH  12  16
HETATM   16  C19 UNL     1      21.622   6.122  12.919  1.00  0.00     0.052 C 
BRANCH  16  17
HETATM   17  C20 UNL     1      21.811   7.382  13.634  1.00  0.00     0.008 C 
HETATM   18  C21 UNL     1      21.386   7.513  15.046  1.00  0.00     0.006 C 
ENDBRANCH  16  17
BRANCH  16  19
HETATM   19  C22 UNL     1      20.452   5.330  13.524  1.00  0.00     0.008 C 
HETATM   20  C23 UNL     1      19.214   5.554  12.702  1.00  0.00     0.006 C 
ENDBRANCH  16  19
ENDBRANCH  12  16
ENDBRANCH  10  12
ENDBRANCH   9  10
ENDBRANCH   8   9
ENDBRANCH   7   8
ENDBRANCH   6   7
ENDBRANCH   2   4
ENDBRANCH   1   2
BRANCH   1  21
HETATM   21  N1  UNL     1      29.421   4.923  14.978  1.00  0.00    -0.049 N 
HETATM   22  C4  UNL     1      29.132   6.195  14.290  1.00  0.00     0.278 C 
HETATM   23  C5  UNL     1      29.021   5.037  16.338  1.00  0.00     0.278 C 
BRANCH  21  24
HETATM   24  C6  UNL     1      30.907   4.808  15.008  1.00  0.00     0.286 C 
BRANCH  24  25
HETATM   25  C7  UNL     1      31.678   6.024  15.141  1.00  0.00     0.093 C 
BRANCH  25  26
HETATM   26  N2  UNL     1      32.861   6.221  14.431  1.00  0.00    -0.321 N 
HETATM   27  C8  UNL     1      32.943   7.381  13.504  1.00  0.00     0.319 C 
HETATM   28  O1  UNL     1      31.951   8.025  13.235  1.00  0.00    -0.247 OA
HETATM   29  N3  UNL     1      34.241   7.608  13.052  1.00  0.00    -0.343 N 
ATOM     30  H3  UNL     1      34.953   6.974  13.415  1.00  0.00     0.164 HD
ATOM     31  H2  UNL     1      33.651   5.585  14.544  1.00  0.00     0.169 HD
BRANCH  29  32
HETATM   32  C9  UNL     1      34.705   8.607  12.152  1.00  0.00     0.125 C 
BRANCH  32  33
HETATM   33  C10 UNL     1      34.860   9.949  12.896  1.00  0.00     0.029 C 
BRANCH  33  34
HETATM   34  C11 UNL     1      35.855   9.817  13.966  1.00  0.00     0.104 C 
BRANCH  34  35
HETATM   35  C12 UNL     1      37.233  10.230  13.647  1.00  0.00     0.217 C 
HETATM   36  O2  UNL     1      37.410  10.839  12.590  1.00  0.00    -0.274 OA
HETATM   37  N4  UNL     1      38.309   9.921  14.564  1.00  0.00    -0.365 N 
HETATM   38  C13 UNL     1      39.641  10.375  14.266  1.00  0.00     0.149 C 
ATOM     39  H4  UNL     1      38.125   9.386  15.413  1.00  0.00     0.161 HD
ENDBRANCH  34  35
ENDBRANCH  33  34
ENDBRANCH  32  33
ENDBRANCH  29  32
ENDBRANCH  25  26
ENDBRANCH  24  25
ENDBRANCH  21  24
ENDBRANCH   1  21
TORSDOF 18
ENDMDL
MODEL 4
REMARK VINA RESULT: -7.509659664      2.381      3.239
REMARK  18 active torsions:
REMARK  status: ('A' for Active; 'I' for Inactive)
REMARK    1  A    between atoms: C2_2  and  C3_3 
REMARK    2  A    between atoms: C2_2  and  C14_23 
REMARK    3  A    between atoms: C3_3  and  N1_4 
REMARK    4  A    between atoms: N1_4  and  C6_7 
REMARK    5  A    between atoms: C6_7  and  C7_8 
REMARK    6  A    between atoms: C7_8  and  N2_9 
REMARK       I    between atoms: N2_9  and  C8_11 
REMARK       I    between atoms: C8_11  and  N3_13 
REMARK    7  A    between atoms: N3_13  and  C9_15 
REMARK    8  A    between atoms: C9_15  and  C10_16 
REMARK    9  A    between atoms: C10_16  and  C11_17 
REMARK   10  A    between atoms: C11_17  and  C12_18 
REMARK       I    between atoms: C12_18  and  N4_20 
REMARK       I    between atoms: C14_23  and  N5_25 
REMARK   11  A    between atoms: N5_25  and  C15_26 
REMARK   12  A    between atoms: C15_26  and  C16_27 
REMARK   13  A    between atoms: C16_27  and  C17_28 
REMARK   14  A    between atoms: C17_28  and  N6_29 
REMARK   15  A    between atoms: N6_29  and  C18_31 
REMARK   16  A    between atoms: C18_31  and  C19_35 
REMARK   17  A    between atoms: C19_35  and  C20_36 
REMARK   18  A    between atoms: C19_35  and  C22_38 
ROOT
HETATM    1  C3  UNL     1      30.546   5.599  14.614  1.00  0.00     0.219 C 
ENDROOT
BRANCH   1   2
HETATM    2  C2  UNL     1      29.319   4.854  14.870  1.00  0.00     0.060 C 
HETATM    3  C1  UNL     1      29.292   3.965  15.811  1.00  0.00     0.032 C 
BRANCH   2   4
HETATM    4  C14 UNL     1      28.038   4.954  14.098  1.00  0.00     0.321 C 
HETATM    5  O3  UNL     1      27.774   6.179  13.841  1.00  0.00    -0.251 OA
HETATM    6  N5  UNL     1      27.365   3.848  13.821  1.00  0.00    -0.411 NA
BRANCH   6   7
HETATM    7  C15 UNL     1      26.536   2.748  13.463  1.00  0.00     0.223 C 
BRANCH   7   8
HETATM    8  C16 UNL     1      25.866   2.200  14.743  1.00  0.00     0.053 C 
BRANCH   8   9
HETATM    9  C17 UNL     1      24.954   3.317  15.299  1.00  0.00     0.123 C 
BRANCH   9  10
HETATM   10  N6  UNL     1      24.445   4.100  14.258  1.00  0.00    -0.380 N 
ATOM     11  H6  UNL     1      25.139   4.589  13.692  1.00  0.00     0.160 HD
BRANCH  10  12
HETATM   12  C18 UNL     1      23.099   4.303  13.888  1.00  0.00     0.074 C 
HETATM   13  N7  UNL     1      22.322   5.143  14.277  1.00  0.00    -0.389 N 
ATOM     14  H72 UNL     1      22.611   5.735  15.055  1.00  0.00     0.157 HD
ATOM     15  H71 UNL     1      21.349   5.290  14.009  1.00  0.00     0.157 HD
BRANCH  12  16
HETATM   16  C19 UNL     1      22.663   3.414  12.717  1.00  0.00     0.052 C 
BRANCH  16  17
HETATM   17  C20 UNL     1      21.720   4.078  11.821  1.00  0.00     0.008 C 
HETATM   18  C21 UNL     1      20.892   3.286  10.884  1.00  0.00     0.006 C 
ENDBRANCH  16  17
BRANCH  16  19
HETATM   19  C22 UNL     1      21.997   2.211  13.403  1.00  0.00     0.008 C 
HETATM   20  C23 UNL     1      22.815   0.974  13.158  1.00  0.00     0.006 C 
ENDBRANCH  16  19
ENDBRANCH  12  16
ENDBRANCH  10  12
ENDBRANCH   9  10
ENDBRANCH   8   9
ENDBRANCH   7   8
ENDBRANCH   6   7
ENDBRANCH   2   4
ENDBRANCH   1   2
BRANCH   1  21
HETATM   21  N1  UNL     1      30.968   6.627  15.481  1.00  0.00    -0.049 N 
HETATM   22  C4  UNL     1      29.838   7.257  16.189  1.00  0.00     0.278 C 
HETATM   23  C5  UNL     1      32.007   6.368  16.416  1.00  0.00     0.278 C 
BRANCH  21  24
HETATM   24  C6  UNL     1      31.505   7.674  14.565  1.00  0.00     0.286 C 
BRANCH  24  25
HETATM   25  C7  UNL     1      32.745   7.397  13.875  1.00  0.00     0.093 C 
BRANCH  25  26
HETATM   26  N2  UNL     1      33.765   8.344  13.797  1.00  0.00    -0.321 N 
HETATM   27  C8  UNL     1      34.564   8.420  12.545  1.00  0.00     0.319 C 
HETATM   28  O1  UNL     1      34.455   7.565  11.693  1.00  0.00    -0.247 OA
HETATM   29  N3  UNL     1      35.372   9.554  12.500  1.00  0.00    -0.343 N 
ATOM     30  H3  UNL     1      35.305  10.177  13.304  1.00  0.00     0.164 HD
ATOM     31  H2  UNL     1      33.959   8.969  14.580  1.00  0.00     0.169 HD
BRANCH  29  32
HETATM   32  C9  UNL     1      36.278   9.957  11.481  1.00  0.00     0.125 C 
BRANCH  32  33
HETATM   33  C10 UNL     1      37.677  10.193  12.089  1.00  0.00     0.029 C 
BRANCH  33  34
HETATM   34  C11 UNL     1      37.566  10.391  13.539  1.00  0.00     0.104 C 
BRANCH  34  35
HETATM   35  C12 UNL     1      38.767  10.104  14.341  1.00  0.00     0.217 C 
HETATM   36  O2  UNL     1      39.813   9.874  13.731  1.00  0.00    -0.274 OA
HETATM   37  N4  UNL     1      38.686  10.106  15.786  1.00  0.00    -0.365 N 
HETATM   38  C13 UNL     1      39.878   9.877  16.559  1.00  0.00     0.149 C 
ATOM     39  H4  UNL     1      37.793  10.269  16.252  1.00  0.00     0.161 HD
ENDBRANCH  34  35
ENDBRANCH  33  34
ENDBRANCH  32  33
ENDBRANCH  29  32
ENDBRANCH  25  26
ENDBRANCH  24  25
ENDBRANCH  21  24
ENDBRANCH   1  21
TORSDOF 18
ENDMDL
MODEL 5
REMARK VINA RESULT: -7.488426523      1.420      1.674
REMARK  18 active torsions:
REMARK  status: ('A' for Active; 'I' for Inactive)
REMARK    1  A    between atoms: C2_2  and  C3_3 
REMARK    2  A    between atoms: C2_2  and  C14_23 
REMARK    3  A    between atoms: C3_3  and  N1_4 
REMARK    4  A    between atoms: N1_4  and  C6_7 
REMARK    5  A    between atoms: C6_7  and  C7_8 
REMARK    6  A    between atoms: C7_8  and  N2_9 
REMARK       I    between atoms: N2_9  and  C8_11 
REMARK       I    between atoms: C8_11  and  N3_13 
REMARK    7  A    between atoms: N3_13  and  C9_15 
REMARK    8  A    between atoms: C9_15  and  C10_16 
REMARK    9  A    between atoms: C10_16  and  C11_17 
REMARK   10  A    between atoms: C11_17  and  C12_18 
REMARK       I    between atoms: C12_18  and  N4_20 
REMARK       I    between atoms: C14_23  and  N5_25 
REMARK   11  A    between atoms: N5_25  and  C15_26 
REMARK   12  A    between atoms: C15_26  and  C16_27 
REMARK   13  A    between atoms: C16_27  and  C17_28 
REMARK   14  A    between atoms: C17_28  and  N6_29 
REMARK   15  A    between atoms: N6_29  and  C18_31 
REMARK   16  A    between atoms: C18_31  and  C19_35 
REMARK   17  A    between atoms: C19_35  and  C20_36 
REMARK   18  A    between atoms: C19_35  and  C22_38 
ROOT
HETATM    1  C3  UNL     1      28.976   5.501  14.354  1.00  0.00     0.219 C 
ENDROOT
BRANCH   1   2
HETATM    2  C2  UNL     1      28.121   4.336  14.546  1.00  0.00     0.060 C 
HETATM    3  C1  UNL     1      28.652   3.186  14.814  1.00  0.00     0.032 C 
BRANCH   2   4
HETATM    4  C14 UNL     1      26.629   4.293  14.405  1.00  0.00     0.321 C 
HETATM    5  O3  UNL     1      26.196   5.416  13.971  1.00  0.00    -0.251 OA
HETATM    6  N5  UNL     1      25.982   3.191  14.751  1.00  0.00    -0.411 NA
BRANCH   6   7
HETATM    7  C15 UNL     1      25.158   2.082  15.092  1.00  0.00     0.223 C 
BRANCH   7   8
HETATM    8  C16 UNL     1      23.863   2.154  14.253  1.00  0.00     0.053 C 
BRANCH   8   9
HETATM    9  C17 UNL     1      22.937   3.194  14.924  1.00  0.00     0.123 C 
BRANCH   9  10
HETATM   10  N6  UNL     1      23.167   4.469  14.397  1.00  0.00    -0.380 N 
ATOM     11  H6  UNL     1      23.628   5.131  15.022  1.00  0.00     0.160 HD
BRANCH  10  12
HETATM   12  C18 UNL     1      22.845   4.961  13.114  1.00  0.00     0.074 C 
HETATM   13  N7  UNL     1      23.549   5.548  12.327  1.00  0.00    -0.389 N 
ATOM     14  H72 UNL     1      24.475   5.839  12.641  1.00  0.00     0.157 HD
ATOM     15  H71 UNL     1      23.317   5.904  11.399  1.00  0.00     0.157 HD
BRANCH  12  16
HETATM   16  C19 UNL     1      21.454   4.524  12.641  1.00  0.00     0.052 C 
BRANCH  16  17
HETATM   17  C20 UNL     1      21.483   3.836  11.352  1.00  0.00     0.008 C 
HETATM   18  C21 UNL     1      21.396   2.360  11.290  1.00  0.00     0.006 C 
ENDBRANCH  16  17
BRANCH  16  19
HETATM   19  C22 UNL     1      20.677   5.846  12.527  1.00  0.00     0.008 C 
HETATM   20  C23 UNL     1      19.203   5.576  12.648  1.00  0.00     0.006 C 
ENDBRANCH  16  19
ENDBRANCH  12  16
ENDBRANCH  10  12
ENDBRANCH   9  10
ENDBRANCH   8   9
ENDBRANCH   7   8
ENDBRANCH   6   7
ENDBRANCH   2   4
ENDBRANCH   1   2
BRANCH   1  21
HETATM   21  N1  UNL     1      29.918   5.882  15.332  1.00  0.00    -0.049 N 
HETATM   22  C4  UNL     1      29.285   6.553  16.483  1.00  0.00     0.278 C 
HETATM   23  C5  UNL     1      30.848   4.923  15.815  1.00  0.00     0.278 C 
BRANCH  21  24
HETATM   24  C6  UNL     1      30.737   6.928  14.654  1.00  0.00     0.286 C 
BRANCH  24  25
HETATM   25  C7  UNL     1      32.165   6.923  14.884  1.00  0.00     0.093 C 
BRANCH  25  26
HETATM   26  N2  UNL     1      33.074   6.852  13.830  1.00  0.00    -0.321 N 
HETATM   27  C8  UNL     1      33.659   8.119  13.315  1.00  0.00     0.319 C 
HETATM   28  O1  UNL     1      33.219   9.191  13.676  1.00  0.00    -0.247 OA
HETATM   29  N3  UNL     1      34.723   7.898  12.445  1.00  0.00    -0.343 N 
ATOM     30  H3  UNL     1      34.968   6.921  12.286  1.00  0.00     0.164 HD
ATOM     31  H2  UNL     1      33.332   5.954  13.421  1.00  0.00     0.169 HD
BRANCH  29  32
HETATM   32  C9  UNL     1      35.515   8.853  11.750  1.00  0.00     0.125 C 
BRANCH  32  33
HETATM   33  C10 UNL     1      36.027   8.244  10.428  1.00  0.00     0.029 C 
BRANCH  33  34
HETATM   34  C11 UNL     1      36.063   9.272   9.382  1.00  0.00     0.104 C 
BRANCH  34  35
HETATM   35  C12 UNL     1      37.386   9.813   9.028  1.00  0.00     0.217 C 
HETATM   36  O2  UNL     1      38.117  10.172   9.954  1.00  0.00    -0.274 OA
HETATM   37  N4  UNL     1      37.782   9.899   7.639  1.00  0.00    -0.365 N 
HETATM   38  C13 UNL     1      39.098  10.380   7.309  1.00  0.00     0.149 C 
ATOM     39  H4  UNL     1      37.135   9.622   6.901  1.00  0.00     0.161 HD
ENDBRANCH  34  35
ENDBRANCH  33  34
ENDBRANCH  32  33
ENDBRANCH  29  32
ENDBRANCH  25  26
ENDBRANCH  24  25
ENDBRANCH  21  24
ENDBRANCH   1  21
TORSDOF 18
ENDMDL
