MODEL 1
REMARK VINA RESULT: -8.250279639      0.000      0.000
REMARK  20 active torsions:
REMARK  status: ('A' for Active; 'I' for Inactive)
REMARK    1  A    between atoms: O1_2  and  C2_3 
REMARK    2  A    between atoms: C2_3  and  C3_4 
REMARK    3  A    between atoms: C3_4  and  O2_5 
REMARK    4  A    between atoms: C3_4  and  C6_9 
REMARK    5  A    between atoms: O2_5  and  C4_6 
REMARK    6  A    between atoms: C6_9  and  O4_10 
REMARK    7  A    between atoms: C6_9  and  C7_12 
REMARK    8  A    between atoms: C7_12  and  C8_13 
REMARK    9  A    between atoms: C7_12  and  C11_19 
REMARK   10  A    between atoms: C8_13  and  O6_15 
REMARK   11  A    between atoms: O6_15  and  C9_16 
REMARK   12  A    between atoms: C11_19  and  O8_20 
REMARK   13  A    between atoms: C11_19  and  C12_22 
REMARK   14  A    between atoms: C13_24  and  N1_25 
REMARK   15  A    between atoms: N1_25  and  C14_27 
REMARK   16  A    between atoms: C14_27  and  O10_28 
REMARK   17  A    between atoms: C14_27  and  C15_30 
REMARK   18  A    between atoms: C16_31  and  N2_32 
REMARK   19  A    between atoms: N2_32  and  C17_34 
REMARK   20  A    between atoms: C24_50  and  O14_51 
ROOT
HETATM    1  N1  UNL     1      17.639  -2.566  -1.172  1.00  0.00    -0.343 N 
ATOM      2  H1  UNL     1      16.828  -2.689  -1.778  1.00  0.00     0.164 HD
ENDROOT
BRANCH   1   3
HETATM    3  C13 UNL     1      18.395  -3.725  -0.811  1.00  0.00     0.233 C 
HETATM    4  O9  UNL     1      18.356  -4.783  -1.712  1.00  0.00    -0.348 OA
HETATM    5  C12 UNL     1      17.181  -5.473  -1.710  1.00  0.00     0.215 C 
HETATM    6  S1  UNL     1      16.370  -5.020  -0.163  1.00  0.00    -0.130 SA
HETATM    7  C26 UNL     1      17.960  -4.271   0.518  1.00  0.00     0.130 C 
BRANCH   5   8
HETATM    8  C11 UNL     1      16.412  -5.491  -2.931  1.00  0.00     0.173 C 
BRANCH   8   9
HETATM    9  C7  UNL     1      16.371  -6.909  -3.582  1.00  0.00     0.149 C 
BRANCH   9  10
HETATM   10  C6  UNL     1      16.605  -6.746  -5.082  1.00  0.00     0.166 C 
BRANCH  10  11
HETATM   11  C3  UNL     1      17.937  -6.157  -5.438  1.00  0.00     0.185 C 
BRANCH  11  12
HETATM   12  C2  UNL     1      19.150  -7.011  -5.193  1.00  0.00     0.202 C 
BRANCH  12  13
HETATM   13  O1  UNL     1      20.183  -6.099  -4.790  1.00  0.00    -0.393 OA
HETATM   14  C1  UNL     1      21.166  -6.076  -5.790  1.00  0.00     0.201 C 
ENDBRANCH  12  13
ENDBRANCH  11  12
BRANCH  11  15
HETATM   15  O2  UNL     1      17.859  -5.972  -6.900  1.00  0.00    -0.311 OA
BRANCH  15  16
HETATM   16  C4  UNL     1      18.023  -4.682  -7.400  1.00  0.00     0.255 C 
HETATM   17  C5  UNL     1      18.190  -4.521  -8.859  1.00  0.00     0.126 C 
HETATM   18  O3  UNL     1      18.016  -3.721  -6.603  1.00  0.00    -0.266 OA
ENDBRANCH  15  16
ENDBRANCH  11  15
ENDBRANCH  10  11
BRANCH  10  19
HETATM   19  O4  UNL     1      15.654  -5.709  -5.468  1.00  0.00    -0.392 OA
ATOM     20  H4  UNL     1      14.807  -6.117  -5.326  1.00  0.00     0.210 HD
ENDBRANCH  10  19
ENDBRANCH   9  10
BRANCH   9  21
HETATM   21  C8  UNL     1      15.068  -7.535  -3.355  1.00  0.00     0.275 C 
HETATM   22  O5  UNL     1      14.653  -7.962  -2.219  1.00  0.00    -0.264 OA
BRANCH  21  23
HETATM   23  O6  UNL     1      14.145  -7.723  -4.399  1.00  0.00    -0.245 OA
BRANCH  23  24
HETATM   24  C9  UNL     1      12.873  -7.150  -4.322  1.00  0.00     0.262 C 
HETATM   25  C10 UNL     1      11.697  -8.017  -4.213  1.00  0.00     0.126 C 
HETATM   26  O7  UNL     1      12.737  -5.900  -4.348  1.00  0.00    -0.265 OA
ENDBRANCH  23  24
ENDBRANCH  21  23
ENDBRANCH   9  21
ENDBRANCH   8   9
BRANCH   8  27
HETATM   27  O8  UNL     1      15.100  -5.065  -2.892  1.00  0.00    -0.391 OA
ATOM     28  H8  UNL     1      14.745  -5.410  -2.081  1.00  0.00     0.210 HD
ENDBRANCH   8  27
ENDBRANCH   5   8
ENDBRANCH   1   3
BRANCH   1  29
HETATM   29  C14 UNL     1      17.949  -1.275  -0.741  1.00  0.00     0.153 C 
BRANCH  29  30
HETATM   30  O10 UNL     1      19.129  -1.273  -0.163  1.00  0.00    -0.345 OA
ATOM     31  H10 UNL     1      19.033  -1.070   0.760  1.00  0.00     0.219 HD
ENDBRANCH  29  30
BRANCH  29  32
HETATM   32  C15 UNL     1      17.232  -0.124  -0.821  1.00  0.00     0.082 A 
HETATM   33  C16 UNL     1      17.213   1.229  -0.532  1.00  0.00     0.115 A 
HETATM   34  C21 UNL     1      15.968   2.134  -0.672  1.00  0.00     0.214 A 
HETATM   35  O12 UNL     1      15.652   3.344  -0.504  1.00  0.00    -0.287 OA
HETATM   36  C22 UNL     1      14.832   1.425  -1.112  1.00  0.00     0.281 A 
HETATM   37  O13 UNL     1      15.454   0.566  -1.130  1.00  0.00    -0.326 OA
HETATM   38  C25 UNL     1      13.771   0.332  -1.616  1.00  0.00     0.222 A 
HETATM   39  C23 UNL     1      15.821  -0.517  -1.258  1.00  0.00     0.124 A 
HETATM   40  C24 UNL     1      14.619  -0.892  -1.637  1.00  0.00     0.149 A 
HETATM   41  O15 UNL     1      12.795   1.009  -1.757  1.00  0.00    -0.287 OA
BRANCH  33  42
HETATM   42  N2  UNL     1      18.368   1.703   0.090  1.00  0.00    -0.187 N 
ATOM     43  H2  UNL     1      18.533   1.478   1.070  1.00  0.00     0.184 HD
BRANCH  42  44
HETATM   44  C17 UNL     1      19.314   2.486  -0.602  1.00  0.00     0.679 C 
HETATM   45  N3  UNL     1      18.845   3.615  -1.041  1.00  0.00    -0.217 N 
HETATM   46  C18 UNL     1      19.326   4.732  -1.767  1.00  0.00     0.241 C 
ATOM     47  H3  UNL     1      17.861   3.728  -0.797  1.00  0.00     0.178 HD
HETATM   48  C19 UNL     1      20.519   4.473  -2.609  1.00  0.00     0.240 C 
HETATM   49  O11 UNL     1      20.551   5.059  -3.716  1.00  0.00    -0.271 OA
HETATM   50  N4  UNL     1      21.638   3.654  -2.346  1.00  0.00    -0.321 N 
HETATM   51  C20 UNL     1      21.685   2.617  -1.564  1.00  0.00     0.200 C 
ATOM     52  H4  UNL     1      22.505   3.904  -2.822  1.00  0.00     0.169 HD
HETATM   53  N5  UNL     1      20.639   2.036  -0.773  1.00  0.00    -0.188 N 
ATOM     54  H5  UNL     1      20.886   1.185  -0.268  1.00  0.00     0.185 HD
ENDBRANCH  42  44
ENDBRANCH  33  42
BRANCH  40  55
HETATM   55  O14 UNL     1      14.607  -2.212  -1.894  1.00  0.00    -0.355 OA
ATOM     56  H14 UNL     1      13.714  -2.515  -2.007  1.00  0.00     0.218 HD
ENDBRANCH  40  55
ENDBRANCH  29  32
ENDBRANCH   1  29
TORSDOF 20
ENDMDL
MODEL 2
REMARK VINA RESULT: -8.178543543      1.532      2.096
REMARK  20 active torsions:
REMARK  status: ('A' for Active; 'I' for Inactive)
REMARK    1  A    between atoms: O1_2  and  C2_3 
REMARK    2  A    between atoms: C2_3  and  C3_4 
REMARK    3  A    between atoms: C3_4  and  O2_5 
REMARK    4  A    between atoms: C3_4  and  C6_9 
REMARK    5  A    between atoms: O2_5  and  C4_6 
REMARK    6  A    between atoms: C6_9  and  O4_10 
REMARK    7  A    between atoms: C6_9  and  C7_12 
REMARK    8  A    between atoms: C7_12  and  C8_13 
REMARK    9  A    between atoms: C7_12  and  C11_19 
REMARK   10  A    between atoms: C8_13  and  O6_15 
REMARK   11  A    between atoms: O6_15  and  C9_16 
REMARK   12  A    between atoms: C11_19  and  O8_20 
REMARK   13  A    between atoms: C11_19  and  C12_22 
REMARK   14  A    between atoms: C13_24  and  N1_25 
REMARK   15  A    between atoms: N1_25  and  C14_27 
REMARK   16  A    between atoms: C14_27  and  O10_28 
REMARK   17  A    between atoms: C14_27  and  C15_30 
REMARK   18  A    between atoms: C16_31  and  N2_32 
REMARK   19  A    between atoms: N2_32  and  C17_34 
REMARK   20  A    between atoms: C24_50  and  O14_51 
ROOT
HETATM    1  N1  UNL     1      17.589  -2.683  -0.637  1.00  0.00    -0.343 N 
ATOM      2  H1  UNL     1      17.399  -2.961  -1.600  1.00  0.00     0.164 HD
ENDROOT
BRANCH   1   3
HETATM    3  C13 UNL     1      17.554  -3.692   0.376  1.00  0.00     0.233 C 
HETATM    4  O9  UNL     1      17.508  -5.007  -0.074  1.00  0.00    -0.348 OA
HETATM    5  C12 UNL     1      16.297  -5.381  -0.576  1.00  0.00     0.215 C 
HETATM    6  S1  UNL     1      15.130  -4.149   0.039  1.00  0.00    -0.130 SA
HETATM    7  C26 UNL     1      16.381  -3.507   1.295  1.00  0.00     0.130 C 
BRANCH   5   8
HETATM    8  C11 UNL     1      16.239  -5.778  -1.961  1.00  0.00     0.173 C 
BRANCH   8   9
HETATM    9  C7  UNL     1      15.612  -7.197  -2.144  1.00  0.00     0.149 C 
BRANCH   9  10
HETATM   10  C6  UNL     1      16.429  -7.940  -3.198  1.00  0.00     0.166 C 
BRANCH  10  11
HETATM   11  C3  UNL     1      17.911  -7.902  -2.971  1.00  0.00     0.185 C 
BRANCH  11  12
HETATM   12  C2  UNL     1      18.627  -9.223  -2.912  1.00  0.00     0.202 C 
BRANCH  12  13
HETATM   13  O1  UNL     1      17.636 -10.209  -3.243  1.00  0.00    -0.393 OA
HETATM   14  C1  UNL     1      17.794 -11.301  -2.378  1.00  0.00     0.201 C 
ENDBRANCH  12  13
ENDBRANCH  11  12
BRANCH  11  15
HETATM   15  O2  UNL     1      18.430  -7.211  -4.166  1.00  0.00    -0.311 OA
BRANCH  15  16
HETATM   16  C4  UNL     1      19.498  -6.333  -3.994  1.00  0.00     0.255 C 
HETATM   17  C5  UNL     1      20.457  -6.182  -5.108  1.00  0.00     0.126 C 
HETATM   18  O3  UNL     1      19.597  -5.708  -2.918  1.00  0.00    -0.266 OA
ENDBRANCH  15  16
ENDBRANCH  11  15
ENDBRANCH  10  11
BRANCH  10  19
HETATM   19  O4  UNL     1      16.243  -7.142  -4.404  1.00  0.00    -0.392 OA
ATOM     20  H4  UNL     1      15.623  -6.472  -4.138  1.00  0.00     0.210 HD
ENDBRANCH  10  19
ENDBRANCH   9  10
BRANCH   9  21
HETATM   21  C8  UNL     1      14.223  -7.085  -2.589  1.00  0.00     0.275 C 
HETATM   22  O5  UNL     1      13.353  -6.297  -2.071  1.00  0.00    -0.264 OA
BRANCH  21  23
HETATM   23  O6  UNL     1      13.721  -7.858  -3.650  1.00  0.00    -0.245 OA
BRANCH  23  24
HETATM   24  C9  UNL     1      12.939  -7.264  -4.643  1.00  0.00     0.262 C 
HETATM   25  C10 UNL     1      11.508  -7.571  -4.715  1.00  0.00     0.126 C 
HETATM   26  O7  UNL     1      13.458  -6.472  -5.471  1.00  0.00    -0.265 OA
ENDBRANCH  23  24
ENDBRANCH  21  23
ENDBRANCH   9  21
ENDBRANCH   8   9
BRANCH   8  27
HETATM   27  O8  UNL     1      15.574  -4.963  -2.855  1.00  0.00    -0.391 OA
ATOM     28  H8  UNL     1      16.183  -4.821  -3.570  1.00  0.00     0.210 HD
ENDBRANCH   8  27
ENDBRANCH   5   8
ENDBRANCH   1   3
BRANCH   1  29
HETATM   29  C14 UNL     1      17.869  -1.340  -0.381  1.00  0.00     0.153 C 
BRANCH  29  30
HETATM   30  O10 UNL     1      18.867  -1.250   0.469  1.00  0.00    -0.345 OA
ATOM     31  H10 UNL     1      19.246  -0.379   0.427  1.00  0.00     0.219 HD
ENDBRANCH  29  30
BRANCH  29  32
HETATM   32  C15 UNL     1      17.274  -0.212  -0.848  1.00  0.00     0.082 A 
HETATM   33  C16 UNL     1      17.296   1.171  -0.851  1.00  0.00     0.115 A 
HETATM   34  C21 UNL     1      16.180   2.062  -1.440  1.00  0.00     0.214 A 
HETATM   35  O12 UNL     1      15.928   3.289  -1.595  1.00  0.00    -0.287 OA
HETATM   36  C22 UNL     1      15.110   1.309  -1.965  1.00  0.00     0.281 A 
HETATM   37  O13 UNL     1      15.655   0.449  -1.671  1.00  0.00    -0.326 OA
HETATM   38  C25 UNL     1      14.097   0.166  -2.456  1.00  0.00     0.222 A 
HETATM   39  C23 UNL     1      15.958  -0.648  -1.493  1.00  0.00     0.124 A 
HETATM   40  C24 UNL     1      14.836  -1.059  -2.041  1.00  0.00     0.149 A 
HETATM   41  O15 UNL     1      13.225   0.826  -2.941  1.00  0.00    -0.287 OA
BRANCH  33  42
HETATM   42  N2  UNL     1      18.331   1.733  -0.102  1.00  0.00    -0.187 N 
ATOM     43  H2  UNL     1      18.351   1.584   0.907  1.00  0.00     0.184 HD
BRANCH  42  44
HETATM   44  C17 UNL     1      19.349   2.501  -0.702  1.00  0.00     0.679 C 
HETATM   45  N3  UNL     1      18.957   3.671  -1.109  1.00  0.00    -0.217 N 
HETATM   46  C18 UNL     1      19.528   4.796  -1.751  1.00  0.00     0.241 C 
ATOM     47  H3  UNL     1      17.967   3.820  -0.912  1.00  0.00     0.178 HD
HETATM   48  C19 UNL     1      20.753   4.520  -2.540  1.00  0.00     0.240 C 
HETATM   49  O11 UNL     1      20.874   5.155  -3.613  1.00  0.00    -0.271 OA
HETATM   50  N4  UNL     1      21.817   3.637  -2.258  1.00  0.00    -0.321 N 
HETATM   51  C20 UNL     1      21.773   2.563  -1.528  1.00  0.00     0.200 C 
ATOM     52  H4  UNL     1      22.720   3.866  -2.675  1.00  0.00     0.169 HD
HETATM   53  N5  UNL     1      20.659   1.996  -0.824  1.00  0.00    -0.188 N 
ATOM     54  H5  UNL     1      20.838   1.111  -0.349  1.00  0.00     0.185 HD
ENDBRANCH  42  44
ENDBRANCH  33  42
BRANCH  40  55
HETATM   55  O14 UNL     1      14.778  -2.403  -2.022  1.00  0.00    -0.355 OA
ATOM     56  H14 UNL     1      14.266  -2.696  -1.277  1.00  0.00     0.218 HD
ENDBRANCH  40  55
ENDBRANCH  29  32
ENDBRANCH   1  29
TORSDOF 20
ENDMDL
MODEL 3
REMARK VINA RESULT: -8.155030695      2.080      2.899
REMARK  20 active torsions:
REMARK  status: ('A' for Active; 'I' for Inactive)
REMARK    1  A    between atoms: O1_2  and  C2_3 
REMARK    2  A    between atoms: C2_3  and  C3_4 
REMARK    3  A    between atoms: C3_4  and  O2_5 
REMARK    4  A    between atoms: C3_4  and  C6_9 
REMARK    5  A    between atoms: O2_5  and  C4_6 
REMARK    6  A    between atoms: C6_9  and  O4_10 
REMARK    7  A    between atoms: C6_9  and  C7_12 
REMARK    8  A    between atoms: C7_12  and  C8_13 
REMARK    9  A    between atoms: C7_12  and  C11_19 
REMARK   10  A    between atoms: C8_13  and  O6_15 
REMARK   11  A    between atoms: O6_15  and  C9_16 
REMARK   12  A    between atoms: C11_19  and  O8_20 
REMARK   13  A    between atoms: C11_19  and  C12_22 
REMARK   14  A    between atoms: C13_24  and  N1_25 
REMARK   15  A    between atoms: N1_25  and  C14_27 
REMARK   16  A    between atoms: C14_27  and  O10_28 
REMARK   17  A    between atoms: C14_27  and  C15_30 
REMARK   18  A    between atoms: C16_31  and  N2_32 
REMARK   19  A    between atoms: N2_32  and  C17_34 
REMARK   20  A    between atoms: C24_50  and  O14_51 
ROOT
HETATM    1  N1  UNL     1      17.727  -2.524  -0.868  1.00  0.00    -0.343 N 
ATOM      2  H1  UNL     1      17.338  -2.800  -1.769  1.00  0.00     0.164 HD
ENDROOT
BRANCH   1   3
HETATM    3  C13 UNL     1      17.976  -3.546   0.101  1.00  0.00     0.233 C 
HETATM    4  O9  UNL     1      18.003  -4.849  -0.381  1.00  0.00    -0.348 OA
HETATM    5  C12 UNL     1      16.775  -5.355  -0.689  1.00  0.00     0.215 C 
HETATM    6  S1  UNL     1      15.597  -4.278   0.152  1.00  0.00    -0.130 SA
HETATM    7  C26 UNL     1      16.960  -3.514   1.206  1.00  0.00     0.130 C 
BRANCH   5   8
HETATM    8  C11 UNL     1      16.531  -5.734  -2.059  1.00  0.00     0.173 C 
BRANCH   8   9
HETATM    9  C7  UNL     1      15.321  -6.711  -2.195  1.00  0.00     0.149 C 
BRANCH   9  10
HETATM   10  C6  UNL     1      15.763  -7.892  -3.057  1.00  0.00     0.166 C 
BRANCH  10  11
HETATM   11  C3  UNL     1      16.581  -8.915  -2.328  1.00  0.00     0.185 C 
BRANCH  11  12
HETATM   12  C2  UNL     1      15.892 -10.198  -1.952  1.00  0.00     0.202 C 
BRANCH  12  13
HETATM   13  O1  UNL     1      15.983 -11.034  -3.116  1.00  0.00    -0.393 OA
HETATM   14  C1  UNL     1      15.728 -12.358  -2.729  1.00  0.00     0.201 C 
ENDBRANCH  12  13
ENDBRANCH  11  12
BRANCH  11  15
HETATM   15  O2  UNL     1      17.626  -9.285  -3.301  1.00  0.00    -0.311 OA
BRANCH  15  16
HETATM   16  C4  UNL     1      18.955  -9.203  -2.888  1.00  0.00     0.255 C 
HETATM   17  C5  UNL     1      19.752 -10.446  -2.870  1.00  0.00     0.126 C 
HETATM   18  O3  UNL     1      19.416  -8.090  -2.559  1.00  0.00    -0.266 OA
ENDBRANCH  15  16
ENDBRANCH  11  15
ENDBRANCH  10  11
BRANCH  10  19
HETATM   19  O4  UNL     1      16.708  -7.298  -3.996  1.00  0.00    -0.392 OA
ATOM     20  H4  UNL     1      16.831  -7.975  -4.651  1.00  0.00     0.210 HD
ENDBRANCH  10  19
ENDBRANCH   9  10
BRANCH   9  21
HETATM   21  C8  UNL     1      14.191  -6.034  -2.834  1.00  0.00     0.275 C 
HETATM   22  O5  UNL     1      13.433  -5.178  -2.253  1.00  0.00    -0.264 OA
BRANCH  21  23
HETATM   23  O6  UNL     1      13.840  -6.282  -4.172  1.00  0.00    -0.245 OA
BRANCH  23  24
HETATM   24  C9  UNL     1      12.500  -6.461  -4.524  1.00  0.00     0.262 C 
HETATM   25  C10 UNL     1      11.815  -7.700  -4.148  1.00  0.00     0.126 C 
HETATM   26  O7  UNL     1      11.886  -5.566  -5.161  1.00  0.00    -0.265 OA
ENDBRANCH  23  24
ENDBRANCH  21  23
ENDBRANCH   9  21
ENDBRANCH   8   9
BRANCH   8  27
HETATM   27  O8  UNL     1      16.309  -4.740  -2.990  1.00  0.00    -0.391 OA
ATOM     28  H8  UNL     1      17.112  -4.682  -3.495  1.00  0.00     0.210 HD
ENDBRANCH   8  27
ENDBRANCH   5   8
ENDBRANCH   1   3
BRANCH   1  29
HETATM   29  C14 UNL     1      17.986  -1.170  -0.648  1.00  0.00     0.153 C 
BRANCH  29  30
HETATM   30  O10 UNL     1      19.191  -1.026  -0.144  1.00  0.00    -0.345 OA
ATOM     31  H10 UNL     1      19.535  -0.172  -0.376  1.00  0.00     0.219 HD
ENDBRANCH  29  30
BRANCH  29  32
HETATM   32  C15 UNL     1      17.204  -0.079  -0.855  1.00  0.00     0.082 A 
HETATM   33  C16 UNL     1      17.068   1.281  -0.644  1.00  0.00     0.115 A 
HETATM   34  C21 UNL     1      15.783   2.087  -0.943  1.00  0.00     0.214 A 
HETATM   35  O12 UNL     1      15.373   3.279  -0.872  1.00  0.00    -0.287 OA
HETATM   36  C22 UNL     1      14.743   1.278  -1.442  1.00  0.00     0.281 A 
HETATM   37  O13 UNL     1      15.420   0.466  -1.356  1.00  0.00    -0.326 OA
HETATM   38  C25 UNL     1      13.808   0.088  -1.975  1.00  0.00     0.222 A 
HETATM   39  C23 UNL     1      15.868  -0.594  -1.391  1.00  0.00     0.124 A 
HETATM   40  C24 UNL     1      14.734  -1.072  -1.853  1.00  0.00     0.149 A 
HETATM   41  O15 UNL     1      12.806   0.685  -2.239  1.00  0.00    -0.287 OA
BRANCH  33  42
HETATM   42  N2  UNL     1      18.127   1.868   0.049  1.00  0.00    -0.187 N 
ATOM     43  H2  UNL     1      18.111   1.873   1.069  1.00  0.00     0.184 HD
BRANCH  42  44
HETATM   44  C17 UNL     1      19.219   2.453  -0.622  1.00  0.00     0.679 C 
HETATM   45  N3  UNL     1      18.962   3.621  -1.131  1.00  0.00    -0.217 N 
HETATM   46  C18 UNL     1      19.651   4.608  -1.875  1.00  0.00     0.241 C 
ATOM     47  H3  UNL     1      17.999   3.902  -0.945  1.00  0.00     0.178 HD
HETATM   48  C19 UNL     1      20.824   4.120  -2.641  1.00  0.00     0.240 C 
HETATM   49  O11 UNL     1      21.002   4.638  -3.768  1.00  0.00    -0.271 OA
HETATM   50  N4  UNL     1      21.781   3.145  -2.285  1.00  0.00    -0.321 N 
HETATM   51  C20 UNL     1      21.621   2.154  -1.460  1.00  0.00     0.200 C 
ATOM     52  H4  UNL     1      22.698   3.228  -2.725  1.00  0.00     0.169 HD
HETATM   53  N5  UNL     1      20.459   1.788  -0.703  1.00  0.00    -0.188 N 
ATOM     54  H5  UNL     1      20.540   0.934  -0.152  1.00  0.00     0.185 HD
ENDBRANCH  42  44
ENDBRANCH  33  42
BRANCH  40  55
HETATM   55  O14 UNL     1      14.834  -2.401  -2.037  1.00  0.00    -0.355 OA
ATOM     56  H14 UNL     1      13.973  -2.800  -2.004  1.00  0.00     0.218 HD
ENDBRANCH  40  55
ENDBRANCH  29  32
ENDBRANCH   1  29
TORSDOF 20
ENDMDL
MODEL 4
REMARK VINA RESULT: -8.132692656      1.683      4.009
REMARK  20 active torsions:
REMARK  status: ('A' for Active; 'I' for Inactive)
REMARK    1  A    between atoms: O1_2  and  C2_3 
REMARK    2  A    between atoms: C2_3  and  C3_4 
REMARK    3  A    between atoms: C3_4  and  O2_5 
REMARK    4  A    between atoms: C3_4  and  C6_9 
REMARK    5  A    between atoms: O2_5  and  C4_6 
REMARK    6  A    between atoms: C6_9  and  O4_10 
REMARK    7  A    between atoms: C6_9  and  C7_12 
REMARK    8  A    between atoms: C7_12  and  C8_13 
REMARK    9  A    between atoms: C7_12  and  C11_19 
REMARK   10  A    between atoms: C8_13  and  O6_15 
REMARK   11  A    between atoms: O6_15  and  C9_16 
REMARK   12  A    between atoms: C11_19  and  O8_20 
REMARK   13  A    between atoms: C11_19  and  C12_22 
REMARK   14  A    between atoms: C13_24  and  N1_25 
REMARK   15  A    between atoms: N1_25  and  C14_27 
REMARK   16  A    between atoms: C14_27  and  O10_28 
REMARK   17  A    between atoms: C14_27  and  C15_30 
REMARK   18  A    between atoms: C16_31  and  N2_32 
REMARK   19  A    between atoms: N2_32  and  C17_34 
REMARK   20  A    between atoms: C24_50  and  O14_51 
ROOT
HETATM    1  N1  UNL     1      17.737  -2.595  -0.531  1.00  0.00    -0.343 N 
ATOM      2  H1  UNL     1      17.702  -2.888  -1.508  1.00  0.00     0.164 HD
ENDROOT
BRANCH   1   3
HETATM    3  C13 UNL     1      17.588  -3.595   0.480  1.00  0.00     0.233 C 
HETATM    4  O9  UNL     1      18.211  -4.812   0.230  1.00  0.00    -0.348 OA
HETATM    5  C12 UNL     1      17.583  -5.577  -0.707  1.00  0.00     0.215 C 
HETATM    6  S1  UNL     1      15.921  -4.888  -0.843  1.00  0.00    -0.130 SA
HETATM    7  C26 UNL     1      16.141  -3.895   0.745  1.00  0.00     0.130 C 
BRANCH   5   8
HETATM    8  C11 UNL     1      18.313  -5.900  -1.908  1.00  0.00     0.173 C 
BRANCH   8   9
HETATM    9  C7  UNL     1      17.369  -6.318  -3.079  1.00  0.00     0.149 C 
BRANCH   9  10
HETATM   10  C6  UNL     1      17.529  -7.821  -3.300  1.00  0.00     0.166 C 
BRANCH  10  11
HETATM   11  C3  UNL     1      16.642  -8.669  -2.439  1.00  0.00     0.185 C 
BRANCH  11  12
HETATM   12  C2  UNL     1      15.191  -8.282  -2.364  1.00  0.00     0.202 C 
BRANCH  12  13
HETATM   13  O1  UNL     1      14.662  -8.532  -3.675  1.00  0.00    -0.393 OA
HETATM   14  C1  UNL     1      13.894  -7.423  -4.061  1.00  0.00     0.201 C 
ENDBRANCH  12  13
ENDBRANCH  11  12
BRANCH  11  15
HETATM   15  O2  UNL     1      16.678  -9.990  -3.094  1.00  0.00    -0.311 OA
BRANCH  15  16
HETATM   16  C4  UNL     1      17.201 -11.059  -2.369  1.00  0.00     0.255 C 
HETATM   17  C5  UNL     1      16.265 -12.101  -1.898  1.00  0.00     0.126 C 
HETATM   18  O3  UNL     1      18.431 -11.098  -2.156  1.00  0.00    -0.266 OA
ENDBRANCH  15  16
ENDBRANCH  11  15
ENDBRANCH  10  11
BRANCH  10  19
HETATM   19  O4  UNL     1      18.870  -8.101  -2.797  1.00  0.00    -0.392 OA
ATOM     20  H4  UNL     1      19.380  -8.248  -3.586  1.00  0.00     0.210 HD
ENDBRANCH  10  19
ENDBRANCH   9  10
BRANCH   9  21
HETATM   21  C8  UNL     1      17.730  -5.602  -4.303  1.00  0.00     0.275 C 
HETATM   22  O5  UNL     1      17.377  -4.400  -4.575  1.00  0.00    -0.264 OA
BRANCH  21  23
HETATM   23  O6  UNL     1      18.514  -6.199  -5.306  1.00  0.00    -0.245 OA
BRANCH  23  24
HETATM   24  C9  UNL     1      19.864  -5.861  -5.435  1.00  0.00     0.262 C 
HETATM   25  C10 UNL     1      20.293  -5.022  -6.557  1.00  0.00     0.126 C 
HETATM   26  O7  UNL     1      20.705  -6.274  -4.596  1.00  0.00    -0.265 OA
ENDBRANCH  23  24
ENDBRANCH  21  23
ENDBRANCH   9  21
ENDBRANCH   8   9
BRANCH   8  27
HETATM   27  O8  UNL     1      19.163  -4.950  -2.440  1.00  0.00    -0.391 OA
ATOM     28  H8  UNL     1      20.040  -5.260  -2.248  1.00  0.00     0.210 HD
ENDBRANCH   8  27
ENDBRANCH   5   8
ENDBRANCH   1   3
BRANCH   1  29
HETATM   29  C14 UNL     1      17.928  -1.239  -0.257  1.00  0.00     0.153 C 
BRANCH  29  30
HETATM   30  O10 UNL     1      18.842  -1.101   0.677  1.00  0.00    -0.345 OA
ATOM     31  H10 UNL     1      18.438  -1.170   1.534  1.00  0.00     0.219 HD
ENDBRANCH  29  30
BRANCH  29  32
HETATM   32  C15 UNL     1      17.321  -0.141  -0.777  1.00  0.00     0.082 A 
HETATM   33  C16 UNL     1      17.317   1.241  -0.830  1.00  0.00     0.115 A 
HETATM   34  C21 UNL     1      16.196   2.088  -1.475  1.00  0.00     0.214 A 
HETATM   35  O12 UNL     1      15.925   3.303  -1.680  1.00  0.00    -0.287 OA
HETATM   36  C22 UNL     1      15.153   1.295  -1.993  1.00  0.00     0.281 A 
HETATM   37  O13 UNL     1      15.708   0.457  -1.657  1.00  0.00    -0.326 OA
HETATM   38  C25 UNL     1      14.173   0.115  -2.463  1.00  0.00     0.222 A 
HETATM   39  C23 UNL     1      16.027  -0.626  -1.432  1.00  0.00     0.124 A 
HETATM   40  C24 UNL     1      14.925  -1.079  -1.988  1.00  0.00     0.149 A 
HETATM   41  O15 UNL     1      13.299   0.739  -2.990  1.00  0.00    -0.287 OA
BRANCH  33  42
HETATM   42  N2  UNL     1      18.324   1.851  -0.081  1.00  0.00    -0.187 N 
ATOM     43  H2  UNL     1      18.313   1.758   0.934  1.00  0.00     0.184 HD
BRANCH  42  44
HETATM   44  C17 UNL     1      19.356   2.591  -0.690  1.00  0.00     0.679 C 
HETATM   45  N3  UNL     1      18.987   3.763  -1.113  1.00  0.00    -0.217 N 
HETATM   46  C18 UNL     1      19.579   4.868  -1.769  1.00  0.00     0.241 C 
ATOM     47  H3  UNL     1      18.000   3.933  -0.919  1.00  0.00     0.178 HD
HETATM   48  C19 UNL     1      20.800   4.559  -2.553  1.00  0.00     0.240 C 
HETATM   49  O11 UNL     1      20.933   5.178  -3.635  1.00  0.00    -0.271 OA
HETATM   50  N4  UNL     1      21.847   3.660  -2.259  1.00  0.00    -0.321 N 
HETATM   51  C20 UNL     1      21.783   2.597  -1.514  1.00  0.00     0.200 C 
ATOM     52  H4  UNL     1      22.754   3.867  -2.678  1.00  0.00     0.169 HD
HETATM   53  N5  UNL     1      20.657   2.060  -0.804  1.00  0.00    -0.188 N 
ATOM     54  H5  UNL     1      20.820   1.179  -0.317  1.00  0.00     0.185 HD
ENDBRANCH  42  44
ENDBRANCH  33  42
BRANCH  40  55
HETATM   55  O14 UNL     1      14.893  -2.422  -1.920  1.00  0.00    -0.355 OA
ATOM     56  H14 UNL     1      14.009  -2.736  -2.073  1.00  0.00     0.218 HD
ENDBRANCH  40  55
ENDBRANCH  29  32
ENDBRANCH   1  29
TORSDOF 20
ENDMDL
MODEL 5
REMARK VINA RESULT: -8.074951188      0.641      1.405
REMARK  20 active torsions:
REMARK  status: ('A' for Active; 'I' for Inactive)
REMARK    1  A    between atoms: O1_2  and  C2_3 
REMARK    2  A    between atoms: C2_3  and  C3_4 
REMARK    3  A    between atoms: C3_4  and  O2_5 
REMARK    4  A    between atoms: C3_4  and  C6_9 
REMARK    5  A    between atoms: O2_5  and  C4_6 
REMARK    6  A    between atoms: C6_9  and  O4_10 
REMARK    7  A    between atoms: C6_9  and  C7_12 
REMARK    8  A    between atoms: C7_12  and  C8_13 
REMARK    9  A    between atoms: C7_12  and  C11_19 
REMARK   10  A    between atoms: C8_13  and  O6_15 
REMARK   11  A    between atoms: O6_15  and  C9_16 
REMARK   12  A    between atoms: C11_19  and  O8_20 
REMARK   13  A    between atoms: C11_19  and  C12_22 
REMARK   14  A    between atoms: C13_24  and  N1_25 
REMARK   15  A    between atoms: N1_25  and  C14_27 
REMARK   16  A    between atoms: C14_27  and  O10_28 
REMARK   17  A    between atoms: C14_27  and  C15_30 
REMARK   18  A    between atoms: C16_31  and  N2_32 
REMARK   19  A    between atoms: N2_32  and  C17_34 
REMARK   20  A    between atoms: C24_50  and  O14_51 
ROOT
HETATM    1  N1  UNL     1      17.625  -2.488  -1.081  1.00  0.00    -0.343 N 
ATOM      2  H1  UNL     1      16.754  -2.621  -1.595  1.00  0.00     0.164 HD
ENDROOT
BRANCH   1   3
HETATM    3  C13 UNL     1      18.427  -3.638  -0.799  1.00  0.00     0.233 C 
HETATM    4  O9  UNL     1      18.400  -4.648  -1.754  1.00  0.00    -0.348 OA
HETATM    5  C12 UNL     1      17.248  -5.376  -1.762  1.00  0.00     0.215 C 
HETATM    6  S1  UNL     1      16.461  -5.033  -0.175  1.00  0.00    -0.130 SA
HETATM    7  C26 UNL     1      18.043  -4.267   0.509  1.00  0.00     0.130 C 
BRANCH   5   8
HETATM    8  C11 UNL     1      16.451  -5.356  -2.964  1.00  0.00     0.173 C 
BRANCH   8   9
HETATM    9  C7  UNL     1      16.451  -6.735  -3.696  1.00  0.00     0.149 C 
BRANCH   9  10
HETATM   10  C6  UNL     1      16.551  -6.472  -5.197  1.00  0.00     0.166 C 
BRANCH  10  11
HETATM   11  C3  UNL     1      17.845  -6.908  -5.815  1.00  0.00     0.185 C 
BRANCH  11  12
HETATM   12  C2  UNL     1      17.829  -7.220  -7.285  1.00  0.00     0.202 C 
BRANCH  12  13
HETATM   13  O1  UNL     1      17.635  -5.957  -7.941  1.00  0.00    -0.393 OA
HETATM   14  C1  UNL     1      18.384  -5.956  -9.127  1.00  0.00     0.201 C 
ENDBRANCH  12  13
ENDBRANCH  11  12
BRANCH  11  15
HETATM   15  O2  UNL     1      18.721  -5.732  -5.658  1.00  0.00    -0.311 OA
BRANCH  15  16
HETATM   16  C4  UNL     1      20.020  -5.947  -5.200  1.00  0.00     0.255 C 
HETATM   17  C5  UNL     1      21.125  -5.836  -6.174  1.00  0.00     0.126 C 
HETATM   18  O3  UNL     1      20.196  -6.214  -3.993  1.00  0.00    -0.266 OA
ENDBRANCH  15  16
ENDBRANCH  11  15
ENDBRANCH  10  11
BRANCH  10  19
HETATM   19  O4  UNL     1      16.596  -5.016  -5.288  1.00  0.00    -0.392 OA
ATOM     20  H4  UNL     1      15.690  -4.755  -5.172  1.00  0.00     0.210 HD
ENDBRANCH  10  19
ENDBRANCH   9  10
BRANCH   9  21
HETATM   21  C8  UNL     1      15.215  -7.463  -3.407  1.00  0.00     0.275 C 
HETATM   22  O5  UNL     1      14.912  -7.961  -2.264  1.00  0.00    -0.264 OA
BRANCH  21  23
HETATM   23  O6  UNL     1      14.237  -7.681  -4.393  1.00  0.00    -0.245 OA
BRANCH  23  24
HETATM   24  C9  UNL     1      12.961  -7.129  -4.250  1.00  0.00     0.262 C 
HETATM   25  C10 UNL     1      11.789  -8.008  -4.260  1.00  0.00     0.126 C 
HETATM   26  O7  UNL     1      12.819  -5.886  -4.115  1.00  0.00    -0.265 OA
ENDBRANCH  23  24
ENDBRANCH  21  23
ENDBRANCH   9  21
ENDBRANCH   8   9
BRANCH   8  27
HETATM   27  O8  UNL     1      15.124  -4.988  -2.870  1.00  0.00    -0.391 OA
ATOM     28  H8  UNL     1      15.105  -4.262  -2.258  1.00  0.00     0.210 HD
ENDBRANCH   8  27
ENDBRANCH   5   8
ENDBRANCH   1   3
BRANCH   1  29
HETATM   29  C14 UNL     1      17.968  -1.191  -0.691  1.00  0.00     0.153 C 
BRANCH  29  30
HETATM   30  O10 UNL     1      19.168  -1.193  -0.156  1.00  0.00    -0.345 OA
ATOM     31  H10 UNL     1      19.824  -1.239  -0.842  1.00  0.00     0.219 HD
ENDBRANCH  29  30
BRANCH  29  32
HETATM   32  C15 UNL     1      17.263  -0.033  -0.771  1.00  0.00     0.082 A 
HETATM   33  C16 UNL     1      17.257   1.319  -0.478  1.00  0.00     0.115 A 
HETATM   34  C21 UNL     1      16.022   2.238  -0.621  1.00  0.00     0.214 A 
HETATM   35  O12 UNL     1      15.719   3.451  -0.452  1.00  0.00    -0.287 OA
HETATM   36  C22 UNL     1      14.882   1.542  -1.068  1.00  0.00     0.281 A 
HETATM   37  O13 UNL     1      15.494   0.677  -1.085  1.00  0.00    -0.326 OA
HETATM   38  C25 UNL     1      13.811   0.462  -1.579  1.00  0.00     0.222 A 
HETATM   39  C23 UNL     1      15.850  -0.410  -1.214  1.00  0.00     0.124 A 
HETATM   40  C24 UNL     1      14.645  -0.771  -1.599  1.00  0.00     0.149 A 
HETATM   41  O15 UNL     1      12.843   1.150  -1.723  1.00  0.00    -0.287 OA
BRANCH  33  42
HETATM   42  N2  UNL     1      18.415   1.780   0.149  1.00  0.00    -0.187 N 
ATOM     43  H2  UNL     1      18.583   1.534   1.124  1.00  0.00     0.184 HD
BRANCH  42  44
HETATM   44  C17 UNL     1      19.359   2.576  -0.529  1.00  0.00     0.679 C 
HETATM   45  N3  UNL     1      18.916   3.751  -0.864  1.00  0.00    -0.217 N 
HETATM   46  C18 UNL     1      19.407   4.899  -1.529  1.00  0.00     0.241 C 
ATOM     47  H3  UNL     1      17.949   3.882  -0.565  1.00  0.00     0.178 HD
HETATM   48  C19 UNL     1      20.550   4.660  -2.444  1.00  0.00     0.240 C 
HETATM   49  O11 UNL     1      20.556   5.324  -3.507  1.00  0.00    -0.271 OA
HETATM   50  N4  UNL     1      21.647   3.784  -2.294  1.00  0.00    -0.321 N 
HETATM   51  C20 UNL     1      21.688   2.691  -1.591  1.00  0.00     0.200 C 
ATOM     52  H4  UNL     1      22.501   4.036  -2.792  1.00  0.00     0.169 HD
HETATM   53  N5  UNL     1      20.656   2.092  -0.795  1.00  0.00    -0.188 N 
ATOM     54  H5  UNL     1      20.892   1.198  -0.364  1.00  0.00     0.185 HD
ENDBRANCH  42  44
ENDBRANCH  33  42
BRANCH  40  55
HETATM   55  O14 UNL     1      14.621  -2.091  -1.860  1.00  0.00    -0.355 OA
ATOM     56  H14 UNL     1      14.747  -2.242  -2.789  1.00  0.00     0.218 HD
ENDBRANCH  40  55
ENDBRANCH  29  32
ENDBRANCH   1  29
TORSDOF 20
ENDMDL
